AV-unprocessed.smi:1101|AV-procd|sdf|4765|dock8
  -GOLD-   22720 3303D 1   1.00000     0.00000
 Structure written by MMmdl.
 41 42  0  0  0  0  0  0  0  0  1 V2000
  151.1636  145.3063  160.1023 C   0  0  0  0  0  0  0  0  0  0  0  0
  151.6228  144.8740  158.7042 C   0  0  0  0  0  0  0  0  0  0  0  0
  152.3070  143.4979  158.6968 C   0  0  2  0  0  0  0  0  0  0  0  0
  151.2886  142.3436  158.8007 C   0  0  0  0  0  0  0  0  0  0  0  0
  152.0307  141.0744  158.8257 N   0  0  0  0  0  0  0  0  0  0  0  0
  152.0869  140.1475  157.8372 C   0  0  0  0  0  0  0  0  0  0  0  0
  152.9524  139.2731  157.7770 O   0  0  0  0  0  0  0  0  0  0  0  0
  151.0958  140.2315  156.9368 N   0  0  0  0  0  0  0  0  0  0  0  0
  150.9055  139.3232  155.8132 C   0  0  0  0  0  0  0  0  0  0  0  0
  150.5378  140.0913  154.5331 C   0  0  0  0  0  0  0  0  0  0  0  0
  149.0630  140.3822  154.4391 C   0  0  0  0  0  0  0  0  0  0  0  0
  147.9881  139.4483  154.4153 C   0  0  0  0  0  0  0  0  0  0  0  0
  146.8023  140.0302  154.3407 N   0  0  0  0  0  0  0  0  0  0  0  0
  147.0772  141.3504  154.3128 N   0  0  0  0  0  0  0  0  0  0  0  0
  145.9908  142.3031  154.2323 C   0  0  0  0  0  0  0  0  0  0  0  0
  148.4327  141.5928  154.3685 C   0  0  0  0  0  0  0  0  0  0  0  0
  152.9065  141.0280  159.9984 C   0  0  0  0  0  0  0  0  0  0  0  0
  153.9062  142.1930  159.8983 C   0  0  0  0  0  0  0  0  0  0  0  0
  153.1948  143.4259  159.8134 O   0  0  0  0  0  0  0  0  0  0  0  0
  150.6932  146.2891  160.0689 H   0  0  0  0  0  0  0  0  0  0  0  0
  152.0047  145.3633  160.7934 H   0  0  0  0  0  0  0  0  0  0  0  0
  150.4373  144.6057  160.5149 H   0  0  0  0  0  0  0  0  0  0  0  0
  150.7685  144.8640  158.0265 H   0  0  0  0  0  0  0  0  0  0  0  0
  152.3134  145.6236  158.3164 H   0  0  0  0  0  0  0  0  0  0  0  0
  152.8808  143.3927  157.7739 H   0  0  0  0  0  0  0  0  0  0  0  0
  150.7080  142.4359  159.7198 H   0  0  0  0  0  0  0  0  0  0  0  0
  150.5638  142.4153  157.9897 H   0  0  0  0  0  0  0  0  0  0  0  0
  150.4113  140.9647  157.0518 H   0  0  0  0  0  0  0  0  0  0  0  0
  151.8132  138.7396  155.6528 H   0  0  0  0  0  0  0  0  0  0  0  0
  150.1104  138.6174  156.0594 H   0  0  0  0  0  0  0  0  0  0  0  0
  151.1100  141.0193  154.5036 H   0  0  0  0  0  0  0  0  0  0  0  0
  150.8701  139.5166  153.6680 H   0  0  0  0  0  0  0  0  0  0  0  0
  148.0357  138.3700  154.4552 H   0  0  0  0  0  0  0  0  0  0  0  0
  146.3797  143.3202  154.2906 H   0  0  0  0  0  0  0  0  0  0  0  0
  145.2956  142.1420  155.0569 H   0  0  0  0  0  0  0  0  0  0  0  0
  145.4614  142.1790  153.2868 H   0  0  0  0  0  0  0  0  0  0  0  0
  148.8335  142.5959  154.3585 H   0  0  0  0  0  0  0  0  0  0  0  0
  152.3061  141.1235  160.9042 H   0  0  0  0  0  0  0  0  0  0  0  0
  153.4424  140.0824  160.0913 H   0  0  0  0  0  0  0  0  0  0  0  0
  154.5496  142.2161  160.7781 H   0  0  0  0  0  0  0  0  0  0  0  0
  154.5555  142.0763  159.0291 H   0  0  0  0  0  0  0  0  0  0  0  0
  1  2  1  0  0  0  0
  1 20  1  0  0  0  0
  1 21  1  0  0  0  0
  1 22  1  0  0  0  0
  2  3  1  0  0  0  0
  2 23  1  0  0  0  0
  2 24  1  0  0  0  0
  3 19  1  0  0  0  0
  3  4  1  0  0  0  0
  3 25  1  0  0  0  0
  4  5  1  0  0  0  0
  4 26  1  0  0  0  0
  4 27  1  0  0  0  0
  5  6  1  0  0  0  0
  5 17  1  0  0  0  0
  6  7  2  0  0  0  0
  6  8  1  0  0  0  0
  8  9  1  0  0  0  0
  8 28  1  0  0  0  0
  9 10  1  0  0  0  0
  9 29  1  0  0  0  0
  9 30  1  0  0  0  0
 10 11  1  0  0  0  0
 10 31  1  0  0  0  0
 10 32  1  0  0  0  0
 11 16  2  0  0  0  0
 11 12  1  0  0  0  0
 12 13  2  0  0  0  0
 12 33  1  0  0  0  0
 13 14  1  0  0  0  0
 14 15  1  0  0  0  0
 14 16  1  0  0  0  0
 15 34  1  0  0  0  0
 15 35  1  0  0  0  0
 15 36  1  0  0  0  0
 16 37  1  0  0  0  0
 17 18  1  0  0  0  0
 17 38  1  0  0  0  0
 17 39  1  0  0  0  0
 18 19  1  0  0  0  0
 18 40  1  0  0  0  0
 18 41  1  0  0  0  0
M  END
> <s_m_source_file>
AV-unprocessed.smi

> <i_m_source_file_index>
1101

> <i_lp_mmshare_version>
43012

> <i_f3d_flags>
0

> <s_epik_input>
W0NIM11bQ0gyXVtDQEBIXTFbQ0gyXU4oW0NIMl1bQ0gyXU8xKUMoPU8pW05IXVtDSDJdW0NIMl1jMltjSF1ubihbQ0gzXSlbY0hdMg==

> <s_epik_cmdline>
J2VwaWtfcHl0aG9uJywgJy1waCcsICc3LjAnLCAnLXRuJywgJzgnLCAnLW1hJywgJzIwMCcsICctbWV0YWxfYmluZGluZycsICctaW1hZScsICc8aW5maWxlLm1hZT4nLCAnLW9tYWUnLCAnPG91dGZpbGUubWFlPic=

> <r_lp_tautomer_probability>
1

> <r_epik_Ionization_Penalty>
0.000536373

> <r_epik_Ionization_Penalty_Charging>
0

> <r_epik_Ionization_Penalty_Neutral>
0.000536373

> <r_epik_State_Penalty>
-0

> <r_epik_Charging_Adjusted_Penalty>
0

> <i_epik_Tot_Q>
0

> <i_epik_Tot_abs_Q>
0

> <r_epik_Metal_State_Penalty>
-0

> <b_epik_Metal_Only>
0

> <s_lp_Force_Field>
OPLS_2005

> <r_lp_Energy>
25.5817

> <b_lp_Chiralities_Consistent>
1

> <s_lp_Variant>
AV-unprocessed.smi:1101-1

> <Gold.Version>
5.8.1

> <Gold.Id.Protein>
6NUR|6NUR_protein|mol2

> <Gold.PLP.Fitness>
47.0326

> <Gold.PLP.PLP>
-41.9113

> <Gold.PLP.part.hbond>
-1.0000

> <Gold.PLP.part.metal>
0.0000

> <Gold.PLP.part.buried>
-0.9363

> <Gold.PLP.part.nonpolar>
-39.9061

> <Gold.PLP.part.repulsive>
0.1906

> <Gold.PLP.ligand.clash>
0.0000

> <Gold.PLP.ligand.torsion>
0.4758

> <Gold.PLP.Chemscore.Hbond>
1.0000

> <Gold.PLP.Chemscore.CHOScore>
1.0000

> <Gold.PLP.Chemscore.Metal>
0.0000

> <Gold.Chemscore.Hbonds>
donor molecule, donor type, donor heavy atom, donor atom, acceptor molecule, acceptor atom, score
      P1  H  7997  8010       L1     7  1.00
      L1  C    16    37       P1  8028  1.00

> <Gold.PLP.Chemscore.Internal.Correction>
0.0728

> <Gold.Rescore>
     Score         DG    S(hbond)    S(metal)    S(lipo)     H(rot)  DE(clash)    DE(int)     intcor
     15.27     -17.67       0.95        0.00     110.13       1.51       1.83       0.56       ----

> <Gold.Chemscore.Fitness>
15.2747

> <Gold.Chemscore.DG>
-17.6706

> <Gold.Chemscore.ZeroCoef>
-5.4800

> <Gold.Chemscore.Hbond>
0.9466

> <Gold.Chemscore.Metal>
0.0000

> <Gold.Chemscore.Lipo>
110.1270

> <Gold.Chemscore.Internal_Hbond>
0.0000

> <Gold.Chemscore.DEClash>
1.8324

> <Gold.Chemscore.DEInternal>
0.5635

> <Gold.Chemscore.Rot>
1.5062

> <Gold.Chemscore.Internal.Correction>
   9.000000E+99

> <Gold.Chemscore.Hbonds>
donor molecule, donor type, donor heavy atom, donor atom, acceptor molecule, acceptor atom, score
      P1  H  7997  8010       L1     7  0.65

> <Gold.Chemscore.Hbond.Weighted>
-3.1615

> <Gold.Chemscore.Metal.Weighted>
-0.0000

> <Gold.Chemscore.Lipo.Weighted>
-12.8849

> <Gold.Chemscore.Internal_Hbond.Weighted>
0.0000

> <Gold.Chemscore.DEClash.Weighted>
1.8324

> <Gold.Chemscore.DEInternal.Weighted>
0.5635

> <Gold.Chemscore.Rot.Weighted>
3.8558

> <Gold.Chemscore.Internal.Correction.Weighted>
   9.000000E+99

> <Gold.Protein.RotatedTorsions>
[ 6907 6896 6895 6894 ] final -178.38 input  -60.11 | X-H torsion
[ 7974 7965 7964 7962 ] final -149.89 input  175.53 | X-H torsion
[ 8008 7997 7996 7995 ] final   39.87 input   59.86 | X-H torsion
[ 10167 10162 10161 10158 ] final   -9.63 input  -65.29 | X-H torsion
[ 10718 10713 10712 10709 ] final -153.51 input   66.30 | X-H torsion
[ 10763 10752 10751 10750 ] final   20.09 input  -60.55 | X-H torsion
[ 11005 11000 10999 10996 ] final   42.60 input  -57.11 | X-H torsion

> <Gold.Protein.ActiveResidues>
 VAL166  LYS551  ARG553  GLY616  TRP617  ASP618  TYR619  PRO620  LYS621  CYS622 
 ASP623  PHE694  ASN695  SER759  ASP760  ASP761  ALA762  ILE779  LEU786  VAL792 
 PHE793  MET794  SER795  GLU796  ALA797  LYS798  CYS799  TRP800  GLU811  SER814 

> <Gold.Protein.RotatedAtoms>
  151.6362  133.3329  159.3119 H   0  0  0  0  0  0  0  0  0  0  0  0  # atno 6907 bound_to 6896
  150.8031  134.7142  159.6630 H   0  0  0  0  0  0  0  0  0  0  0  0  # atno 6908 bound_to 6896
  152.4125  134.6104  160.0075 H   0  0  0  0  0  0  0  0  0  0  0  0  # atno 6909 bound_to 6896
  144.7940  140.5005  143.5753 H   0  0  0  0  0  0  0  0  0  0  0  0  # atno 7974 bound_to 7965
  155.2438  140.3347  155.4289 H   0  0  0  0  0  0  0  0  0  0  0  0  # atno 8008 bound_to 7997
  156.2244  140.1823  156.7443 H   0  0  0  0  0  0  0  0  0  0  0  0  # atno 8009 bound_to 7997
  154.5876  140.0643  156.9178 H   0  0  0  0  0  0  0  0  0  0  0  0  # atno 8010 bound_to 7997
  140.7092  143.5837  150.8966 H   0  0  0  0  0  0  0  0  0  0  0  0  # atno 10167 bound_to 10162
  156.4868  130.8329  151.2553 H   0  0  0  0  0  0  0  0  0  0  0  0  # atno 10718 bound_to 10713
  153.1106  135.6696  153.9506 H   0  0  0  0  0  0  0  0  0  0  0  0  # atno 10763 bound_to 10752
  153.9051  135.3031  155.3450 H   0  0  0  0  0  0  0  0  0  0  0  0  # atno 10764 bound_to 10752
  154.7526  135.5027  153.9394 H   0  0  0  0  0  0  0  0  0  0  0  0  # atno 10765 bound_to 10752
  140.1724  134.4205  155.8249 H   0  0  0  0  0  0  0  0  0  0  0  0  # atno 11005 bound_to 11000
  145.5720  139.1484  143.3283 LP  0  0  0  0  0  0  0  0  0  0  0  0  # atno 17320 bound_to 7965
  146.2202  140.5853  142.9020 LP  0  0  0  0  0  0  0  0  0  0  0  0  # atno 17321 bound_to 7965
  139.9562  143.6215  152.3015 LP  0  0  0  0  0  0  0  0  0  0  0  0  # atno 17342 bound_to 10162
  139.6752  144.7659  151.1710 LP  0  0  0  0  0  0  0  0  0  0  0  0  # atno 17343 bound_to 10162
  157.7478  131.0027  150.3009 LP  0  0  0  0  0  0  0  0  0  0  0  0  # atno 17370 bound_to 10713
  156.3466  130.3824  149.7364 LP  0  0  0  0  0  0  0  0  0  0  0  0  # atno 17371 bound_to 10713
  141.2218  133.6962  156.7787 LP  0  0  0  0  0  0  0  0  0  0  0  0  # atno 17394 bound_to 11000
  140.2362  134.8648  157.3527 LP  0  0  0  0  0  0  0  0  0  0  0  0  # atno 17395 bound_to 11000

$$$$
