#       Name:                AV-unprocessed.smi:512
#       Creating user name   scv26
#       Creation time:       Thu Mar 26 23:23:30 2020


#       File generated by GOLD software.
#

@<TRIPOS>MOLECULE
AV-unprocessed.smi:512
    56    58     1
SMALL
NO_CHARGES


@<TRIPOS>ATOM
      1 ****        -4.3092  -0.6400   0.4237 C.3            1 S1                 0.0000
      2 ****        -3.6750  -1.6413  -0.5443 C.3            1 S1                 0.0000
      3 ****        -2.2731  -1.6323  -0.3458 O.3            1 S1                 0.0000
      4 ****        -1.5819  -2.5209  -1.2087 C.3            1 S1                 0.0000
      5 ****        -0.0739  -2.3983  -0.9506 C.3            1 S1                 0.0000
      6 ****         0.3996  -1.0332  -1.1700 N.pl3          1 S1                 0.0000
      7 ****         0.5048  -0.0148  -0.2746 C.2            1 S1                 0.0000
      8 ****         0.1884  -0.1833   1.0726 N.pl3          1 S1                 0.0000
      9 ****         0.9065  -1.0526   2.0014 C.3            1 S1                 0.0000
     10 ****         1.7981  -0.2379   2.9571 C.3            1 S1                 0.0000
     11 ****         1.0046   0.7778   3.6897 N.4            1 S1                 1.0000
     12 ****         1.8244   1.5736   4.6277 C.3            1 S1                 0.0000
     13 ****         0.2080   1.6229   2.7692 C.3            1 S1                 0.0000
     14 ****        -0.6404   0.7487   1.8303 C.3            1 S1                 0.0000
     15 ****         0.8948   1.1513  -0.7962 N.2            1 S1                 0.0000
     16 ****         1.0755   0.8471  -2.1373 C.2            1 S1                 0.0000
     17 ****         0.7790  -0.4548  -2.3816 C.2            1 S1                 0.0000
     18 ****         0.8502  -1.0404  -3.7266 C.2            1 S1                 0.0000
     19 ****         0.5642  -2.2101  -3.9725 O.2            1 S1                 0.0000
     20 ****         1.2607  -0.1575  -4.6692 N.am           1 S1                 0.0000
     21 ****         1.5847   1.1596  -4.4902 C.2            1 S1                 0.0000
     22 ****         1.9510   1.8387  -5.4491 O.2            1 S1                 0.0000
     23 ****         1.4844   1.6739  -3.2224 N.am           1 S1                 0.0000
     24 ****         1.8124   3.0787  -2.9734 C.3            1 S1                 0.0000
     25 ****         1.3340  -0.5114  -5.6119 H              1 S1                 0.0000
     26 ****        -5.3924  -0.6132   0.3036 H              1 S1                 0.0000
     27 ****        -3.9277   0.3664   0.2500 H              1 S1                 0.0000
     28 ****        -4.0930  -0.9062   1.4585 H              1 S1                 0.0000
     29 ****        -4.0749  -2.6404  -0.3659 H              1 S1                 0.0000
     30 ****        -3.9120  -1.3667  -1.5732 H              1 S1                 0.0000
     31 ****        -1.9088  -3.5462  -1.0307 H              1 S1                 0.0000
     32 ****        -1.8039  -2.2819  -2.2499 H              1 S1                 0.0000
     33 ****         0.1443  -2.7130   0.0667 H              1 S1                 0.0000
     34 ****         0.4836  -3.0812  -1.5900 H              1 S1                 0.0000
     35 ****         0.1890  -1.6521   2.5633 H              1 S1                 0.0000
     36 ****         1.5353  -1.7491   1.4472 H              1 S1                 0.0000
     37 ****         2.2867  -0.9053   3.6680 H              1 S1                 0.0000
     38 ****         2.5880   0.2588   2.3908 H              1 S1                 0.0000
     39 ****         2.5737   2.1591   4.0934 H              1 S1                 0.0000
     40 ****         2.3386   0.9227   5.3355 H              1 S1                 0.0000
     41 ****         1.1981   2.2591   5.1996 H              1 S1                 0.0000
     42 ****        -0.4396   2.2843   3.3457 H              1 S1                 0.0000
     43 ****         0.8758   2.2579   2.1844 H              1 S1                 0.0000
     44 ****        -1.2025   1.3793   1.1404 H              1 S1                 0.0000
     45 ****        -1.3790   0.1843   2.4012 H              1 S1                 0.0000
     46 ****         2.8789   3.2503  -3.1239 H              1 S1                 0.0000
     47 ****         1.5681   3.3923  -1.9586 H              1 S1                 0.0000
     48 ****         1.2627   3.7323  -3.6522 H              1 S1                 0.0000
     49 ****         0.3383   0.2660   4.2505 H              1 S1                 0.0000
     50 ****        -2.0841  -1.8962   0.6000 LP             1 S1                 0.0000
     51 ****        -1.9350  -0.7051  -0.5071 LP             1 S1                 0.0000
     52 ****         1.0246   2.0282  -0.3335 LP             1 S1                 0.0000
     53 ****         0.2643  -2.8169  -3.2364 LP             1 S1                 0.0000
     54 ****         0.6314  -2.5551  -4.9087 LP             1 S1                 0.0000
     55 ****         2.0117   1.4277  -6.3588 LP             1 S1                 0.0000
     56 ****         2.1879   2.8014  -5.3186 LP             1 S1                 0.0000
@<TRIPOS>BOND
    1    1    2 1     
    2    1   26 1     
    3    1   27 1     
    4    1   28 1     
    5    2    3 1     
    6    2   29 1     
    7    2   30 1     
    8    3    4 1     
    9    4    5 1     
   10    4   31 1     
   11    4   32 1     
   12    5    6 1     
   13    5   33 1     
   14    5   34 1     
   15    6   17 1     
   16    6    7 1     
   17    7    8 1     
   18    7   15 2     
   19    8   14 1     
   20    8    9 1     
   21    9   10 1     
   22    9   35 1     
   23    9   36 1     
   24   10   11 1     
   25   10   37 1     
   26   10   38 1     
   27   11   12 1     
   28   11   13 1     
   29   11   49 1     
   30   12   39 1     
   31   12   40 1     
   32   12   41 1     
   33   13   14 1     
   34   13   42 1     
   35   13   43 1     
   36   14   44 1     
   37   14   45 1     
   38   15   16 1     
   39   16   23 1     
   40   16   17 2     
   41   17   18 1     
   42   18   19 2     
   43   18   20 1     
   44   20   25 1     
   45   20   21 1     
   46   21   22 2     
   47   21   23 1     
   48   23   24 1     
   49   24   46 1     
   50   24   47 1     
   51   24   48 1     
   52    3   50 1     
   53    3   51 1     
   54   15   52 1     
   55   19   53 1     
   56   19   54 1     
   57   22   55 1     
   58   22   56 1     
@<TRIPOS>SUBSTRUCTURE
      1 S1             1
@<TRIPOS>SET
LONE_PAIRS      STATIC     ATOMS    <user>   **** ""
7 50 51 52 53 54 55 56
DONOR_HYDROGENS      STATIC     ATOMS    <user>   **** ""
2 49 25
ATOM$BLUE        STATIC     ATOMS    COLORGROUP SYSTEM
7 50 51 52 53 54 55 56
ATOM$RED        STATIC     ATOMS    COLORGROUP SYSTEM
2 49 25
