#       Name:                AV-unprocessed.smi:2976
#       Creating user name   scv26
#       Creation time:       Fri Mar 27 16:28:06 2020


#       File generated by GOLD software.
#

@<TRIPOS>MOLECULE
AV-unprocessed.smi:2976
    45    46     1
SMALL
NO_CHARGES


@<TRIPOS>ATOM
      1 ****        -3.9011  -0.1249  -1.1078 C.3            1 S1                 0.0000
      2 ****        -3.1565  -1.4666  -0.9497 C.3            1 S1                 0.0000
      3 ****        -3.6043  -2.2190   0.3195 C.3            1 S1                 0.0000
      4 ****        -3.0618  -1.5680   1.6007 C.3            1 S1                 0.0000
      5 ****        -1.5320  -1.4539   1.5568 C.3            1 S1                 0.0000
      6 ****        -1.0432  -0.7018   0.3034 C.3            1 S1                 0.0000
      7 ****         0.4196  -0.7150   0.3001 N.am           1 S1                 0.0000
      8 ****         1.2199   0.3473   0.1190 C.2            1 S1                 0.0000
      9 ****         0.7990   1.4859  -0.0906 O.2            1 S1                 0.0000
     10 ****         2.7275   0.0574   0.1602 C.3            1 S1                 0.0000
     11 ****         3.5578   1.2654   0.2758 N.am           1 S1                 0.0000
     12 ****         4.0857   1.7025  -0.9265 N.2            1 S1                 0.0000
     13 ****         4.8206   2.7605  -0.9493 C.2            1 S1                 0.0000
     14 ****         5.1216   3.5152   0.2468 C.2            1 S1                 0.0000
     15 ****         6.1149   4.9267   0.1540 Cl             1 S1                 0.0000
     16 ****         4.6018   3.0765   1.4208 C.2            1 S1                 0.0000
     17 ****         4.9170   3.9278   2.8940 Cl             1 S1                 0.0000
     18 ****         3.7594   1.8739   1.4851 C.2            1 S1                 0.0000
     19 ****         3.2713   1.4422   2.5303 O.2            1 S1                 0.0000
     20 ****        -1.6093  -1.3434  -0.9929 C.3            1 S1                 0.0000
     21 ****        -1.1168  -0.6514  -2.2797 C.3            1 S1                 0.0000
     22 ****        -3.6174   0.5974  -0.3430 H              1 S1                 0.0000
     23 ****        -4.9796  -0.2688  -1.0376 H              1 S1                 0.0000
     24 ****        -3.7061   0.3285  -2.0795 H              1 S1                 0.0000
     25 ****        -3.4570  -2.0817  -1.7991 H              1 S1                 0.0000
     26 ****        -4.6924  -2.2763   0.3619 H              1 S1                 0.0000
     27 ****        -3.2515  -3.2499   0.2686 H              1 S1                 0.0000
     28 ****        -3.5021  -0.5797   1.7348 H              1 S1                 0.0000
     29 ****        -3.3622  -2.1552   2.4687 H              1 S1                 0.0000
     30 ****        -1.1776  -0.9491   2.4566 H              1 S1                 0.0000
     31 ****        -1.1004  -2.4557   1.5768 H              1 S1                 0.0000
     32 ****        -1.4015   0.3266   0.3717 H              1 S1                 0.0000
     33 ****         0.8601  -1.6102   0.4560 H              1 S1                 0.0000
     34 ****         2.9411  -0.6235   0.9865 H              1 S1                 0.0000
     35 ****         2.9892  -0.4925  -0.7456 H              1 S1                 0.0000
     36 ****         5.2555   3.1433  -1.8725 H              1 S1                 0.0000
     37 ****        -1.2247  -2.3639  -1.0344 H              1 S1                 0.0000
     38 ****        -1.3390   0.4159  -2.2712 H              1 S1                 0.0000
     39 ****        -1.5863  -1.0847  -3.1630 H              1 S1                 0.0000
     40 ****        -0.0395  -0.7592  -2.4047 H              1 S1                 0.0000
     41 ****        -0.1857   1.6551  -0.1329 LP             1 S1                 0.0000
     42 ****         1.4420   2.2411  -0.2185 LP             1 S1                 0.0000
     43 ****         3.8982   1.2010  -1.7711 LP             1 S1                 0.0000
     44 ****         2.7045   0.6186   2.5146 LP             1 S1                 0.0000
     45 ****         3.4419   1.9154   3.3946 LP             1 S1                 0.0000
@<TRIPOS>BOND
    1    1    2 1     
    2    1   22 1     
    3    1   23 1     
    4    1   24 1     
    5    2   20 1     
    6    2    3 1     
    7    2   25 1     
    8    3    4 1     
    9    3   26 1     
   10    3   27 1     
   11    4    5 1     
   12    4   28 1     
   13    4   29 1     
   14    5    6 1     
   15    5   30 1     
   16    5   31 1     
   17    6    7 1     
   18    6   20 1     
   19    6   32 1     
   20    7    8 am    
   21    7   33 1     
   22    8    9 2     
   23    8   10 1     
   24   10   11 1     
   25   10   34 1     
   26   10   35 1     
   27   11   18 am    
   28   11   12 1     
   29   12   13 2     
   30   13   14 1     
   31   13   36 1     
   32   14   15 1     
   33   14   16 2     
   34   16   17 1     
   35   16   18 1     
   36   18   19 2     
   37   20   21 1     
   38   20   37 1     
   39   21   38 1     
   40   21   39 1     
   41   21   40 1     
   42    9   41 1     
   43    9   42 1     
   44   12   43 1     
   45   19   44 1     
   46   19   45 1     
@<TRIPOS>SUBSTRUCTURE
      1 S1             1
@<TRIPOS>SET
LONE_PAIRS      STATIC     ATOMS    <user>   **** ""
5 41 42 43 44 45
DONOR_HYDROGENS      STATIC     ATOMS    <user>   **** ""
1 33
ATOM$BLUE        STATIC     ATOMS    COLORGROUP SYSTEM
5 41 42 43 44 45
ATOM$RED        STATIC     ATOMS    COLORGROUP SYSTEM
1 33
