AV-unprocessed.smi:804|AV-procd|sdf|3794|dock4
  -GOLD-   22720 1233D 1   1.00000     0.00000
 Structure written by MMmdl.
 39 40  0  0  0  0  0  0  0  0  1 V2000
  146.8749  139.7954  153.0626 C   0  0  0  0  0  0  0  0  0  0  0  0
  146.8012  140.3964  154.4773 C   0  0  0  0  0  0  0  0  0  0  0  0
  146.4532  141.8958  154.3671 C   0  0  0  0  0  0  0  0  0  0  0  0
  145.7236  139.6456  155.2871 C   0  0  0  0  0  0  0  0  0  0  0  0
  148.1240  140.2165  155.0852 N   0  0  0  0  0  0  0  0  0  0  0  0
  149.3007  140.7488  154.7069 C   0  0  0  0  0  0  0  0  0  0  0  0
  149.4371  141.5368  153.7707 O   0  0  0  0  0  0  0  0  0  0  0  0
  150.4739  140.3782  155.5668 C   0  0  0  0  0  0  0  0  0  0  0  0
  150.7957  141.2483  156.5513 N   0  0  0  0  0  0  0  0  0  0  0  0
  151.8343  140.9631  157.3464 C   0  0  0  0  0  0  0  0  0  0  0  0
  152.1396  141.8742  158.3663 N   0  0  0  0  0  0  0  0  0  0  0  0
  153.1804  141.5941  159.3593 C   0  0  0  0  0  0  0  0  0  0  0  0
  152.8809  142.3058  160.6896 C   0  0  0  0  0  0  0  0  0  0  0  0
  152.7017  143.6979  160.4636 O   0  0  0  0  0  0  0  0  0  0  0  0
  151.5956  143.9466  159.6057 C   0  0  0  0  0  0  0  0  0  0  0  0
  151.8482  143.3039  158.2318 C   0  0  0  0  0  0  0  0  0  0  0  0
  152.5991  139.8696  157.2390 N   0  0  0  0  0  0  0  0  0  0  0  0
  152.3080  138.9927  156.2560 C   0  0  0  0  0  0  0  0  0  0  0  0
  151.2360  139.1978  155.3663 C   0  0  0  0  0  0  0  0  0  0  0  0
  150.9380  138.0561  154.0996 Cl  0  0  0  0  0  0  0  0  0  0  0  0
  145.9223  139.8906  152.5401 H   0  0  0  0  0  0  0  0  0  0  0  0
  147.1265  138.7343  153.0928 H   0  0  0  0  0  0  0  0  0  0  0  0
  147.6318  140.2949  152.4564 H   0  0  0  0  0  0  0  0  0  0  0  0
  147.2261  142.4441  153.8272 H   0  0  0  0  0  0  0  0  0  0  0  0
  146.3391  142.3640  155.3448 H   0  0  0  0  0  0  0  0  0  0  0  0
  145.5139  142.0417  153.8328 H   0  0  0  0  0  0  0  0  0  0  0  0
  144.7542  139.6960  154.7904 H   0  0  0  0  0  0  0  0  0  0  0  0
  145.5922  140.0651  156.2845 H   0  0  0  0  0  0  0  0  0  0  0  0
  145.9770  138.5911  155.4036 H   0  0  0  0  0  0  0  0  0  0  0  0
  148.1521  139.6030  155.8866 H   0  0  0  0  0  0  0  0  0  0  0  0
  153.2756  140.5274  159.5616 H   0  0  0  0  0  0  0  0  0  0  0  0
  154.1396  141.9281  158.9626 H   0  0  0  0  0  0  0  0  0  0  0  0
  151.9937  141.8846  161.1651 H   0  0  0  0  0  0  0  0  0  0  0  0
  153.7097  142.1643  161.3833 H   0  0  0  0  0  0  0  0  0  0  0  0
  150.6779  143.5607  160.0528 H   0  0  0  0  0  0  0  0  0  0  0  0
  151.4673  145.0236  159.4971 H   0  0  0  0  0  0  0  0  0  0  0  0
  152.6933  143.7884  157.7416 H   0  0  0  0  0  0  0  0  0  0  0  0
  150.9732  143.4850  157.6082 H   0  0  0  0  0  0  0  0  0  0  0  0
  152.9424  138.1226  156.1750 H   0  0  0  0  0  0  0  0  0  0  0  0
  1  2  1  0  0  0  0
  1 21  1  0  0  0  0
  1 22  1  0  0  0  0
  1 23  1  0  0  0  0
  2  3  1  0  0  0  0
  2  4  1  0  0  0  0
  2  5  1  0  0  0  0
  3 24  1  0  0  0  0
  3 25  1  0  0  0  0
  3 26  1  0  0  0  0
  4 27  1  0  0  0  0
  4 28  1  0  0  0  0
  4 29  1  0  0  0  0
  5  6  1  0  0  0  0
  5 30  1  0  0  0  0
  6  7  2  0  0  0  0
  6  8  1  0  0  0  0
  8 19  1  0  0  0  0
  8  9  2  0  0  0  0
  9 10  1  0  0  0  0
 10 11  1  0  0  0  0
 10 17  2  0  0  0  0
 11 16  1  0  0  0  0
 11 12  1  0  0  0  0
 12 13  1  0  0  0  0
 12 31  1  0  0  0  0
 12 32  1  0  0  0  0
 13 14  1  0  0  0  0
 13 33  1  0  0  0  0
 13 34  1  0  0  0  0
 14 15  1  0  0  0  0
 15 16  1  0  0  0  0
 15 35  1  0  0  0  0
 15 36  1  0  0  0  0
 16 37  1  0  0  0  0
 16 38  1  0  0  0  0
 17 18  1  0  0  0  0
 18 19  2  0  0  0  0
 18 39  1  0  0  0  0
 19 20  1  0  0  0  0
M  END
> <s_m_source_file>
AV-unprocessed.smi

> <i_m_source_file_index>
804

> <i_lp_mmshare_version>
43012

> <i_f3d_flags>
0

> <s_epik_input>
W0NIM11DKFtDSDNdKShbQ0gzXSlbTkhdQyg9TyljMW5jKG5bY0hdYzFDbClOMltDSDJdW0NIMl1PW0NIMl1bQ0gyXTI=

> <s_epik_cmdline>
J2VwaWtfcHl0aG9uJywgJy1waCcsICc3LjAnLCAnLXRuJywgJzgnLCAnLW1hJywgJzIwMCcsICctbWV0YWxfYmluZGluZycsICctaW1hZScsICc8aW5maWxlLm1hZT4nLCAnLW9tYWUnLCAnPG91dGZpbGUubWFlPic=

> <r_lp_tautomer_probability>
1

> <r_epik_Ionization_Penalty>
1.02082e-05

> <r_epik_Ionization_Penalty_Charging>
0

> <r_epik_Ionization_Penalty_Neutral>
1.02082e-05

> <r_epik_State_Penalty>
-0

> <r_epik_Charging_Adjusted_Penalty>
0

> <i_epik_Tot_Q>
0

> <i_epik_Tot_abs_Q>
0

> <r_epik_Metal_State_Penalty>
0.00994437

> <b_epik_Metal_Only>
0

> <s_lp_Force_Field>
OPLS_2005

> <r_lp_Energy>
15.0003

> <b_lp_Chiralities_Consistent>
1

> <s_lp_Variant>
AV-unprocessed.smi:804-1

> <Gold.Version>
5.8.1

> <Gold.Id.Protein>
6NUR|6NUR_protein|mol2

> <Gold.PLP.Fitness>
40.0303

> <Gold.PLP.PLP>
-38.3145

> <Gold.PLP.part.hbond>
-2.9726

> <Gold.PLP.part.metal>
0.0000

> <Gold.PLP.part.buried>
-3.9469

> <Gold.PLP.part.nonpolar>
-33.1206

> <Gold.PLP.part.repulsive>
0.8548

> <Gold.PLP.ligand.clash>
0.0000

> <Gold.PLP.ligand.torsion>
1.6953

> <Gold.PLP.Chemscore.Hbond>
1.6574

> <Gold.PLP.Chemscore.CHOScore>
0.0000

> <Gold.PLP.Chemscore.Metal>
0.0000

> <Gold.Chemscore.Hbonds>
donor molecule, donor type, donor heavy atom, donor atom, acceptor molecule, acceptor atom, score
      P1  H  7989  7998       L1     7  0.04
      P1  H  7997  8010       L1    17  0.93
      P1  H  8011  8017       L1     7  0.74

> <Gold.PLP.Chemscore.Internal.Correction>
0.1342

> <Gold.Rescore>
     Score         DG    S(hbond)    S(metal)    S(lipo)     H(rot)  DE(clash)    DE(int)     intcor
     15.70     -17.55       1.24        0.00      89.57       1.00       0.18       1.68       ----

> <Gold.Chemscore.Fitness>
15.6955

> <Gold.Chemscore.DG>
-17.5543

> <Gold.Chemscore.ZeroCoef>
-5.4800

> <Gold.Chemscore.Hbond>
1.2438

> <Gold.Chemscore.Metal>
0.0000

> <Gold.Chemscore.Lipo>
89.5735

> <Gold.Chemscore.Internal_Hbond>
0.0000

> <Gold.Chemscore.DEClash>
0.1817

> <Gold.Chemscore.DEInternal>
1.6771

> <Gold.Chemscore.Rot>
1.0000

> <Gold.Chemscore.Internal.Correction>
   9.000000E+99

> <Gold.Chemscore.Hbonds>
donor molecule, donor type, donor heavy atom, donor atom, acceptor molecule, acceptor atom, score
      P1  H  7997  8010       L1    17  0.19
      P1  H  8011  8017       L1     7  0.74

> <Gold.Chemscore.Hbond.Weighted>
-4.1542

> <Gold.Chemscore.Metal.Weighted>
-0.0000

> <Gold.Chemscore.Lipo.Weighted>
-10.4801

> <Gold.Chemscore.Internal_Hbond.Weighted>
0.0000

> <Gold.Chemscore.DEClash.Weighted>
0.1817

> <Gold.Chemscore.DEInternal.Weighted>
1.6771

> <Gold.Chemscore.Rot.Weighted>
2.5600

> <Gold.Chemscore.Internal.Correction.Weighted>
   9.000000E+99

> <Gold.Protein.RotatedTorsions>
[ 6907 6896 6895 6894 ] final -150.66 input  -60.11 | X-H torsion
[ 7974 7965 7964 7962 ] final   18.51 input  175.53 | X-H torsion
[ 8008 7997 7996 7995 ] final   40.54 input   59.86 | X-H torsion
[ 10167 10162 10161 10158 ] final  127.44 input  -65.29 | X-H torsion
[ 10718 10713 10712 10709 ] final   84.86 input   66.30 | X-H torsion
[ 10763 10752 10751 10750 ] final   57.56 input  -60.55 | X-H torsion
[ 11005 11000 10999 10996 ] final   64.91 input  -57.11 | X-H torsion

> <Gold.Protein.ActiveResidues>
 VAL166  LYS551  ARG553  GLY616  TRP617  ASP618  TYR619  PRO620  LYS621  CYS622 
 ASP623  PHE694  ASN695  SER759  ASP760  ASP761  ALA762  ILE779  LEU786  VAL792 
 PHE793  MET794  SER795  GLU796  ALA797  LYS798  CYS799  TRP800  GLU811  SER814 

> <Gold.Protein.RotatedAtoms>
  151.2018  133.4606  159.2596 H   0  0  0  0  0  0  0  0  0  0  0  0  # atno 6907 bound_to 6896
  151.1062  135.0001  159.8482 H   0  0  0  0  0  0  0  0  0  0  0  0  # atno 6908 bound_to 6896
  152.5447  134.1941  159.8738 H   0  0  0  0  0  0  0  0  0  0  0  0  # atno 6909 bound_to 6896
  146.2182  139.8447  142.8634 H   0  0  0  0  0  0  0  0  0  0  0  0  # atno 7974 bound_to 7965
  155.2547  140.3355  155.4279 H   0  0  0  0  0  0  0  0  0  0  0  0  # atno 8008 bound_to 7997
  156.2200  140.1805  156.7542 H   0  0  0  0  0  0  0  0  0  0  0  0  # atno 8009 bound_to 7997
  154.5811  140.0653  156.9090 H   0  0  0  0  0  0  0  0  0  0  0  0  # atno 8010 bound_to 7997
  139.5578  144.6861  151.4131 H   0  0  0  0  0  0  0  0  0  0  0  0  # atno 10167 bound_to 10162
  157.6905  131.0151  150.2736 H   0  0  0  0  0  0  0  0  0  0  0  0  # atno 10718 bound_to 10713
  152.9852  135.5637  154.5410 H   0  0  0  0  0  0  0  0  0  0  0  0  # atno 10763 bound_to 10752
  154.4865  135.2791  155.1532 H   0  0  0  0  0  0  0  0  0  0  0  0  # atno 10764 bound_to 10752
  154.3020  135.6305  153.5482 H   0  0  0  0  0  0  0  0  0  0  0  0  # atno 10765 bound_to 10752
  139.9928  134.6564  156.0061 H   0  0  0  0  0  0  0  0  0  0  0  0  # atno 11005 bound_to 11000
  145.2863  141.0154  143.3689 LP  0  0  0  0  0  0  0  0  0  0  0  0  # atno 17320 bound_to 7965
  144.9111  139.4527  143.6586 LP  0  0  0  0  0  0  0  0  0  0  0  0  # atno 17321 bound_to 7965
  140.6854  143.7987  150.7178 LP  0  0  0  0  0  0  0  0  0  0  0  0  # atno 17342 bound_to 10162
  140.1453  143.4405  152.2167 LP  0  0  0  0  0  0  0  0  0  0  0  0  # atno 17343 bound_to 10162
  156.3295  130.3798  149.7504 LP  0  0  0  0  0  0  0  0  0  0  0  0  # atno 17370 bound_to 10713
  156.5048  130.8145  151.3146 LP  0  0  0  0  0  0  0  0  0  0  0  0  # atno 17371 bound_to 10713
  141.1580  133.6541  156.4225 LP  0  0  0  0  0  0  0  0  0  0  0  0  # atno 17394 bound_to 11000
  140.4875  134.6607  157.5197 LP  0  0  0  0  0  0  0  0  0  0  0  0  # atno 17395 bound_to 11000

$$$$
