AV-unprocessed.smi:129|AV-procd|sdf|1158|dock9
  -GOLD-   2262018293D 1   1.00000     0.00000
 Structure written by MMmdl.
 58 61  0  0  0  0  0  0  0  0  1 V2000
  153.9683  142.8917  164.0097 C   0  0  0  0  0  0  0  0  0  0  0  0
  153.9064  142.1241  162.8166 O   0  0  0  0  0  0  0  0  0  0  0  0
  153.1727  142.6173  161.7553 C   0  0  0  0  0  0  0  0  0  0  0  0
  152.4819  143.8558  161.7923 C   0  0  0  0  0  0  0  0  0  0  0  0
  151.7553  144.3048  160.6745 C   0  0  0  0  0  0  0  0  0  0  0  0
  151.7143  143.5287  159.5042 C   0  0  0  0  0  0  0  0  0  0  0  0
  152.3943  142.2990  159.4529 C   0  0  0  0  0  0  0  0  0  0  0  0
  153.1143  141.8304  160.5794 C   0  0  0  0  0  0  0  0  0  0  0  0
  153.8366  140.6036  160.5807 N   0  0  0  0  0  0  0  0  0  0  0  0
  153.9638  139.6877  159.6014 C   0  0  0  0  0  0  0  0  0  0  0  0
  153.4935  139.7918  158.4687 O   0  0  0  0  0  0  0  0  0  0  0  0
  154.7978  138.4918  159.9639 C   0  0  0  0  0  0  0  0  0  0  0  0
  155.4053  137.7233  158.9475 C   0  0  0  0  0  0  0  0  0  0  0  0
  156.1693  136.5864  159.2720 C   0  0  0  0  0  0  0  0  0  0  0  0
  156.3405  136.1966  160.6155 C   0  0  0  0  0  0  0  0  0  0  0  0
  157.1088  135.0253  160.8559 N   0  0  0  0  0  0  0  0  0  0  0  0
  157.6761  134.1875  159.9692 C   0  0  0  0  0  0  0  0  0  0  0  0
  157.5716  134.2878  158.7461 O   0  0  0  0  0  0  0  0  0  0  0  0
  158.4576  133.0190  160.5900 C   0  0  0  0  0  0  0  0  0  0  0  0
  157.6190  132.1179  161.4101 N   0  0  0  0  0  0  0  0  0  0  0  0
  157.3257  130.8254  160.9088 C   0  0  0  0  0  0  0  0  0  0  0  0
  157.7607  130.4493  159.8192 O   0  0  0  0  0  0  0  0  0  0  0  0
  156.4825  129.9956  161.7615 C   0  0  0  0  0  0  0  0  0  0  0  0
  156.1612  128.7506  161.3702 F   0  0  0  0  0  0  0  0  0  0  0  0
  156.0183  130.4573  162.9409 C   0  0  0  0  0  0  0  0  0  0  0  0
  156.3025  131.7266  163.4123 N   0  0  0  0  0  0  0  0  0  0  0  0
  155.7622  132.2334  164.7323 C   0  0  1  0  0  0  0  0  0  0  0  0
  154.8952  133.4870  164.5158 C   0  0  0  0  0  0  0  0  0  0  0  0
  153.6321  133.1534  165.2841 C   0  0  0  0  0  0  0  0  0  0  0  0
  153.5806  131.6379  165.1601 C   0  0  0  0  0  0  0  0  0  0  0  0
  154.9428  131.2601  165.3157 O   0  0  0  0  0  0  0  0  0  0  0  0
  157.1168  132.5889  162.6466 C   0  0  0  0  0  0  0  0  0  0  0  0
  157.3746  133.7268  163.0457 O   0  0  0  0  0  0  0  0  0  0  0  0
  155.7113  136.9494  161.6358 C   0  0  0  0  0  0  0  0  0  0  0  0
  154.9484  138.0880  161.3106 C   0  0  0  0  0  0  0  0  0  0  0  0
  154.5853  142.3692  164.7405 H   0  0  0  0  0  0  0  0  0  0  0  0
  152.9794  143.0261  164.4501 H   0  0  0  0  0  0  0  0  0  0  0  0
  154.4227  143.8676  163.8331 H   0  0  0  0  0  0  0  0  0  0  0  0
  152.4940  144.4848  162.6692 H   0  0  0  0  0  0  0  0  0  0  0  0
  151.2340  145.2499  160.7136 H   0  0  0  0  0  0  0  0  0  0  0  0
  151.1658  143.8791  158.6423 H   0  0  0  0  0  0  0  0  0  0  0  0
  152.3593  141.7413  158.5304 H   0  0  0  0  0  0  0  0  0  0  0  0
  154.2421  140.3486  161.4698 H   0  0  0  0  0  0  0  0  0  0  0  0
  155.2922  138.0018  157.9096 H   0  0  0  0  0  0  0  0  0  0  0  0
  156.6278  136.0135  158.4791 H   0  0  0  0  0  0  0  0  0  0  0  0
  157.1997  134.7628  161.8266 H   0  0  0  0  0  0  0  0  0  0  0  0
  158.9526  132.4606  159.7931 H   0  0  0  0  0  0  0  0  0  0  0  0
  159.2825  133.4323  161.1720 H   0  0  0  0  0  0  0  0  0  0  0  0
  155.4007  129.7924  163.5246 H   0  0  0  0  0  0  0  0  0  0  0  0
  156.6333  132.3964  165.3696 H   0  0  0  0  0  0  0  0  0  0  0  0
  155.4001  134.3813  164.8820 H   0  0  0  0  0  0  0  0  0  0  0  0
  154.6736  133.6135  163.4545 H   0  0  0  0  0  0  0  0  0  0  0  0
  153.7424  133.4389  166.3310 H   0  0  0  0  0  0  0  0  0  0  0  0
  152.7449  133.6454  164.8848 H   0  0  0  0  0  0  0  0  0  0  0  0
  152.9471  131.1732  165.9157 H   0  0  0  0  0  0  0  0  0  0  0  0
  153.2165  131.3419  164.1755 H   0  0  0  0  0  0  0  0  0  0  0  0
  155.7831  136.6638  162.6738 H   0  0  0  0  0  0  0  0  0  0  0  0
  154.4709  138.6397  162.1078 H   0  0  0  0  0  0  0  0  0  0  0  0
  1  2  1  0  0  0  0
  1 36  1  0  0  0  0
  1 37  1  0  0  0  0
  1 38  1  0  0  0  0
  2  3  1  0  0  0  0
  3  8  1  0  0  0  0
  3  4  2  0  0  0  0
  4  5  1  0  0  0  0
  4 39  1  0  0  0  0
  5  6  2  0  0  0  0
  5 40  1  0  0  0  0
  6  7  1  0  0  0  0
  6 41  1  0  0  0  0
  7  8  2  0  0  0  0
  7 42  1  0  0  0  0
  8  9  1  0  0  0  0
  9 10  1  0  0  0  0
  9 43  1  0  0  0  0
 10 11  2  0  0  0  0
 10 12  1  0  0  0  0
 12 35  1  0  0  0  0
 12 13  2  0  0  0  0
 13 14  1  0  0  0  0
 13 44  1  0  0  0  0
 14 15  2  0  0  0  0
 14 45  1  0  0  0  0
 15 16  1  0  0  0  0
 15 34  1  0  0  0  0
 16 17  1  0  0  0  0
 16 46  1  0  0  0  0
 17 18  2  0  0  0  0
 17 19  1  0  0  0  0
 19 20  1  0  0  0  0
 19 47  1  0  0  0  0
 19 48  1  0  0  0  0
 20 32  1  0  0  0  0
 20 21  1  0  0  0  0
 21 22  2  0  0  0  0
 21 23  1  0  0  0  0
 23 24  1  0  0  0  0
 23 25  2  0  0  0  0
 25 26  1  0  0  0  0
 25 49  1  0  0  0  0
 26 27  1  0  0  0  0
 26 32  1  0  0  0  0
 27 31  1  0  0  0  0
 27 28  1  0  0  0  0
 27 50  1  0  0  0  0
 28 29  1  0  0  0  0
 28 51  1  0  0  0  0
 28 52  1  0  0  0  0
 29 30  1  0  0  0  0
 29 53  1  0  0  0  0
 29 54  1  0  0  0  0
 30 31  1  0  0  0  0
 30 55  1  0  0  0  0
 30 56  1  0  0  0  0
 32 33  2  0  0  0  0
 34 35  2  0  0  0  0
 34 57  1  0  0  0  0
 35 58  1  0  0  0  0
M  END
> <s_m_source_file>
AV-unprocessed.smi

> <i_m_source_file_index>
129

> <i_lp_mmshare_version>
43012

> <i_f3d_flags>
0

> <s_epik_input>
W0NIM11PYzFbY0hdW2NIXVtjSF1bY0hdYzFbTkhdQyg9TyljMltjSF1bY0hdYyhbY0hdW2NIXTIpW05IXUMoPU8pW0NIMl1uM2MoPU8pYyhGKVtjSF1uKGMzPU8pW0NAQEhdNFtDSDJdW0NIMl1bQ0gyXU80

> <s_epik_cmdline>
J2VwaWtfcHl0aG9uJywgJy1waCcsICc3LjAnLCAnLXRuJywgJzgnLCAnLW1hJywgJzIwMCcsICctbWV0YWxfYmluZGluZycsICctaW1hZScsICc8aW5maWxlLm1hZT4nLCAnLW9tYWUnLCAnPG91dGZpbGUubWFlPic=

> <r_lp_tautomer_probability>
1

> <r_epik_Ionization_Penalty>
2.57954e-06

> <r_epik_Ionization_Penalty_Charging>
3.88729e-08

> <r_epik_Ionization_Penalty_Neutral>
2.54066e-06

> <r_epik_State_Penalty>
-0

> <r_epik_Charging_Adjusted_Penalty>
3.88729e-08

> <i_epik_Tot_Q>
0

> <i_epik_Tot_abs_Q>
0

> <r_epik_Metal_State_Penalty>
-0

> <b_epik_Metal_Only>
0

> <s_epik_Chemistry_Notes>
This compound contains an acetal/aminal-like group ( X-CH(R)-Y where X, Y are N, S, or O) that may be acid/base labile, releasing an aldehyde.

> <s_lp_Force_Field>
OPLS_2005

> <r_lp_Energy>
51.387

> <b_lp_Chiralities_Consistent>
1

> <s_lp_Variant>
AV-unprocessed.smi:129-2

> <Gold.Version>
5.8.1

> <Gold.Id.Protein>
6NUR|6NUR_protein|mol2

> <Gold.PLP.Fitness>
43.2891

> <Gold.PLP.PLP>
-41.1593

> <Gold.PLP.part.hbond>
-1.8172

> <Gold.PLP.part.metal>
0.0000

> <Gold.PLP.part.buried>
-5.6381

> <Gold.PLP.part.nonpolar>
-33.3471

> <Gold.PLP.part.repulsive>
0.0768

> <Gold.PLP.ligand.clash>
0.2381

> <Gold.PLP.ligand.torsion>
0.3525

> <Gold.PLP.Chemscore.Hbond>
1.0000

> <Gold.PLP.Chemscore.CHOScore>
0.0000

> <Gold.PLP.Chemscore.Metal>
0.0000

> <Gold.Chemscore.Hbonds>
donor molecule, donor type, donor heavy atom, donor atom, acceptor molecule, acceptor atom, score
      P1  H  7997  8010       L1    11  1.00

> <Gold.PLP.Chemscore.Internal.Correction>
0.0730

> <Gold.Rescore>
     Score         DG    S(hbond)    S(metal)    S(lipo)     H(rot)  DE(clash)    DE(int)     intcor
     12.11     -18.85       1.00        0.00     128.23       1.94       0.01       6.73       ----

> <Gold.Chemscore.Fitness>
12.1091

> <Gold.Chemscore.DG>
-18.8460

> <Gold.Chemscore.ZeroCoef>
-5.4800

> <Gold.Chemscore.Hbond>
0.9993

> <Gold.Chemscore.Metal>
0.0000

> <Gold.Chemscore.Lipo>
128.2278

> <Gold.Chemscore.Internal_Hbond>
0.0000

> <Gold.Chemscore.DEClash>
0.0106

> <Gold.Chemscore.DEInternal>
6.7263

> <Gold.Chemscore.Rot>
1.9430

> <Gold.Chemscore.Internal.Correction>
   9.000000E+99

> <Gold.Chemscore.Hbonds>
donor molecule, donor type, donor heavy atom, donor atom, acceptor molecule, acceptor atom, score
      P1  H  7997  8010       L1    11  0.88

> <Gold.Chemscore.Hbond.Weighted>
-3.3375

> <Gold.Chemscore.Metal.Weighted>
-0.0000

> <Gold.Chemscore.Lipo.Weighted>
-15.0027

> <Gold.Chemscore.Internal_Hbond.Weighted>
0.0000

> <Gold.Chemscore.DEClash.Weighted>
0.0106

> <Gold.Chemscore.DEInternal.Weighted>
6.7263

> <Gold.Chemscore.Rot.Weighted>
4.9741

> <Gold.Chemscore.Internal.Correction.Weighted>
   9.000000E+99

> <Gold.Protein.RotatedTorsions>
[ 6907 6896 6895 6894 ] final   64.71 input  -60.11 | X-H torsion
[ 7974 7965 7964 7962 ] final  148.87 input  175.53 | X-H torsion
[ 8008 7997 7996 7995 ] final   23.23 input   59.86 | X-H torsion
[ 10167 10162 10161 10158 ] final  -48.26 input  -65.29 | X-H torsion
[ 10718 10713 10712 10709 ] final  129.58 input   66.30 | X-H torsion
[ 10763 10752 10751 10750 ] final  154.44 input  -60.55 | X-H torsion
[ 11005 11000 10999 10996 ] final -111.88 input  -57.11 | X-H torsion

> <Gold.Protein.ActiveResidues>
 VAL166  LYS551  ARG553  GLY616  TRP617  ASP618  TYR619  PRO620  LYS621  CYS622 
 ASP623  PHE694  ASN695  SER759  ASP760  ASP761  ALA762  ILE779  LEU786  VAL792 
 PHE793  MET794  SER795  GLU796  ALA797  LYS798  CYS799  TRP800  GLU811  SER814 

> <Gold.Protein.RotatedAtoms>
  152.4352  134.5699  159.9918 H   0  0  0  0  0  0  0  0  0  0  0  0  # atno 6907 bound_to 6896
  151.5812  133.3372  159.3016 H   0  0  0  0  0  0  0  0  0  0  0  0  # atno 6908 bound_to 6896
  150.8250  134.7511  159.6869 H   0  0  0  0  0  0  0  0  0  0  0  0  # atno 6909 bound_to 6896
  144.8481  139.6209  143.5986 H   0  0  0  0  0  0  0  0  0  0  0  0  # atno 7974 bound_to 7965
  154.9777  140.3098  155.4960 H   0  0  0  0  0  0  0  0  0  0  0  0  # atno 8008 bound_to 7997
  156.2957  140.2272  156.4814 H   0  0  0  0  0  0  0  0  0  0  0  0  # atno 8009 bound_to 7997
  154.7818  140.0445  157.1121 H   0  0  0  0  0  0  0  0  0  0  0  0  # atno 8010 bound_to 7997
  140.6739  143.2748  151.4045 H   0  0  0  0  0  0  0  0  0  0  0  0  # atno 10167 bound_to 10162
  157.5141  131.1097  150.9250 H   0  0  0  0  0  0  0  0  0  0  0  0  # atno 10718 bound_to 10713
  154.1524  135.2814  155.3132 H   0  0  0  0  0  0  0  0  0  0  0  0  # atno 10763 bound_to 10752
  154.6208  135.5468  153.7576 H   0  0  0  0  0  0  0  0  0  0  0  0  # atno 10764 bound_to 10752
  153.0217  135.6438  154.1668 H   0  0  0  0  0  0  0  0  0  0  0  0  # atno 10765 bound_to 10752
  141.0708  133.9383  157.2489 H   0  0  0  0  0  0  0  0  0  0  0  0  # atno 11005 bound_to 11000
  146.2761  139.6757  142.9262 LP  0  0  0  0  0  0  0  0  0  0  0  0  # atno 17320 bound_to 7965
  145.4556  141.0430  143.2780 LP  0  0  0  0  0  0  0  0  0  0  0  0  # atno 17321 bound_to 7965
  139.6021  144.1274  152.2209 LP  0  0  0  0  0  0  0  0  0  0  0  0  # atno 17342 bound_to 10162
  140.0662  144.5817  150.7226 LP  0  0  0  0  0  0  0  0  0  0  0  0  # atno 17343 bound_to 10162
  156.9881  130.5552  149.5301 LP  0  0  0  0  0  0  0  0  0  0  0  0  # atno 17370 bound_to 10713
  156.0309  130.5400  150.8530 LP  0  0  0  0  0  0  0  0  0  0  0  0  # atno 17371 bound_to 10713
  139.9521  135.0173  156.9025 LP  0  0  0  0  0  0  0  0  0  0  0  0  # atno 17394 bound_to 11000
  140.5677  134.0473  155.7420 LP  0  0  0  0  0  0  0  0  0  0  0  0  # atno 17395 bound_to 11000

$$$$
