AV-unprocessed.smi:699|AV-procd|sdf|3404|dock6
  -GOLD-   22720 0383D 1   1.00000     0.00000
 Structure written by MMmdl.
 35 36  0  0  0  0  0  0  0  0  2 V2000
  148.5700  144.7182  159.1130 N   0  0  0  0  0  0  0  0  0  0  0  0
  149.5623  144.6650  160.0050 C   0  0  0  0  0  0  0  0  0  0  0  0
  149.3624  144.3678  161.1818 O   0  0  0  0  0  0  0  0  0  0  0  0
  150.9829  144.9835  159.4897 C   0  0  1  0  0  0  0  0  0  0  0  0
  152.0082  144.9082  160.6307 C   0  0  0  0  0  0  0  0  0  0  0  0
  152.4701  143.4496  160.6793 C   0  0  0  0  0  0  0  0  0  0  0  0
  152.3321  142.9189  159.2468 C   0  0  0  0  0  0  0  0  0  0  0  0
  151.5504  143.9805  158.4489 C   0  0  1  0  0  0  0  0  0  0  0  0
  150.5479  143.3587  157.5811 N   0  0  0  0  0  0  0  0  0  0  0  0
  150.7297  142.2276  156.8847 C   0  0  0  0  0  0  0  0  0  0  0  0
  151.7724  141.5745  156.9146 O   0  0  0  0  0  0  0  0  0  0  0  0
  149.6332  141.9130  156.1736 N   0  0  0  0  0  0  0  0  0  0  0  0
  149.4261  140.8150  155.2944 C   0  0  0  0  0  0  0  0  0  0  0  0
  148.2147  140.7825  154.5683 C   0  0  0  0  0  0  0  0  0  0  0  0
  147.9676  139.7223  153.6725 C   0  0  0  0  0  0  0  0  0  0  0  0
  148.8918  138.7519  153.5083 N   0  3  0  0  0  0  0  0  0  0  0  0
  150.0692  138.7463  154.1692 C   0  0  0  0  0  0  0  0  0  0  0  0
  150.3725  139.7806  155.0777 C   0  0  0  0  0  0  0  0  0  0  0  0
  147.6229  144.5258  159.4051 H   0  0  0  0  0  0  0  0  0  0  0  0
  148.7676  144.9583  158.1522 H   0  0  0  0  0  0  0  0  0  0  0  0
  150.9739  145.9886  159.0644 H   0  0  0  0  0  0  0  0  0  0  0  0
  152.8563  145.5515  160.3930 H   0  0  0  0  0  0  0  0  0  0  0  0
  151.6129  145.2437  161.5909 H   0  0  0  0  0  0  0  0  0  0  0  0
  153.4886  143.3573  161.0576 H   0  0  0  0  0  0  0  0  0  0  0  0
  151.8241  142.8779  161.3467 H   0  0  0  0  0  0  0  0  0  0  0  0
  153.3110  142.7523  158.7963 H   0  0  0  0  0  0  0  0  0  0  0  0
  151.8185  141.9564  159.2588 H   0  0  0  0  0  0  0  0  0  0  0  0
  152.2673  144.5151  157.8227 H   0  0  0  0  0  0  0  0  0  0  0  0
  149.6619  143.8359  157.4990 H   0  0  0  0  0  0  0  0  0  0  0  0
  148.8317  142.5105  156.3143 H   0  0  0  0  0  0  0  0  0  0  0  0
  147.4755  141.5601  154.6976 H   0  0  0  0  0  0  0  0  0  0  0  0
  147.0660  139.6235  153.0856 H   0  0  0  0  0  0  0  0  0  0  0  0
  150.7326  137.9227  153.9488 H   0  0  0  0  0  0  0  0  0  0  0  0
  151.3281  139.7638  155.5784 H   0  0  0  0  0  0  0  0  0  0  0  0
  148.6948  137.9939  152.8541 H   0  0  0  0  0  0  0  0  0  0  0  0
  1  2  1  0  0  0  0
  1 19  1  0  0  0  0
  1 20  1  0  0  0  0
  2  3  2  0  0  0  0
  2  4  1  0  0  0  0
  4  8  1  0  0  0  0
  4  5  1  0  0  0  0
  4 21  1  0  0  0  0
  5  6  1  0  0  0  0
  5 22  1  0  0  0  0
  5 23  1  0  0  0  0
  6  7  1  0  0  0  0
  6 24  1  0  0  0  0
  6 25  1  0  0  0  0
  7  8  1  0  0  0  0
  7 26  1  0  0  0  0
  7 27  1  0  0  0  0
  8  9  1  0  0  0  0
  8 28  1  0  0  0  0
  9 10  1  0  0  0  0
  9 29  1  0  0  0  0
 10 11  2  0  0  0  0
 10 12  1  0  0  0  0
 12 13  1  0  0  0  0
 12 30  1  0  0  0  0
 13 18  1  0  0  0  0
 13 14  2  0  0  0  0
 14 15  1  0  0  0  0
 14 31  1  0  0  0  0
 15 16  2  0  0  0  0
 15 32  1  0  0  0  0
 16 17  1  0  0  0  0
 16 35  1  0  0  0  0
 17 18  2  0  0  0  0
 17 33  1  0  0  0  0
 18 34  1  0  0  0  0
M  CHG  1  16   1
M  END
> <s_m_source_file>
AV-unprocessed.smi

> <i_m_source_file_index>
699

> <i_lp_mmshare_version>
43012

> <i_f3d_flags>
0

> <s_epik_input>
W05IMl1DKD1PKVtDQEBIXTFbQ0gyXVtDSDJdW0NIMl1bQ0BIXTFbTkhdQyg9TylbTkhdYzJbY0hdW2NIXW5bY0hdW2NIXTI=

> <s_epik_cmdline>
J2VwaWtfcHl0aG9uJywgJy1waCcsICc3LjAnLCAnLXRuJywgJzgnLCAnLW1hJywgJzIwMCcsICctbWV0YWxfYmluZGluZycsICctaW1hZScsICc8aW5maWxlLm1hZT4nLCAnLW9tYWUnLCAnPG91dGZpbGUubWFlPic=

> <r_epik_Ionization_Penalty>
1.0332

> <r_epik_Ionization_Penalty_Charging>
1.03318

> <r_epik_Ionization_Penalty_Neutral>
1.91967e-05

> <r_epik_State_Penalty>
1.08452

> <r_epik_Charging_Adjusted_Penalty>
2.11769

> <i_epik_Tot_Q>
1

> <i_epik_Tot_abs_Q>
1

> <r_epik_Metal_State_Penalty>
1.18144

> <b_epik_Metal_Only>
0

> <s_lp_Force_Field>
OPLS_2005

> <r_lp_Energy>
24.8241

> <b_lp_Chiralities_Consistent>
1

> <s_lp_Variant>
AV-unprocessed.smi:699-6

> <Gold.Version>
5.8.1

> <Gold.Id.Protein>
6NUR|6NUR_protein|mol2

> <Gold.PLP.Fitness>
47.4046

> <Gold.PLP.PLP>
-37.7720

> <Gold.PLP.part.hbond>
-5.1930

> <Gold.PLP.part.metal>
0.0000

> <Gold.PLP.part.buried>
-0.4257

> <Gold.PLP.part.nonpolar>
-32.7472

> <Gold.PLP.part.repulsive>
0.5801

> <Gold.PLP.ligand.clash>
0.0164

> <Gold.PLP.ligand.torsion>
0.3098

> <Gold.PLP.Chemscore.Hbond>
3.4177

> <Gold.PLP.Chemscore.CHOScore>
0.0000

> <Gold.PLP.Chemscore.Metal>
0.0000

> <Gold.Chemscore.Hbonds>
donor molecule, donor type, donor heavy atom, donor atom, acceptor molecule, acceptor atom, score
      L1  H     1    20       P1  8029  0.51
      L1  H     9    29       P1  8028  0.34
      L1  H    12    30       P1  8028  0.14
      L1  H    16    35       P1  7948  2.00
      P1  H  6933  6944       L1     3  0.30

> <Gold.PLP.Chemscore.Internal.Correction>
0.0155

> <Gold.Rescore>
     Score         DG    S(hbond)    S(metal)    S(lipo)     H(rot)  DE(clash)    DE(int)     intcor
     15.89     -21.90       2.97        0.00      88.41       1.50       1.41       4.61       ----

> <Gold.Chemscore.Fitness>
15.8863

> <Gold.Chemscore.DG>
-21.9046

> <Gold.Chemscore.ZeroCoef>
-5.4800

> <Gold.Chemscore.Hbond>
2.9732

> <Gold.Chemscore.Metal>
0.0000

> <Gold.Chemscore.Lipo>
88.4072

> <Gold.Chemscore.Internal_Hbond>
0.0000

> <Gold.Chemscore.DEClash>
1.4116

> <Gold.Chemscore.DEInternal>
4.6067

> <Gold.Chemscore.Rot>
1.5038

> <Gold.Chemscore.Internal.Correction>
   9.000000E+99

> <Gold.Chemscore.Hbonds>
donor molecule, donor type, donor heavy atom, donor atom, acceptor molecule, acceptor atom, score
      L1  H     1    20       P1  8029  0.29
      L1  H     9    29       P1  8028  0.19
      L1  H    12    30       P1  8028  0.14
      L1  H    16    35       P1  7948  0.94
      P1  H  6933  6944       L1     3  0.26

> <Gold.Chemscore.Hbond.Weighted>
-9.9306

> <Gold.Chemscore.Metal.Weighted>
-0.0000

> <Gold.Chemscore.Lipo.Weighted>
-10.3436

> <Gold.Chemscore.Internal_Hbond.Weighted>
0.0000

> <Gold.Chemscore.DEClash.Weighted>
1.4116

> <Gold.Chemscore.DEInternal.Weighted>
4.6067

> <Gold.Chemscore.Rot.Weighted>
3.8496

> <Gold.Chemscore.Internal.Correction.Weighted>
   9.000000E+99

> <Gold.Protein.RotatedTorsions>
[ 6907 6896 6895 6894 ] final  -30.70 input  -60.11 | X-H torsion
[ 7974 7965 7964 7962 ] final  149.25 input  175.53 | X-H torsion
[ 8008 7997 7996 7995 ] final -157.24 input   59.86 | X-H torsion
[ 10167 10162 10161 10158 ] final   46.72 input  -65.29 | X-H torsion
[ 10718 10713 10712 10709 ] final  115.74 input   66.30 | X-H torsion
[ 10763 10752 10751 10750 ] final  -26.80 input  -60.55 | X-H torsion
[ 11005 11000 10999 10996 ] final   94.84 input  -57.11 | X-H torsion

> <Gold.Protein.ActiveResidues>
 VAL166  LYS551  ARG553  GLY616  TRP617  ASP618  TYR619  PRO620  LYS621  CYS622 
 ASP623  PHE694  ASN695  SER759  ASP760  ASP761  ALA762  ILE779  LEU786  VAL792 
 PHE793  MET794  SER795  GLU796  ALA797  LYS798  CYS799  TRP800  GLU811  SER814 

> <Gold.Protein.RotatedAtoms>
  151.1020  134.9978  159.8453 H   0  0  0  0  0  0  0  0  0  0  0  0  # atno 6907 bound_to 6896
  152.5437  134.1938  159.8695 H   0  0  0  0  0  0  0  0  0  0  0  0  # atno 6908 bound_to 6896
  151.1982  133.4582  159.2629 H   0  0  0  0  0  0  0  0  0  0  0  0  # atno 6909 bound_to 6896
  144.8452  139.6256  143.5998 H   0  0  0  0  0  0  0  0  0  0  0  0  # atno 7974 bound_to 7965
  155.7293  140.0800  157.2296 H   0  0  0  0  0  0  0  0  0  0  0  0  # atno 8008 bound_to 7997
  154.4035  140.1598  156.2546 H   0  0  0  0  0  0  0  0  0  0  0  0  # atno 8009 bound_to 7997
  155.9123  140.3403  155.6111 H   0  0  0  0  0  0  0  0  0  0  0  0  # atno 8010 bound_to 7997
  140.3110  144.2820  150.6200 H   0  0  0  0  0  0  0  0  0  0  0  0  # atno 10167 bound_to 10162
  157.6203  131.1016  150.7373 H   0  0  0  0  0  0  0  0  0  0  0  0  # atno 10718 bound_to 10713
  153.7217  135.6944  153.5011 H   0  0  0  0  0  0  0  0  0  0  0  0  # atno 10763 bound_to 10752
  153.2199  135.4373  155.0476 H   0  0  0  0  0  0  0  0  0  0  0  0  # atno 10764 bound_to 10752
  154.8282  135.3458  154.6751 H   0  0  0  0  0  0  0  0  0  0  0  0  # atno 10765 bound_to 10752
  139.8794  134.8867  156.3923 H   0  0  0  0  0  0  0  0  0  0  0  0  # atno 11005 bound_to 11000
  146.2738  139.6701  142.9277 LP  0  0  0  0  0  0  0  0  0  0  0  0  # atno 17320 bound_to 7965
  145.4611  141.0433  143.2751 LP  0  0  0  0  0  0  0  0  0  0  0  0  # atno 17321 bound_to 7965
  140.5568  143.2198  151.7834 LP  0  0  0  0  0  0  0  0  0  0  0  0  # atno 17342 bound_to 10162
  139.4894  144.4403  151.9772 LP  0  0  0  0  0  0  0  0  0  0  0  0  # atno 17343 bound_to 10162
  156.7732  130.4835  149.5414 LP  0  0  0  0  0  0  0  0  0  0  0  0  # atno 17370 bound_to 10713
  156.1345  130.6202  151.0381 LP  0  0  0  0  0  0  0  0  0  0  0  0  # atno 17371 bound_to 10713
  140.9324  133.7570  156.0042 LP  0  0  0  0  0  0  0  0  0  0  0  0  # atno 17394 bound_to 11000
  140.8315  134.3173  157.5347 LP  0  0  0  0  0  0  0  0  0  0  0  0  # atno 17395 bound_to 11000

$$$$
