AV-unprocessed.smi:623|AV-procd|sdf|3096|dock6
  -GOLD-   22720 0 13D 1   1.00000     0.00000
 Structure written by MMmdl.
 44 46  0  0  0  0  0  0  0  0  2 V2000
  144.3717  134.6587  161.7451 C   0  0  0  0  0  0  0  0  0  0  0  0
  145.6529  135.4333  161.3256 C   0  0  0  0  0  0  0  0  0  0  0  0
  145.1424  136.6321  160.4775 C   0  0  0  0  0  0  0  0  0  0  0  0
  146.5671  135.8324  162.5015 C   0  0  1  0  0  0  0  0  0  0  0  0
  147.0093  134.4744  163.0923 C   0  0  0  0  0  0  0  0  0  0  0  0
  147.1369  133.5876  161.8358 C   0  0  0  0  0  0  0  0  0  0  0  0
  146.7750  134.5659  160.6882 C   0  0  1  0  0  0  0  0  0  0  0  0
  146.4026  133.8344  159.3827 C   0  0  0  0  0  0  0  0  0  0  0  0
  147.9985  135.5272  160.5822 C   0  0  1  0  0  0  0  0  0  0  0  0
  148.0342  136.2533  159.3186 N   0  0  0  0  0  0  0  0  0  0  0  0
  149.1232  136.7184  158.6882 C   0  0  0  0  0  0  0  0  0  0  0  0
  150.2652  136.5564  159.1168 O   0  0  0  0  0  0  0  0  0  0  0  0
  148.9050  137.5063  157.3839 C   0  0  0  0  0  0  0  0  0  0  0  0
  150.1525  137.9165  156.7108 N   0  0  0  0  0  0  0  0  0  0  0  0
  150.3953  139.2957  156.5847 C   0  0  0  0  0  0  0  0  0  0  0  0
  151.4783  139.7713  155.9413 C   0  0  0  0  0  0  0  0  0  0  0  0
  152.4151  138.8137  155.3670 C   0  0  0  0  0  0  0  0  0  0  0  0
  153.4074  139.2295  154.7725 O   0  0  0  0  0  0  0  0  0  0  0  0
  152.1381  137.4856  155.5187 N   0  5  0  0  0  0  0  0  0  0  0  0
  151.0299  137.0166  156.1715 C   0  0  0  0  0  0  0  0  0  0  0  0
  150.7879  135.8142  156.2782 O   0  0  0  0  0  0  0  0  0  0  0  0
  147.8092  136.4436  161.8134 C   0  0  0  0  0  0  0  0  0  0  0  0
  143.7090  135.2997  162.3271 H   0  0  0  0  0  0  0  0  0  0  0  0
  144.5437  133.7699  162.3475 H   0  0  0  0  0  0  0  0  0  0  0  0
  143.8123  134.3341  160.8671 H   0  0  0  0  0  0  0  0  0  0  0  0
  145.9036  137.3439  160.1712 H   0  0  0  0  0  0  0  0  0  0  0  0
  144.4051  137.2097  161.0357 H   0  0  0  0  0  0  0  0  0  0  0  0
  144.6533  136.2847  159.5671 H   0  0  0  0  0  0  0  0  0  0  0  0
  146.1102  136.4962  163.2361 H   0  0  0  0  0  0  0  0  0  0  0  0
  147.9496  134.5483  163.6398 H   0  0  0  0  0  0  0  0  0  0  0  0
  146.2668  134.0765  163.7845 H   0  0  0  0  0  0  0  0  0  0  0  0
  148.1376  133.1665  161.7307 H   0  0  0  0  0  0  0  0  0  0  0  0
  146.4506  132.7417  161.8810 H   0  0  0  0  0  0  0  0  0  0  0  0
  147.2540  133.2759  158.9929 H   0  0  0  0  0  0  0  0  0  0  0  0
  146.0789  134.5266  158.6051 H   0  0  0  0  0  0  0  0  0  0  0  0
  145.5906  133.1257  159.5437 H   0  0  0  0  0  0  0  0  0  0  0  0
  148.9325  134.9676  160.6615 H   0  0  0  0  0  0  0  0  0  0  0  0
  147.1408  136.4289  158.8809 H   0  0  0  0  0  0  0  0  0  0  0  0
  148.3070  136.8913  156.7101 H   0  0  0  0  0  0  0  0  0  0  0  0
  148.2820  138.3750  157.6021 H   0  0  0  0  0  0  0  0  0  0  0  0
  149.6469  139.9357  157.0285 H   0  0  0  0  0  0  0  0  0  0  0  0
  151.6462  140.8340  155.8473 H   0  0  0  0  0  0  0  0  0  0  0  0
  147.6380  137.4835  161.5342 H   0  0  0  0  0  0  0  0  0  0  0  0
  148.6860  136.4362  162.4619 H   0  0  0  0  0  0  0  0  0  0  0  0
  1  2  1  0  0  0  0
  1 23  1  0  0  0  0
  1 24  1  0  0  0  0
  1 25  1  0  0  0  0
  2  7  1  0  0  0  0
  2  3  1  0  0  0  0
  2  4  1  0  0  0  0
  3 26  1  0  0  0  0
  3 27  1  0  0  0  0
  3 28  1  0  0  0  0
  4 22  1  0  0  0  0
  4  5  1  0  0  0  0
  4 29  1  0  0  0  0
  5  6  1  0  0  0  0
  5 30  1  0  0  0  0
  5 31  1  0  0  0  0
  6  7  1  0  0  0  0
  6 32  1  0  0  0  0
  6 33  1  0  0  0  0
  7  8  1  0  0  0  0
  7  9  1  0  0  0  0
  8 34  1  0  0  0  0
  8 35  1  0  0  0  0
  8 36  1  0  0  0  0
  9 10  1  0  0  0  0
  9 22  1  0  0  0  0
  9 37  1  0  0  0  0
 10 11  1  0  0  0  0
 10 38  1  0  0  0  0
 11 12  2  0  0  0  0
 11 13  1  0  0  0  0
 13 14  1  0  0  0  0
 13 39  1  0  0  0  0
 13 40  1  0  0  0  0
 14 20  1  0  0  0  0
 14 15  1  0  0  0  0
 15 16  2  0  0  0  0
 15 41  1  0  0  0  0
 16 17  1  0  0  0  0
 16 42  1  0  0  0  0
 17 18  2  0  0  0  0
 17 19  1  0  0  0  0
 19 20  1  0  0  0  0
 20 21  2  0  0  0  0
 22 43  1  0  0  0  0
 22 44  1  0  0  0  0
M  CHG  1  19  -1
M  END
> <s_m_source_file>
AV-unprocessed.smi

> <i_m_source_file_index>
623

> <i_lp_mmshare_version>
43012

> <i_f3d_flags>
0

> <s_epik_input>
W0NIM11bQ0BdMTJDKFtDSDNdKShbQ0gzXSlbQ0BIXShbQ0gyXVtDSDJdMSlbQ0gyXVtDQEBIXTJbTkhdQyg9TylbQ0gyXW4zW2NIXVtjSF1jKD1PKVtuSF1jMz1P

> <s_epik_cmdline>
J2VwaWtfcHl0aG9uJywgJy1waCcsICc3LjAnLCAnLXRuJywgJzgnLCAnLW1hJywgJzIwMCcsICctbWV0YWxfYmluZGluZycsICctaW1hZScsICc8aW5maWxlLm1hZT4nLCAnLW9tYWUnLCAnPG91dGZpbGUubWFlPic=

> <r_lp_tautomer_probability>
0.999537

> <r_epik_Ionization_Penalty>
3.12624

> <r_epik_Ionization_Penalty_Charging>
3.01273e-08

> <r_epik_Ionization_Penalty_Neutral>
3.12624

> <r_epik_State_Penalty>
3.12534

> <r_epik_Charging_Adjusted_Penalty>
3.12534

> <i_epik_Tot_Q>
-1

> <i_epik_Tot_abs_Q>
1

> <r_epik_Metal_State_Penalty>
0.46406

> <b_epik_Metal_Only>
1

> <s_lp_Force_Field>
OPLS_2005

> <r_lp_Energy>
63.0449

> <b_lp_Chiralities_Consistent>
1

> <s_lp_Variant>
AV-unprocessed.smi:623-6

> <Gold.Version>
5.8.1

> <Gold.Id.Protein>
6NUR|6NUR_protein|mol2

> <Gold.PLP.Fitness>
40.2450

> <Gold.PLP.PLP>
-30.3411

> <Gold.PLP.part.hbond>
-3.0000

> <Gold.PLP.part.metal>
0.0000

> <Gold.PLP.part.buried>
-2.8829

> <Gold.PLP.part.nonpolar>
-26.4051

> <Gold.PLP.part.repulsive>
0.1699

> <Gold.PLP.ligand.clash>
0.0000

> <Gold.PLP.ligand.torsion>
0.4068

> <Gold.PLP.Chemscore.Hbond>
3.5680

> <Gold.PLP.Chemscore.CHOScore>
0.0000

> <Gold.PLP.Chemscore.Metal>
0.0000

> <Gold.Chemscore.Hbonds>
donor molecule, donor type, donor heavy atom, donor atom, acceptor molecule, acceptor atom, score
      P1  H  6896  6907       L1    12  1.00
      P1  H  7997  8010       L1    18  1.00
      P1  H 10752 10764       L1    19  0.79

> <Gold.PLP.Chemscore.Internal.Correction>
0.0134

> <Gold.Rescore>
     Score         DG    S(hbond)    S(metal)    S(lipo)     H(rot)  DE(clash)    DE(int)     intcor
     17.30     -19.26       2.60        0.00      79.40       1.63       1.48       0.48       ----

> <Gold.Chemscore.Fitness>
17.3039

> <Gold.Chemscore.DG>
-19.2597

> <Gold.Chemscore.ZeroCoef>
-5.4800

> <Gold.Chemscore.Hbond>
2.5952

> <Gold.Chemscore.Metal>
0.0000

> <Gold.Chemscore.Lipo>
79.4016

> <Gold.Chemscore.Internal_Hbond>
0.0000

> <Gold.Chemscore.DEClash>
1.4754

> <Gold.Chemscore.DEInternal>
0.4805

> <Gold.Chemscore.Rot>
1.6322

> <Gold.Chemscore.Internal.Correction>
   9.000000E+99

> <Gold.Chemscore.Hbonds>
donor molecule, donor type, donor heavy atom, donor atom, acceptor molecule, acceptor atom, score
      P1  H  6896  6907       L1    12  1.00
      P1  H  7997  8010       L1    18  0.97
      P1  H 10752 10764       L1    19  0.10

> <Gold.Chemscore.Hbond.Weighted>
-8.6681

> <Gold.Chemscore.Metal.Weighted>
-0.0000

> <Gold.Chemscore.Lipo.Weighted>
-9.2900

> <Gold.Chemscore.Internal_Hbond.Weighted>
0.0000

> <Gold.Chemscore.DEClash.Weighted>
1.4754

> <Gold.Chemscore.DEInternal.Weighted>
0.4805

> <Gold.Chemscore.Rot.Weighted>
4.1783

> <Gold.Chemscore.Internal.Correction.Weighted>
   9.000000E+99

> <Gold.Protein.RotatedTorsions>
[ 6907 6896 6895 6894 ] final  -33.72 input  -60.11 | X-H torsion
[ 7974 7965 7964 7962 ] final  -54.39 input  175.53 | X-H torsion
[ 8008 7997 7996 7995 ] final  125.39 input   59.86 | X-H torsion
[ 10167 10162 10161 10158 ] final -133.77 input  -65.29 | X-H torsion
[ 10718 10713 10712 10709 ] final  -52.07 input   66.30 | X-H torsion
[ 10763 10752 10751 10750 ] final  -43.68 input  -60.55 | X-H torsion
[ 11005 11000 10999 10996 ] final   -5.88 input  -57.11 | X-H torsion

> <Gold.Protein.ActiveResidues>
 VAL166  LYS551  ARG553  GLY616  TRP617  ASP618  TYR619  PRO620  LYS621  CYS622 
 ASP623  PHE694  ASN695  SER759  ASP760  ASP761  ALA762  ILE779  LEU786  VAL792 
 PHE793  MET794  SER795  GLU796  ALA797  LYS798  CYS799  TRP800  GLU811  SER814 

> <Gold.Protein.RotatedAtoms>
  151.0619  134.9742  159.8264 H   0  0  0  0  0  0  0  0  0  0  0  0  # atno 6907 bound_to 6896
  152.5396  134.2407  159.8871 H   0  0  0  0  0  0  0  0  0  0  0  0  # atno 6908 bound_to 6896
  151.2427  133.4348  159.2641 H   0  0  0  0  0  0  0  0  0  0  0  0  # atno 6909 bound_to 6896
  145.8862  140.8107  142.9815 H   0  0  0  0  0  0  0  0  0  0  0  0  # atno 7974 bound_to 7965
  156.2832  140.2717  156.1941 H   0  0  0  0  0  0  0  0  0  0  0  0  # atno 8008 bound_to 7997
  155.0428  140.0386  157.2534 H   0  0  0  0  0  0  0  0  0  0  0  0  # atno 8009 bound_to 7997
  154.7260  140.2697  155.6504 H   0  0  0  0  0  0  0  0  0  0  0  0  # atno 8010 bound_to 7997
  139.8949  143.6678  152.2605 H   0  0  0  0  0  0  0  0  0  0  0  0  # atno 10167 bound_to 10162
  156.1653  130.4149  149.9729 H   0  0  0  0  0  0  0  0  0  0  0  0  # atno 10718 bound_to 10713
  153.9996  135.6695  153.4758 H   0  0  0  0  0  0  0  0  0  0  0  0  # atno 10763 bound_to 10752
  153.0668  135.4996  154.8214 H   0  0  0  0  0  0  0  0  0  0  0  0  # atno 10764 bound_to 10752
  154.7061  135.3088  154.9231 H   0  0  0  0  0  0  0  0  0  0  0  0  # atno 10765 bound_to 10752
  140.6959  133.9031  155.8650 H   0  0  0  0  0  0  0  0  0  0  0  0  # atno 11005 bound_to 11000
  144.6728  140.1459  143.7433 LP  0  0  0  0  0  0  0  0  0  0  0  0  # atno 17320 bound_to 7965
  145.8964  139.2405  143.1519 LP  0  0  0  0  0  0  0  0  0  0  0  0  # atno 17321 bound_to 7965
  139.7077  144.7625  151.1165 LP  0  0  0  0  0  0  0  0  0  0  0  0  # atno 17342 bound_to 10162
  140.7719  143.5373  150.9354 LP  0  0  0  0  0  0  0  0  0  0  0  0  # atno 17343 bound_to 10162
  156.7546  130.9128  151.3639 LP  0  0  0  0  0  0  0  0  0  0  0  0  # atno 17370 bound_to 10713
  157.6763  130.9098  150.0159 LP  0  0  0  0  0  0  0  0  0  0  0  0  # atno 17371 bound_to 10713
  141.0203  134.0898  157.4127 LP  0  0  0  0  0  0  0  0  0  0  0  0  # atno 17394 bound_to 11000
  139.8910  135.0116  156.6768 LP  0  0  0  0  0  0  0  0  0  0  0  0  # atno 17395 bound_to 11000

$$$$
