AV-unprocessed.smi:1696|AV-procd|sdf|6800|dock2
  -GOLD-   22720 7563D 1   1.00000     0.00000
 Structure written by MMmdl.
 39 40  0  0  0  0  0  0  0  0  2 V2000
  143.2981  134.7283  152.3134 C   0  0  0  0  0  0  0  0  0  0  0  0
  143.9313  135.4851  151.1361 C   0  0  0  0  0  0  0  0  0  0  0  0
  145.3947  135.9453  151.3773 C   0  0  1  0  0  0  0  0  0  0  0  0
  145.5083  136.9611  152.5495 C   0  0  0  0  0  0  0  0  0  0  0  0
  146.8859  137.3458  152.8554 N   0  0  0  0  0  0  0  0  0  0  0  0
  147.2562  138.3945  153.6039 C   0  0  0  0  0  0  0  0  0  0  0  0
  146.4577  139.1568  154.1464 O   0  0  0  0  0  0  0  0  0  0  0  0
  148.5935  138.4909  153.6765 N   0  0  0  0  0  0  0  0  0  0  0  0
  149.3562  139.4525  154.3844 C   0  0  0  0  0  0  0  0  0  0  0  0
  148.7859  140.6140  154.7096 N   0  0  0  0  0  0  0  0  0  0  0  0
  149.6624  141.4523  155.4049 C   0  0  0  0  0  0  0  0  0  0  0  0
  150.9081  140.9089  155.5992 C   0  0  0  0  0  0  0  0  0  0  0  0
  151.0350  139.3119  154.9123 S   0  0  0  0  0  0  0  0  0  0  0  0
  146.3109  134.7829  151.5891 N   0  3  0  0  0  0  0  0  0  0  0  0
  146.3539  134.2229  152.9580 C   0  0  0  0  0  0  0  0  0  0  0  0
  146.9338  132.8230  152.7956 C   0  0  0  0  0  0  0  0  0  0  0  0
  146.3311  132.3508  151.4784 C   0  0  0  0  0  0  0  0  0  0  0  0
  146.0936  133.6345  150.6712 C   0  0  0  0  0  0  0  0  0  0  0  0
  142.2408  134.5429  152.1233 H   0  0  0  0  0  0  0  0  0  0  0  0
  143.3705  135.3031  153.2369 H   0  0  0  0  0  0  0  0  0  0  0  0
  143.7659  133.7591  152.4810 H   0  0  0  0  0  0  0  0  0  0  0  0
  143.8675  134.8793  150.2321 H   0  0  0  0  0  0  0  0  0  0  0  0
  143.2921  136.3490  150.9593 H   0  0  0  0  0  0  0  0  0  0  0  0
  145.7238  136.4518  150.4685 H   0  0  0  0  0  0  0  0  0  0  0  0
  144.9801  137.8784  152.2898 H   0  0  0  0  0  0  0  0  0  0  0  0
  144.9985  136.6019  153.4432 H   0  0  0  0  0  0  0  0  0  0  0  0
  147.6157  136.7845  152.4407 H   0  0  0  0  0  0  0  0  0  0  0  0
  149.1286  137.8022  153.1689 H   0  0  0  0  0  0  0  0  0  0  0  0
  149.3150  142.4229  155.7271 H   0  0  0  0  0  0  0  0  0  0  0  0
  151.7553  141.3494  156.1037 H   0  0  0  0  0  0  0  0  0  0  0  0
  146.9578  134.8317  153.6314 H   0  0  0  0  0  0  0  0  0  0  0  0
  145.3424  134.1594  153.3634 H   0  0  0  0  0  0  0  0  0  0  0  0
  148.0197  132.8796  152.7073 H   0  0  0  0  0  0  0  0  0  0  0  0
  146.6970  132.1648  153.6322 H   0  0  0  0  0  0  0  0  0  0  0  0
  146.9753  131.6413  150.9581 H   0  0  0  0  0  0  0  0  0  0  0  0
  145.3782  131.8546  151.6679 H   0  0  0  0  0  0  0  0  0  0  0  0
  145.0800  133.6267  150.2680 H   0  0  0  0  0  0  0  0  0  0  0  0
  146.7845  133.7089  149.8310 H   0  0  0  0  0  0  0  0  0  0  0  0
  147.2472  135.1131  151.4033 H   0  0  0  0  0  0  0  0  0  0  0  0
  1  2  1  0  0  0  0
  1 19  1  0  0  0  0
  1 20  1  0  0  0  0
  1 21  1  0  0  0  0
  2  3  1  0  0  0  0
  2 22  1  0  0  0  0
  2 23  1  0  0  0  0
  3  4  1  0  0  0  0
  3 14  1  0  0  0  0
  3 24  1  0  0  0  0
  4  5  1  0  0  0  0
  4 25  1  0  0  0  0
  4 26  1  0  0  0  0
  5  6  1  0  0  0  0
  5 27  1  0  0  0  0
  6  7  2  0  0  0  0
  6  8  1  0  0  0  0
  8  9  1  0  0  0  0
  8 28  1  0  0  0  0
  9 13  1  0  0  0  0
  9 10  2  0  0  0  0
 10 11  1  0  0  0  0
 11 12  2  0  0  0  0
 11 29  1  0  0  0  0
 12 13  1  0  0  0  0
 12 30  1  0  0  0  0
 14 18  1  0  0  0  0
 14 15  1  0  0  0  0
 14 39  1  0  0  0  0
 15 16  1  0  0  0  0
 15 31  1  0  0  0  0
 15 32  1  0  0  0  0
 16 17  1  0  0  0  0
 16 33  1  0  0  0  0
 16 34  1  0  0  0  0
 17 18  1  0  0  0  0
 17 35  1  0  0  0  0
 17 36  1  0  0  0  0
 18 37  1  0  0  0  0
 18 38  1  0  0  0  0
M  CHG  1  14   1
M  END
> <s_m_source_file>
AV-unprocessed.smi

> <i_m_source_file_index>
1696

> <i_lp_mmshare_version>
43012

> <i_f3d_flags>
0

> <s_epik_input>
W0NIMl0xW0NIMl1bQ0gyXVtDSDJdTjFbQ0BIXShbQ0gyXVtDSDNdKVtDSDJdW05IXUMoPU8pW05IXWMybltjSF1bY0hdczI=

> <s_epik_cmdline>
J2VwaWtfcHl0aG9uJywgJy1waCcsICc3LjAnLCAnLXRuJywgJzgnLCAnLW1hJywgJzIwMCcsICctbWV0YWxfYmluZGluZycsICctaW1hZScsICc8aW5maWxlLm1hZT4nLCAnLW9tYWUnLCAnPG91dGZpbGUubWFlPic=

> <r_lp_tautomer_probability>
1

> <r_epik_Ionization_Penalty>
0.0013883

> <r_epik_Ionization_Penalty_Charging>
0.00115997

> <r_epik_Ionization_Penalty_Neutral>
0.000228323

> <r_epik_State_Penalty>
-0

> <r_epik_Charging_Adjusted_Penalty>
0.00115997

> <i_epik_Tot_Q>
1

> <i_epik_Tot_abs_Q>
1

> <r_epik_Metal_State_Penalty>
0.0131845

> <b_epik_Metal_Only>
0

> <s_lp_Force_Field>
OPLS_2005

> <r_lp_Energy>
36.9264

> <b_lp_Chiralities_Consistent>
1

> <s_lp_Variant>
AV-unprocessed.smi:1696-2

> <Gold.Version>
5.8.1

> <Gold.Id.Protein>
6NUR|6NUR_protein|mol2

> <Gold.PLP.Fitness>
44.3299

> <Gold.PLP.PLP>
-30.6273

> <Gold.PLP.part.hbond>
-3.6807

> <Gold.PLP.part.metal>
0.0000

> <Gold.PLP.part.buried>
-2.8030

> <Gold.PLP.part.nonpolar>
-25.9476

> <Gold.PLP.part.repulsive>
0.3693

> <Gold.PLP.ligand.clash>
0.0000

> <Gold.PLP.ligand.torsion>
0.5139

> <Gold.PLP.Chemscore.Hbond>
3.8800

> <Gold.PLP.Chemscore.CHOScore>
1.0000

> <Gold.PLP.Chemscore.Metal>
0.0000

> <Gold.Chemscore.Hbonds>
donor molecule, donor type, donor heavy atom, donor atom, acceptor molecule, acceptor atom, score
      L1  H     5    27       P1  7948  1.00
      L1  H     8    28       P1  7948  0.88
      L1  H    14    39       P1  7948  1.95
      L1  C    11    29       P1  8028  1.00

> <Gold.PLP.Chemscore.Internal.Correction>
0.0904

> <Gold.Rescore>
     Score         DG    S(hbond)    S(metal)    S(lipo)     H(rot)  DE(clash)    DE(int)     intcor
     15.20     -17.11       2.52        0.00      66.29       1.77       0.06       1.85       ----

> <Gold.Chemscore.Fitness>
15.1996

> <Gold.Chemscore.DG>
-17.1102

> <Gold.Chemscore.ZeroCoef>
-5.4800

> <Gold.Chemscore.Hbond>
2.5171

> <Gold.Chemscore.Metal>
0.0000

> <Gold.Chemscore.Lipo>
66.2853

> <Gold.Chemscore.Internal_Hbond>
0.0000

> <Gold.Chemscore.DEClash>
0.0589

> <Gold.Chemscore.DEInternal>
1.8517

> <Gold.Chemscore.Rot>
1.7705

> <Gold.Chemscore.Internal.Correction>
   9.000000E+99

> <Gold.Chemscore.Hbonds>
donor molecule, donor type, donor heavy atom, donor atom, acceptor molecule, acceptor atom, score
      L1  H     5    27       P1  7948  0.95
      L1  H     8    28       P1  7948  0.80
      L1  H    14    39       P1  7948  0.71

> <Gold.Chemscore.Hbond.Weighted>
-8.4073

> <Gold.Chemscore.Metal.Weighted>
-0.0000

> <Gold.Chemscore.Lipo.Weighted>
-7.7554

> <Gold.Chemscore.Internal_Hbond.Weighted>
0.0000

> <Gold.Chemscore.DEClash.Weighted>
0.0589

> <Gold.Chemscore.DEInternal.Weighted>
1.8517

> <Gold.Chemscore.Rot.Weighted>
4.5324

> <Gold.Chemscore.Internal.Correction.Weighted>
   9.000000E+99

> <Gold.Protein.RotatedTorsions>
[ 6907 6896 6895 6894 ] final   -0.53 input  -60.11 | X-H torsion
[ 7974 7965 7964 7962 ] final  156.83 input  175.53 | X-H torsion
[ 8008 7997 7996 7995 ] final  121.46 input   59.86 | X-H torsion
[ 10167 10162 10161 10158 ] final -159.24 input  -65.29 | X-H torsion
[ 10718 10713 10712 10709 ] final   12.88 input   66.30 | X-H torsion
[ 10763 10752 10751 10750 ] final   23.09 input  -60.55 | X-H torsion
[ 11005 11000 10999 10996 ] final   23.27 input  -57.11 | X-H torsion

> <Gold.Protein.ActiveResidues>
 VAL166  LYS551  ARG553  GLY616  TRP617  ASP618  TYR619  PRO620  LYS621  CYS622 
 ASP623  PHE694  ASN695  SER759  ASP760  ASP761  ALA762  ILE779  LEU786  VAL792 
 PHE793  MET794  SER795  GLU796  ALA797  LYS798  CYS799  TRP800  GLU811  SER814 

> <Gold.Protein.RotatedAtoms>
  151.5607  135.1065  159.9971 H   0  0  0  0  0  0  0  0  0  0  0  0  # atno 6907 bound_to 6896
  152.4448  133.7511  159.6705 H   0  0  0  0  0  0  0  0  0  0  0  0  # atno 6908 bound_to 6896
  150.8361  133.7943  159.3103 H   0  0  0  0  0  0  0  0  0  0  0  0  # atno 6909 bound_to 6896
  144.7939  139.7258  143.6210 H   0  0  0  0  0  0  0  0  0  0  0  0  # atno 7974 bound_to 7965
  156.2687  140.2808  156.1313 H   0  0  0  0  0  0  0  0  0  0  0  0  # atno 8008 bound_to 7997
  155.1052  140.0390  157.2726 H   0  0  0  0  0  0  0  0  0  0  0  0  # atno 8009 bound_to 7997
  154.6785  140.2603  155.6939 H   0  0  0  0  0  0  0  0  0  0  0  0  # atno 8010 bound_to 7997
  139.6630  143.9878  152.2237 H   0  0  0  0  0  0  0  0  0  0  0  0  # atno 10167 bound_to 10162
  157.0166  130.6138  149.5715 H   0  0  0  0  0  0  0  0  0  0  0  0  # atno 10718 bound_to 10713
  153.0865  135.6634  153.9940 H   0  0  0  0  0  0  0  0  0  0  0  0  # atno 10763 bound_to 10752
  153.9548  135.2980  155.3438 H   0  0  0  0  0  0  0  0  0  0  0  0  # atno 10764 bound_to 10752
  154.7273  135.5138  153.8980 H   0  0  0  0  0  0  0  0  0  0  0  0  # atno 10765 bound_to 10752
  140.3715  134.2018  155.7666 H   0  0  0  0  0  0  0  0  0  0  0  0  # atno 11005 bound_to 11000
  146.2201  139.5620  142.9624 LP  0  0  0  0  0  0  0  0  0  0  0  0  # atno 17320 bound_to 7965
  145.5723  141.0392  143.2167 LP  0  0  0  0  0  0  0  0  0  0  0  0  # atno 17321 bound_to 7965
  139.9623  144.6550  150.8068 LP  0  0  0  0  0  0  0  0  0  0  0  0  # atno 17342 bound_to 10162
  140.7588  143.3115  151.2834 LP  0  0  0  0  0  0  0  0  0  0  0  0  # atno 17343 bound_to 10162
  156.0117  130.5209  150.8009 LP  0  0  0  0  0  0  0  0  0  0  0  0  # atno 17370 bound_to 10713
  157.5281  131.0935  150.9991 LP  0  0  0  0  0  0  0  0  0  0  0  0  # atno 17371 bound_to 10713
  141.1953  133.8108  157.0721 LP  0  0  0  0  0  0  0  0  0  0  0  0  # atno 17394 bound_to 11000
  140.0548  134.9786  157.1201 LP  0  0  0  0  0  0  0  0  0  0  0  0  # atno 17395 bound_to 11000

$$$$
