AV-unprocessed.smi:3327|AV-procd|sdf|12787|dock5
  -GOLD-   2272019133D 1   1.00000     0.00000
 Structure written by MMmdl.
 41 42  0  0  0  0  0  0  0  0  2 V2000
  151.9721  145.9834  160.0937 C   0  0  0  0  0  0  0  0  0  0  0  0
  151.8962  144.4503  160.0919 C   0  0  2  0  0  0  0  0  0  0  0  0
  152.4620  143.8532  161.3991 C   0  0  0  0  0  0  0  0  0  0  0  0
  152.5078  142.3138  161.3590 C   0  0  0  0  0  0  0  0  0  0  0  0
  153.2031  141.8198  160.0785 C   0  0  0  0  0  0  0  0  0  0  0  0
  152.5008  142.3828  158.9177 N   0  0  0  0  0  0  0  0  0  0  0  0
  151.7276  141.6846  158.0509 C   0  0  0  0  0  0  0  0  0  0  0  0
  151.5815  140.4636  158.1352 O   0  0  0  0  0  0  0  0  0  0  0  0
  151.0087  142.4374  156.9206 C   0  0  0  0  0  0  0  0  0  0  0  0
  149.5590  142.1550  156.8879 N   0  3  0  0  0  0  0  0  0  0  0  0
  149.2187  140.7818  156.4656 C   0  0  0  0  0  0  0  0  0  0  0  0
  149.5301  140.5580  154.9757 C   0  0  0  0  0  0  0  0  0  0  0  0
  150.5673  139.5636  154.7575 N   0  0  0  0  0  0  0  0  0  0  0  0
  150.4641  138.3457  154.1181 C   0  0  0  0  0  0  0  0  0  0  0  0
  151.7018  137.7692  154.1385 C   0  0  0  0  0  0  0  0  0  0  0  0
  152.5110  138.7279  154.8095 C   0  0  0  0  0  0  0  0  0  0  0  0
  151.8301  139.8025  155.1741 N   0  0  0  0  0  0  0  0  0  0  0  0
  152.6225  143.8460  158.8711 C   0  0  0  0  0  0  0  0  0  0  0  0
  153.0042  146.3294  160.1574 H   0  0  0  0  0  0  0  0  0  0  0  0
  151.4274  146.4020  160.9405 H   0  0  0  0  0  0  0  0  0  0  0  0
  151.5373  146.3991  159.1843 H   0  0  0  0  0  0  0  0  0  0  0  0
  150.8425  144.1743  160.0250 H   0  0  0  0  0  0  0  0  0  0  0  0
  153.4726  144.2312  161.5601 H   0  0  0  0  0  0  0  0  0  0  0  0
  151.8710  144.1850  162.2534 H   0  0  0  0  0  0  0  0  0  0  0  0
  153.0265  141.9338  162.2395 H   0  0  0  0  0  0  0  0  0  0  0  0
  151.4931  141.9156  161.4006 H   0  0  0  0  0  0  0  0  0  0  0  0
  154.2410  142.1563  160.0665 H   0  0  0  0  0  0  0  0  0  0  0  0
  153.2536  140.7322  160.0790 H   0  0  0  0  0  0  0  0  0  0  0  0
  151.1580  143.5100  157.0518 H   0  0  0  0  0  0  0  0  0  0  0  0
  151.4405  142.1489  155.9612 H   0  0  0  0  0  0  0  0  0  0  0  0
  149.1876  142.3061  157.8154 H   0  0  0  0  0  0  0  0  0  0  0  0
  149.7901  140.0748  157.0681 H   0  0  0  0  0  0  0  0  0  0  0  0
  148.1644  140.5877  156.6676 H   0  0  0  0  0  0  0  0  0  0  0  0
  148.6291  140.2467  154.4452 H   0  0  0  0  0  0  0  0  0  0  0  0
  149.8554  141.4932  154.5181 H   0  0  0  0  0  0  0  0  0  0  0  0
  149.5296  137.9925  153.7071 H   0  0  0  0  0  0  0  0  0  0  0  0
  151.9875  136.8107  153.7307 H   0  0  0  0  0  0  0  0  0  0  0  0
  153.5653  138.6767  155.0382 H   0  0  0  0  0  0  0  0  0  0  0  0
  152.2210  144.2708  157.9500 H   0  0  0  0  0  0  0  0  0  0  0  0
  153.6786  144.1203  158.8846 H   0  0  0  0  0  0  0  0  0  0  0  0
  149.1195  142.8096  156.2565 H   0  0  0  0  0  0  0  0  0  0  0  0
  1  2  1  0  0  0  0
  1 19  1  0  0  0  0
  1 20  1  0  0  0  0
  1 21  1  0  0  0  0
  2 18  1  0  0  0  0
  2  3  1  0  0  0  0
  2 22  1  0  0  0  0
  3  4  1  0  0  0  0
  3 23  1  0  0  0  0
  3 24  1  0  0  0  0
  4  5  1  0  0  0  0
  4 25  1  0  0  0  0
  4 26  1  0  0  0  0
  5  6  1  0  0  0  0
  5 27  1  0  0  0  0
  5 28  1  0  0  0  0
  6  7  1  0  0  0  0
  6 18  1  0  0  0  0
  7  8  2  0  0  0  0
  7  9  1  0  0  0  0
  9 10  1  0  0  0  0
  9 29  1  0  0  0  0
  9 30  1  0  0  0  0
 10 11  1  0  0  0  0
 10 31  1  0  0  0  0
 10 41  1  0  0  0  0
 11 12  1  0  0  0  0
 11 32  1  0  0  0  0
 11 33  1  0  0  0  0
 12 13  1  0  0  0  0
 12 34  1  0  0  0  0
 12 35  1  0  0  0  0
 13 17  1  0  0  0  0
 13 14  1  0  0  0  0
 14 15  2  0  0  0  0
 14 36  1  0  0  0  0
 15 16  1  0  0  0  0
 15 37  1  0  0  0  0
 16 17  2  0  0  0  0
 16 38  1  0  0  0  0
 18 39  1  0  0  0  0
 18 40  1  0  0  0  0
M  CHG  1  10   1
M  END
> <s_m_source_file>
AV-unprocessed.smi

> <i_m_source_file_index>
3327

> <i_lp_mmshare_version>
43012

> <i_f3d_flags>
0

> <s_epik_input>
W0NIM11bQ0BASF0xW0NIMl1bQ0gyXVtDSDJdTihbQ0gyXTEpQyg9TylbQ0gyXVtOSF1bQ0gyXVtDSDJdbjJbY0hdW2NIXVtjSF1uMg==

> <s_epik_cmdline>
J2VwaWtfcHl0aG9uJywgJy1waCcsICc3LjAnLCAnLXRuJywgJzgnLCAnLW1hJywgJzIwMCcsICctbWV0YWxfYmluZGluZycsICctaW1hZScsICc8aW5maWxlLm1hZT4nLCAnLW9tYWUnLCAnPG91dGZpbGUubWFlPic=

> <r_lp_tautomer_probability>
1

> <r_epik_Ionization_Penalty>
0.195801

> <r_epik_Ionization_Penalty_Charging>
0.195799

> <r_epik_Ionization_Penalty_Neutral>
2.33113e-06

> <r_epik_State_Penalty>
0.185548

> <r_epik_Charging_Adjusted_Penalty>
0.381347

> <i_epik_Tot_Q>
1

> <i_epik_Tot_abs_Q>
1

> <r_epik_Metal_State_Penalty>
0.186014

> <b_epik_Metal_Only>
0

> <s_lp_Force_Field>
OPLS_2005

> <r_lp_Energy>
21.5547

> <b_lp_Chiralities_Consistent>
1

> <s_lp_Variant>
AV-unprocessed.smi:3327-1

> <Gold.Version>
5.8.1

> <Gold.Id.Protein>
6NUR|6NUR_protein|mol2

> <Gold.PLP.Fitness>
55.8477

> <Gold.PLP.PLP>
-48.3765

> <Gold.PLP.part.hbond>
-2.0000

> <Gold.PLP.part.metal>
0.0000

> <Gold.PLP.part.buried>
-3.9959

> <Gold.PLP.part.nonpolar>
-41.9641

> <Gold.PLP.part.repulsive>
0.0345

> <Gold.PLP.ligand.clash>
0.0000

> <Gold.PLP.ligand.torsion>
0.4918

> <Gold.PLP.Chemscore.Hbond>
1.9520

> <Gold.PLP.Chemscore.CHOScore>
0.8519

> <Gold.PLP.Chemscore.Metal>
0.0000

> <Gold.Chemscore.Hbonds>
donor molecule, donor type, donor heavy atom, donor atom, acceptor molecule, acceptor atom, score
      L1  H    10    41       P1  8028  1.95
      L1  C    14    36       P1  7948  0.87

> <Gold.PLP.Chemscore.Internal.Correction>
0.0430

> <Gold.Rescore>
     Score         DG    S(hbond)    S(metal)    S(lipo)     H(rot)  DE(clash)    DE(int)     intcor
     15.91     -17.85       0.95        0.00     117.81       1.80       0.22       1.73       ----

> <Gold.Chemscore.Fitness>
15.9067

> <Gold.Chemscore.DG>
-17.8489

> <Gold.Chemscore.ZeroCoef>
-5.4800

> <Gold.Chemscore.Hbond>
0.9533

> <Gold.Chemscore.Metal>
0.0000

> <Gold.Chemscore.Lipo>
117.8075

> <Gold.Chemscore.Internal_Hbond>
0.0000

> <Gold.Chemscore.DEClash>
0.2169

> <Gold.Chemscore.DEInternal>
1.7253

> <Gold.Chemscore.Rot>
1.7963

> <Gold.Chemscore.Internal.Correction>
   9.000000E+99

> <Gold.Chemscore.Hbonds>
donor molecule, donor type, donor heavy atom, donor atom, acceptor molecule, acceptor atom, score
      L1  H    10    41       P1  8028  0.88

> <Gold.Chemscore.Hbond.Weighted>
-3.1839

> <Gold.Chemscore.Metal.Weighted>
-0.0000

> <Gold.Chemscore.Lipo.Weighted>
-13.7835

> <Gold.Chemscore.Internal_Hbond.Weighted>
0.0000

> <Gold.Chemscore.DEClash.Weighted>
0.2169

> <Gold.Chemscore.DEInternal.Weighted>
1.7253

> <Gold.Chemscore.Rot.Weighted>
4.5985

> <Gold.Chemscore.Internal.Correction.Weighted>
   9.000000E+99

> <Gold.Protein.RotatedTorsions>
[ 6907 6896 6895 6894 ] final  165.29 input  -60.11 | X-H torsion
[ 7974 7965 7964 7962 ] final -117.20 input  175.53 | X-H torsion
[ 8008 7997 7996 7995 ] final  -73.87 input   59.86 | X-H torsion
[ 10167 10162 10161 10158 ] final   -2.85 input  -65.29 | X-H torsion
[ 10718 10713 10712 10709 ] final  130.25 input   66.30 | X-H torsion
[ 10763 10752 10751 10750 ] final  147.62 input  -60.55 | X-H torsion
[ 11005 11000 10999 10996 ] final  -46.47 input  -57.11 | X-H torsion

> <Gold.Protein.ActiveResidues>
 VAL166  LYS551  ARG553  GLY616  TRP617  ASP618  TYR619  PRO620  LYS621  CYS622 
 ASP623  PHE694  ASN695  SER759  ASP760  ASP761  ALA762  ILE779  LEU786  VAL792 
 PHE793  MET794  SER795  GLU796  ALA797  LYS798  CYS799  TRP800  GLU811  SER814 

> <Gold.Protein.RotatedAtoms>
  151.8967  133.3528  159.3816 H   0  0  0  0  0  0  0  0  0  0  0  0  # atno 6907 bound_to 6896
  150.7090  134.4869  159.5506 H   0  0  0  0  0  0  0  0  0  0  0  0  # atno 6908 bound_to 6896
  152.2450  134.8191  160.0505 H   0  0  0  0  0  0  0  0  0  0  0  0  # atno 6909 bound_to 6896
  145.0880  140.8471  143.3999 H   0  0  0  0  0  0  0  0  0  0  0  0  # atno 7974 bound_to 7965
  154.5283  140.0771  156.8299 H   0  0  0  0  0  0  0  0  0  0  0  0  # atno 8008 bound_to 7997
  155.3428  140.3408  155.4221 H   0  0  0  0  0  0  0  0  0  0  0  0  # atno 8009 bound_to 7997
  156.1755  140.1634  156.8357 H   0  0  0  0  0  0  0  0  0  0  0  0  # atno 8010 bound_to 7997
  140.6867  143.6609  150.8268 H   0  0  0  0  0  0  0  0  0  0  0  0  # atno 10167 bound_to 10162
  157.5079  131.1096  150.9335 H   0  0  0  0  0  0  0  0  0  0  0  0  # atno 10718 bound_to 10713
  154.0413  135.2889  155.3354 H   0  0  0  0  0  0  0  0  0  0  0  0  # atno 10763 bound_to 10752
  154.6927  135.5220  153.8418 H   0  0  0  0  0  0  0  0  0  0  0  0  # atno 10764 bound_to 10752
  153.0599  135.6609  154.0617 H   0  0  0  0  0  0  0  0  0  0  0  0  # atno 10765 bound_to 10752
  141.0581  133.6719  156.3159 H   0  0  0  0  0  0  0  0  0  0  0  0  # atno 11005 bound_to 11000
  145.1099  139.2764  143.5642 LP  0  0  0  0  0  0  0  0  0  0  0  0  # atno 17320 bound_to 7965
  146.3531  140.0692  142.8624 LP  0  0  0  0  0  0  0  0  0  0  0  0  # atno 17321 bound_to 7965
  140.0317  143.5437  152.2757 LP  0  0  0  0  0  0  0  0  0  0  0  0  # atno 17342 bound_to 10162
  139.6232  144.7633  151.2695 LP  0  0  0  0  0  0  0  0  0  0  0  0  # atno 17343 bound_to 10162
  156.9985  130.5590  149.5309 LP  0  0  0  0  0  0  0  0  0  0  0  0  # atno 17370 bound_to 10713
  156.0270  130.5363  150.8433 LP  0  0  0  0  0  0  0  0  0  0  0  0  # atno 17371 bound_to 10713
  140.5924  134.5637  157.5502 LP  0  0  0  0  0  0  0  0  0  0  0  0  # atno 17394 bound_to 11000
  139.9408  134.7791  156.0684 LP  0  0  0  0  0  0  0  0  0  0  0  0  # atno 17395 bound_to 11000

$$$$
