#       Name:                AV-unprocessed.smi:3234
#       Creating user name   scv26
#       Creation time:       Fri Mar 27 18:21:24 2020


#       File generated by GOLD software.
#

@<TRIPOS>MOLECULE
AV-unprocessed.smi:3234
    40    42     1
SMALL
NO_CHARGES


@<TRIPOS>ATOM
      1 ****        -0.9047   1.5709   0.5058 O.2            1 S1                 0.0000
      2 ****        -1.4169   0.4561   0.6053 C.2            1 S1                 0.0000
      3 ****        -2.7367   0.2035   0.6433 N.am           1 S1                 0.0000
      4 ****        -3.8164   1.1272   0.6251 C.ar           1 S1                 0.0000
      5 ****        -5.0812   0.6527   0.2204 C.ar           1 S1                 0.0000
      6 ****        -6.1702   1.5470   0.2095 C.ar           1 S1                 0.0000
      7 ****        -6.0705   2.8414   0.5783 N.ar           1 S1                 0.0000
      8 ****        -4.8626   3.2895   0.9810 C.ar           1 S1                 0.0000
      9 ****        -3.7099   2.4800   1.0281 C.ar           1 S1                 0.0000
     10 ****        -0.7033  -0.6772   0.6653 N.am           1 S1                 0.0000
     11 ****         0.7538  -0.7443   0.6409 C.3            1 S1                 0.0000
     12 ****         1.3096  -2.1150   1.0033 C.3            1 S1                 0.0000
     13 ****         2.7289  -2.0616   0.4258 C.3            1 S1                 0.0000
     14 ****         2.6890  -1.1220  -0.7229 N.4            1 S1                 1.0000
     15 ****         3.7813  -0.1249  -0.7087 C.3            1 S1                 0.0000
     16 ****         4.2124   0.3169  -2.0866 C.3            1 S1                 0.0000
     17 ****         5.0757  -0.6389  -1.2921 C.3            1 S1                 0.0000
     18 ****         1.3386  -0.5189  -0.7557 C.3            1 S1                 0.0000
     19 ****        -3.0036  -0.7701   0.6346 H              1 S1                 0.0000
     20 ****        -5.2186  -0.3747  -0.0838 H              1 S1                 0.0000
     21 ****        -7.1482   1.2121  -0.1026 H              1 S1                 0.0000
     22 ****        -4.8132   4.3257   1.2811 H              1 S1                 0.0000
     23 ****        -2.7827   2.9052   1.3801 H              1 S1                 0.0000
     24 ****        -1.2016  -1.5522   0.7418 H              1 S1                 0.0000
     25 ****         1.1667  -0.0050   1.3308 H              1 S1                 0.0000
     26 ****         1.2968  -2.3110   2.0759 H              1 S1                 0.0000
     27 ****         0.7363  -2.9006   0.5082 H              1 S1                 0.0000
     28 ****         3.4173  -1.6945   1.1892 H              1 S1                 0.0000
     29 ****         3.0809  -3.0453   0.1144 H              1 S1                 0.0000
     30 ****         3.7897   0.5751   0.1253 H              1 S1                 0.0000
     31 ****         3.6788  -0.0840  -2.9466 H              1 S1                 0.0000
     32 ****         4.5706   1.3384  -2.1969 H              1 S1                 0.0000
     33 ****         6.0028  -0.2468  -0.8790 H              1 S1                 0.0000
     34 ****         5.1162  -1.6747  -1.6247 H              1 S1                 0.0000
     35 ****         0.7509  -1.0523  -1.5045 H              1 S1                 0.0000
     36 ****         1.3524   0.5349  -1.0393 H              1 S1                 0.0000
     37 ****         2.7920  -1.6629  -1.5698 H              1 S1                 0.0000
     38 ****        -1.4840   2.3838   0.4455 LP             1 S1                 0.0000
     39 ****         0.0908   1.6638   0.4853 LP             1 S1                 0.0000
     40 ****        -6.8650   3.4483   0.5540 LP             1 S1                 0.0000
@<TRIPOS>BOND
    1    1    2 2     
    2    2    3 am    
    3    2   10 am    
    4    3    4 1     
    5    3   19 1     
    6    4    9 ar    
    7    4    5 ar    
    8    5    6 ar    
    9    5   20 1     
   10    6    7 ar    
   11    6   21 1     
   12    7    8 ar    
   13    8    9 ar    
   14    8   22 1     
   15    9   23 1     
   16   10   11 1     
   17   10   24 1     
   18   11   18 1     
   19   11   12 1     
   20   11   25 1     
   21   12   13 1     
   22   12   26 1     
   23   12   27 1     
   24   13   14 1     
   25   13   28 1     
   26   13   29 1     
   27   14   15 1     
   28   14   18 1     
   29   14   37 1     
   30   15   17 1     
   31   15   16 1     
   32   15   30 1     
   33   16   17 1     
   34   16   31 1     
   35   16   32 1     
   36   17   33 1     
   37   17   34 1     
   38   18   35 1     
   39   18   36 1     
   40    1   38 1     
   41    1   39 1     
   42    7   40 1     
@<TRIPOS>SUBSTRUCTURE
      1 S1             1
@<TRIPOS>SET
LONE_PAIRS      STATIC     ATOMS    <user>   **** ""
3 38 39 40
DONOR_HYDROGENS      STATIC     ATOMS    <user>   **** ""
3 19 24 37
ATOM$BLUE        STATIC     ATOMS    COLORGROUP SYSTEM
3 38 39 40
ATOM$RED        STATIC     ATOMS    COLORGROUP SYSTEM
3 19 24 37
