#       Name:                AV-unprocessed.smi:334
#       Creating user name   scv26
#       Creation time:       Thu Mar 26 22:28:14 2020


#       File generated by GOLD software.
#

@<TRIPOS>MOLECULE
AV-unprocessed.smi:334
    50    52     1
SMALL
NO_CHARGES


@<TRIPOS>ATOM
      1 ****        -1.5070  -0.6592  -2.8293 C.3            1 S1                 0.0000
      2 ****        -1.1691   0.1735  -1.5813 C.3            1 S1                 0.0000
      3 ****         0.2770   0.2473  -1.4073 N.am           1 S1                 0.0000
      4 ****         1.1019   1.1309  -1.9934 C.2            1 S1                 0.0000
      5 ****         0.7237   1.9426  -2.8370 O.2            1 S1                 0.0000
      6 ****         2.5770   1.1314  -1.5569 C.3            1 S1                 0.0000
      7 ****         2.8499   0.3659  -0.3259 N.am           1 S1                 0.0000
      8 ****         3.3044  -0.9585  -0.4821 C.2            1 S1                 0.0000
      9 ****         3.5639  -1.7553   0.5729 C.2            1 S1                 0.0000
     10 ****         4.0164  -3.1172   0.3936 N.pl3          1 S1                 1.0000
     11 ****         4.2354  -3.8004   1.3886 O.2            1 S1                 0.0000
     12 ****         4.1666  -3.5493  -0.7454 O.2            1 S1                -1.0000
     13 ****         3.3646  -1.2043   1.8992 C.2            1 S1                 0.0000
     14 ****         2.9254   0.0598   2.0556 C.2            1 S1                 0.0000
     15 ****         2.6342   0.9222   0.9061 C.2            1 S1                 0.0000
     16 ****         2.2120   2.0704   1.0420 O.2            1 S1                 0.0000
     17 ****        -1.8047  -0.4160  -0.3002 C.3            1 S1                 0.0000
     18 ****        -3.3413  -0.2797  -0.2190 C.3            1 S1                 0.0000
     19 ****        -3.5602   0.3322   1.1776 C.3            1 S1                 0.0000
     20 ****        -3.1334   1.8118   1.1525 C.3            1 S1                 0.0000
     21 ****        -1.5979   1.7206   1.0933 C.3            1 S1                 0.0000
     22 ****        -1.3496   0.1992   1.0487 C.3            1 S1                 0.0000
     23 ****        -2.4386  -0.3065   1.9886 C.3            1 S1                 0.0000
     24 ****        -2.5840  -0.7130  -2.9882 H              1 S1                 0.0000
     25 ****        -1.1328  -1.6795  -2.7396 H              1 S1                 0.0000
     26 ****        -1.0681  -0.2218  -3.7266 H              1 S1                 0.0000
     27 ****        -1.5565   1.1823  -1.7331 H              1 S1                 0.0000
     28 ****         0.6779  -0.3887  -0.7336 H              1 S1                 0.0000
     29 ****         3.1719   0.7436  -2.3847 H              1 S1                 0.0000
     30 ****         2.9041   2.1657  -1.4362 H              1 S1                 0.0000
     31 ****         3.4124  -1.2765  -1.5093 H              1 S1                 0.0000
     32 ****         3.5665  -1.8010   2.7767 H              1 S1                 0.0000
     33 ****         2.7831   0.4497   3.0529 H              1 S1                 0.0000
     34 ****        -1.5560  -1.4785  -0.2655 H              1 S1                 0.0000
     35 ****        -3.7583   0.3509  -1.0054 H              1 S1                 0.0000
     36 ****        -3.8153  -1.2590  -0.2960 H              1 S1                 0.0000
     37 ****        -4.5641   0.1737   1.5721 H              1 S1                 0.0000
     38 ****        -3.5509   2.3482   0.2997 H              1 S1                 0.0000
     39 ****        -3.4521   2.3264   2.0597 H              1 S1                 0.0000
     40 ****        -1.1742   2.2539   0.2430 H              1 S1                 0.0000
     41 ****        -1.1580   2.1501   1.9943 H              1 S1                 0.0000
     42 ****        -0.3382  -0.0849   1.3411 H              1 S1                 0.0000
     43 ****        -2.3563   0.0902   3.0021 H              1 S1                 0.0000
     44 ****        -2.5029  -1.3951   2.0350 H              1 S1                 0.0000
     45 ****        -0.2367   1.9643  -3.1148 LP             1 S1                 0.0000
     46 ****         1.3767   2.5808  -3.2449 LP             1 S1                 0.0000
     47 ****         4.1004  -3.4131   2.3007 LP             1 S1                 0.0000
     48 ****         4.5490  -4.7446   1.2877 LP             1 S1                 0.0000
     49 ****         2.0149   2.6293   0.2365 LP             1 S1                 0.0000
     50 ****         2.0662   2.4444   1.9579 LP             1 S1                 0.0000
@<TRIPOS>BOND
    1    1    2 1     
    2    1   24 1     
    3    1   25 1     
    4    1   26 1     
    5    2    3 1     
    6    2   17 1     
    7    2   27 1     
    8    3    4 am    
    9    3   28 1     
   10    4    5 2     
   11    4    6 1     
   12    6    7 1     
   13    6   29 1     
   14    6   30 1     
   15    7   15 am    
   16    7    8 1     
   17    8    9 2     
   18    8   31 1     
   19    9   10 1     
   20    9   13 1     
   21   10   11 2     
   22   10   12 1     
   23   13   14 2     
   24   13   32 1     
   25   14   15 1     
   26   14   33 1     
   27   15   16 2     
   28   17   22 1     
   29   17   18 1     
   30   17   34 1     
   31   18   19 1     
   32   18   35 1     
   33   18   36 1     
   34   19   23 1     
   35   19   20 1     
   36   19   37 1     
   37   20   21 1     
   38   20   38 1     
   39   20   39 1     
   40   21   22 1     
   41   21   40 1     
   42   21   41 1     
   43   22   23 1     
   44   22   42 1     
   45   23   43 1     
   46   23   44 1     
   47    5   45 1     
   48    5   46 1     
   49   11   47 1     
   50   11   48 1     
   51   16   49 1     
   52   16   50 1     
@<TRIPOS>SUBSTRUCTURE
      1 S1             1
@<TRIPOS>SET
LONE_PAIRS      STATIC     ATOMS    <user>   **** ""
7 45 46 47 48 12 49 50
DONOR_HYDROGENS      STATIC     ATOMS    <user>   **** ""
1 28
ATOM$BLUE        STATIC     ATOMS    COLORGROUP SYSTEM
7 45 46 47 48 12 49 50
ATOM$RED        STATIC     ATOMS    COLORGROUP SYSTEM
1 28
