#       Name:                AV-unprocessed.smi:3055
#       Creating user name   scv26
#       Creation time:       Fri Mar 27 17:03:48 2020


#       File generated by GOLD software.
#

@<TRIPOS>MOLECULE
AV-unprocessed.smi:3055
    50    52     1
SMALL
NO_CHARGES


@<TRIPOS>ATOM
      1 ****         1.0266   1.8038   0.3189 O.2            1 S1                 0.0000
      2 ****         0.8720   0.9787  -0.5817 C.2            1 S1                 0.0000
      3 ****         1.6940  -0.0723  -0.7297 N.am           1 S1                 0.0000
      4 ****         2.8375  -0.3541   0.1262 C.3            1 S1                 0.0000
      5 ****         3.4873  -1.6883  -0.2635 C.3            1 S1                 0.0000
      6 ****         4.6417  -1.9762   0.5631 N.pl3          1 S1                 0.0000
      7 ****         4.6428  -2.5274   1.8376 C.2            1 S1                 0.0000
      8 ****         5.9604  -2.6129   2.2274 C.2            1 S1                 0.0000
      9 ****         6.7817  -2.1229   1.2146 N.2            1 S1                 0.0000
     10 ****         5.9303  -1.7643   0.2622 C.2            1 S1                 0.0000
     11 ****        -0.1394   1.0460  -1.4849 N.am           1 S1                 0.0000
     12 ****        -0.3991   0.0938  -2.5793 C.3            1 S1                 0.0000
     13 ****        -1.7239  -0.6376  -2.3046 C.3            1 S1                 0.0000
     14 ****        -2.8764   0.3666  -2.1131 C.3            1 S1                 0.0000
     15 ****        -2.5444   1.4493  -1.0530 C.3            1 S1                 0.0000
     16 ****        -2.5491   0.9019   0.3361 N.4            1 S1                 1.0000
     17 ****        -2.3262   1.8966   1.4063 C.3            1 S1                 0.0000
     18 ****        -2.7641   1.1939   2.6857 C.3            1 S1                 0.0000
     19 ****        -3.9471   0.3374   2.2414 C.3            1 S1                 0.0000
     20 ****        -3.7680   0.1529   0.7274 C.3            1 S1                 0.0000
     21 ****        -1.1799   2.0853  -1.4239 C.3            1 S1                 0.0000
     22 ****         1.5161  -0.7156  -1.4874 H              1 S1                 0.0000
     23 ****         3.5614   0.4573   0.0367 H              1 S1                 0.0000
     24 ****         2.5137  -0.3861   1.1679 H              1 S1                 0.0000
     25 ****         2.7747  -2.5074  -0.1582 H              1 S1                 0.0000
     26 ****         3.8013  -1.6709  -1.3082 H              1 S1                 0.0000
     27 ****         3.7321  -2.8040   2.3480 H              1 S1                 0.0000
     28 ****         6.3768  -2.9854   3.1518 H              1 S1                 0.0000
     29 ****         6.2518  -1.3361  -0.6759 H              1 S1                 0.0000
     30 ****        -0.4686   0.6449  -3.5184 H              1 S1                 0.0000
     31 ****         0.3942  -0.6369  -2.7356 H              1 S1                 0.0000
     32 ****        -1.9540  -1.3138  -3.1284 H              1 S1                 0.0000
     33 ****        -1.6222  -1.2593  -1.4141 H              1 S1                 0.0000
     34 ****        -3.0545   0.8648  -3.0671 H              1 S1                 0.0000
     35 ****        -3.8045  -0.1588  -1.8906 H              1 S1                 0.0000
     36 ****        -3.3147   2.2205  -1.1034 H              1 S1                 0.0000
     37 ****        -1.2905   2.2271   1.4649 H              1 S1                 0.0000
     38 ****        -2.9524   2.7731   1.2314 H              1 S1                 0.0000
     39 ****        -1.9586   0.5520   3.0452 H              1 S1                 0.0000
     40 ****        -3.0200   1.8900   3.4851 H              1 S1                 0.0000
     41 ****        -3.9761  -0.6149   2.7722 H              1 S1                 0.0000
     42 ****        -4.8851   0.8557   2.4439 H              1 S1                 0.0000
     43 ****        -4.6446   0.5481   0.2116 H              1 S1                 0.0000
     44 ****        -3.6661  -0.8989   0.4582 H              1 S1                 0.0000
     45 ****        -0.9288   2.8984  -0.7422 H              1 S1                 0.0000
     46 ****        -1.2540   2.5617  -2.4025 H              1 S1                 0.0000
     47 ****        -1.7850   0.2447   0.4012 H              1 S1                 0.0000
     48 ****         1.7817   1.7015   0.9665 LP             1 S1                 0.0000
     49 ****         0.3971   2.5762   0.4028 LP             1 S1                 0.0000
     50 ****         7.7795  -2.0569   1.2071 LP             1 S1                 0.0000
@<TRIPOS>BOND
    1    1    2 2     
    2    2    3 am    
    3    2   11 am    
    4    3    4 1     
    5    3   22 1     
    6    4    5 1     
    7    4   23 1     
    8    4   24 1     
    9    5    6 1     
   10    5   25 1     
   11    5   26 1     
   12    6   10 1     
   13    6    7 1     
   14    7    8 2     
   15    7   27 1     
   16    8    9 1     
   17    8   28 1     
   18    9   10 2     
   19   10   29 1     
   20   11   21 1     
   21   11   12 1     
   22   12   13 1     
   23   12   30 1     
   24   12   31 1     
   25   13   14 1     
   26   13   32 1     
   27   13   33 1     
   28   14   15 1     
   29   14   34 1     
   30   14   35 1     
   31   15   16 1     
   32   15   21 1     
   33   15   36 1     
   34   16   20 1     
   35   16   17 1     
   36   16   47 1     
   37   17   18 1     
   38   17   37 1     
   39   17   38 1     
   40   18   19 1     
   41   18   39 1     
   42   18   40 1     
   43   19   20 1     
   44   19   41 1     
   45   19   42 1     
   46   20   43 1     
   47   20   44 1     
   48   21   45 1     
   49   21   46 1     
   50    1   48 1     
   51    1   49 1     
   52    9   50 1     
@<TRIPOS>SUBSTRUCTURE
      1 S1             1
@<TRIPOS>SET
LONE_PAIRS      STATIC     ATOMS    <user>   **** ""
3 48 49 50
DONOR_HYDROGENS      STATIC     ATOMS    <user>   **** ""
2 22 47
ATOM$BLUE        STATIC     ATOMS    COLORGROUP SYSTEM
3 48 49 50
ATOM$RED        STATIC     ATOMS    COLORGROUP SYSTEM
2 22 47
