#       Name:                AV-unprocessed.smi:2700
#       Creating user name   scv26
#       Creation time:       Fri Mar 27 14:46:44 2020


#       File generated by GOLD software.
#

@<TRIPOS>MOLECULE
AV-unprocessed.smi:2700
    25    26     1
SMALL
NO_CHARGES


@<TRIPOS>ATOM
      1 ****        -2.6455   1.1948  -1.1089 O.co2          1 S1                 0.0000
      2 ****        -2.0725   0.0835  -1.0860 C.2            1 S1                 0.0000
      3 ****        -2.6405  -1.0305  -1.1045 O.co2          1 S1                -1.0000
      4 ****        -0.5438   0.0870  -1.0055 C.3            1 S1                 0.0000
      5 ****         0.0378   0.0816   0.3764 C.ar           1 S1                 0.0000
      6 ****         0.3100  -1.1282   1.0491 C.ar           1 S1                 0.0000
      7 ****         0.8465  -1.0844   2.3502 C.ar           1 S1                 0.0000
      8 ****         1.0880   0.1756   2.9315 C.ar           1 S1                 0.0000
      9 ****         0.8297   1.3425   2.3039 N.ar           1 S1                 0.0000
     10 ****         0.3126   1.2875   1.0571 C.ar           1 S1                 0.0000
     11 ****         0.1715  -0.6586  -2.1173 C.3            1 S1                 0.0000
     12 ****         0.1661   0.8476  -2.1106 C.3            1 S1                 0.0000
     13 ****         0.1081  -2.0772   0.5744 H              1 S1                 0.0000
     14 ****         1.0647  -1.9941   2.8896 H              1 S1                 0.0000
     15 ****         1.4975   0.2478   3.9282 H              1 S1                 0.0000
     16 ****         0.1123   2.2383   0.5852 H              1 S1                 0.0000
     17 ****         1.1114  -1.1520  -1.8787 H              1 S1                 0.0000
     18 ****        -0.4230  -1.1435  -2.8897 H              1 S1                 0.0000
     19 ****        -0.4320   1.3349  -2.8787 H              1 S1                 0.0000
     20 ****         1.1013   1.3470  -1.8661 H              1 S1                 0.0000
     21 ****        -3.6437   1.2420  -1.1452 LP             1 S1                 0.0000
     22 ****        -2.1055   2.0363  -1.0909 LP             1 S1                 0.0000
     23 ****        -3.6385  -1.0823  -1.1406 LP             1 S1                 0.0000
     24 ****        -2.0967  -1.8694  -1.0832 LP             1 S1                 0.0000
     25 ****         1.0151   2.2193   2.7476 LP             1 S1                 0.0000
@<TRIPOS>BOND
    1    1    2 ar    
    2    2    3 ar    
    3    2    4 1     
    4    4   12 1     
    5    4    5 1     
    6    4   11 1     
    7    5   10 ar    
    8    5    6 ar    
    9    6    7 ar    
   10    6   13 1     
   11    7    8 ar    
   12    7   14 1     
   13    8    9 ar    
   14    8   15 1     
   15    9   10 ar    
   16   10   16 1     
   17   11   12 1     
   18   11   17 1     
   19   11   18 1     
   20   12   19 1     
   21   12   20 1     
   22    1   21 1     
   23    1   22 1     
   24    3   23 1     
   25    3   24 1     
   26    9   25 1     
@<TRIPOS>SUBSTRUCTURE
      1 S1             1
@<TRIPOS>SET
LONE_PAIRS      STATIC     ATOMS    <user>   **** ""
5 21 22 23 24 25
ATOM$BLUE        STATIC     ATOMS    COLORGROUP SYSTEM
5 21 22 23 24 25
