AV-unprocessed.smi:1489|AV-procd|sdf|6026|dock2
  -GOLD-   22720 6123D 1   1.00000     0.00000
 Structure written by MMmdl.
 46 48  0  0  0  0  0  0  0  0  1 V2000
  151.4826  136.7545  155.4368 O   0  0  0  0  0  0  0  0  0  0  0  0
  151.1682  136.2661  156.5214 C   0  0  0  0  0  0  0  0  0  0  0  0
  151.1522  136.9138  157.6995 N   0  0  0  0  0  0  0  0  0  0  0  0
  151.4875  138.2638  157.9979 C   0  0  0  0  0  0  0  0  0  0  0  0
  152.1783  138.6954  159.1551 C   0  0  0  0  0  0  0  0  0  0  0  0
  152.4373  140.0692  159.3231 C   0  0  0  0  0  0  0  0  0  0  0  0
  151.9970  140.9821  158.3361 C   0  0  0  0  0  0  0  0  0  0  0  0
  152.2405  142.3641  158.4652 N   0  0  0  0  0  0  0  0  0  0  0  0
  151.4630  143.3513  157.7321 C   0  0  0  0  0  0  0  0  0  0  0  0
  151.9460  144.6983  158.2670 C   0  0  0  0  0  0  0  0  0  0  0  0
  152.2969  144.3874  159.7219 C   0  0  0  0  0  0  0  0  0  0  0  0
  152.7903  142.9363  159.6867 C   0  0  0  0  0  0  0  0  0  0  0  0
  151.3393  140.5671  157.2280 N   0  0  0  0  0  0  0  0  0  0  0  0
  151.0931  139.2500  157.0717 C   0  0  0  0  0  0  0  0  0  0  0  0
  150.7870  134.9894  156.6715 N   0  0  0  0  0  0  0  0  0  0  0  0
  150.6905  134.0043  155.5982 C   0  0  2  0  0  0  0  0  0  0  0  0
  149.5309  134.3792  154.6575 C   0  0  0  0  0  0  0  0  0  0  0  0
  149.3560  133.3416  153.5344 C   0  0  0  0  0  0  0  0  0  0  0  0
  149.1849  131.9124  154.0821 C   0  0  2  0  0  0  0  0  0  0  0  0
  147.9292  131.7855  154.7197 O   0  0  0  0  0  0  0  0  0  0  0  0
  150.3148  131.5425  155.0615 C   0  0  0  0  0  0  0  0  0  0  0  0
  150.4882  132.5890  156.1763 C   0  0  0  0  0  0  0  0  0  0  0  0
  150.8487  136.3673  158.4922 H   0  0  0  0  0  0  0  0  0  0  0  0
  152.5152  138.0153  159.9201 H   0  0  0  0  0  0  0  0  0  0  0  0
  152.9727  140.4002  160.2004 H   0  0  0  0  0  0  0  0  0  0  0  0
  151.6150  143.2668  156.6556 H   0  0  0  0  0  0  0  0  0  0  0  0
  150.4023  143.2106  157.9445 H   0  0  0  0  0  0  0  0  0  0  0  0
  152.8433  145.0094  157.7303 H   0  0  0  0  0  0  0  0  0  0  0  0
  151.2004  145.4873  158.1655 H   0  0  0  0  0  0  0  0  0  0  0  0
  153.0336  145.0747  160.1384 H   0  0  0  0  0  0  0  0  0  0  0  0
  151.3961  144.4511  160.3337 H   0  0  0  0  0  0  0  0  0  0  0  0
  152.4704  142.3954  160.5779 H   0  0  0  0  0  0  0  0  0  0  0  0
  153.8788  142.8989  159.6339 H   0  0  0  0  0  0  0  0  0  0  0  0
  150.5621  138.9754  156.1719 H   0  0  0  0  0  0  0  0  0  0  0  0
  150.5445  134.6727  157.5989 H   0  0  0  0  0  0  0  0  0  0  0  0
  151.6150  134.0196  155.0175 H   0  0  0  0  0  0  0  0  0  0  0  0
  148.6031  134.4590  155.2260 H   0  0  0  0  0  0  0  0  0  0  0  0
  149.7082  135.3626  154.2202 H   0  0  0  0  0  0  0  0  0  0  0  0
  148.5066  133.6095  152.9046 H   0  0  0  0  0  0  0  0  0  0  0  0
  150.2337  133.3710  152.8876 H   0  0  0  0  0  0  0  0  0  0  0  0
  149.1906  131.2086  153.2490 H   0  0  0  0  0  0  0  0  0  0  0  0
  147.5320  130.9740  154.4424 H   0  0  0  0  0  0  0  0  0  0  0  0
  150.1331  130.5586  155.4960 H   0  0  0  0  0  0  0  0  0  0  0  0
  151.2510  131.4605  154.5080 H   0  0  0  0  0  0  0  0  0  0  0  0
  151.3377  132.3134  156.8024 H   0  0  0  0  0  0  0  0  0  0  0  0
  149.6123  132.5773  156.8268 H   0  0  0  0  0  0  0  0  0  0  0  0
  1  2  2  0  0  0  0
  2  3  1  0  0  0  0
  2 15  1  0  0  0  0
  3  4  1  0  0  0  0
  3 23  1  0  0  0  0
  4 14  1  0  0  0  0
  4  5  2  0  0  0  0
  5  6  1  0  0  0  0
  5 24  1  0  0  0  0
  6  7  2  0  0  0  0
  6 25  1  0  0  0  0
  7  8  1  0  0  0  0
  7 13  1  0  0  0  0
  8 12  1  0  0  0  0
  8  9  1  0  0  0  0
  9 10  1  0  0  0  0
  9 26  1  0  0  0  0
  9 27  1  0  0  0  0
 10 11  1  0  0  0  0
 10 28  1  0  0  0  0
 10 29  1  0  0  0  0
 11 12  1  0  0  0  0
 11 30  1  0  0  0  0
 11 31  1  0  0  0  0
 12 32  1  0  0  0  0
 12 33  1  0  0  0  0
 13 14  2  0  0  0  0
 14 34  1  0  0  0  0
 15 16  1  0  0  0  0
 15 35  1  0  0  0  0
 16 22  1  0  0  0  0
 16 17  1  0  0  0  0
 16 36  1  0  0  0  0
 17 18  1  0  0  0  0
 17 37  1  0  0  0  0
 17 38  1  0  0  0  0
 18 19  1  0  0  0  0
 18 39  1  0  0  0  0
 18 40  1  0  0  0  0
 19 20  1  0  0  0  0
 19 21  1  0  0  0  0
 19 41  1  0  0  0  0
 20 42  1  0  0  0  0
 21 22  1  0  0  0  0
 21 43  1  0  0  0  0
 21 44  1  0  0  0  0
 22 45  1  0  0  0  0
 22 46  1  0  0  0  0
M  END
> <s_m_source_file>
AV-unprocessed.smi

> <i_m_source_file_index>
1489

> <i_lp_mmshare_version>
43012

> <i_f3d_flags>
0

> <s_epik_input>
W0NIMl0xW0NIMl1bQ0BIXShbT0hdKVtDSDJdW0NIMl1bQ0BIXTFbTkhdQyg9TylbTkhdYzJbY0hdW2NIXWMobltjSF0yKU4zW0NIMl1bQ0gyXVtDSDJdW0NIMl0z

> <s_epik_cmdline>
J2VwaWtfcHl0aG9uJywgJy1waCcsICc3LjAnLCAnLXRuJywgJzgnLCAnLW1hJywgJzIwMCcsICctbWV0YWxfYmluZGluZycsICctaW1hZScsICc8aW5maWxlLm1hZT4nLCAnLW9tYWUnLCAnPG91dGZpbGUubWFlPic=

> <r_lp_tautomer_probability>
1

> <r_epik_Ionization_Penalty>
0.104121

> <r_epik_Ionization_Penalty_Charging>
0

> <r_epik_Ionization_Penalty_Neutral>
0.104121

> <r_epik_State_Penalty>
0.0934704

> <r_epik_Charging_Adjusted_Penalty>
0.0934704

> <i_epik_Tot_Q>
0

> <i_epik_Tot_abs_Q>
0

> <r_epik_Metal_State_Penalty>
0.0794432

> <b_epik_Metal_Only>
0

> <s_lp_Force_Field>
OPLS_2005

> <r_lp_Energy>
35.391

> <b_lp_Chiralities_Consistent>
1

> <s_lp_Variant>
AV-unprocessed.smi:1489-2

> <Gold.Version>
5.8.1

> <Gold.Id.Protein>
6NUR|6NUR_protein|mol2

> <Gold.PLP.Fitness>
42.9634

> <Gold.PLP.PLP>
-40.7689

> <Gold.PLP.part.hbond>
-1.0000

> <Gold.PLP.part.metal>
0.0000

> <Gold.PLP.part.buried>
-5.9910

> <Gold.PLP.part.nonpolar>
-34.1371

> <Gold.PLP.part.repulsive>
0.3195

> <Gold.PLP.ligand.clash>
0.0000

> <Gold.PLP.ligand.torsion>
0.4947

> <Gold.PLP.Chemscore.Hbond>
1.0000

> <Gold.PLP.Chemscore.CHOScore>
0.0000

> <Gold.PLP.Chemscore.Metal>
0.0000

> <Gold.Chemscore.Hbonds>
donor molecule, donor type, donor heavy atom, donor atom, acceptor molecule, acceptor atom, score
      P1  H 10752 10763       L1     1  0.99

> <Gold.PLP.Chemscore.Internal.Correction>
0.1840

> <Gold.Rescore>
     Score         DG    S(hbond)    S(metal)    S(lipo)     H(rot)  DE(clash)    DE(int)     intcor
     15.36     -16.91       0.99        0.00     100.19       1.41       0.08       1.47       ----

> <Gold.Chemscore.Fitness>
15.3605

> <Gold.Chemscore.DG>
-16.9064

> <Gold.Chemscore.ZeroCoef>
-5.4800

> <Gold.Chemscore.Hbond>
0.9916

> <Gold.Chemscore.Metal>
0.0000

> <Gold.Chemscore.Lipo>
100.1894

> <Gold.Chemscore.Internal_Hbond>
0.0000

> <Gold.Chemscore.DEClash>
0.0782

> <Gold.Chemscore.DEInternal>
1.4676

> <Gold.Chemscore.Rot>
1.4093

> <Gold.Chemscore.Internal.Correction>
   9.000000E+99

> <Gold.Chemscore.Hbonds>
donor molecule, donor type, donor heavy atom, donor atom, acceptor molecule, acceptor atom, score
      P1  H 10752 10763       L1     1  0.47

> <Gold.Chemscore.Hbond.Weighted>
-3.3120

> <Gold.Chemscore.Metal.Weighted>
-0.0000

> <Gold.Chemscore.Lipo.Weighted>
-11.7222

> <Gold.Chemscore.Internal_Hbond.Weighted>
0.0000

> <Gold.Chemscore.DEClash.Weighted>
0.0782

> <Gold.Chemscore.DEInternal.Weighted>
1.4676

> <Gold.Chemscore.Rot.Weighted>
3.6077

> <Gold.Chemscore.Internal.Correction.Weighted>
   9.000000E+99

> <Gold.Protein.RotatedTorsions>
[ 6907 6896 6895 6894 ] final  122.82 input  -60.11 | X-H torsion
[ 7974 7965 7964 7962 ] final  -34.63 input  175.53 | X-H torsion
[ 8008 7997 7996 7995 ] final  172.42 input   59.86 | X-H torsion
[ 10167 10162 10161 10158 ] final   63.33 input  -65.29 | X-H torsion
[ 10718 10713 10712 10709 ] final  156.72 input   66.30 | X-H torsion
[ 10763 10752 10751 10750 ] final   69.31 input  -60.55 | X-H torsion
[ 11005 11000 10999 10996 ] final  147.06 input  -57.11 | X-H torsion

> <Gold.Protein.ActiveResidues>
 VAL166  LYS551  ARG553  GLY616  TRP617  ASP618  TYR619  PRO620  LYS621  CYS622 
 ASP623  PHE694  ASN695  SER759  ASP760  ASP761  ALA762  ILE779  LEU786  VAL792 
 PHE793  MET794  SER795  GLU796  ALA797  LYS798  CYS799  TRP800  GLU811  SER814 

> <Gold.Protein.RotatedAtoms>
  152.4212  133.7120  159.6483 H   0  0  0  0  0  0  0  0  0  0  0  0  # atno 6907 bound_to 6896
  150.8088  133.8449  159.3198 H   0  0  0  0  0  0  0  0  0  0  0  0  # atno 6908 bound_to 6896
  151.6165  135.1038  160.0144 H   0  0  0  0  0  0  0  0  0  0  0  0  # atno 6909 bound_to 6896
  146.0813  140.6062  142.8907 H   0  0  0  0  0  0  0  0  0  0  0  0  # atno 7974 bound_to 7965
  156.1176  140.1486  156.9251 H   0  0  0  0  0  0  0  0  0  0  0  0  # atno 8008 bound_to 7997
  154.4811  140.0879  156.7422 H   0  0  0  0  0  0  0  0  0  0  0  0  # atno 8009 bound_to 7997
  155.4486  140.3434  155.4300 H   0  0  0  0  0  0  0  0  0  0  0  0  # atno 8010 bound_to 7997
  140.1342  144.4614  150.6847 H   0  0  0  0  0  0  0  0  0  0  0  0  # atno 10167 bound_to 10162
  157.2011  131.0676  151.2024 H   0  0  0  0  0  0  0  0  0  0  0  0  # atno 10718 bound_to 10713
  153.0280  135.5215  154.7268 H   0  0  0  0  0  0  0  0  0  0  0  0  # atno 10763 bound_to 10752
  154.6307  135.2900  155.0221 H   0  0  0  0  0  0  0  0  0  0  0  0  # atno 10764 bound_to 10752
  154.1174  135.6613  153.4949 H   0  0  0  0  0  0  0  0  0  0  0  0  # atno 10765 bound_to 10752
  140.0844  134.9078  157.1552 H   0  0  0  0  0  0  0  0  0  0  0  0  # atno 11005 bound_to 11000
  144.7295  140.4629  143.6948 LP  0  0  0  0  0  0  0  0  0  0  0  0  # atno 17320 bound_to 7965
  145.6212  139.1524  143.3021 LP  0  0  0  0  0  0  0  0  0  0  0  0  # atno 17321 bound_to 7965
  140.6799  143.2322  151.5411 LP  0  0  0  0  0  0  0  0  0  0  0  0  # atno 17342 bound_to 10162
  139.5504  144.2410  152.1520 LP  0  0  0  0  0  0  0  0  0  0  0  0  # atno 17343 bound_to 10162
  157.3766  130.7209  149.6601 LP  0  0  0  0  0  0  0  0  0  0  0  0  # atno 17370 bound_to 10713
  155.9700  130.4184  150.4326 LP  0  0  0  0  0  0  0  0  0  0  0  0  # atno 17371 bound_to 10713
  140.3441  134.2671  155.7207 LP  0  0  0  0  0  0  0  0  0  0  0  0  # atno 17394 bound_to 11000
  141.2057  133.7851  157.0215 LP  0  0  0  0  0  0  0  0  0  0  0  0  # atno 17395 bound_to 11000

$$$$
