#       Name:                AV-unprocessed.smi:1795
#       Creating user name   scv26
#       Creation time:       Fri Mar 27 08:49:34 2020


#       File generated by GOLD software.
#

@<TRIPOS>MOLECULE
AV-unprocessed.smi:1795
    54    55     1
SMALL
NO_CHARGES


@<TRIPOS>ATOM
      1 ****        -5.1333  -1.1309   2.4497 C.3            1 S1                 0.0000
      2 ****        -3.6259  -1.3989   2.3779 C.3            1 S1                 0.0000
      3 ****        -2.9993  -0.8295   1.0937 C.3            1 S1                 0.0000
      4 ****        -1.5516  -1.1591   1.0161 N.4            1 S1                 1.0000
      5 ****        -0.8679  -0.4763  -0.1312 C.3            1 S1                 0.0000
      6 ****        -0.6087   1.0055   0.2251 C.3            1 S1                 0.0000
      7 ****         0.4445  -1.1735  -0.5866 C.3            1 S1                 0.0000
      8 ****         1.0820  -0.4925  -1.7108 N.am           1 S1                 0.0000
      9 ****         2.1865   0.2666  -1.6380 C.2            1 S1                 0.0000
     10 ****         2.8185   0.4433  -0.5959 O.2            1 S1                 0.0000
     11 ****         2.6410   0.9220  -2.9493 C.3            1 S1                 0.0000
     12 ****         3.2981   2.2242  -2.7465 N.am           1 S1                 0.0000
     13 ****         4.7028   2.2604  -2.8531 C.2            1 S1                 0.0000
     14 ****         5.3978   3.3976  -2.6919 C.2            1 S1                 0.0000
     15 ****         4.6681   4.6088  -2.4005 C.2            1 S1                 0.0000
     16 ****         3.3247   4.5852  -2.2937 C.2            1 S1                 0.0000
     17 ****         2.5607   3.3447  -2.4694 C.2            1 S1                 0.0000
     18 ****         1.3330   3.3135  -2.3734 O.2            1 S1                 0.0000
     19 ****        -1.3796  -2.6356   1.0976 C.3            1 S1                 0.0000
     20 ****        -2.0678  -3.2199   2.3480 C.3            1 S1                 0.0000
     21 ****        -1.3124  -2.9265   3.6569 C.3            1 S1                 0.0000
     22 ****        -3.4315  -2.8086   2.4079 O.3            1 S1                 0.0000
     23 ****        -5.3432  -0.0610   2.4441 H              1 S1                 0.0000
     24 ****        -5.5599  -1.5473   3.3626 H              1 S1                 0.0000
     25 ****        -5.6563  -1.5789   1.6043 H              1 S1                 0.0000
     26 ****        -3.1606  -0.9393   3.2501 H              1 S1                 0.0000
     27 ****        -3.5101  -1.2330   0.2176 H              1 S1                 0.0000
     28 ****        -3.1576   0.2474   1.0775 H              1 S1                 0.0000
     29 ****        -1.5491  -0.5065  -0.9835 H              1 S1                 0.0000
     30 ****        -0.2101   1.5618  -0.6227 H              1 S1                 0.0000
     31 ****         0.1084   1.0920   1.0421 H              1 S1                 0.0000
     32 ****        -1.5122   1.5325   0.5253 H              1 S1                 0.0000
     33 ****         1.1350  -1.2706   0.2529 H              1 S1                 0.0000
     34 ****         0.2383  -2.1841  -0.9392 H              1 S1                 0.0000
     35 ****         0.6353  -0.5870  -2.6116 H              1 S1                 0.0000
     36 ****         3.3055   0.2251  -3.4619 H              1 S1                 0.0000
     37 ****         1.7848   1.0456  -3.6157 H              1 S1                 0.0000
     38 ****         5.1747   1.3126  -3.0676 H              1 S1                 0.0000
     39 ****         6.4747   3.4061  -2.7756 H              1 S1                 0.0000
     40 ****         5.2020   5.5381  -2.2665 H              1 S1                 0.0000
     41 ****         2.7955   5.5010  -2.0746 H              1 S1                 0.0000
     42 ****        -1.7975  -3.0927   0.1990 H              1 S1                 0.0000
     43 ****        -0.3267  -2.9125   1.1407 H              1 S1                 0.0000
     44 ****        -2.0877  -4.3044   2.2365 H              1 S1                 0.0000
     45 ****        -0.3166  -3.3703   3.6360 H              1 S1                 0.0000
     46 ****        -1.8405  -3.3470   4.5130 H              1 S1                 0.0000
     47 ****        -1.1852  -1.8588   3.8329 H              1 S1                 0.0000
     48 ****        -1.1212  -0.7900   1.8521 H              1 S1                 0.0000
     49 ****         2.5144   0.0106   0.2528 LP             1 S1                 0.0000
     50 ****         3.6358   1.0195  -0.5984 LP             1 S1                 0.0000
     51 ****         0.8434   2.4506  -2.4989 LP             1 S1                 0.0000
     52 ****         0.8259   4.1511  -2.1699 LP             1 S1                 0.0000
     53 ****        -3.9122  -3.2066   1.6265 LP             1 S1                 0.0000
     54 ****        -3.8265  -3.1601   3.2566 LP             1 S1                 0.0000
@<TRIPOS>BOND
    1    1    2 1     
    2    1   23 1     
    3    1   24 1     
    4    1   25 1     
    5    2   22 1     
    6    2    3 1     
    7    2   26 1     
    8    3    4 1     
    9    3   27 1     
   10    3   28 1     
   11    4    5 1     
   12    4   19 1     
   13    4   48 1     
   14    5    6 1     
   15    5    7 1     
   16    5   29 1     
   17    6   30 1     
   18    6   31 1     
   19    6   32 1     
   20    7    8 1     
   21    7   33 1     
   22    7   34 1     
   23    8    9 am    
   24    8   35 1     
   25    9   10 2     
   26    9   11 1     
   27   11   12 1     
   28   11   36 1     
   29   11   37 1     
   30   12   17 am    
   31   12   13 1     
   32   13   14 2     
   33   13   38 1     
   34   14   15 1     
   35   14   39 1     
   36   15   16 2     
   37   15   40 1     
   38   16   17 1     
   39   16   41 1     
   40   17   18 2     
   41   19   20 1     
   42   19   42 1     
   43   19   43 1     
   44   20   21 1     
   45   20   22 1     
   46   20   44 1     
   47   21   45 1     
   48   21   46 1     
   49   21   47 1     
   50   10   49 1     
   51   10   50 1     
   52   18   51 1     
   53   18   52 1     
   54   22   53 1     
   55   22   54 1     
@<TRIPOS>SUBSTRUCTURE
      1 S1             1
@<TRIPOS>SET
LONE_PAIRS      STATIC     ATOMS    <user>   **** ""
6 49 50 51 52 53 54
DONOR_HYDROGENS      STATIC     ATOMS    <user>   **** ""
2 48 35
ATOM$BLUE        STATIC     ATOMS    COLORGROUP SYSTEM
6 49 50 51 52 53 54
ATOM$RED        STATIC     ATOMS    COLORGROUP SYSTEM
2 48 35
