#       Name:                AV-unprocessed.smi:2518
#       Creating user name   scv26
#       Creation time:       Fri Mar 27 13:54:05 2020


#       File generated by GOLD software.
#

@<TRIPOS>MOLECULE
AV-unprocessed.smi:2518
    49    51     1
SMALL
NO_CHARGES


@<TRIPOS>ATOM
      1 ****        -5.1691   3.0217   0.6079 C.3            1 S1                 0.0000
      2 ****        -3.6705   2.8149   0.5310 C.ar           1 S1                 0.0000
      3 ****        -2.8264   3.8687   0.1286 C.ar           1 S1                 0.0000
      4 ****        -1.4343   3.6702   0.0565 C.ar           1 S1                 0.0000
      5 ****        -0.8640   2.4227   0.3827 C.ar           1 S1                 0.0000
      6 ****         0.5070   2.3173   0.2843 O.3            1 S1                 0.0000
      7 ****         1.1097   1.0729   0.6124 C.3            1 S1                 0.0000
      8 ****         2.6326   1.1839   0.4143 C.3            1 S1                 0.0000
      9 ****         3.1773   1.8793   1.5177 O.3            1 S1                 0.0000
     10 ****         3.3535  -0.1776   0.3365 C.3            1 S1                 0.0000
     11 ****         2.9088  -0.9956  -0.7822 N.pl3          1 S1                 0.0000
     12 ****         3.4146  -0.7628  -2.0205 N.2            1 S1                 0.0000
     13 ****         2.8353  -1.6532  -2.8233 C.2            1 S1                 0.0000
     14 ****         1.9289  -2.4935  -2.1206 C.2            1 S1                 0.0000
     15 ****         1.0496  -3.6000  -2.4854 C.2            1 S1                 0.0000
     16 ****         0.3348  -4.1483  -1.5533 N.2            1 S1                 0.0000
     17 ****         0.3960  -3.6976  -0.2296 N.am           1 S1                 0.0000
     18 ****        -0.4761  -4.4110   0.7005 C.3            1 S1                 0.0000
     19 ****         1.1786  -2.6680   0.2133 C.2            1 S1                 0.0000
     20 ****         1.2016  -2.2723   1.3787 O.2            1 S1                 0.0000
     21 ****         2.0084  -2.0418  -0.8445 C.2            1 S1                 0.0000
     22 ****        -1.7195   1.3655   0.7852 C.ar           1 S1                 0.0000
     23 ****        -3.1122   1.5632   0.8571 C.ar           1 S1                 0.0000
     24 ****        -5.4161   4.0801   0.6970 H              1 S1                 0.0000
     25 ****        -5.5846   2.5045   1.4733 H              1 S1                 0.0000
     26 ****        -5.6494   2.6315  -0.2896 H              1 S1                 0.0000
     27 ****        -3.2422   4.8324  -0.1266 H              1 S1                 0.0000
     28 ****        -0.7965   4.4851  -0.2533 H              1 S1                 0.0000
     29 ****         0.8742   0.7667   1.6332 H              1 S1                 0.0000
     30 ****         0.7006   0.3230  -0.0641 H              1 S1                 0.0000
     31 ****         2.8438   1.7486  -0.4948 H              1 S1                 0.0000
     32 ****         2.9780   1.3965   2.3052 H              1 S1                 0.0000
     33 ****         4.4283  -0.0207   0.2313 H              1 S1                 0.0000
     34 ****         3.2237  -0.7365   1.2627 H              1 S1                 0.0000
     35 ****         3.0884  -1.6577  -3.8732 H              1 S1                 0.0000
     36 ****         0.9998  -3.9517  -3.5158 H              1 S1                 0.0000
     37 ****         0.1016  -4.8339   1.5239 H              1 S1                 0.0000
     38 ****        -1.0073  -5.2320   0.2160 H              1 S1                 0.0000
     39 ****        -1.2229  -3.7345   1.1186 H              1 S1                 0.0000
     40 ****        -1.3328   0.3914   1.0436 H              1 S1                 0.0000
     41 ****        -3.7516   0.7485   1.1643 H              1 S1                 0.0000
     42 ****         0.9018   3.0072   0.8911 LP             1 S1                 0.0000
     43 ****         0.7533   2.5257  -0.6622 LP             1 S1                 0.0000
     44 ****         2.7755   2.7934   1.5719 LP             1 S1                 0.0000
     45 ****         4.1686   1.9567   1.4115 LP             1 S1                 0.0000
     46 ****         4.0844  -0.0659  -2.2769 LP             1 S1                 0.0000
     47 ****        -0.2724  -4.9084  -1.7846 LP             1 S1                 0.0000
     48 ****         0.6237  -2.7106   2.0671 LP             1 S1                 0.0000
     49 ****         1.7982  -1.5125   1.6371 LP             1 S1                 0.0000
@<TRIPOS>BOND
    1    1    2 1     
    2    1   24 1     
    3    1   25 1     
    4    1   26 1     
    5    2   23 ar    
    6    2    3 ar    
    7    3    4 ar    
    8    3   27 1     
    9    4    5 ar    
   10    4   28 1     
   11    5    6 1     
   12    5   22 ar    
   13    6    7 1     
   14    7    8 1     
   15    7   29 1     
   16    7   30 1     
   17    8    9 1     
   18    8   10 1     
   19    8   31 1     
   20    9   32 1     
   21   10   11 1     
   22   10   33 1     
   23   10   34 1     
   24   11   21 1     
   25   11   12 1     
   26   12   13 2     
   27   13   14 1     
   28   13   35 1     
   29   14   21 2     
   30   14   15 1     
   31   15   16 2     
   32   15   36 1     
   33   16   17 1     
   34   17   18 1     
   35   17   19 am    
   36   18   37 1     
   37   18   38 1     
   38   18   39 1     
   39   19   20 2     
   40   19   21 1     
   41   22   23 ar    
   42   22   40 1     
   43   23   41 1     
   44    6   42 1     
   45    6   43 1     
   46    9   44 1     
   47    9   45 1     
   48   12   46 1     
   49   16   47 1     
   50   20   48 1     
   51   20   49 1     
@<TRIPOS>SUBSTRUCTURE
      1 S1             1
@<TRIPOS>SET
LONE_PAIRS      STATIC     ATOMS    <user>   **** ""
8 42 43 44 45 46 47 48 49
DONOR_HYDROGENS      STATIC     ATOMS    <user>   **** ""
1 32
ATOM$BLUE        STATIC     ATOMS    COLORGROUP SYSTEM
8 42 43 44 45 46 47 48 49
ATOM$RED        STATIC     ATOMS    COLORGROUP SYSTEM
1 32
