AV-unprocessed.smi:1945|AV-procd|sdf|7857|dock7
  -GOLD-   2272010 03D 1   1.00000     0.00000
 Structure written by MMmdl.
 47 48  0  0  0  0  0  0  0  0  1 V2000
  153.4811  141.4039  160.6312 C   0  0  0  0  0  0  0  0  0  0  0  0
  152.6481  142.1066  159.6004 C   0  0  0  0  0  0  0  0  0  0  0  0
  151.9704  141.5371  158.4835 C   0  0  0  0  0  0  0  0  0  0  0  0
  151.3801  142.6260  157.9024 C   0  0  0  0  0  0  0  0  0  0  0  0
  150.5870  142.6798  156.7994 N   0  0  0  0  0  0  0  0  0  0  0  0
  150.2264  141.6794  155.9774 C   0  0  0  0  0  0  0  0  0  0  0  0
  150.6450  140.5231  156.0364 O   0  0  0  0  0  0  0  0  0  0  0  0
  149.3395  142.1005  155.0639 N   0  0  0  0  0  0  0  0  0  0  0  0
  148.6968  141.2544  154.0635 C   0  0  0  0  0  0  0  0  0  0  0  0
  147.1671  141.2900  154.1974 C   0  0  0  0  0  0  0  0  0  0  0  0
  146.8011  142.3818  155.0273 O   0  0  0  0  0  0  0  0  0  0  0  0
  145.6039  143.0460  154.6499 C   0  0  2  0  0  0  0  0  0  0  0  0
  145.8599  143.8528  153.3589 C   0  0  0  0  0  0  0  0  0  0  0  0
  144.6484  144.7179  152.9820 C   0  0  0  0  0  0  0  0  0  0  0  0
  144.2561  145.6487  154.1377 C   0  0  0  0  0  0  0  0  0  0  0  0
  143.9885  144.8493  155.4216 C   0  0  0  0  0  0  0  0  0  0  0  0
  145.1981  143.9775  155.8145 C   0  0  1  0  0  0  0  0  0  0  0  0
  144.9025  143.1864  157.0989 C   0  0  0  0  0  0  0  0  0  0  0  0
  151.6908  143.7470  158.6393 N   0  0  0  0  0  0  0  0  0  0  0  0
  151.3006  145.1275  158.4289 C   0  0  0  0  0  0  0  0  0  0  0  0
  152.4809  143.4217  159.6853 N   0  0  0  0  0  0  0  0  0  0  0  0
  153.4490  140.3229  160.4935 H   0  0  0  0  0  0  0  0  0  0  0  0
  153.1245  141.6195  161.6388 H   0  0  0  0  0  0  0  0  0  0  0  0
  154.5240  141.7153  160.5712 H   0  0  0  0  0  0  0  0  0  0  0  0
  151.9329  140.5013  158.1811 H   0  0  0  0  0  0  0  0  0  0  0  0
  150.1985  143.5881  156.5926 H   0  0  0  0  0  0  0  0  0  0  0  0
  149.0609  143.0704  155.0836 H   0  0  0  0  0  0  0  0  0  0  0  0
  148.9824  141.6338  153.0823 H   0  0  0  0  0  0  0  0  0  0  0  0
  149.0677  140.2295  154.1191 H   0  0  0  0  0  0  0  0  0  0  0  0
  146.7081  141.3614  153.2109 H   0  0  0  0  0  0  0  0  0  0  0  0
  146.8125  140.3646  154.6528 H   0  0  0  0  0  0  0  0  0  0  0  0
  144.8037  142.3216  154.4843 H   0  0  0  0  0  0  0  0  0  0  0  0
  146.7323  144.4932  153.4975 H   0  0  0  0  0  0  0  0  0  0  0  0
  146.0976  143.1877  152.5292 H   0  0  0  0  0  0  0  0  0  0  0  0
  144.8740  145.3051  152.0914 H   0  0  0  0  0  0  0  0  0  0  0  0
  143.8050  144.0756  152.7253 H   0  0  0  0  0  0  0  0  0  0  0  0
  145.0550  146.3700  154.3149 H   0  0  0  0  0  0  0  0  0  0  0  0
  143.3716  146.2262  153.8675 H   0  0  0  0  0  0  0  0  0  0  0  0
  143.7455  145.5365  156.2327 H   0  0  0  0  0  0  0  0  0  0  0  0
  143.1100  144.2184  155.2792 H   0  0  0  0  0  0  0  0  0  0  0  0
  146.0365  144.6445  156.0221 H   0  0  0  0  0  0  0  0  0  0  0  0
  144.0781  142.4877  156.9529 H   0  0  0  0  0  0  0  0  0  0  0  0
  144.6325  143.8543  157.9173 H   0  0  0  0  0  0  0  0  0  0  0  0
  145.7718  142.6123  157.4207 H   0  0  0  0  0  0  0  0  0  0  0  0
  150.2439  145.1776  158.1649 H   0  0  0  0  0  0  0  0  0  0  0  0
  151.8921  145.5532  157.6183 H   0  0  0  0  0  0  0  0  0  0  0  0
  151.4629  145.7130  159.3350 H   0  0  0  0  0  0  0  0  0  0  0  0
  1  2  1  0  0  0  0
  1 22  1  0  0  0  0
  1 23  1  0  0  0  0
  1 24  1  0  0  0  0
  2 21  2  0  0  0  0
  2  3  1  0  0  0  0
  3  4  2  0  0  0  0
  3 25  1  0  0  0  0
  4  5  1  0  0  0  0
  4 19  1  0  0  0  0
  5  6  1  0  0  0  0
  5 26  1  0  0  0  0
  6  7  2  0  0  0  0
  6  8  1  0  0  0  0
  8  9  1  0  0  0  0
  8 27  1  0  0  0  0
  9 10  1  0  0  0  0
  9 28  1  0  0  0  0
  9 29  1  0  0  0  0
 10 11  1  0  0  0  0
 10 30  1  0  0  0  0
 10 31  1  0  0  0  0
 11 12  1  0  0  0  0
 12 17  1  0  0  0  0
 12 13  1  0  0  0  0
 12 32  1  0  0  0  0
 13 14  1  0  0  0  0
 13 33  1  0  0  0  0
 13 34  1  0  0  0  0
 14 15  1  0  0  0  0
 14 35  1  0  0  0  0
 14 36  1  0  0  0  0
 15 16  1  0  0  0  0
 15 37  1  0  0  0  0
 15 38  1  0  0  0  0
 16 17  1  0  0  0  0
 16 39  1  0  0  0  0
 16 40  1  0  0  0  0
 17 18  1  0  0  0  0
 17 41  1  0  0  0  0
 18 42  1  0  0  0  0
 18 43  1  0  0  0  0
 18 44  1  0  0  0  0
 19 20  1  0  0  0  0
 19 21  1  0  0  0  0
 20 45  1  0  0  0  0
 20 46  1  0  0  0  0
 20 47  1  0  0  0  0
M  END
> <s_m_source_file>
AV-unprocessed.smi

> <i_m_source_file_index>
1945

> <i_lp_mmshare_version>
43012

> <i_f3d_flags>
0

> <s_epik_input>
W0NIM11jMVtjSF1jKG4objEpW0NIM10pW05IXUMoPU8pW05IXVtDSDJdW0NIMl1PW0NAQEhdMltDSDJdW0NIMl1bQ0gyXVtDSDJdW0NASF0yW0NIM10=

> <s_epik_cmdline>
J2VwaWtfcHl0aG9uJywgJy1waCcsICc3LjAnLCAnLXRuJywgJzgnLCAnLW1hJywgJzIwMCcsICctbWV0YWxfYmluZGluZycsICctaW1hZScsICc8aW5maWxlLm1hZT4nLCAnLW9tYWUnLCAnPG91dGZpbGUubWFlPic=

> <r_lp_tautomer_probability>
1

> <r_epik_Ionization_Penalty>
9.47735e-05

> <r_epik_Ionization_Penalty_Charging>
0

> <r_epik_Ionization_Penalty_Neutral>
9.47735e-05

> <r_epik_State_Penalty>
-0

> <r_epik_Charging_Adjusted_Penalty>
0

> <i_epik_Tot_Q>
0

> <i_epik_Tot_abs_Q>
0

> <r_epik_Metal_State_Penalty>
-0

> <b_epik_Metal_Only>
0

> <s_lp_Force_Field>
OPLS_2005

> <r_lp_Energy>
11.707

> <b_lp_Chiralities_Consistent>
1

> <s_lp_Variant>
AV-unprocessed.smi:1945-1

> <Gold.Version>
5.8.1

> <Gold.Id.Protein>
6NUR|6NUR_protein|mol2

> <Gold.PLP.Fitness>
48.8549

> <Gold.PLP.PLP>
-44.1177

> <Gold.PLP.part.hbond>
-2.0000

> <Gold.PLP.part.metal>
0.0000

> <Gold.PLP.part.buried>
-6.3809

> <Gold.PLP.part.nonpolar>
-36.2725

> <Gold.PLP.part.repulsive>
0.4329

> <Gold.PLP.ligand.clash>
0.0000

> <Gold.PLP.ligand.torsion>
0.6500

> <Gold.PLP.Chemscore.Hbond>
2.0000

> <Gold.PLP.Chemscore.CHOScore>
0.0000

> <Gold.PLP.Chemscore.Metal>
0.0000

> <Gold.Chemscore.Hbonds>
donor molecule, donor type, donor heavy atom, donor atom, acceptor molecule, acceptor atom, score
      L1  H     5    26       P1  8028  1.00
      L1  H     8    27       P1  8028  1.00

> <Gold.PLP.Chemscore.Internal.Correction>
0.0372

> <Gold.Rescore>
     Score         DG    S(hbond)    S(metal)    S(lipo)     H(rot)  DE(clash)    DE(int)     intcor
     16.52     -18.43       1.97        0.00      90.03       1.63       0.03       1.88       ----

> <Gold.Chemscore.Fitness>
16.5240

> <Gold.Chemscore.DG>
-18.4331

> <Gold.Chemscore.ZeroCoef>
-5.4800

> <Gold.Chemscore.Hbond>
1.9750

> <Gold.Chemscore.Metal>
0.0000

> <Gold.Chemscore.Lipo>
90.0300

> <Gold.Chemscore.Internal_Hbond>
0.0000

> <Gold.Chemscore.DEClash>
0.0298

> <Gold.Chemscore.DEInternal>
1.8793

> <Gold.Chemscore.Rot>
1.6316

> <Gold.Chemscore.Internal.Correction>
   9.000000E+99

> <Gold.Chemscore.Hbonds>
donor molecule, donor type, donor heavy atom, donor atom, acceptor molecule, acceptor atom, score
      L1  H     5    26       P1  8028  0.95
      L1  H     8    27       P1  8028  1.00

> <Gold.Chemscore.Hbond.Weighted>
-6.5964

> <Gold.Chemscore.Metal.Weighted>
-0.0000

> <Gold.Chemscore.Lipo.Weighted>
-10.5335

> <Gold.Chemscore.Internal_Hbond.Weighted>
0.0000

> <Gold.Chemscore.DEClash.Weighted>
0.0298

> <Gold.Chemscore.DEInternal.Weighted>
1.8793

> <Gold.Chemscore.Rot.Weighted>
4.1768

> <Gold.Chemscore.Internal.Correction.Weighted>
   9.000000E+99

> <Gold.Protein.RotatedTorsions>
[ 6907 6896 6895 6894 ] final -172.58 input  -60.11 | X-H torsion
[ 7974 7965 7964 7962 ] final  -21.05 input  175.53 | X-H torsion
[ 8008 7997 7996 7995 ] final -169.08 input   59.86 | X-H torsion
[ 10167 10162 10161 10158 ] final   20.40 input  -65.29 | X-H torsion
[ 10718 10713 10712 10709 ] final  -91.23 input   66.30 | X-H torsion
[ 10763 10752 10751 10750 ] final   71.57 input  -60.55 | X-H torsion
[ 11005 11000 10999 10996 ] final -146.27 input  -57.11 | X-H torsion

> <Gold.Protein.ActiveResidues>
 VAL166  LYS551  ARG553  GLY616  TRP617  ASP618  TYR619  PRO620  LYS621  CYS622 
 ASP623  PHE694  ASN695  SER759  ASP760  ASP761  ALA762  ILE779  LEU786  VAL792 
 PHE793  MET794  SER795  GLU796  ALA797  LYS798  CYS799  TRP800  GLU811  SER814 

> <Gold.Protein.RotatedAtoms>
  151.5422  133.3431  159.2937 H   0  0  0  0  0  0  0  0  0  0  0  0  # atno 6907 bound_to 6896
  150.8528  134.7861  159.7033 H   0  0  0  0  0  0  0  0  0  0  0  0  # atno 6908 bound_to 6896
  152.4570  134.5278  159.9853 H   0  0  0  0  0  0  0  0  0  0  0  0  # atno 6909 bound_to 6896
  146.1754  140.4287  142.8515 H   0  0  0  0  0  0  0  0  0  0  0  0  # atno 7974 bound_to 7965
  155.9002  140.1039  157.1355 H   0  0  0  0  0  0  0  0  0  0  0  0  # atno 8008 bound_to 7997
  154.4025  140.1294  156.4490 H   0  0  0  0  0  0  0  0  0  0  0  0  # atno 8009 bound_to 7997
  155.7432  140.3466  155.5116 H   0  0  0  0  0  0  0  0  0  0  0  0  # atno 8010 bound_to 7997
  140.5506  143.9515  150.6576 H   0  0  0  0  0  0  0  0  0  0  0  0  # atno 10167 bound_to 10162
  155.9992  130.4940  150.5443 H   0  0  0  0  0  0  0  0  0  0  0  0  # atno 10718 bound_to 10713
  153.0406  135.5132  154.7612 H   0  0  0  0  0  0  0  0  0  0  0  0  # atno 10763 bound_to 10752
  154.6553  135.2931  154.9938 H   0  0  0  0  0  0  0  0  0  0  0  0  # atno 10764 bound_to 10752
  154.0808  135.6664  153.4890 H   0  0  0  0  0  0  0  0  0  0  0  0  # atno 10765 bound_to 10752
  140.7837  134.3049  157.5037 H   0  0  0  0  0  0  0  0  0  0  0  0  # atno 11005 bound_to 11000
  144.8228  140.6579  143.6341 LP  0  0  0  0  0  0  0  0  0  0  0  0  # atno 17320 bound_to 7965
  145.4225  139.1561  143.4066 LP  0  0  0  0  0  0  0  0  0  0  0  0  # atno 17321 bound_to 7965
  140.2940  143.3305  152.1035 LP  0  0  0  0  0  0  0  0  0  0  0  0  # atno 17342 bound_to 10162
  139.5026  144.6738  151.6179 LP  0  0  0  0  0  0  0  0  0  0  0  0  # atno 17343 bound_to 10162
  157.3375  131.0711  151.1814 LP  0  0  0  0  0  0  0  0  0  0  0  0  # atno 17370 bound_to 10713
  157.2673  130.6687  149.6003 LP  0  0  0  0  0  0  0  0  0  0  0  0  # atno 17371 bound_to 10713
  139.8739  134.9333  156.3578 LP  0  0  0  0  0  0  0  0  0  0  0  0  # atno 17394 bound_to 11000
  140.9457  133.7484  156.0205 LP  0  0  0  0  0  0  0  0  0  0  0  0  # atno 17395 bound_to 11000

$$$$
