AV-unprocessed.smi:677|AV-procd|sdf|3311|dock10
  -GOLD-   22720 0273D 1   1.00000     0.00000
 Structure written by MMmdl.
 43 44  0  0  0  0  0  0  0  0  1 V2000
  143.6367  132.6881  148.3991 C   0  0  0  0  0  0  0  0  0  0  0  0
  144.2218  133.3426  149.6332 C   0  0  0  0  0  0  0  0  0  0  0  0
  144.8801  132.5674  150.6102 C   0  0  0  0  0  0  0  0  0  0  0  0
  145.4084  133.2199  151.7407 C   0  0  0  0  0  0  0  0  0  0  0  0
  145.2578  134.6179  151.8511 C   0  0  0  0  0  0  0  0  0  0  0  0
  145.8336  135.3719  153.0364 C   0  0  0  0  0  0  0  0  0  0  0  0
  145.6273  136.8729  152.8378 C   0  0  0  0  0  0  0  0  0  0  0  0
  144.5016  137.3584  152.9442 O   0  0  0  0  0  0  0  0  0  0  0  0
  146.7305  137.5951  152.5866 N   0  0  0  0  0  0  0  0  0  0  0  0
  146.7941  139.0509  152.5138 C   0  0  0  0  0  0  0  0  0  0  0  0
  147.5871  139.6434  153.6967 C   0  0  0  0  0  0  0  0  0  0  0  0
  148.0738  141.0843  153.4465 C   0  0  0  0  0  0  0  0  0  0  0  0
  148.9211  141.6006  154.6224 C   0  0  0  0  0  0  0  0  0  0  0  0
  150.0766  140.7276  154.8434 N   0  0  0  0  0  0  0  0  0  0  0  0
  150.8963  141.2464  155.9333 C   0  0  0  0  0  0  0  0  0  0  0  0
  151.9410  140.2990  156.3572 C   0  0  0  0  0  0  0  0  0  0  0  0
  152.7614  139.5540  156.6902 N   0  0  0  0  0  0  0  0  0  0  0  0
  149.6184  139.3843  155.1987 C   0  0  0  0  0  0  0  0  0  0  0  0
  148.8056  138.7725  154.0442 C   0  0  0  0  0  0  0  0  0  0  0  0
  144.5767  135.2991  150.8197 C   0  0  0  0  0  0  0  0  0  0  0  0
  144.0686  134.6818  149.7318 N   0  0  0  0  0  0  0  0  0  0  0  0
  144.2895  131.8907  148.0429 H   0  0  0  0  0  0  0  0  0  0  0  0
  143.5108  133.4084  147.5897 H   0  0  0  0  0  0  0  0  0  0  0  0
  142.6624  132.2568  148.6295 H   0  0  0  0  0  0  0  0  0  0  0  0
  144.9816  131.4982  150.4960 H   0  0  0  0  0  0  0  0  0  0  0  0
  145.9262  132.6581  152.5043 H   0  0  0  0  0  0  0  0  0  0  0  0
  145.3536  135.0462  153.9604 H   0  0  0  0  0  0  0  0  0  0  0  0
  146.8976  135.1521  153.1350 H   0  0  0  0  0  0  0  0  0  0  0  0
  147.6078  137.1006  152.5122 H   0  0  0  0  0  0  0  0  0  0  0  0
  147.2839  139.3126  151.5754 H   0  0  0  0  0  0  0  0  0  0  0  0
  145.7964  139.4906  152.4672 H   0  0  0  0  0  0  0  0  0  0  0  0
  146.9288  139.6588  154.5670 H   0  0  0  0  0  0  0  0  0  0  0  0
  148.6581  141.1260  152.5260 H   0  0  0  0  0  0  0  0  0  0  0  0
  147.2260  141.7548  153.3044 H   0  0  0  0  0  0  0  0  0  0  0  0
  149.2583  142.6129  154.3988 H   0  0  0  0  0  0  0  0  0  0  0  0
  148.3156  141.6591  155.5283 H   0  0  0  0  0  0  0  0  0  0  0  0
  151.3692  142.1891  155.6543 H   0  0  0  0  0  0  0  0  0  0  0  0
  150.2727  141.4380  156.8073 H   0  0  0  0  0  0  0  0  0  0  0  0
  150.4808  138.7506  155.4081 H   0  0  0  0  0  0  0  0  0  0  0  0
  149.0189  139.4202  156.1097 H   0  0  0  0  0  0  0  0  0  0  0  0
  148.4797  137.7689  154.3195 H   0  0  0  0  0  0  0  0  0  0  0  0
  149.4457  138.6593  153.1678 H   0  0  0  0  0  0  0  0  0  0  0  0
  144.4454  136.3703  150.8630 H   0  0  0  0  0  0  0  0  0  0  0  0
  1  2  1  0  0  0  0
  1 22  1  0  0  0  0
  1 23  1  0  0  0  0
  1 24  1  0  0  0  0
  2 21  1  0  0  0  0
  2  3  2  0  0  0  0
  3  4  1  0  0  0  0
  3 25  1  0  0  0  0
  4  5  2  0  0  0  0
  4 26  1  0  0  0  0
  5  6  1  0  0  0  0
  5 20  1  0  0  0  0
  6  7  1  0  0  0  0
  6 27  1  0  0  0  0
  6 28  1  0  0  0  0
  7  8  2  0  0  0  0
  7  9  1  0  0  0  0
  9 10  1  0  0  0  0
  9 29  1  0  0  0  0
 10 11  1  0  0  0  0
 10 30  1  0  0  0  0
 10 31  1  0  0  0  0
 11 19  1  0  0  0  0
 11 12  1  0  0  0  0
 11 32  1  0  0  0  0
 12 13  1  0  0  0  0
 12 33  1  0  0  0  0
 12 34  1  0  0  0  0
 13 14  1  0  0  0  0
 13 35  1  0  0  0  0
 13 36  1  0  0  0  0
 14 15  1  0  0  0  0
 14 18  1  0  0  0  0
 15 16  1  0  0  0  0
 15 37  1  0  0  0  0
 15 38  1  0  0  0  0
 16 17  3  0  0  0  0
 18 19  1  0  0  0  0
 18 39  1  0  0  0  0
 18 40  1  0  0  0  0
 19 41  1  0  0  0  0
 19 42  1  0  0  0  0
 20 21  2  0  0  0  0
 20 43  1  0  0  0  0
M  END
> <s_m_source_file>
AV-unprocessed.smi

> <i_m_source_file_index>
677

> <i_lp_mmshare_version>
43012

> <i_f3d_flags>
0

> <s_epik_input>
W0NIM11jMVtjSF1bY0hdYyhbY0hdbjEpW0NIMl1DKD1PKVtOSF1bQ0gyXVtDSF0yW0NIMl1bQ0gyXU4oW0NIMl1DI04pW0NIMl1bQ0gyXTI=

> <s_epik_cmdline>
J2VwaWtfcHl0aG9uJywgJy1waCcsICc3LjAnLCAnLXRuJywgJzgnLCAnLW1hJywgJzIwMCcsICctbWV0YWxfYmluZGluZycsICctaW1hZScsICc8aW5maWxlLm1hZT4nLCAnLW9tYWUnLCAnPG91dGZpbGUubWFlPic=

> <r_epik_Ionization_Penalty>
0.0175809

> <r_epik_Ionization_Penalty_Charging>
0

> <r_epik_Ionization_Penalty_Neutral>
0.0175809

> <r_epik_State_Penalty>
0.0130795

> <r_epik_Charging_Adjusted_Penalty>
0.0130795

> <i_epik_Tot_Q>
0

> <i_epik_Tot_abs_Q>
0

> <r_epik_Metal_State_Penalty>
0.0127214

> <b_epik_Metal_Only>
0

> <s_lp_Force_Field>
OPLS_2005

> <r_lp_Energy>
13.8767

> <b_lp_Chiralities_Consistent>
1

> <s_lp_Variant>
AV-unprocessed.smi:677-1

> <Gold.Version>
5.8.1

> <Gold.Id.Protein>
6NUR|6NUR_protein|mol2

> <Gold.PLP.Fitness>
47.6888

> <Gold.PLP.PLP>
-37.9421

> <Gold.PLP.part.hbond>
-3.0000

> <Gold.PLP.part.metal>
0.0000

> <Gold.PLP.part.buried>
-2.9272

> <Gold.PLP.part.nonpolar>
-33.3213

> <Gold.PLP.part.repulsive>
1.9988

> <Gold.PLP.ligand.clash>
0.0000

> <Gold.PLP.ligand.torsion>
0.4083

> <Gold.PLP.Chemscore.Hbond>
2.5105

> <Gold.PLP.Chemscore.CHOScore>
1.0000

> <Gold.PLP.Chemscore.Metal>
0.0000

> <Gold.Chemscore.Hbonds>
donor molecule, donor type, donor heavy atom, donor atom, acceptor molecule, acceptor atom, score
      L1  H     9    29       P1  7948  1.00
      P1  H  7989  7998       L1    14  0.46
      P1  H  7997  8009       L1    17  1.00
      L1  C    20    43       P1 10171  1.00

> <Gold.PLP.Chemscore.Internal.Correction>
0.0318

> <Gold.Rescore>
     Score         DG    S(hbond)    S(metal)    S(lipo)     H(rot)  DE(clash)    DE(int)     intcor
     17.78     -18.85       2.01        0.00      95.84       1.78       0.47       0.61       ----

> <Gold.Chemscore.Fitness>
17.7843

> <Gold.Chemscore.DG>
-18.8545

> <Gold.Chemscore.ZeroCoef>
-5.4800

> <Gold.Chemscore.Hbond>
2.0076

> <Gold.Chemscore.Metal>
0.0000

> <Gold.Chemscore.Lipo>
95.8405

> <Gold.Chemscore.Internal_Hbond>
0.0000

> <Gold.Chemscore.DEClash>
0.4652

> <Gold.Chemscore.DEInternal>
0.6050

> <Gold.Chemscore.Rot>
1.7751

> <Gold.Chemscore.Internal.Correction>
   9.000000E+99

> <Gold.Chemscore.Hbonds>
donor molecule, donor type, donor heavy atom, donor atom, acceptor molecule, acceptor atom, score
      L1  H     9    29       P1  7948  1.00
      P1  H  7989  7998       L1    14  0.03
      P1  H  7997  8009       L1    17  0.91

> <Gold.Chemscore.Hbond.Weighted>
-6.7054

> <Gold.Chemscore.Metal.Weighted>
-0.0000

> <Gold.Chemscore.Lipo.Weighted>
-11.2133

> <Gold.Chemscore.Internal_Hbond.Weighted>
0.0000

> <Gold.Chemscore.DEClash.Weighted>
0.4652

> <Gold.Chemscore.DEInternal.Weighted>
0.6050

> <Gold.Chemscore.Rot.Weighted>
4.5442

> <Gold.Chemscore.Internal.Correction.Weighted>
   9.000000E+99

> <Gold.Protein.RotatedTorsions>
[ 6907 6896 6895 6894 ] final  -26.05 input  -60.11 | X-H torsion
[ 7974 7965 7964 7962 ] final  -32.36 input  175.53 | X-H torsion
[ 8008 7997 7996 7995 ] final -172.56 input   59.86 | X-H torsion
[ 10167 10162 10161 10158 ] final  158.93 input  -65.29 | X-H torsion
[ 10718 10713 10712 10709 ] final  -35.24 input   66.30 | X-H torsion
[ 10763 10752 10751 10750 ] final  116.40 input  -60.55 | X-H torsion
[ 11005 11000 10999 10996 ] final   63.79 input  -57.11 | X-H torsion

> <Gold.Protein.ActiveResidues>
 VAL166  LYS551  ARG553  GLY616  TRP617  ASP618  TYR619  PRO620  LYS621  CYS622 
 ASP623  PHE694  ASN695  SER759  ASP760  ASP761  ALA762  ILE779  LEU786  VAL792 
 PHE793  MET794  SER795  GLU796  ALA797  LYS798  CYS799  TRP800  GLU811  SER814 

> <Gold.Protein.RotatedAtoms>
  151.1665  135.0298  159.8732 H   0  0  0  0  0  0  0  0  0  0  0  0  # atno 6907 bound_to 6896
  152.5450  134.1220  159.8413 H   0  0  0  0  0  0  0  0  0  0  0  0  # atno 6908 bound_to 6896
  151.1321  133.4983  159.2631 H   0  0  0  0  0  0  0  0  0  0  0  0  # atno 6909 bound_to 6896
  146.0996  140.5783  142.8827 H   0  0  0  0  0  0  0  0  0  0  0  0  # atno 7974 bound_to 7965
  155.9462  140.1118  157.1015 H   0  0  0  0  0  0  0  0  0  0  0  0  # atno 8008 bound_to 7997
  154.4099  140.1209  156.5058 H   0  0  0  0  0  0  0  0  0  0  0  0  # atno 8009 bound_to 7997
  155.6900  140.3472  155.4892 H   0  0  0  0  0  0  0  0  0  0  0  0  # atno 8010 bound_to 7997
  139.4829  144.4778  151.8487 H   0  0  0  0  0  0  0  0  0  0  0  0  # atno 10167 bound_to 10162
  156.3410  130.4293  149.7788 H   0  0  0  0  0  0  0  0  0  0  0  0  # atno 10718 bound_to 10713
  153.5367  135.3567  155.2700 H   0  0  0  0  0  0  0  0  0  0  0  0  # atno 10763 bound_to 10752
  154.8721  135.4081  154.3090 H   0  0  0  0  0  0  0  0  0  0  0  0  # atno 10764 bound_to 10752
  153.3789  135.7067  153.6648 H   0  0  0  0  0  0  0  0  0  0  0  0  # atno 10765 bound_to 10752
  140.0001  134.6455  155.9944 H   0  0  0  0  0  0  0  0  0  0  0  0  # atno 11005 bound_to 11000
  144.7422  140.4973  143.6861 LP  0  0  0  0  0  0  0  0  0  0  0  0  # atno 17320 bound_to 7965
  145.5881  139.1493  143.3198 LP  0  0  0  0  0  0  0  0  0  0  0  0  # atno 17321 bound_to 7965
  140.4251  144.2191  150.5887 LP  0  0  0  0  0  0  0  0  0  0  0  0  # atno 17342 bound_to 10162
  140.4835  143.2371  151.8921 LP  0  0  0  0  0  0  0  0  0  0  0  0  # atno 17343 bound_to 10162
  156.5024  130.8135  151.3138 LP  0  0  0  0  0  0  0  0  0  0  0  0  # atno 17370 bound_to 10713
  157.7446  130.9940  150.2693 LP  0  0  0  0  0  0  0  0  0  0  0  0  # atno 17371 bound_to 10713
  141.1635  133.6538  156.4401 LP  0  0  0  0  0  0  0  0  0  0  0  0  # atno 17394 bound_to 11000
  140.4743  134.6724  157.5143 LP  0  0  0  0  0  0  0  0  0  0  0  0  # atno 17395 bound_to 11000

$$$$
