AV-unprocessed.smi:837|AV-procd|sdf|3903|dock2
  -GOLD-   22720 1363D 1   1.00000     0.00000
 Structure written by MMmdl.
 48 50  0  0  0  0  0  0  0  0  2 V2000
  152.4446  137.9354  159.0521 C   0  0  0  0  0  0  0  0  0  0  0  0
  151.9200  139.3849  158.9584 C   0  0  1  0  0  0  0  0  0  0  0  0
  152.8593  140.3546  159.7084 C   0  0  0  0  0  0  0  0  0  0  0  0
  152.3078  141.7880  159.7256 C   0  0  0  0  0  0  0  0  0  0  0  0
  152.0446  142.2974  158.3028 C   0  0  0  0  0  0  0  0  0  0  0  0
  151.1026  141.3517  157.5377 C   0  0  0  0  0  0  0  0  0  0  0  0
  151.6168  139.8884  157.5091 C   0  0  1  0  0  0  0  0  0  0  0  0
  152.7820  139.7844  156.6445 N   0  5  0  0  0  0  0  0  0  0  0  0
  152.4807  138.9860  155.5944 C   0  0  0  0  0  0  0  0  0  0  0  0
  153.2238  138.6898  154.6592 O   0  0  0  0  0  0  0  0  0  0  0  0
  151.2183  138.5257  155.6826 N   0  0  0  0  0  0  0  0  0  0  0  0
  150.5747  137.6522  154.6926 C   0  0  0  0  0  0  0  0  0  0  0  0
  150.0963  136.3250  155.2959 C   0  0  0  0  0  0  0  0  0  0  0  0
  150.3759  136.0240  156.4571 O   0  0  0  0  0  0  0  0  0  0  0  0
  149.3949  135.5243  154.4798 N   0  0  0  0  0  0  0  0  0  0  0  0
  148.8568  134.2187  154.8477 C   0  0  0  0  0  0  0  0  0  0  0  0
  149.2267  133.1191  153.8341 C   0  0  0  0  0  0  0  0  0  0  0  0
  148.0243  132.5464  153.1040 C   0  0  0  0  0  0  0  0  0  0  0  0
  147.5986  131.2211  153.3318 C   0  0  0  0  0  0  0  0  0  0  0  0
  146.4832  130.7362  152.6222 C   0  0  0  0  0  0  0  0  0  0  0  0
  145.8394  131.5993  151.7131 C   0  0  0  0  0  0  0  0  0  0  0  0
  146.2380  132.8695  151.4872 N   0  0  0  0  0  0  0  0  0  0  0  0
  147.3077  133.3272  152.1725 C   0  0  0  0  0  0  0  0  0  0  0  0
  150.6168  139.0029  156.7780 C   0  0  0  0  0  0  0  0  0  0  0  0
  149.4643  138.7868  157.1562 O   0  0  0  0  0  0  0  0  0  0  0  0
  153.4037  137.8228  158.5463 H   0  0  0  0  0  0  0  0  0  0  0  0
  151.7493  137.2207  158.6125 H   0  0  0  0  0  0  0  0  0  0  0  0
  152.5889  137.6421  160.0920 H   0  0  0  0  0  0  0  0  0  0  0  0
  150.9731  139.3966  159.5012 H   0  0  0  0  0  0  0  0  0  0  0  0
  153.0034  140.0137  160.7342 H   0  0  0  0  0  0  0  0  0  0  0  0
  153.8464  140.3490  159.2442 H   0  0  0  0  0  0  0  0  0  0  0  0
  151.3828  141.8180  160.3028 H   0  0  0  0  0  0  0  0  0  0  0  0
  153.0109  142.4499  160.2321 H   0  0  0  0  0  0  0  0  0  0  0  0
  151.6136  143.2980  158.3411 H   0  0  0  0  0  0  0  0  0  0  0  0
  152.9898  142.3913  157.7666 H   0  0  0  0  0  0  0  0  0  0  0  0
  150.1219  141.3841  158.0151 H   0  0  0  0  0  0  0  0  0  0  0  0
  150.9529  141.7282  156.5241 H   0  0  0  0  0  0  0  0  0  0  0  0
  149.7347  138.1763  154.2332 H   0  0  0  0  0  0  0  0  0  0  0  0
  151.2636  137.4284  153.8766 H   0  0  0  0  0  0  0  0  0  0  0  0
  149.2158  135.8448  153.5392 H   0  0  0  0  0  0  0  0  0  0  0  0
  149.1918  133.9411  155.8482 H   0  0  0  0  0  0  0  0  0  0  0  0
  147.7720  134.3140  154.9036 H   0  0  0  0  0  0  0  0  0  0  0  0
  149.9337  133.5128  153.1028 H   0  0  0  0  0  0  0  0  0  0  0  0
  149.7455  132.3083  154.3468 H   0  0  0  0  0  0  0  0  0  0  0  0
  148.1190  130.5853  154.0332 H   0  0  0  0  0  0  0  0  0  0  0  0
  146.1302  129.7263  152.7698 H   0  0  0  0  0  0  0  0  0  0  0  0
  144.9819  131.2599  151.1513 H   0  0  0  0  0  0  0  0  0  0  0  0
  147.6039  134.3455  151.9679 H   0  0  0  0  0  0  0  0  0  0  0  0
  1  2  1  0  0  0  0
  1 26  1  0  0  0  0
  1 27  1  0  0  0  0
  1 28  1  0  0  0  0
  2  7  1  0  0  0  0
  2  3  1  0  0  0  0
  2 29  1  0  0  0  0
  3  4  1  0  0  0  0
  3 30  1  0  0  0  0
  3 31  1  0  0  0  0
  4  5  1  0  0  0  0
  4 32  1  0  0  0  0
  4 33  1  0  0  0  0
  5  6  1  0  0  0  0
  5 34  1  0  0  0  0
  5 35  1  0  0  0  0
  6  7  1  0  0  0  0
  6 36  1  0  0  0  0
  6 37  1  0  0  0  0
  7 24  1  0  0  0  0
  7  8  1  0  0  0  0
  8  9  1  0  0  0  0
  9 10  2  0  0  0  0
  9 11  1  0  0  0  0
 11 12  1  0  0  0  0
 11 24  1  0  0  0  0
 12 13  1  0  0  0  0
 12 38  1  0  0  0  0
 12 39  1  0  0  0  0
 13 14  2  0  0  0  0
 13 15  1  0  0  0  0
 15 16  1  0  0  0  0
 15 40  1  0  0  0  0
 16 17  1  0  0  0  0
 16 41  1  0  0  0  0
 16 42  1  0  0  0  0
 17 18  1  0  0  0  0
 17 43  1  0  0  0  0
 17 44  1  0  0  0  0
 18 23  1  0  0  0  0
 18 19  2  0  0  0  0
 19 20  1  0  0  0  0
 19 45  1  0  0  0  0
 20 21  2  0  0  0  0
 20 46  1  0  0  0  0
 21 22  1  0  0  0  0
 21 47  1  0  0  0  0
 22 23  2  0  0  0  0
 23 48  1  0  0  0  0
 24 25  2  0  0  0  0
M  CHG  1   8  -1
M  END
> <s_m_source_file>
AV-unprocessed.smi

> <i_m_source_file_index>
837

> <i_lp_mmshare_version>
43012

> <i_f3d_flags>
0

> <s_epik_input>
W0NIMl0xW0NIMl1bQ0gyXVtDSDJdW0NAQEhdKFtDSDNdKVtDQEBdMTJbTkhdQyg9TylOKEMyPU8pW0NIMl1DKD1PKVtOSF1bQ0gyXVtDSDJdYzNbY0hdW2NIXVtjSF1uW2NIXTM=

> <s_epik_cmdline>
J2VwaWtfcHl0aG9uJywgJy1waCcsICc3LjAnLCAnLXRuJywgJzgnLCAnLW1hJywgJzIwMCcsICctbWV0YWxfYmluZGluZycsICctaW1hZScsICc8aW5maWxlLm1hZT4nLCAnLW9tYWUnLCAnPG91dGZpbGUubWFlPic=

> <r_lp_tautomer_probability>
1

> <r_epik_Ionization_Penalty>
6.03002

> <r_epik_Ionization_Penalty_Charging>
6.01728

> <r_epik_Ionization_Penalty_Neutral>
0.0127382

> <r_epik_State_Penalty>
6.02713

> <r_epik_Charging_Adjusted_Penalty>
12.0444

> <i_epik_Tot_Q>
-1

> <i_epik_Tot_abs_Q>
1

> <r_epik_Metal_State_Penalty>
1.99078

> <b_epik_Metal_Only>
1

> <s_lp_Force_Field>
OPLS_2005

> <r_lp_Energy>
20.5142

> <b_lp_Chiralities_Consistent>
1

> <s_lp_Variant>
AV-unprocessed.smi:837-12

> <Gold.Version>
5.8.1

> <Gold.Id.Protein>
6NUR|6NUR_protein|mol2

> <Gold.PLP.Fitness>
51.8265

> <Gold.PLP.PLP>
-40.8461

> <Gold.PLP.part.hbond>
-2.3290

> <Gold.PLP.part.metal>
0.0000

> <Gold.PLP.part.buried>
-4.9840

> <Gold.PLP.part.nonpolar>
-33.5715

> <Gold.PLP.part.repulsive>
0.2062

> <Gold.PLP.ligand.clash>
0.0000

> <Gold.PLP.ligand.torsion>
0.5246

> <Gold.PLP.Chemscore.Hbond>
3.0000

> <Gold.PLP.Chemscore.CHOScore>
1.0000

> <Gold.PLP.Chemscore.Metal>
0.0000

> <Gold.Chemscore.Hbonds>
donor molecule, donor type, donor heavy atom, donor atom, acceptor molecule, acceptor atom, score
      L1  H    15    40       P1  7948  1.00
      P1  H  7997  8009       L1     8  1.90
      L1  C    23    48       P1  7948  1.00

> <Gold.PLP.Chemscore.Internal.Correction>
0.0297

> <Gold.Rescore>
     Score         DG    S(hbond)    S(metal)    S(lipo)     H(rot)  DE(clash)    DE(int)     intcor
     17.57     -18.28       1.90        0.00      94.74       1.81       0.21       0.49       ----

> <Gold.Chemscore.Fitness>
17.5713

> <Gold.Chemscore.DG>
-18.2762

> <Gold.Chemscore.ZeroCoef>
-5.4800

> <Gold.Chemscore.Hbond>
1.8990

> <Gold.Chemscore.Metal>
0.0000

> <Gold.Chemscore.Lipo>
94.7390

> <Gold.Chemscore.Internal_Hbond>
0.0000

> <Gold.Chemscore.DEClash>
0.2121

> <Gold.Chemscore.DEInternal>
0.4928

> <Gold.Chemscore.Rot>
1.8090

> <Gold.Chemscore.Internal.Correction>
   9.000000E+99

> <Gold.Chemscore.Hbonds>
donor molecule, donor type, donor heavy atom, donor atom, acceptor molecule, acceptor atom, score
      L1  H    15    40       P1  7948  0.70
      P1  H  7997  8009       L1     8  0.21

> <Gold.Chemscore.Hbond.Weighted>
-6.3427

> <Gold.Chemscore.Metal.Weighted>
-0.0000

> <Gold.Chemscore.Lipo.Weighted>
-11.0845

> <Gold.Chemscore.Internal_Hbond.Weighted>
0.0000

> <Gold.Chemscore.DEClash.Weighted>
0.2121

> <Gold.Chemscore.DEInternal.Weighted>
0.4928

> <Gold.Chemscore.Rot.Weighted>
4.6310

> <Gold.Chemscore.Internal.Correction.Weighted>
   9.000000E+99

> <Gold.Protein.RotatedTorsions>
[ 6907 6896 6895 6894 ] final  118.37 input  -60.11 | X-H torsion
[ 7974 7965 7964 7962 ] final   44.49 input  175.53 | X-H torsion
[ 8008 7997 7996 7995 ] final -156.65 input   59.86 | X-H torsion
[ 10167 10162 10161 10158 ] final  117.50 input  -65.29 | X-H torsion
[ 10718 10713 10712 10709 ] final  116.35 input   66.30 | X-H torsion
[ 10763 10752 10751 10750 ] final  -36.34 input  -60.55 | X-H torsion
[ 11005 11000 10999 10996 ] final  -16.78 input  -57.11 | X-H torsion

> <Gold.Protein.ActiveResidues>
 VAL166  LYS551  ARG553  GLY616  TRP617  ASP618  TYR619  PRO620  LYS621  CYS622 
 ASP623  PHE694  ASN695  SER759  ASP760  ASP761  ALA762  ILE779  LEU786  VAL792 
 PHE793  MET794  SER795  GLU796  ALA797  LYS798  CYS799  TRP800  GLU811  SER814 

> <Gold.Protein.RotatedAtoms>
  152.4548  133.7701  159.6793 H   0  0  0  0  0  0  0  0  0  0  0  0  # atno 6907 bound_to 6896
  150.8471  133.7835  159.3045 H   0  0  0  0  0  0  0  0  0  0  0  0  # atno 6908 bound_to 6896
  151.5442  135.1071  159.9985 H   0  0  0  0  0  0  0  0  0  0  0  0  # atno 6909 bound_to 6896
  146.0564  139.5069  142.9686 H   0  0  0  0  0  0  0  0  0  0  0  0  # atno 7974 bound_to 7965
  155.7204  140.0789  157.2333 H   0  0  0  0  0  0  0  0  0  0  0  0  # atno 8008 bound_to 7997
  154.4046  140.1613  156.2450 H   0  0  0  0  0  0  0  0  0  0  0  0  # atno 8009 bound_to 7997
  155.9201  140.3398  155.6169 H   0  0  0  0  0  0  0  0  0  0  0  0  # atno 8010 bound_to 7997
  139.6175  144.7095  151.2708 H   0  0  0  0  0  0  0  0  0  0  0  0  # atno 10167 bound_to 10162
  157.6166  131.1024  150.7460 H   0  0  0  0  0  0  0  0  0  0  0  0  # atno 10718 bound_to 10713
  153.8781  135.6824  153.4769 H   0  0  0  0  0  0  0  0  0  0  0  0  # atno 10763 bound_to 10752
  153.1249  135.4723  154.9254 H   0  0  0  0  0  0  0  0  0  0  0  0  # atno 10764 bound_to 10752
  154.7682  135.3230  154.8195 H   0  0  0  0  0  0  0  0  0  0  0  0  # atno 10765 bound_to 10752
  140.8102  133.8147  155.9555 H   0  0  0  0  0  0  0  0  0  0  0  0  # atno 11005 bound_to 11000
  145.6636  141.0234  143.1695 LP  0  0  0  0  0  0  0  0  0  0  0  0  # atno 17320 bound_to 7965
  144.7150  139.8229  143.7401 LP  0  0  0  0  0  0  0  0  0  0  0  0  # atno 17321 bound_to 7965
  140.7360  143.6720  150.8074 LP  0  0  0  0  0  0  0  0  0  0  0  0  # atno 17342 bound_to 10162
  140.0325  143.5429  152.2754 LP  0  0  0  0  0  0  0  0  0  0  0  0  # atno 17343 bound_to 10162
  156.7826  130.4864  149.5398 LP  0  0  0  0  0  0  0  0  0  0  0  0  # atno 17370 bound_to 10713
  156.1291  130.6165  151.0306 LP  0  0  0  0  0  0  0  0  0  0  0  0  # atno 17371 bound_to 10713
  140.9206  134.2147  157.4929 LP  0  0  0  0  0  0  0  0  0  0  0  0  # atno 17394 bound_to 11000
  139.8714  134.9790  156.5021 LP  0  0  0  0  0  0  0  0  0  0  0  0  # atno 17395 bound_to 11000

$$$$
