AV-unprocessed.smi:3281|AV-procd|sdf|12556|dock10
  -GOLD-   2272018473D 1   1.00000     0.00000
 Structure written by MMmdl.
 37 38  0  0  0  0  0  0  0  0  2 V2000
  144.7601  144.3335  153.7048 C   0  0  0  0  0  0  0  0  0  0  0  0
  144.9863  143.3330  154.8431 C   0  0  0  0  0  0  0  0  0  0  0  0
  146.2904  142.6128  154.7431 C   0  0  0  0  0  0  0  0  0  0  0  0
  147.0806  142.4613  153.6305 C   0  0  0  0  0  0  0  0  0  0  0  0
  148.2499  141.7331  153.8630 N   0  0  0  0  0  0  0  0  0  0  0  0
  148.3478  141.3168  155.1273 C   0  0  0  0  0  0  0  0  0  0  0  0
  149.5145  140.5501  155.6528 C   0  0  0  0  0  0  0  0  0  0  0  0
  150.6950  141.4606  156.0129 C   0  0  0  0  0  0  0  0  0  0  0  0
  150.2645  142.5548  156.9082 N   0  3  0  0  0  0  0  0  0  0  0  0
  151.3218  143.1182  157.7776 C   0  0  2  0  0  0  0  0  0  0  0  0
  151.8945  142.0438  158.7292 C   0  0  0  0  0  0  0  0  0  0  0  0
  153.0290  142.5772  159.6202 C   0  0  0  0  0  0  0  0  0  0  0  0
  152.5759  143.7306  160.5250 C   0  0  0  0  0  0  0  0  0  0  0  0
  152.0217  145.1484  159.5420 S   0  0  0  0  0  0  0  0  0  0  0  0
  150.7459  144.3102  158.5635 C   0  0  0  0  0  0  0  0  0  0  0  0
  146.9988  141.8305  156.1330 S   0  0  0  0  0  0  0  0  0  0  0  0
  143.8002  144.8381  153.8167 H   0  0  0  0  0  0  0  0  0  0  0  0
  144.7626  143.8360  152.7346 H   0  0  0  0  0  0  0  0  0  0  0  0
  145.5385  145.0969  153.6927 H   0  0  0  0  0  0  0  0  0  0  0  0
  144.9313  143.8570  155.7979 H   0  0  0  0  0  0  0  0  0  0  0  0
  144.1730  142.6068  154.8514 H   0  0  0  0  0  0  0  0  0  0  0  0
  146.8899  142.8407  152.6373 H   0  0  0  0  0  0  0  0  0  0  0  0
  149.1918  139.9866  156.5290 H   0  0  0  0  0  0  0  0  0  0  0  0
  149.8179  139.8173  154.9035 H   0  0  0  0  0  0  0  0  0  0  0  0
  151.4756  140.8720  156.4948 H   0  0  0  0  0  0  0  0  0  0  0  0
  151.1240  141.8850  155.1040 H   0  0  0  0  0  0  0  0  0  0  0  0
  149.9260  143.3031  156.3202 H   0  0  0  0  0  0  0  0  0  0  0  0
  152.1211  143.4932  157.1359 H   0  0  0  0  0  0  0  0  0  0  0  0
  151.0975  141.6419  159.3565 H   0  0  0  0  0  0  0  0  0  0  0  0
  152.2838  141.2022  158.1570 H   0  0  0  0  0  0  0  0  0  0  0  0
  153.4100  141.7652  160.2402 H   0  0  0  0  0  0  0  0  0  0  0  0
  153.8645  142.9034  158.9992 H   0  0  0  0  0  0  0  0  0  0  0  0
  151.7633  143.4079  161.1769 H   0  0  0  0  0  0  0  0  0  0  0  0
  153.3953  144.0504  161.1691 H   0  0  0  0  0  0  0  0  0  0  0  0
  150.3101  145.0407  157.8811 H   0  0  0  0  0  0  0  0  0  0  0  0
  149.9482  143.9821  159.2312 H   0  0  0  0  0  0  0  0  0  0  0  0
  149.5013  142.2333  157.4865 H   0  0  0  0  0  0  0  0  0  0  0  0
  1  2  1  0  0  0  0
  1 17  1  0  0  0  0
  1 18  1  0  0  0  0
  1 19  1  0  0  0  0
  2  3  1  0  0  0  0
  2 20  1  0  0  0  0
  2 21  1  0  0  0  0
  3 16  1  0  0  0  0
  3  4  2  0  0  0  0
  4  5  1  0  0  0  0
  4 22  1  0  0  0  0
  5  6  2  0  0  0  0
  6  7  1  0  0  0  0
  6 16  1  0  0  0  0
  7  8  1  0  0  0  0
  7 23  1  0  0  0  0
  7 24  1  0  0  0  0
  8  9  1  0  0  0  0
  8 25  1  0  0  0  0
  8 26  1  0  0  0  0
  9 10  1  0  0  0  0
  9 27  1  0  0  0  0
  9 37  1  0  0  0  0
 10 15  1  0  0  0  0
 10 11  1  0  0  0  0
 10 28  1  0  0  0  0
 11 12  1  0  0  0  0
 11 29  1  0  0  0  0
 11 30  1  0  0  0  0
 12 13  1  0  0  0  0
 12 31  1  0  0  0  0
 12 32  1  0  0  0  0
 13 14  1  0  0  0  0
 13 33  1  0  0  0  0
 13 34  1  0  0  0  0
 14 15  1  0  0  0  0
 15 35  1  0  0  0  0
 15 36  1  0  0  0  0
M  CHG  1   9   1
M  END
> <s_m_source_file>
AV-unprocessed.smi

> <i_m_source_file_index>
3281

> <i_lp_mmshare_version>
43012

> <i_f3d_flags>
0

> <s_epik_input>
W0NIM11bQ0gyXWMxW2NIXW5jKHMxKVtDSDJdW0NIMl1bTkhdW0NAQEhdMltDSDJdW0NIMl1bQ0gyXVNbQ0gyXTI=

> <s_epik_cmdline>
J2VwaWtfcHl0aG9uJywgJy1waCcsICc3LjAnLCAnLXRuJywgJzgnLCAnLW1hJywgJzIwMCcsICctbWV0YWxfYmluZGluZycsICctaW1hZScsICc8aW5maWxlLm1hZT4nLCAnLW9tYWUnLCAnPG91dGZpbGUubWFlPic=

> <r_epik_Ionization_Penalty>
0.00827702

> <r_epik_Ionization_Penalty_Charging>
0.00826679

> <r_epik_Ionization_Penalty_Neutral>
1.02314e-05

> <r_epik_State_Penalty>
0.00622064

> <r_epik_Charging_Adjusted_Penalty>
0.0144874

> <i_epik_Tot_Q>
1

> <i_epik_Tot_abs_Q>
1

> <r_epik_Metal_State_Penalty>
0.0062521

> <b_epik_Metal_Only>
0

> <s_lp_Force_Field>
OPLS_2005

> <r_lp_Energy>
-1.10641

> <b_lp_Chiralities_Consistent>
1

> <s_lp_Variant>
AV-unprocessed.smi:3281-1

> <Gold.Version>
5.8.1

> <Gold.Id.Protein>
6NUR|6NUR_protein|mol2

> <Gold.PLP.Fitness>
44.8770

> <Gold.PLP.PLP>
-39.1238

> <Gold.PLP.part.hbond>
-2.0000

> <Gold.PLP.part.metal>
0.0000

> <Gold.PLP.part.buried>
-5.4002

> <Gold.PLP.part.nonpolar>
-32.2103

> <Gold.PLP.part.repulsive>
0.2013

> <Gold.PLP.ligand.clash>
0.0000

> <Gold.PLP.ligand.torsion>
0.7678

> <Gold.PLP.Chemscore.Hbond>
2.4212

> <Gold.PLP.Chemscore.CHOScore>
0.0000

> <Gold.PLP.Chemscore.Metal>
0.0000

> <Gold.Chemscore.Hbonds>
donor molecule, donor type, donor heavy atom, donor atom, acceptor molecule, acceptor atom, score
      L1  H     9    27       P1  8028  2.00
      P1  H  8011  8017       L1     5  0.21

> <Gold.PLP.Chemscore.Internal.Correction>
0.0252

> <Gold.Rescore>
     Score         DG    S(hbond)    S(metal)    S(lipo)     H(rot)  DE(clash)    DE(int)     intcor
     17.81     -18.89       1.07        0.00     114.32       1.38       0.46       0.62       ----

> <Gold.Chemscore.Fitness>
17.8098

> <Gold.Chemscore.DG>
-18.8944

> <Gold.Chemscore.ZeroCoef>
-5.4800

> <Gold.Chemscore.Hbond>
1.0667

> <Gold.Chemscore.Metal>
0.0000

> <Gold.Chemscore.Lipo>
114.3236

> <Gold.Chemscore.Internal_Hbond>
0.0000

> <Gold.Chemscore.DEClash>
0.4609

> <Gold.Chemscore.DEInternal>
0.6237

> <Gold.Chemscore.Rot>
1.3767

> <Gold.Chemscore.Internal.Correction>
   9.000000E+99

> <Gold.Chemscore.Hbonds>
donor molecule, donor type, donor heavy atom, donor atom, acceptor molecule, acceptor atom, score
      L1  H     9    27       P1  8028  1.00
      P1  H  8011  8017       L1     5  0.13

> <Gold.Chemscore.Hbond.Weighted>
-3.5629

> <Gold.Chemscore.Metal.Weighted>
-0.0000

> <Gold.Chemscore.Lipo.Weighted>
-13.3759

> <Gold.Chemscore.Internal_Hbond.Weighted>
0.0000

> <Gold.Chemscore.DEClash.Weighted>
0.4609

> <Gold.Chemscore.DEInternal.Weighted>
0.6237

> <Gold.Chemscore.Rot.Weighted>
3.5243

> <Gold.Chemscore.Internal.Correction.Weighted>
   9.000000E+99

> <Gold.Protein.RotatedTorsions>
[ 6907 6896 6895 6894 ] final  122.41 input  -60.11 | X-H torsion
[ 7974 7965 7964 7962 ] final  106.94 input  175.53 | X-H torsion
[ 8008 7997 7996 7995 ] final   46.60 input   59.86 | X-H torsion
[ 10167 10162 10161 10158 ] final -103.48 input  -65.29 | X-H torsion
[ 10718 10713 10712 10709 ] final  -41.96 input   66.30 | X-H torsion
[ 10763 10752 10751 10750 ] final  147.15 input  -60.55 | X-H torsion
[ 11005 11000 10999 10996 ] final   95.05 input  -57.11 | X-H torsion

> <Gold.Protein.ActiveResidues>
 VAL166  LYS551  ARG553  GLY616  TRP617  ASP618  TYR619  PRO620  LYS621  CYS622 
 ASP623  PHE694  ASN695  SER759  ASP760  ASP761  ALA762  ILE779  LEU786  VAL792 
 PHE793  MET794  SER795  GLU796  ALA797  LYS798  CYS799  TRP800  GLU811  SER814 

> <Gold.Protein.RotatedAtoms>
  152.4245  133.7172  159.6512 H   0  0  0  0  0  0  0  0  0  0  0  0  # atno 6907 bound_to 6896
  150.8121  133.8392  159.3183 H   0  0  0  0  0  0  0  0  0  0  0  0  # atno 6908 bound_to 6896
  151.6099  135.1043  160.0130 H   0  0  0  0  0  0  0  0  0  0  0  0  # atno 6909 bound_to 6896
  145.3001  139.2572  143.3818 H   0  0  0  0  0  0  0  0  0  0  0  0  # atno 7974 bound_to 7965
  155.3552  140.3415  155.4240 H   0  0  0  0  0  0  0  0  0  0  0  0  # atno 8008 bound_to 7997
  156.1743  140.1642  156.8426 H   0  0  0  0  0  0  0  0  0  0  0  0  # atno 8009 bound_to 7997
  154.5265  140.0755  156.8251 H   0  0  0  0  0  0  0  0  0  0  0  0  # atno 8010 bound_to 7997
  140.2195  143.3686  152.0982 H   0  0  0  0  0  0  0  0  0  0  0  0  # atno 10167 bound_to 10162
  156.2647  130.4200  149.8503 H   0  0  0  0  0  0  0  0  0  0  0  0  # atno 10718 bound_to 10713
  154.0336  135.2895  155.3365 H   0  0  0  0  0  0  0  0  0  0  0  0  # atno 10763 bound_to 10752
  154.6973  135.5202  153.8479 H   0  0  0  0  0  0  0  0  0  0  0  0  # atno 10764 bound_to 10752
  153.0630  135.6620  154.0546 H   0  0  0  0  0  0  0  0  0  0  0  0  # atno 10765 bound_to 10752
  139.8792  134.8878  156.3955 H   0  0  0  0  0  0  0  0  0  0  0  0  # atno 11005 bound_to 11000
  146.3155  140.3513  142.8656 LP  0  0  0  0  0  0  0  0  0  0  0  0  # atno 17320 bound_to 7965
  144.9101  140.7747  143.5813 LP  0  0  0  0  0  0  0  0  0  0  0  0  # atno 17321 bound_to 7965
  139.5149  144.6955  151.5641 LP  0  0  0  0  0  0  0  0  0  0  0  0  # atno 17342 bound_to 10162
  140.6265  143.9158  150.6569 LP  0  0  0  0  0  0  0  0  0  0  0  0  # atno 17343 bound_to 10162
  156.6006  130.8545  151.3431 LP  0  0  0  0  0  0  0  0  0  0  0  0  # atno 17370 bound_to 10713
  157.7263  130.9627  150.1650 LP  0  0  0  0  0  0  0  0  0  0  0  0  # atno 17371 bound_to 10713
  140.9303  133.7583  156.0017 LP  0  0  0  0  0  0  0  0  0  0  0  0  # atno 17394 bound_to 11000
  140.8338  134.3147  157.5339 LP  0  0  0  0  0  0  0  0  0  0  0  0  # atno 17395 bound_to 11000

$$$$
