#       Name:                AV-unprocessed.smi:2062
#       Creating user name   scv26
#       Creation time:       Fri Mar 27 11:08:28 2020


#       File generated by GOLD software.
#

@<TRIPOS>MOLECULE
AV-unprocessed.smi:2062
    48    49     1
SMALL
NO_CHARGES


@<TRIPOS>ATOM
      1 ****        -1.6213   2.7237   4.1582 C.3            1 S1                 0.0000
      2 ****        -2.0908   2.1899   2.7944 C.3            1 S1                 0.0000
      3 ****        -3.6252   2.1737   2.7249 C.3            1 S1                 0.0000
      4 ****        -1.5202   0.7862   2.4941 C.3            1 S1                 0.0000
      5 ****        -0.0334   0.7579   2.4185 N.4            1 S1                 1.0000
      6 ****         0.5445  -0.5884   2.6484 C.3            1 S1                 0.0000
      7 ****         0.4120  -1.4707   1.3947 C.3            1 S1                 0.0000
      8 ****         1.0329  -0.8199   0.2942 O.3            1 S1                 0.0000
      9 ****         0.4211   0.4255  -0.0283 C.3            1 S1                 0.0000
     10 ****         1.1180   1.0127  -1.2686 C.3            1 S1                 0.0000
     11 ****         0.8231   0.2427  -2.4725 N.am           1 S1                 0.0000
     12 ****         1.5284  -0.8107  -2.9087 C.2            1 S1                 0.0000
     13 ****         2.5197  -1.2515  -2.3266 O.2            1 S1                 0.0000
     14 ****         1.0085  -1.3065  -4.0451 N.am           1 S1                 0.0000
     15 ****         1.4654  -2.4109  -4.8111 C.2            1 S1                 0.0000
     16 ****         2.5235  -3.1654  -4.4920 N.2            1 S1                 0.0000
     17 ****         2.7424  -4.1823  -5.4248 C.2            1 S1                 0.0000
     18 ****         1.8348  -4.1872  -6.4546 C.2            1 S1                 0.0000
     19 ****         0.6615  -2.9082  -6.2926 S.3            1 S1                 0.0000
     20 ****         0.5465   1.3648   1.1921 C.3            1 S1                 0.0000
     21 ****        -1.9354   2.0689   4.9717 H              1 S1                 0.0000
     22 ****        -2.0333   3.7144   4.3533 H              1 S1                 0.0000
     23 ****        -0.5357   2.8121   4.2012 H              1 S1                 0.0000
     24 ****        -1.7533   2.8871   2.0287 H              1 S1                 0.0000
     25 ****        -4.0506   1.5036   3.4726 H              1 S1                 0.0000
     26 ****        -3.9715   1.8421   1.7456 H              1 S1                 0.0000
     27 ****        -4.0378   3.1683   2.8975 H              1 S1                 0.0000
     28 ****        -1.8506   0.1122   3.2858 H              1 S1                 0.0000
     29 ****        -1.9485   0.3936   1.5720 H              1 S1                 0.0000
     30 ****         1.6009  -0.4711   2.8940 H              1 S1                 0.0000
     31 ****         0.0821  -1.0666   3.5124 H              1 S1                 0.0000
     32 ****         0.9050  -2.4292   1.5578 H              1 S1                 0.0000
     33 ****        -0.6328  -1.6872   1.1674 H              1 S1                 0.0000
     34 ****        -0.6308   0.2632  -0.2674 H              1 S1                 0.0000
     35 ****         0.7615   2.0283  -1.4421 H              1 S1                 0.0000
     36 ****         2.1949   1.0889  -1.1082 H              1 S1                 0.0000
     37 ****         0.0256   0.5379  -3.0166 H              1 S1                 0.0000
     38 ****         0.1920  -0.8372  -4.4082 H              1 S1                 0.0000
     39 ****         3.5697  -4.8610  -5.2777 H              1 S1                 0.0000
     40 ****         1.7853  -4.8633  -7.2950 H              1 S1                 0.0000
     41 ****         0.0948   2.3327   0.9805 H              1 S1                 0.0000
     42 ****         1.6017   1.5637   1.3846 H              1 S1                 0.0000
     43 ****         0.2765   1.3249   3.1951 H              1 S1                 0.0000
     44 ****         0.9771  -1.4194  -0.5042 LP             1 S1                 0.0000
     45 ****         1.9928  -0.6550   0.5208 LP             1 S1                 0.0000
     46 ****         2.8367  -0.8199  -1.4821 LP             1 S1                 0.0000
     47 ****         3.0078  -2.0412  -2.6983 LP             1 S1                 0.0000
     48 ****         3.0906  -3.0188  -3.6815 LP             1 S1                 0.0000
@<TRIPOS>BOND
    1    1    2 1     
    2    1   21 1     
    3    1   22 1     
    4    1   23 1     
    5    2    3 1     
    6    2    4 1     
    7    2   24 1     
    8    3   25 1     
    9    3   26 1     
   10    3   27 1     
   11    4    5 1     
   12    4   28 1     
   13    4   29 1     
   14    5   20 1     
   15    5    6 1     
   16    5   43 1     
   17    6    7 1     
   18    6   30 1     
   19    6   31 1     
   20    7    8 1     
   21    7   32 1     
   22    7   33 1     
   23    8    9 1     
   24    9   10 1     
   25    9   20 1     
   26    9   34 1     
   27   10   11 1     
   28   10   35 1     
   29   10   36 1     
   30   11   12 am    
   31   11   37 1     
   32   12   13 2     
   33   12   14 am    
   34   14   15 1     
   35   14   38 1     
   36   15   19 1     
   37   15   16 2     
   38   16   17 1     
   39   17   18 2     
   40   17   39 1     
   41   18   19 1     
   42   18   40 1     
   43   20   41 1     
   44   20   42 1     
   45    8   44 1     
   46    8   45 1     
   47   13   46 1     
   48   13   47 1     
   49   16   48 1     
@<TRIPOS>SUBSTRUCTURE
      1 S1             1
@<TRIPOS>SET
LONE_PAIRS      STATIC     ATOMS    <user>   **** ""
5 44 45 46 47 48
DONOR_HYDROGENS      STATIC     ATOMS    <user>   **** ""
3 43 37 38
ATOM$BLUE        STATIC     ATOMS    COLORGROUP SYSTEM
5 44 45 46 47 48
ATOM$RED        STATIC     ATOMS    COLORGROUP SYSTEM
3 43 37 38
