AV-unprocessed.smi:1518|AV-procd|sdf|6126|dock1
  -GOLD-   22720 6263D 1   1.00000     0.00000
 Structure written by MMmdl.
 46 48  0  0  0  0  0  0  0  0  2 V2000
  147.8579  132.9767  152.7838 C   0  0  0  0  0  0  0  0  0  0  0  0
  148.6740  132.1872  153.8062 C   0  0  0  0  0  0  0  0  0  0  0  0
  148.5574  130.9624  153.8337 O   0  0  0  0  0  0  0  0  0  0  0  0
  149.5731  132.9483  154.7208 C   0  0  0  0  0  0  0  0  0  0  0  0
  150.3608  132.2426  155.6582 C   0  0  0  0  0  0  0  0  0  0  0  0
  151.2160  132.9340  156.5347 C   0  0  0  0  0  0  0  0  0  0  0  0
  151.2942  134.3369  156.4821 C   0  0  0  0  0  0  0  0  0  0  0  0
  150.5223  135.0653  155.5559 C   0  0  0  0  0  0  0  0  0  0  0  0
  150.6644  136.4363  155.5718 O   0  0  0  0  0  0  0  0  0  0  0  0
  151.4484  137.0248  156.6014 C   0  0  0  0  0  0  0  0  0  0  0  0
  151.5961  138.5255  156.3130 C   0  0  2  0  0  0  0  0  0  0  0  0
  152.9376  138.7851  155.9504 O   0  0  0  0  0  0  0  0  0  0  0  0
  151.1925  139.3974  157.5192 C   0  0  0  0  0  0  0  0  0  0  0  0
  151.0215  140.8156  157.1658 N   0  0  0  0  0  0  0  0  0  0  0  0
  150.2898  141.3838  156.1643 C   0  0  0  0  0  0  0  0  0  0  0  0
  149.4525  140.6737  155.1520 C   0  0  0  0  0  0  0  0  0  0  0  0
  150.2183  140.1760  154.0776 O   0  0  0  0  0  0  0  0  0  0  0  0
  150.4512  142.7333  156.2614 N   0  3  0  0  0  0  0  0  0  0  0  0
  151.2951  143.0326  157.3315 C   0  0  0  0  0  0  0  0  0  0  0  0
  151.7498  144.2546  157.8177 C   0  0  0  0  0  0  0  0  0  0  0  0
  152.6082  144.2113  158.9356 C   0  0  0  0  0  0  0  0  0  0  0  0
  152.9830  142.9868  159.5258 C   0  0  0  0  0  0  0  0  0  0  0  0
  152.5154  141.7542  159.0243 C   0  0  0  0  0  0  0  0  0  0  0  0
  151.6660  141.8051  157.9187 C   0  0  0  0  0  0  0  0  0  0  0  0
  149.6600  134.3611  154.6770 C   0  0  0  0  0  0  0  0  0  0  0  0
  148.5155  133.5372  152.1191 H   0  0  0  0  0  0  0  0  0  0  0  0
  147.1877  133.6743  153.2863 H   0  0  0  0  0  0  0  0  0  0  0  0
  147.2536  132.3029  152.1760 H   0  0  0  0  0  0  0  0  0  0  0  0
  150.3174  131.1643  155.7158 H   0  0  0  0  0  0  0  0  0  0  0  0
  151.8136  132.3869  157.2489 H   0  0  0  0  0  0  0  0  0  0  0  0
  151.9543  134.8594  157.1589 H   0  0  0  0  0  0  0  0  0  0  0  0
  150.9835  136.8765  157.5778 H   0  0  0  0  0  0  0  0  0  0  0  0
  152.4331  136.5541  156.6181 H   0  0  0  0  0  0  0  0  0  0  0  0
  150.9750  138.7809  155.4539 H   0  0  0  0  0  0  0  0  0  0  0  0
  153.0979  138.4072  155.0996 H   0  0  0  0  0  0  0  0  0  0  0  0
  150.2400  139.0540  157.9242 H   0  0  0  0  0  0  0  0  0  0  0  0
  151.9126  139.3089  158.3326 H   0  0  0  0  0  0  0  0  0  0  0  0
  148.9293  139.8452  155.6299 H   0  0  0  0  0  0  0  0  0  0  0  0
  148.6917  141.3509  154.7642 H   0  0  0  0  0  0  0  0  0  0  0  0
  149.6483  140.0528  153.3336 H   0  0  0  0  0  0  0  0  0  0  0  0
  151.4647  145.1938  157.3666 H   0  0  0  0  0  0  0  0  0  0  0  0
  152.9873  145.1353  159.3477 H   0  0  0  0  0  0  0  0  0  0  0  0
  153.6437  142.9925  160.3807 H   0  0  0  0  0  0  0  0  0  0  0  0
  152.8130  140.8239  159.4840 H   0  0  0  0  0  0  0  0  0  0  0  0
  149.0602  134.9052  153.9652 H   0  0  0  0  0  0  0  0  0  0  0  0
  150.0103  143.3997  155.6405 H   0  0  0  0  0  0  0  0  0  0  0  0
  1  2  1  0  0  0  0
  1 26  1  0  0  0  0
  1 27  1  0  0  0  0
  1 28  1  0  0  0  0
  2  3  2  0  0  0  0
  2  4  1  0  0  0  0
  4 25  1  0  0  0  0
  4  5  2  0  0  0  0
  5  6  1  0  0  0  0
  5 29  1  0  0  0  0
  6  7  2  0  0  0  0
  6 30  1  0  0  0  0
  7  8  1  0  0  0  0
  7 31  1  0  0  0  0
  8  9  1  0  0  0  0
  8 25  2  0  0  0  0
  9 10  1  0  0  0  0
 10 11  1  0  0  0  0
 10 32  1  0  0  0  0
 10 33  1  0  0  0  0
 11 12  1  0  0  0  0
 11 13  1  0  0  0  0
 11 34  1  0  0  0  0
 12 35  1  0  0  0  0
 13 14  1  0  0  0  0
 13 36  1  0  0  0  0
 13 37  1  0  0  0  0
 14 24  1  0  0  0  0
 14 15  1  0  0  0  0
 15 16  1  0  0  0  0
 15 18  2  0  0  0  0
 16 17  1  0  0  0  0
 16 38  1  0  0  0  0
 16 39  1  0  0  0  0
 17 40  1  0  0  0  0
 18 19  1  0  0  0  0
 18 46  1  0  0  0  0
 19 24  2  0  0  0  0
 19 20  1  0  0  0  0
 20 21  2  0  0  0  0
 20 41  1  0  0  0  0
 21 22  1  0  0  0  0
 21 42  1  0  0  0  0
 22 23  2  0  0  0  0
 22 43  1  0  0  0  0
 23 24  1  0  0  0  0
 23 44  1  0  0  0  0
 25 45  1  0  0  0  0
M  CHG  1  18   1
M  END
> <s_m_source_file>
AV-unprocessed.smi

> <i_m_source_file_index>
1518

> <i_lp_mmshare_version>
43012

> <i_f3d_flags>
0

> <s_epik_input>
W0NIM11DKD1PKWMxW2NIXVtjSF1bY0hdYyhbY0hdMSlPW0NIMl1bQ0BIXShbT0hdKVtDSDJdbihjKG4yKVtDSDJdW09IXSljKGMyMylbY0hdW2NIXVtjSF1bY0hdMw==

> <s_epik_cmdline>
J2VwaWtfcHl0aG9uJywgJy1waCcsICc3LjAnLCAnLXRuJywgJzgnLCAnLW1hJywgJzIwMCcsICctbWV0YWxfYmluZGluZycsICctaW1hZScsICc8aW5maWxlLm1hZT4nLCAnLW9tYWUnLCAnPG91dGZpbGUubWFlPic=

> <r_lp_tautomer_probability>
0.99995

> <r_epik_Ionization_Penalty>
1.40416

> <r_epik_Ionization_Penalty_Charging>
1.4033

> <r_epik_Ionization_Penalty_Neutral>
0.000858184

> <r_epik_State_Penalty>
1.48564

> <r_epik_Charging_Adjusted_Penalty>
2.88894

> <i_epik_Tot_Q>
1

> <i_epik_Tot_abs_Q>
1

> <r_epik_Metal_State_Penalty>
5.52809

> <b_epik_Metal_Only>
0

> <s_lp_Force_Field>
OPLS_2005

> <r_lp_Energy>
23.9778

> <b_lp_Chiralities_Consistent>
1

> <s_lp_Variant>
AV-unprocessed.smi:1518-3

> <Gold.Version>
5.8.1

> <Gold.Id.Protein>
6NUR|6NUR_protein|mol2

> <Gold.PLP.Fitness>
61.5688

> <Gold.PLP.PLP>
-52.7507

> <Gold.PLP.part.hbond>
-3.7536

> <Gold.PLP.part.metal>
0.0000

> <Gold.PLP.part.buried>
-7.3902

> <Gold.PLP.part.nonpolar>
-43.5358

> <Gold.PLP.part.repulsive>
0.2882

> <Gold.PLP.ligand.clash>
1.9835

> <Gold.PLP.ligand.torsion>
1.2391

> <Gold.PLP.Chemscore.Hbond>
4.3496

> <Gold.PLP.Chemscore.CHOScore>
0.0000

> <Gold.PLP.Chemscore.Metal>
0.0000

> <Gold.Chemscore.Hbonds>
donor molecule, donor type, donor heavy atom, donor atom, acceptor molecule, acceptor atom, score
      L1  H    17    40       P1  7957  0.55
      L1  H    18    46       P1  8028  1.66
      P1  H  7989  7998       L1    17  0.96
      P1  H  7997  8010       L1    12  1.00

> <Gold.PLP.Chemscore.Internal.Correction>
0.2309

> <Gold.Rescore>
     Score         DG    S(hbond)    S(metal)    S(lipo)     H(rot)  DE(clash)    DE(int)     intcor
     20.57     -21.99       2.99        0.00     128.78       3.34       0.18       1.24       ----

> <Gold.Chemscore.Fitness>
20.5693

> <Gold.Chemscore.DG>
-21.9903

> <Gold.Chemscore.ZeroCoef>
-5.4800

> <Gold.Chemscore.Hbond>
2.9912

> <Gold.Chemscore.Metal>
0.0000

> <Gold.Chemscore.Lipo>
128.7763

> <Gold.Chemscore.Internal_Hbond>
0.0000

> <Gold.Chemscore.DEClash>
0.1791

> <Gold.Chemscore.DEInternal>
1.2420

> <Gold.Chemscore.Rot>
3.3387

> <Gold.Chemscore.Internal.Correction>
   9.000000E+99

> <Gold.Chemscore.Hbonds>
donor molecule, donor type, donor heavy atom, donor atom, acceptor molecule, acceptor atom, score
      L1  H    17    40       P1  7957  0.55
      L1  H    18    46       P1  8028  0.83
      P1  H  7989  7998       L1    17  0.51
      P1  H  7997  8010       L1    12  0.68

> <Gold.Chemscore.Hbond.Weighted>
-9.9907

> <Gold.Chemscore.Metal.Weighted>
-0.0000

> <Gold.Chemscore.Lipo.Weighted>
-15.0668

> <Gold.Chemscore.Internal_Hbond.Weighted>
0.0000

> <Gold.Chemscore.DEClash.Weighted>
0.1791

> <Gold.Chemscore.DEInternal.Weighted>
1.2420

> <Gold.Chemscore.Rot.Weighted>
8.5471

> <Gold.Chemscore.Internal.Correction.Weighted>
   9.000000E+99

> <Gold.Protein.RotatedTorsions>
[ 6907 6896 6895 6894 ] final  114.58 input  -60.11 | X-H torsion
[ 7974 7965 7964 7962 ] final -133.81 input  175.53 | X-H torsion
[ 8008 7997 7996 7995 ] final   76.52 input   59.86 | X-H torsion
[ 10167 10162 10161 10158 ] final  -83.58 input  -65.29 | X-H torsion
[ 10718 10713 10712 10709 ] final   87.06 input   66.30 | X-H torsion
[ 10763 10752 10751 10750 ] final  -14.31 input  -60.55 | X-H torsion
[ 11005 11000 10999 10996 ] final   29.42 input  -57.11 | X-H torsion

> <Gold.Protein.ActiveResidues>
 VAL166  LYS551  ARG553  GLY616  TRP617  ASP618  TYR619  PRO620  LYS621  CYS622 
 ASP623  PHE694  ASN695  SER759  ASP760  ASP761  ALA762  ILE779  LEU786  VAL792 
 PHE793  MET794  SER795  GLU796  ALA797  LYS798  CYS799  TRP800  GLU811  SER814 

> <Gold.Protein.RotatedAtoms>
  152.4794  133.8217  159.7056 H   0  0  0  0  0  0  0  0  0  0  0  0  # atno 6907 bound_to 6896
  150.8833  133.7333  159.2932 H   0  0  0  0  0  0  0  0  0  0  0  0  # atno 6908 bound_to 6896
  151.4830  135.1057  159.9835 H   0  0  0  0  0  0  0  0  0  0  0  0  # atno 6909 bound_to 6896
  144.9159  140.6954  143.4995 H   0  0  0  0  0  0  0  0  0  0  0  0  # atno 7974 bound_to 7965
  155.8285  140.3467  155.5558 H   0  0  0  0  0  0  0  0  0  0  0  0  # atno 8008 bound_to 7997
  155.8267  140.0921  157.1837 H   0  0  0  0  0  0  0  0  0  0  0  0  # atno 8009 bound_to 7997
  154.4004  140.1420  156.3552 H   0  0  0  0  0  0  0  0  0  0  0  0  # atno 8010 bound_to 7997
  140.4213  143.2583  151.8886 H   0  0  0  0  0  0  0  0  0  0  0  0  # atno 10167 bound_to 10162
  157.6936  131.0240  150.3066 H   0  0  0  0  0  0  0  0  0  0  0  0  # atno 10718 bound_to 10713
  153.5264  135.7015  153.5705 H   0  0  0  0  0  0  0  0  0  0  0  0  # atno 10763 bound_to 10752
  153.3732  135.3939  155.1803 H   0  0  0  0  0  0  0  0  0  0  0  0  # atno 10764 bound_to 10752
  154.8689  135.3817  154.4757 H   0  0  0  0  0  0  0  0  0  0  0  0  # atno 10765 bound_to 10752
  140.3051  134.2713  155.7745 H   0  0  0  0  0  0  0  0  0  0  0  0  # atno 11005 bound_to 11000
  145.3376  139.1741  143.4503 LP  0  0  0  0  0  0  0  0  0  0  0  0  # atno 17320 bound_to 7965
  146.3182  140.3413  142.8648 LP  0  0  0  0  0  0  0  0  0  0  0  0  # atno 17321 bound_to 7965
  139.4782  144.5434  151.8494 LP  0  0  0  0  0  0  0  0  0  0  0  0  # atno 17342 bound_to 10162
  140.4530  144.1828  150.5899 LP  0  0  0  0  0  0  0  0  0  0  0  0  # atno 17343 bound_to 10162
  156.3574  130.3841  149.7279 LP  0  0  0  0  0  0  0  0  0  0  0  0  # atno 17370 bound_to 10713
  156.4737  130.8008  151.3025 LP  0  0  0  0  0  0  0  0  0  0  0  0  # atno 17371 bound_to 10713
  141.2120  133.7671  156.9824 LP  0  0  0  0  0  0  0  0  0  0  0  0  # atno 17394 bound_to 11000
  140.1074  134.9498  157.2015 LP  0  0  0  0  0  0  0  0  0  0  0  0  # atno 17395 bound_to 11000

$$$$
