AV-unprocessed.smi:2021|AV-procd|sdf|8179|dock9
  -GOLD-   2272010433D 1   1.00000     0.00000
 Structure written by MMmdl.
 41 42  0  0  0  0  0  0  0  0  1 V2000
  152.5619  141.4121  159.5772 C   0  0  0  0  0  0  0  0  0  0  0  0
  152.1677  140.9554  158.1623 C   0  0  0  0  0  0  0  0  0  0  0  0
  151.2743  141.9763  157.4365 C   0  0  0  0  0  0  0  0  0  0  0  0
  151.6335  139.5029  158.1019 C   0  0  0  0  0  0  0  0  0  0  0  0
  151.3733  138.9276  156.7780 N   0  0  0  0  0  0  0  0  0  0  0  0
  152.5460  138.9303  155.9078 C   0  0  0  0  0  0  0  0  0  0  0  0
  152.2580  138.2733  154.5472 C   0  0  0  0  0  0  0  0  0  0  0  0
  151.7675  136.9529  154.7464 O   0  0  0  0  0  0  0  0  0  0  0  0
  150.5794  136.9181  155.5329 C   0  0  1  0  0  0  0  0  0  0  0  0
  150.1264  135.4546  155.6689 C   0  0  0  0  0  0  0  0  0  0  0  0
  149.3607  135.0185  154.5061 N   0  0  0  0  0  0  0  0  0  0  0  0
  148.6514  133.8837  154.4325 C   0  0  0  0  0  0  0  0  0  0  0  0
  148.5915  133.0613  155.3464 O   0  0  0  0  0  0  0  0  0  0  0  0
  148.0272  133.7776  153.2484 N   0  0  0  0  0  0  0  0  0  0  0  0
  147.1783  132.7347  152.8005 C   0  0  0  0  0  0  0  0  0  0  0  0
  147.1033  131.6232  153.5419 N   0  0  0  0  0  0  0  0  0  0  0  0
  146.2395  130.6855  152.9890 N   0  0  0  0  0  0  0  0  0  0  0  0
  145.6962  131.1273  151.8507 C   0  0  0  0  0  0  0  0  0  0  0  0
  146.1845  132.7337  151.3404 S   0  0  0  0  0  0  0  0  0  0  0  0
  150.8805  137.5586  156.9017 C   0  0  0  0  0  0  0  0  0  0  0  0
  151.6925  141.5149  160.2265 H   0  0  0  0  0  0  0  0  0  0  0  0
  153.0659  142.3786  159.5496 H   0  0  0  0  0  0  0  0  0  0  0  0
  153.2433  140.6993  160.0425 H   0  0  0  0  0  0  0  0  0  0  0  0
  153.0934  140.9410  157.5855 H   0  0  0  0  0  0  0  0  0  0  0  0
  150.3321  142.1523  157.9512 H   0  0  0  0  0  0  0  0  0  0  0  0
  151.0428  141.6451  156.4237 H   0  0  0  0  0  0  0  0  0  0  0  0
  151.7788  142.9394  157.3546 H   0  0  0  0  0  0  0  0  0  0  0  0
  152.2876  138.8428  158.6732 H   0  0  0  0  0  0  0  0  0  0  0  0
  150.6893  139.5067  158.6485 H   0  0  0  0  0  0  0  0  0  0  0  0
  152.8743  139.9501  155.7219 H   0  0  0  0  0  0  0  0  0  0  0  0
  153.3728  138.4114  156.3952 H   0  0  0  0  0  0  0  0  0  0  0  0
  151.5297  138.8574  153.9825 H   0  0  0  0  0  0  0  0  0  0  0  0
  153.1671  138.2294  153.9474 H   0  0  0  0  0  0  0  0  0  0  0  0
  149.7995  137.4943  155.0314 H   0  0  0  0  0  0  0  0  0  0  0  0
  150.9939  134.8022  155.7728 H   0  0  0  0  0  0  0  0  0  0  0  0
  149.5311  135.3233  156.5741 H   0  0  0  0  0  0  0  0  0  0  0  0
  149.3518  135.6398  153.7107 H   0  0  0  0  0  0  0  0  0  0  0  0
  148.1688  134.5326  152.5938 H   0  0  0  0  0  0  0  0  0  0  0  0
  145.0026  130.5025  151.3080 H   0  0  0  0  0  0  0  0  0  0  0  0
  151.6146  136.9498  157.4323 H   0  0  0  0  0  0  0  0  0  0  0  0
  149.9734  137.5488  157.5071 H   0  0  0  0  0  0  0  0  0  0  0  0
  1  2  1  0  0  0  0
  1 21  1  0  0  0  0
  1 22  1  0  0  0  0
  1 23  1  0  0  0  0
  2  3  1  0  0  0  0
  2  4  1  0  0  0  0
  2 24  1  0  0  0  0
  3 25  1  0  0  0  0
  3 26  1  0  0  0  0
  3 27  1  0  0  0  0
  4  5  1  0  0  0  0
  4 28  1  0  0  0  0
  4 29  1  0  0  0  0
  5 20  1  0  0  0  0
  5  6  1  0  0  0  0
  6  7  1  0  0  0  0
  6 30  1  0  0  0  0
  6 31  1  0  0  0  0
  7  8  1  0  0  0  0
  7 32  1  0  0  0  0
  7 33  1  0  0  0  0
  8  9  1  0  0  0  0
  9 10  1  0  0  0  0
  9 20  1  0  0  0  0
  9 34  1  0  0  0  0
 10 11  1  0  0  0  0
 10 35  1  0  0  0  0
 10 36  1  0  0  0  0
 11 12  1  0  0  0  0
 11 37  1  0  0  0  0
 12 13  2  0  0  0  0
 12 14  1  0  0  0  0
 14 15  1  0  0  0  0
 14 38  1  0  0  0  0
 15 19  1  0  0  0  0
 15 16  2  0  0  0  0
 16 17  1  0  0  0  0
 17 18  2  0  0  0  0
 18 19  1  0  0  0  0
 18 39  1  0  0  0  0
 20 40  1  0  0  0  0
 20 41  1  0  0  0  0
M  END
> <s_m_source_file>
AV-unprocessed.smi

> <i_m_source_file_index>
2021

> <i_lp_mmshare_version>
43012

> <i_f3d_flags>
0

> <s_epik_input>
W0NIM11bQ0hdKFtDSDNdKVtDSDJdTjFbQ0gyXVtDSDJdT1tDQEhdKFtDSDJdMSlbQ0gyXVtOSF1DKD1PKVtOSF1jMm5uW2NIXXMy

> <s_epik_cmdline>
J2VwaWtfcHl0aG9uJywgJy1waCcsICc3LjAnLCAnLXRuJywgJzgnLCAnLW1hJywgJzIwMCcsICctbWV0YWxfYmluZGluZycsICctaW1hZScsICc8aW5maWxlLm1hZT4nLCAnLW9tYWUnLCAnPG91dGZpbGUubWFlPic=

> <r_lp_tautomer_probability>
1

> <r_epik_Ionization_Penalty>
1.11451

> <r_epik_Ionization_Penalty_Charging>
0

> <r_epik_Ionization_Penalty_Neutral>
1.11451

> <r_epik_State_Penalty>
1.17021

> <r_epik_Charging_Adjusted_Penalty>
1.17021

> <i_epik_Tot_Q>
0

> <i_epik_Tot_abs_Q>
0

> <r_epik_Metal_State_Penalty>
1.53642

> <b_epik_Metal_Only>
0

> <s_lp_Force_Field>
OPLS_2005

> <r_lp_Energy>
25.242

> <b_lp_Chiralities_Consistent>
1

> <s_lp_Variant>
AV-unprocessed.smi:2021-5

> <Gold.Version>
5.8.1

> <Gold.Id.Protein>
6NUR|6NUR_protein|mol2

> <Gold.PLP.Fitness>
40.0285

> <Gold.PLP.PLP>
-31.6543

> <Gold.PLP.part.hbond>
-3.0000

> <Gold.PLP.part.metal>
0.0000

> <Gold.PLP.part.buried>
-5.3271

> <Gold.PLP.part.nonpolar>
-23.7527

> <Gold.PLP.part.repulsive>
0.4346

> <Gold.PLP.ligand.clash>
0.0000

> <Gold.PLP.ligand.torsion>
0.3359

> <Gold.PLP.Chemscore.Hbond>
3.0000

> <Gold.PLP.Chemscore.CHOScore>
0.0000

> <Gold.PLP.Chemscore.Metal>
0.0000

> <Gold.Chemscore.Hbonds>
donor molecule, donor type, donor heavy atom, donor atom, acceptor molecule, acceptor atom, score
      L1  H    11    37       P1  7948  1.00
      L1  H    14    38       P1  7948  1.00
      P1  H 10752 10763       L1     8  1.00

> <Gold.PLP.Chemscore.Internal.Correction>
0.0460

> <Gold.Rescore>
     Score         DG    S(hbond)    S(metal)    S(lipo)     H(rot)  DE(clash)    DE(int)     intcor
     15.61     -17.70       2.62        0.00      69.83       1.84       0.16       1.93       ----

> <Gold.Chemscore.Fitness>
15.6083

> <Gold.Chemscore.DG>
-17.6962

> <Gold.Chemscore.ZeroCoef>
-5.4800

> <Gold.Chemscore.Hbond>
2.6227

> <Gold.Chemscore.Metal>
0.0000

> <Gold.Chemscore.Lipo>
69.8300

> <Gold.Chemscore.Internal_Hbond>
0.0000

> <Gold.Chemscore.DEClash>
0.1593

> <Gold.Chemscore.DEInternal>
1.9286

> <Gold.Chemscore.Rot>
1.8413

> <Gold.Chemscore.Internal.Correction>
   9.000000E+99

> <Gold.Chemscore.Hbonds>
donor molecule, donor type, donor heavy atom, donor atom, acceptor molecule, acceptor atom, score
      L1  H    11    37       P1  7948  0.44
      L1  H    14    38       P1  7948  0.34
      P1  H 10752 10763       L1     8  0.85

> <Gold.Chemscore.Hbond.Weighted>
-8.7599

> <Gold.Chemscore.Metal.Weighted>
-0.0000

> <Gold.Chemscore.Lipo.Weighted>
-8.1701

> <Gold.Chemscore.Internal_Hbond.Weighted>
0.0000

> <Gold.Chemscore.DEClash.Weighted>
0.1593

> <Gold.Chemscore.DEInternal.Weighted>
1.9286

> <Gold.Chemscore.Rot.Weighted>
4.7138

> <Gold.Chemscore.Internal.Correction.Weighted>
   9.000000E+99

> <Gold.Protein.RotatedTorsions>
[ 6907 6896 6895 6894 ] final   63.33 input  -60.11 | X-H torsion
[ 7974 7965 7964 7962 ] final  -92.75 input  175.53 | X-H torsion
[ 8008 7997 7996 7995 ] final  -45.57 input   59.86 | X-H torsion
[ 10167 10162 10161 10158 ] final   24.05 input  -65.29 | X-H torsion
[ 10718 10713 10712 10709 ] final  -28.13 input   66.30 | X-H torsion
[ 10763 10752 10751 10750 ] final   42.89 input  -60.55 | X-H torsion
[ 11005 11000 10999 10996 ] final   53.71 input  -57.11 | X-H torsion

> <Gold.Protein.ActiveResidues>
 VAL166  LYS551  ARG553  GLY616  TRP617  ASP618  TYR619  PRO620  LYS621  CYS622 
 ASP623  PHE694  ASN695  SER759  ASP760  ASP761  ALA762  ILE779  LEU786  VAL792 
 PHE793  MET794  SER795  GLU796  ALA797  LYS798  CYS799  TRP800  GLU811  SER814 

> <Gold.Protein.RotatedAtoms>
  152.4245  134.5895  159.9969 H   0  0  0  0  0  0  0  0  0  0  0  0  # atno 6907 bound_to 6896
  151.6035  133.3348  159.3060 H   0  0  0  0  0  0  0  0  0  0  0  0  # atno 6908 bound_to 6896
  150.8134  134.7339  159.6773 H   0  0  0  0  0  0  0  0  0  0  0  0  # atno 6909 bound_to 6896
  145.3956  140.9532  143.2316 H   0  0  0  0  0  0  0  0  0  0  0  0  # atno 7974 bound_to 7965
  154.4002  140.1393  156.3869 H   0  0  0  0  0  0  0  0  0  0  0  0  # atno 8008 bound_to 7997
  155.7951  140.3477  155.5350 H   0  0  0  0  0  0  0  0  0  0  0  0  # atno 8009 bound_to 7997
  155.8540  140.0946  157.1647 H   0  0  0  0  0  0  0  0  0  0  0  0  # atno 8010 bound_to 7997
  140.5219  143.9987  150.6421 H   0  0  0  0  0  0  0  0  0  0  0  0  # atno 10167 bound_to 10162
  156.4292  130.4441  149.7129 H   0  0  0  0  0  0  0  0  0  0  0  0  # atno 10718 bound_to 10713
  152.9872  135.6118  154.3023 H   0  0  0  0  0  0  0  0  0  0  0  0  # atno 10763 bound_to 10752
  154.2743  135.2778  155.2726 H   0  0  0  0  0  0  0  0  0  0  0  0  # atno 10764 bound_to 10752
  154.5094  135.5845  153.6650 H   0  0  0  0  0  0  0  0  0  0  0  0  # atno 10765 bound_to 10752
  140.0745  134.5424  155.9011 H   0  0  0  0  0  0  0  0  0  0  0  0  # atno 11005 bound_to 11000
  144.8409  139.5473  143.6900 LP  0  0  0  0  0  0  0  0  0  0  0  0  # atno 17320 bound_to 7965
  146.2776  139.6794  142.9252 LP  0  0  0  0  0  0  0  0  0  0  0  0  # atno 17321 bound_to 7965
  140.3339  143.3061  152.0659 LP  0  0  0  0  0  0  0  0  0  0  0  0  # atno 17342 bound_to 10162
  139.4926  144.6490  151.6716 LP  0  0  0  0  0  0  0  0  0  0  0  0  # atno 17343 bound_to 10162
  156.4039  130.7688  151.2698 LP  0  0  0  0  0  0  0  0  0  0  0  0  # atno 17370 bound_to 10713
  157.7508  131.0231  150.3822 LP  0  0  0  0  0  0  0  0  0  0  0  0  # atno 17371 bound_to 10713
  141.2024  133.6625  156.6005 LP  0  0  0  0  0  0  0  0  0  0  0  0  # atno 17394 bound_to 11000
  140.3578  134.7713  157.4513 LP  0  0  0  0  0  0  0  0  0  0  0  0  # atno 17395 bound_to 11000

$$$$
