AV-unprocessed.smi:157|AV-procd|sdf|1300|dock10
  -GOLD-   2262018583D 1   1.00000     0.00000
 Structure written by MMmdl.
 35 37  0  0  0  0  0  0  0  0  1 V2000
  151.9120  136.8887  154.6180 O   0  0  0  0  0  0  0  0  0  0  0  0
  150.8684  137.7481  154.2104 C   0  0  0  0  0  0  0  0  0  0  0  0
  151.0138  139.1287  154.8695 C   0  0  2  0  0  0  0  0  0  0  0  0
  151.1583  138.9639  156.2791 O   0  0  0  0  0  0  0  0  0  0  0  0
  150.4657  139.9679  156.9607 C   0  0  1  0  0  0  0  0  0  0  0  0
  151.4125  140.6516  157.8976 N   0  0  0  0  0  0  0  0  0  0  0  0
  152.5292  140.1247  158.4176 C   0  0  0  0  0  0  0  0  0  0  0  0
  153.2013  140.9381  159.2142 N   0  0  0  0  0  0  0  0  0  0  0  0
  152.4467  142.1100  159.2122 C   0  0  0  0  0  0  0  0  0  0  0  0
  151.3327  141.9542  158.3994 C   0  0  0  0  0  0  0  0  0  0  0  0
  150.2708  142.7457  158.0056 N   0  0  0  0  0  0  0  0  0  0  0  0
  149.9921  143.7891  158.7217 C   0  0  0  0  0  0  0  0  0  0  0  0
  150.6574  144.3296  159.8128 N   0  0  0  0  0  0  0  0  0  0  0  0
  152.0898  144.5727  159.8308 C   0  0  0  0  0  0  0  0  0  0  0  0
  152.9263  143.2979  159.9958 C   0  0  1  0  0  0  0  0  0  0  0  0
  152.9336  142.9193  161.3571 O   0  0  0  0  0  0  0  0  0  0  0  0
  149.9507  140.9538  155.9145 C   0  0  0  0  0  0  0  0  0  0  0  0
  149.7954  140.0463  154.7145 C   0  0  1  0  0  0  0  0  0  0  0  0
  149.8287  140.7938  153.5162 O   0  0  0  0  0  0  0  0  0  0  0  0
  151.9144  139.6319  154.5125 H   0  0  0  0  0  0  0  0  0  0  0  0
  149.6828  139.5239  157.5758 H   0  0  0  0  0  0  0  0  0  0  0  0
  153.9581  143.5259  159.7268 H   0  0  0  0  0  0  0  0  0  0  0  0
  148.8657  139.4797  154.7860 H   0  0  0  0  0  0  0  0  0  0  0  0
  152.3475  137.2772  155.3612 H   0  0  0  0  0  0  0  0  0  0  0  0
  150.8643  137.8318  153.1232 H   0  0  0  0  0  0  0  0  0  0  0  0
  149.9205  137.2947  154.5014 H   0  0  0  0  0  0  0  0  0  0  0  0
  152.8608  139.1195  158.2023 H   0  0  0  0  0  0  0  0  0  0  0  0
  149.1083  144.3738  158.4631 H   0  0  0  0  0  0  0  0  0  0  0  0
  150.1673  144.9950  160.3933 H   0  0  0  0  0  0  0  0  0  0  0  0
  152.3492  145.0423  158.8809 H   0  0  0  0  0  0  0  0  0  0  0  0
  152.3338  145.3000  160.6058 H   0  0  0  0  0  0  0  0  0  0  0  0
  153.7634  143.1760  161.7299 H   0  0  0  0  0  0  0  0  0  0  0  0
  149.0243  141.4296  156.2376 H   0  0  0  0  0  0  0  0  0  0  0  0
  150.7040  141.7219  155.7276 H   0  0  0  0  0  0  0  0  0  0  0  0
  149.7149  140.1988  152.7904 H   0  0  0  0  0  0  0  0  0  0  0  0
  1  2  1  0  0  0  0
  1 24  1  0  0  0  0
  2  3  1  0  0  0  0
  2 25  1  0  0  0  0
  2 26  1  0  0  0  0
  3 20  1  0  0  0  0
  3 18  1  0  0  0  0
  3  4  1  0  0  0  0
  4  5  1  0  0  0  0
  5 21  1  0  0  0  0
  5  6  1  0  0  0  0
  5 17  1  0  0  0  0
  6 10  1  0  0  0  0
  6  7  1  0  0  0  0
  7  8  2  0  0  0  0
  7 27  1  0  0  0  0
  8  9  1  0  0  0  0
  9 15  1  0  0  0  0
  9 10  2  0  0  0  0
 10 11  1  0  0  0  0
 11 12  2  0  0  0  0
 12 13  1  0  0  0  0
 12 28  1  0  0  0  0
 13 14  1  0  0  0  0
 13 29  1  0  0  0  0
 14 15  1  0  0  0  0
 14 30  1  0  0  0  0
 14 31  1  0  0  0  0
 15 22  1  0  0  0  0
 15 16  1  0  0  0  0
 16 32  1  0  0  0  0
 17 18  1  0  0  0  0
 17 33  1  0  0  0  0
 17 34  1  0  0  0  0
 18 23  1  0  0  0  0
 18 19  1  0  0  0  0
 19 35  1  0  0  0  0
M  END
> <s_m_source_file>
AV-unprocessed.smi

> <i_m_source_file_index>
157

> <i_lp_mmshare_version>
43012

> <i_f3d_flags>
0

> <s_epik_input>
W09IXVtDSDJdW0NASF0xT1tDQEhdKFtDSDJdW0NAQEhdMVtPSF0pbihbY0hdbjIpYyhjMjMpTj1bQ0hdW05IXVtDSDJdW0NASF0zW09IXQ==

> <s_epik_cmdline>
J2VwaWtfcHl0aG9uJywgJy1waCcsICc3LjAnLCAnLXRuJywgJzgnLCAnLW1hJywgJzIwMCcsICctbWV0YWxfYmluZGluZycsICctaW1hZScsICc8aW5maWxlLm1hZT4nLCAnLW9tYWUnLCAnPG91dGZpbGUubWFlPic=

> <r_lp_tautomer_probability>
1

> <r_epik_Ionization_Penalty>
0.0357149

> <r_epik_Ionization_Penalty_Charging>
0.0355056

> <r_epik_Ionization_Penalty_Neutral>
0.000209255

> <r_epik_State_Penalty>
0.0296046

> <r_epik_Charging_Adjusted_Penalty>
0.0651102

> <i_epik_Tot_Q>
0

> <i_epik_Tot_abs_Q>
0

> <r_epik_Metal_State_Penalty>
3.03559e-05

> <b_epik_Metal_Only>
0

> <s_epik_Chemistry_Notes>
This compound has an imine and may undergo hydrolysis. This compound contains an acetal/aminal-like group ( X-CH(R)-Y where X, Y are N, S, or O) that may be acid/base labile, releasing an aldehyde.

> <s_lp_Force_Field>
OPLS_2005

> <r_lp_Energy>
44.6585

> <b_lp_Chiralities_Consistent>
1

> <s_lp_Variant>
AV-unprocessed.smi:157-10

> <Gold.Version>
5.8.1

> <Gold.Id.Protein>
6NUR|6NUR_protein|mol2

> <Gold.PLP.Fitness>
45.4266

> <Gold.PLP.PLP>
-35.2342

> <Gold.PLP.part.hbond>
-3.3605

> <Gold.PLP.part.metal>
0.0000

> <Gold.PLP.part.buried>
-4.0300

> <Gold.PLP.part.nonpolar>
-27.8230

> <Gold.PLP.part.repulsive>
0.2768

> <Gold.PLP.ligand.clash>
0.0000

> <Gold.PLP.ligand.torsion>
0.7168

> <Gold.PLP.Chemscore.Hbond>
2.8496

> <Gold.PLP.Chemscore.CHOScore>
1.0223

> <Gold.PLP.Chemscore.Metal>
0.0000

> <Gold.Chemscore.Hbonds>
donor molecule, donor type, donor heavy atom, donor atom, acceptor molecule, acceptor atom, score
      L1  H    19    35       P1  7957  0.91
      P1  H  7989  7998       L1    19  0.23
      P1  H  8011  8017       L1    19  0.65
      P1  H 10752 10764       L1     1  1.00
      L1  C    12    28       P1  8028  0.02
      L1  C    12    28       P1  8029  1.00

> <Gold.PLP.Chemscore.Internal.Correction>
0.0102

> <Gold.Rescore>
     Score         DG    S(hbond)    S(metal)    S(lipo)     H(rot)  DE(clash)    DE(int)     intcor
      7.51      -9.21       1.71        0.00      62.60       3.64       0.21       1.49       ----

> <Gold.Chemscore.Fitness>
7.5145

> <Gold.Chemscore.DG>
-9.2119

> <Gold.Chemscore.ZeroCoef>
-5.4800

> <Gold.Chemscore.Hbond>
1.7114

> <Gold.Chemscore.Metal>
0.0000

> <Gold.Chemscore.Lipo>
62.6026

> <Gold.Chemscore.Internal_Hbond>
0.0000

> <Gold.Chemscore.DEClash>
0.2077

> <Gold.Chemscore.DEInternal>
1.4897

> <Gold.Chemscore.Rot>
3.6362

> <Gold.Chemscore.Internal.Correction>
   9.000000E+99

> <Gold.Chemscore.Hbonds>
donor molecule, donor type, donor heavy atom, donor atom, acceptor molecule, acceptor atom, score
      L1  H    19    35       P1  7957  0.89
      P1  H  8011  8017       L1    19  0.05
      P1  H 10752 10764       L1     1  0.25

> <Gold.Chemscore.Hbond.Weighted>
-5.7161

> <Gold.Chemscore.Metal.Weighted>
-0.0000

> <Gold.Chemscore.Lipo.Weighted>
-7.3245

> <Gold.Chemscore.Internal_Hbond.Weighted>
0.0000

> <Gold.Chemscore.DEClash.Weighted>
0.2077

> <Gold.Chemscore.DEInternal.Weighted>
1.4897

> <Gold.Chemscore.Rot.Weighted>
9.3087

> <Gold.Chemscore.Internal.Correction.Weighted>
   9.000000E+99

> <Gold.Protein.RotatedTorsions>
[ 6907 6896 6895 6894 ] final   82.71 input  -60.11 | X-H torsion
[ 7974 7965 7964 7962 ] final  -88.68 input  175.53 | X-H torsion
[ 8008 7997 7996 7995 ] final  154.93 input   59.86 | X-H torsion
[ 10167 10162 10161 10158 ] final    4.29 input  -65.29 | X-H torsion
[ 10718 10713 10712 10709 ] final -108.90 input   66.30 | X-H torsion
[ 10763 10752 10751 10750 ] final  -77.83 input  -60.55 | X-H torsion
[ 11005 11000 10999 10996 ] final  -15.07 input  -57.11 | X-H torsion

> <Gold.Protein.ActiveResidues>
 VAL166  LYS551  ARG553  GLY616  TRP617  ASP618  TYR619  PRO620  LYS621  CYS622 
 ASP623  PHE694  ASN695  SER759  ASP760  ASP761  ALA762  ILE779  LEU786  VAL792 
 PHE793  MET794  SER795  GLU796  ALA797  LYS798  CYS799  TRP800  GLU811  SER814 

> <Gold.Protein.RotatedAtoms>
  152.5307  134.3008  159.9077 H   0  0  0  0  0  0  0  0  0  0  0  0  # atno 6907 bound_to 6896
  151.2959  133.4138  159.2644 H   0  0  0  0  0  0  0  0  0  0  0  0  # atno 6908 bound_to 6896
  151.0161  134.9450  159.8091 H   0  0  0  0  0  0  0  0  0  0  0  0  # atno 6909 bound_to 6896
  145.4500  140.9560  143.2028 H   0  0  0  0  0  0  0  0  0  0  0  0  # atno 7974 bound_to 7965
  156.2505  140.1953  156.6723 H   0  0  0  0  0  0  0  0  0  0  0  0  # atno 8008 bound_to 7997
  154.6384  140.0587  156.9841 H   0  0  0  0  0  0  0  0  0  0  0  0  # atno 8009 bound_to 7997
  155.1602  140.3259  155.4416 H   0  0  0  0  0  0  0  0  0  0  0  0  # atno 8010 bound_to 7997
  140.6542  143.7469  150.7625 H   0  0  0  0  0  0  0  0  0  0  0  0  # atno 10167 bound_to 10162
  156.0509  130.5736  150.8026 H   0  0  0  0  0  0  0  0  0  0  0  0  # atno 10718 bound_to 10713
  154.5180  135.5751  153.6657 H   0  0  0  0  0  0  0  0  0  0  0  0  # atno 10763 bound_to 10752
  152.9911  135.6175  154.2792 H   0  0  0  0  0  0  0  0  0  0  0  0  # atno 10764 bound_to 10752
  154.2711  135.2853  155.2717 H   0  0  0  0  0  0  0  0  0  0  0  0  # atno 10765 bound_to 10752
  140.7929  133.8273  155.9397 H   0  0  0  0  0  0  0  0  0  0  0  0  # atno 11005 bound_to 11000
  144.8068  139.6037  143.7047 LP  0  0  0  0  0  0  0  0  0  0  0  0  # atno 17320 bound_to 7965
  146.2510  139.6199  142.9427 LP  0  0  0  0  0  0  0  0  0  0  0  0  # atno 17321 bound_to 7965
  140.1126  143.4686  152.2361 LP  0  0  0  0  0  0  0  0  0  0  0  0  # atno 17342 bound_to 10162
  139.5762  144.7488  151.3760 LP  0  0  0  0  0  0  0  0  0  0  0  0  # atno 17343 bound_to 10162
  157.5434  131.0941  150.9795 LP  0  0  0  0  0  0  0  0  0  0  0  0  # atno 17370 bound_to 10713
  157.0073  130.5623  149.5317 LP  0  0  0  0  0  0  0  0  0  0  0  0  # atno 17371 bound_to 10713
  140.9371  134.1948  157.4823 LP  0  0  0  0  0  0  0  0  0  0  0  0  # atno 17394 bound_to 11000
  139.8729  134.9857  156.5292 LP  0  0  0  0  0  0  0  0  0  0  0  0  # atno 17395 bound_to 11000

$$$$
