AV-unprocessed.smi:1893|AV-procd|sdf|7675|dock5
  -GOLD-   22720 9413D 1   1.00000     0.00000
 Structure written by MMmdl.
 43 44  0  0  0  0  0  0  0  0  2 V2000
  147.2743  135.0321  154.4073 C   0  0  0  0  0  0  0  0  0  0  0  0
  146.2156  134.8297  153.3024 C   0  0  2  0  0  0  0  0  0  0  0  0
  146.4536  133.4499  152.6478 C   0  0  0  0  0  0  0  0  0  0  0  0
  145.4488  133.1575  151.5315 C   0  0  0  0  0  0  0  0  0  0  0  0
  145.4980  134.2856  150.5021 C   0  0  0  0  0  0  0  0  0  0  0  0
  145.2398  135.6389  151.1779 C   0  0  0  0  0  0  0  0  0  0  0  0
  146.2184  135.9183  152.2690 N   0  3  1  0  0  0  0  0  0  0  0  0
  146.0355  137.2900  152.8251 C   0  0  0  0  0  0  0  0  0  0  0  0
  146.5193  138.4006  151.8681 C   0  0  0  0  0  0  0  0  0  0  0  0
  147.5847  139.1928  152.4699 N   0  0  0  0  0  0  0  0  0  0  0  0
  147.4977  139.8372  153.6446 C   0  0  0  0  0  0  0  0  0  0  0  0
  146.4764  139.8386  154.3330 O   0  0  0  0  0  0  0  0  0  0  0  0
  148.7632  140.5768  154.1068 C   0  0  1  0  0  0  0  0  0  0  0  0
  148.4931  141.5843  155.2398 C   0  0  0  0  0  0  0  0  0  0  0  0
  149.7903  139.6199  154.4951 N   0  0  0  0  0  0  0  0  0  0  0  0
  150.3520  138.6139  153.8187 C   0  0  0  0  0  0  0  0  0  0  0  0
  151.2763  137.9561  154.5043 N   0  0  0  0  0  0  0  0  0  0  0  0
  151.2272  138.6516  155.6790 C   0  0  0  0  0  0  0  0  0  0  0  0
  150.3569  139.6603  155.7248 N   0  0  0  0  0  0  0  0  0  0  0  0
  147.3654  134.1386  155.0260 H   0  0  0  0  0  0  0  0  0  0  0  0
  147.0175  135.8398  155.0915 H   0  0  0  0  0  0  0  0  0  0  0  0
  148.2583  135.2377  153.9850 H   0  0  0  0  0  0  0  0  0  0  0  0
  145.2315  134.8175  153.7742 H   0  0  0  0  0  0  0  0  0  0  0  0
  147.4657  133.4045  152.2423 H   0  0  0  0  0  0  0  0  0  0  0  0
  146.3902  132.6621  153.3996 H   0  0  0  0  0  0  0  0  0  0  0  0
  145.6762  132.2023  151.0575 H   0  0  0  0  0  0  0  0  0  0  0  0
  144.4433  133.0727  151.9460 H   0  0  0  0  0  0  0  0  0  0  0  0
  146.4710  134.2978  150.0087 H   0  0  0  0  0  0  0  0  0  0  0  0
  144.7562  134.1098  149.7222 H   0  0  0  0  0  0  0  0  0  0  0  0
  145.2844  136.4073  150.4087 H   0  0  0  0  0  0  0  0  0  0  0  0
  144.2273  135.6635  151.5844 H   0  0  0  0  0  0  0  0  0  0  0  0
  144.9877  137.4317  153.0939 H   0  0  0  0  0  0  0  0  0  0  0  0
  146.6023  137.4186  153.7438 H   0  0  0  0  0  0  0  0  0  0  0  0
  146.9057  137.9570  150.9499 H   0  0  0  0  0  0  0  0  0  0  0  0
  145.7141  139.0733  151.5747 H   0  0  0  0  0  0  0  0  0  0  0  0
  148.4589  139.2440  151.9663 H   0  0  0  0  0  0  0  0  0  0  0  0
  149.1340  141.1411  153.2490 H   0  0  0  0  0  0  0  0  0  0  0  0
  147.7528  142.3270  154.9404 H   0  0  0  0  0  0  0  0  0  0  0  0
  149.4039  142.1214  155.5060 H   0  0  0  0  0  0  0  0  0  0  0  0
  148.1266  141.0922  156.1415 H   0  0  0  0  0  0  0  0  0  0  0  0
  150.0824  138.3608  152.8036 H   0  0  0  0  0  0  0  0  0  0  0  0
  151.8542  138.4099  156.5247 H   0  0  0  0  0  0  0  0  0  0  0  0
  147.1372  135.9011  151.8499 H   0  0  0  0  0  0  0  0  0  0  0  0
  1  2  1  0  0  0  0
  1 20  1  0  0  0  0
  1 21  1  0  0  0  0
  1 22  1  0  0  0  0
  2  7  1  0  0  0  0
  2  3  1  0  0  0  0
  2 23  1  0  0  0  0
  3  4  1  0  0  0  0
  3 24  1  0  0  0  0
  3 25  1  0  0  0  0
  4  5  1  0  0  0  0
  4 26  1  0  0  0  0
  4 27  1  0  0  0  0
  5  6  1  0  0  0  0
  5 28  1  0  0  0  0
  5 29  1  0  0  0  0
  6  7  1  0  0  0  0
  6 30  1  0  0  0  0
  6 31  1  0  0  0  0
  7  8  1  0  0  0  0
  7 43  1  0  0  0  0
  8  9  1  0  0  0  0
  8 32  1  0  0  0  0
  8 33  1  0  0  0  0
  9 10  1  0  0  0  0
  9 34  1  0  0  0  0
  9 35  1  0  0  0  0
 10 11  1  0  0  0  0
 10 36  1  0  0  0  0
 11 12  2  0  0  0  0
 11 13  1  0  0  0  0
 13 14  1  0  0  0  0
 13 15  1  0  0  0  0
 13 37  1  0  0  0  0
 14 38  1  0  0  0  0
 14 39  1  0  0  0  0
 14 40  1  0  0  0  0
 15 19  1  0  0  0  0
 15 16  1  0  0  0  0
 16 17  2  0  0  0  0
 16 41  1  0  0  0  0
 17 18  1  0  0  0  0
 18 19  2  0  0  0  0
 18 42  1  0  0  0  0
M  CHG  1   7   1
M  END
> <s_m_source_file>
AV-unprocessed.smi

> <i_m_source_file_index>
1893

> <i_lp_mmshare_version>
43012

> <i_f3d_flags>
0

> <s_epik_input>
W0NIM11bQ0BASF0xW0NIMl1bQ0gyXVtDSDJdW0NIMl1OMVtDSDJdW0NIMl1bTkhdQyg9TylbQ0BIXShbQ0gzXSluMltjSF1uW2NIXW4y

> <s_epik_cmdline>
J2VwaWtfcHl0aG9uJywgJy1waCcsICc3LjAnLCAnLXRuJywgJzgnLCAnLW1hJywgJzIwMCcsICctbWV0YWxfYmluZGluZycsICctaW1hZScsICc8aW5maWxlLm1hZT4nLCAnLW9tYWUnLCAnPG91dGZpbGUubWFlPic=

> <r_lp_tautomer_probability>
1

> <r_epik_Ionization_Penalty>
0.00266409

> <r_epik_Ionization_Penalty_Charging>
0.00265606

> <r_epik_Ionization_Penalty_Neutral>
8.02794e-06

> <r_epik_State_Penalty>
0.00184955

> <r_epik_Charging_Adjusted_Penalty>
0.00450561

> <i_epik_Tot_Q>
1

> <i_epik_Tot_abs_Q>
1

> <r_epik_Metal_State_Penalty>
-0

> <b_epik_Metal_Only>
0

> <s_lp_Force_Field>
OPLS_2005

> <r_lp_Energy>
24.8268

> <b_lp_Chiralities_Consistent>
1

> <s_lp_Variant>
AV-unprocessed.smi:1893-5

> <Gold.Version>
5.8.1

> <Gold.Id.Protein>
6NUR|6NUR_protein|mol2

> <Gold.PLP.Fitness>
42.5567

> <Gold.PLP.PLP>
-29.5854

> <Gold.PLP.part.hbond>
-2.1030

> <Gold.PLP.part.metal>
0.0000

> <Gold.PLP.part.buried>
-0.0718

> <Gold.PLP.part.nonpolar>
-27.3233

> <Gold.PLP.part.repulsive>
0.3908

> <Gold.PLP.ligand.clash>
0.0000

> <Gold.PLP.ligand.torsion>
0.8488

> <Gold.PLP.Chemscore.Hbond>
3.0000

> <Gold.PLP.Chemscore.CHOScore>
1.8621

> <Gold.PLP.Chemscore.Metal>
0.0000

> <Gold.Chemscore.Hbonds>
donor molecule, donor type, donor heavy atom, donor atom, acceptor molecule, acceptor atom, score
      L1  H     7    43       P1  7948  2.00
      L1  H    10    36       P1  7957  1.00
      L1  C    16    41       P1  7948  1.00
      L1  C    16    41       P1  7949  0.01
      L1  C    16    41       P1  7957  0.86

> <Gold.PLP.Chemscore.Internal.Correction>
0.0824

> <Gold.Rescore>
     Score         DG    S(hbond)    S(metal)    S(lipo)     H(rot)  DE(clash)    DE(int)     intcor
     10.19     -11.80       1.94        0.00      54.08       2.54       0.19       1.42       ----

> <Gold.Chemscore.Fitness>
10.1876

> <Gold.Chemscore.DG>
-11.8003

> <Gold.Chemscore.ZeroCoef>
-5.4800

> <Gold.Chemscore.Hbond>
1.9429

> <Gold.Chemscore.Metal>
0.0000

> <Gold.Chemscore.Lipo>
54.0813

> <Gold.Chemscore.Internal_Hbond>
0.0000

> <Gold.Chemscore.DEClash>
0.1886

> <Gold.Chemscore.DEInternal>
1.4241

> <Gold.Chemscore.Rot>
2.5377

> <Gold.Chemscore.Internal.Correction>
   9.000000E+99

> <Gold.Chemscore.Hbonds>
donor molecule, donor type, donor heavy atom, donor atom, acceptor molecule, acceptor atom, score
      L1  H     7    43       P1  7948  0.98
      L1  H    10    36       P1  7957  0.95

> <Gold.Chemscore.Hbond.Weighted>
-6.4894

> <Gold.Chemscore.Metal.Weighted>
-0.0000

> <Gold.Chemscore.Lipo.Weighted>
-6.3275

> <Gold.Chemscore.Internal_Hbond.Weighted>
0.0000

> <Gold.Chemscore.DEClash.Weighted>
0.1886

> <Gold.Chemscore.DEInternal.Weighted>
1.4241

> <Gold.Chemscore.Rot.Weighted>
6.4966

> <Gold.Chemscore.Internal.Correction.Weighted>
   9.000000E+99

> <Gold.Protein.RotatedTorsions>
[ 6907 6896 6895 6894 ] final  115.80 input  -60.11 | X-H torsion
[ 7974 7965 7964 7962 ] final  124.67 input  175.53 | X-H torsion
[ 8008 7997 7996 7995 ] final  -31.67 input   59.86 | X-H torsion
[ 10167 10162 10161 10158 ] final  104.99 input  -65.29 | X-H torsion
[ 10718 10713 10712 10709 ] final  -77.82 input   66.30 | X-H torsion
[ 10763 10752 10751 10750 ] final  -90.21 input  -60.55 | X-H torsion
[ 11005 11000 10999 10996 ] final    8.65 input  -57.11 | X-H torsion

> <Gold.Protein.ActiveResidues>
 VAL166  LYS551  ARG553  GLY616  TRP617  ASP618  TYR619  PRO620  LYS621  CYS622 
 ASP623  PHE694  ASN695  SER759  ASP760  ASP761  ALA762  ILE779  LEU786  VAL792 
 PHE793  MET794  SER795  GLU796  ALA797  LYS798  CYS799  TRP800  GLU811  SER814 

> <Gold.Protein.RotatedAtoms>
  152.4719  133.8049  159.6972 H   0  0  0  0  0  0  0  0  0  0  0  0  # atno 6907 bound_to 6896
  150.8713  133.7492  159.2967 H   0  0  0  0  0  0  0  0  0  0  0  0  # atno 6908 bound_to 6896
  151.5026  135.1065  159.9885 H   0  0  0  0  0  0  0  0  0  0  0  0  # atno 6909 bound_to 6896
  145.0817  139.3652  143.4906 H   0  0  0  0  0  0  0  0  0  0  0  0  # atno 7974 bound_to 7965
  154.4205  140.1758  156.1605 H   0  0  0  0  0  0  0  0  0  0  0  0  # atno 8008 bound_to 7997
  155.9842  140.3375  155.6667 H   0  0  0  0  0  0  0  0  0  0  0  0  # atno 8009 bound_to 7997
  155.6459  140.0685  157.2594 H   0  0  0  0  0  0  0  0  0  0  0  0  # atno 8010 bound_to 7997
  139.7130  144.7074  151.0996 H   0  0  0  0  0  0  0  0  0  0  0  0  # atno 10167 bound_to 10162
  156.0134  130.4501  150.3402 H   0  0  0  0  0  0  0  0  0  0  0  0  # atno 10718 bound_to 10713
  154.6634  135.5313  153.8046 H   0  0  0  0  0  0  0  0  0  0  0  0  # atno 10763 bound_to 10752
  153.0456  135.6511  154.0837 H   0  0  0  0  0  0  0  0  0  0  0  0  # atno 10764 bound_to 10752
  154.0744  135.2952  155.3282 H   0  0  0  0  0  0  0  0  0  0  0  0  # atno 10765 bound_to 10752
  140.5346  134.0433  155.7884 H   0  0  0  0  0  0  0  0  0  0  0  0  # atno 11005 bound_to 11000
  146.3531  140.0610  142.8629 LP  0  0  0  0  0  0  0  0  0  0  0  0  # atno 17320 bound_to 7965
  145.1170  140.9440  143.4622 LP  0  0  0  0  0  0  0  0  0  0  0  0  # atno 17321 bound_to 7965
  140.7737  143.5267  150.9471 LP  0  0  0  0  0  0  0  0  0  0  0  0  # atno 17342 bound_to 10162
  139.8952  143.6903  152.3139 LP  0  0  0  0  0  0  0  0  0  0  0  0  # atno 17343 bound_to 10162
  157.1498  131.0318  151.2890 LP  0  0  0  0  0  0  0  0  0  0  0  0  # atno 17370 bound_to 10713
  157.4401  130.7539  149.7062 LP  0  0  0  0  0  0  0  0  0  0  0  0  # atno 17371 bound_to 10713
  141.1262  133.9379  157.2631 LP  0  0  0  0  0  0  0  0  0  0  0  0  # atno 17394 bound_to 11000
  139.9536  135.0170  156.9064 LP  0  0  0  0  0  0  0  0  0  0  0  0  # atno 17395 bound_to 11000

$$$$
