AV-unprocessed.smi:1843|AV-procd|sdf|7505|dock5
  -GOLD-   22720 9213D 1   1.00000     0.00000
 Structure written by MMmdl.
 36 38  0  0  0  0  0  0  0  0  2 V2000
  141.8067  136.5306  154.0027 O   0  0  0  0  0  0  0  0  0  0  0  0
  142.4789  137.4627  153.5557 C   0  0  0  0  0  0  0  0  0  0  0  0
  143.6779  137.3623  152.9385 N   0  5  0  0  0  0  0  0  0  0  0  0
  143.9744  136.2659  152.2213 C   0  0  0  0  0  0  0  0  0  0  0  0
  145.0553  136.1924  151.4318 N   0  0  0  0  0  0  0  0  0  0  0  0
  145.1702  134.9737  150.7784 N   0  0  0  0  0  0  0  0  0  0  0  0
  144.1674  134.1448  151.0784 C   0  0  0  0  0  0  0  0  0  0  0  0
  144.0651  132.7717  150.5036 C   0  0  0  0  0  0  0  0  0  0  0  0
  145.1434  132.2070  149.6045 C   0  0  0  0  0  0  0  0  0  0  0  0
  143.7972  132.5681  149.0300 C   0  0  0  0  0  0  0  0  0  0  0  0
  142.9851  134.8067  152.1959 S   0  0  0  0  0  0  0  0  0  0  0  0
  142.0272  138.7214  153.6523 N   0  0  0  0  0  0  0  0  0  0  0  0
  140.7560  139.1405  154.2408 C   0  0  1  0  0  0  0  0  0  0  0  0
  140.6136  140.6733  154.1688 C   0  0  0  0  0  0  0  0  0  0  0  0
  139.2844  141.1397  154.7843 C   0  0  0  0  0  0  0  0  0  0  0  0
  138.0862  140.4483  154.1149 C   0  0  0  0  0  0  0  0  0  0  0  0
  138.2176  138.9153  154.1717 C   0  0  0  0  0  0  0  0  0  0  0  0
  139.5527  138.4219  153.5806 C   0  0  1  0  0  0  0  0  0  0  0  0
  139.5453  138.6329  152.1805 O   0  0  0  0  0  0  0  0  0  0  0  0
  143.5840  132.0955  151.2077 H   0  0  0  0  0  0  0  0  0  0  0  0
  145.9833  132.8468  149.3414 H   0  0  0  0  0  0  0  0  0  0  0  0
  145.3785  131.1499  149.7085 H   0  0  0  0  0  0  0  0  0  0  0  0
  143.1344  131.7524  148.7487 H   0  0  0  0  0  0  0  0  0  0  0  0
  143.7417  133.4534  148.3995 H   0  0  0  0  0  0  0  0  0  0  0  0
  142.6141  139.4512  153.2755 H   0  0  0  0  0  0  0  0  0  0  0  0
  140.7731  138.8693  155.2983 H   0  0  0  0  0  0  0  0  0  0  0  0
  141.4444  141.1489  154.6914 H   0  0  0  0  0  0  0  0  0  0  0  0
  140.6718  141.0067  153.1316 H   0  0  0  0  0  0  0  0  0  0  0  0
  139.2806  140.9229  155.8532 H   0  0  0  0  0  0  0  0  0  0  0  0
  139.1908  142.2217  154.6879 H   0  0  0  0  0  0  0  0  0  0  0  0
  137.1601  140.7581  154.5996 H   0  0  0  0  0  0  0  0  0  0  0  0
  138.0117  140.7732  153.0763 H   0  0  0  0  0  0  0  0  0  0  0  0
  138.1495  138.5925  155.2115 H   0  0  0  0  0  0  0  0  0  0  0  0
  137.3793  138.4480  153.6537 H   0  0  0  0  0  0  0  0  0  0  0  0
  139.6316  137.3466  153.7440 H   0  0  0  0  0  0  0  0  0  0  0  0
  139.9448  139.4724  152.0080 H   0  0  0  0  0  0  0  0  0  0  0  0
  1  2  2  0  0  0  0
  2  3  1  0  0  0  0
  2 12  1  0  0  0  0
  3  4  1  0  0  0  0
  4 11  1  0  0  0  0
  4  5  2  0  0  0  0
  5  6  1  0  0  0  0
  6  7  2  0  0  0  0
  7  8  1  0  0  0  0
  7 11  1  0  0  0  0
  8 10  1  0  0  0  0
  8  9  1  0  0  0  0
  8 20  1  0  0  0  0
  9 10  1  0  0  0  0
  9 21  1  0  0  0  0
  9 22  1  0  0  0  0
 10 23  1  0  0  0  0
 10 24  1  0  0  0  0
 12 13  1  0  0  0  0
 12 25  1  0  0  0  0
 13 18  1  0  0  0  0
 13 14  1  0  0  0  0
 13 26  1  0  0  0  0
 14 15  1  0  0  0  0
 14 27  1  0  0  0  0
 14 28  1  0  0  0  0
 15 16  1  0  0  0  0
 15 29  1  0  0  0  0
 15 30  1  0  0  0  0
 16 17  1  0  0  0  0
 16 31  1  0  0  0  0
 16 32  1  0  0  0  0
 17 18  1  0  0  0  0
 17 33  1  0  0  0  0
 17 34  1  0  0  0  0
 18 19  1  0  0  0  0
 18 35  1  0  0  0  0
 19 36  1  0  0  0  0
M  CHG  1   3  -1
M  END
> <s_m_source_file>
AV-unprocessed.smi

> <i_m_source_file_index>
1843

> <i_lp_mmshare_version>
43012

> <i_f3d_flags>
0

> <s_epik_input>
W09IXVtDQEBIXTFbQ0gyXVtDSDJdW0NIMl1bQ0gyXVtDQEhdMVtOSF1DKD1PKVtOSF1jMm5uYyhzMilbQ0hdM1tDSDJdW0NIMl0z

> <s_epik_cmdline>
J2VwaWtfcHl0aG9uJywgJy1waCcsICc3LjAnLCAnLXRuJywgJzgnLCAnLW1hJywgJzIwMCcsICctbWV0YWxfYmluZGluZycsICctaW1hZScsICc8aW5maWxlLm1hZT4nLCAnLW9tYWUnLCAnPG91dGZpbGUubWFlPic=

> <r_lp_tautomer_probability>
1

> <r_epik_Ionization_Penalty>
4.7996

> <r_epik_Ionization_Penalty_Charging>
4.64516

> <r_epik_Ionization_Penalty_Neutral>
0.154442

> <r_epik_State_Penalty>
4.64493

> <r_epik_Charging_Adjusted_Penalty>
9.29009

> <i_epik_Tot_Q>
-1

> <i_epik_Tot_abs_Q>
1

> <r_epik_Metal_State_Penalty>
0.896144

> <b_epik_Metal_Only>
1

> <s_lp_Force_Field>
OPLS_2005

> <r_lp_Energy>
9.18757

> <b_lp_Chiralities_Consistent>
1

> <s_lp_Variant>
AV-unprocessed.smi:1843-6

> <Gold.Version>
5.8.1

> <Gold.Id.Protein>
6NUR|6NUR_protein|mol2

> <Gold.PLP.Fitness>
36.7219

> <Gold.PLP.PLP>
-31.3232

> <Gold.PLP.part.hbond>
-1.6886

> <Gold.PLP.part.metal>
0.0000

> <Gold.PLP.part.buried>
-5.9894

> <Gold.PLP.part.nonpolar>
-24.9875

> <Gold.PLP.part.repulsive>
0.6634

> <Gold.PLP.ligand.clash>
0.0000

> <Gold.PLP.ligand.torsion>
0.2993

> <Gold.PLP.Chemscore.Hbond>
1.9440

> <Gold.PLP.Chemscore.CHOScore>
0.0000

> <Gold.PLP.Chemscore.Metal>
0.0000

> <Gold.Chemscore.Hbonds>
donor molecule, donor type, donor heavy atom, donor atom, acceptor molecule, acceptor atom, score
      L1  H    12    25       P1 10175  1.00
      L1  H    19    36       P1 10160  0.90

> <Gold.PLP.Chemscore.Internal.Correction>
0.1652

> <Gold.Rescore>
     Score         DG    S(hbond)    S(metal)    S(lipo)     H(rot)  DE(clash)    DE(int)     intcor
     13.07     -16.72       1.94        0.00      78.16       1.72       0.77       2.88       ----

> <Gold.Chemscore.Fitness>
13.0743

> <Gold.Chemscore.DG>
-16.7188

> <Gold.Chemscore.ZeroCoef>
-5.4800

> <Gold.Chemscore.Hbond>
1.9421

> <Gold.Chemscore.Metal>
0.0000

> <Gold.Chemscore.Lipo>
78.1628

> <Gold.Chemscore.Internal_Hbond>
0.0000

> <Gold.Chemscore.DEClash>
0.7684

> <Gold.Chemscore.DEInternal>
2.8760

> <Gold.Chemscore.Rot>
1.7160

> <Gold.Chemscore.Internal.Correction>
   9.000000E+99

> <Gold.Chemscore.Hbonds>
donor molecule, donor type, donor heavy atom, donor atom, acceptor molecule, acceptor atom, score
      L1  H    12    25       P1 10175  0.99
      L1  H    19    36       P1 10160  0.88

> <Gold.Chemscore.Hbond.Weighted>
-6.4867

> <Gold.Chemscore.Metal.Weighted>
-0.0000

> <Gold.Chemscore.Lipo.Weighted>
-9.1451

> <Gold.Chemscore.Internal_Hbond.Weighted>
0.0000

> <Gold.Chemscore.DEClash.Weighted>
0.7684

> <Gold.Chemscore.DEInternal.Weighted>
2.8760

> <Gold.Chemscore.Rot.Weighted>
4.3930

> <Gold.Chemscore.Internal.Correction.Weighted>
   9.000000E+99

> <Gold.Protein.RotatedTorsions>
[ 6907 6896 6895 6894 ] final  -95.84 input  -60.11 | X-H torsion
[ 7974 7965 7964 7962 ] final   49.94 input  175.53 | X-H torsion
[ 8008 7997 7996 7995 ] final   70.51 input   59.86 | X-H torsion
[ 10167 10162 10161 10158 ] final  -52.70 input  -65.29 | X-H torsion
[ 10718 10713 10712 10709 ] final -165.58 input   66.30 | X-H torsion
[ 10763 10752 10751 10750 ] final -173.70 input  -60.55 | X-H torsion
[ 11005 11000 10999 10996 ] final  124.74 input  -57.11 | X-H torsion

> <Gold.Protein.ActiveResidues>
 VAL166  LYS551  ARG553  GLY616  TRP617  ASP618  TYR619  PRO620  LYS621  CYS622 
 ASP623  PHE694  ASN695  SER759  ASP760  ASP761  ALA762  ILE779  LEU786  VAL792 
 PHE793  MET794  SER795  GLU796  ALA797  LYS798  CYS799  TRP800  GLU811  SER814 

> <Gold.Protein.RotatedAtoms>
  150.6974  134.1595  159.4170 H   0  0  0  0  0  0  0  0  0  0  0  0  # atno 6907 bound_to 6896
  151.9575  135.0137  160.0555 H   0  0  0  0  0  0  0  0  0  0  0  0  # atno 6908 bound_to 6896
  152.1956  133.4769  159.5068 H   0  0  0  0  0  0  0  0  0  0  0  0  # atno 6909 bound_to 6896
  146.0060  139.4491  142.9985 H   0  0  0  0  0  0  0  0  0  0  0  0  # atno 7974 bound_to 7965
  155.7398  140.3490  155.5099 H   0  0  0  0  0  0  0  0  0  0  0  0  # atno 8008 bound_to 7997
  155.9104  140.1049  157.1304 H   0  0  0  0  0  0  0  0  0  0  0  0  # atno 8009 bound_to 7997
  154.4055  140.1269  156.4537 H   0  0  0  0  0  0  0  0  0  0  0  0  # atno 8010 bound_to 7997
  140.6524  143.2575  151.4685 H   0  0  0  0  0  0  0  0  0  0  0  0  # atno 10167 bound_to 10162
  156.6555  130.9025  151.3020 H   0  0  0  0  0  0  0  0  0  0  0  0  # atno 10718 bound_to 10713
  154.6048  135.2858  155.0496 H   0  0  0  0  0  0  0  0  0  0  0  0  # atno 10763 bound_to 10752
  154.1748  135.6466  153.5022 H   0  0  0  0  0  0  0  0  0  0  0  0  # atno 10764 bound_to 10752
  153.0171  135.5409  154.6780 H   0  0  0  0  0  0  0  0  0  0  0  0  # atno 10765 bound_to 10752
  139.9373  134.9638  156.8454 H   0  0  0  0  0  0  0  0  0  0  0  0  # atno 11005 bound_to 11000
  145.7415  141.0006  143.1298 LP  0  0  0  0  0  0  0  0  0  0  0  0  # atno 17320 bound_to 7965
  144.6936  139.9105  143.7463 LP  0  0  0  0  0  0  0  0  0  0  0  0  # atno 17321 bound_to 7965
  139.5741  144.1860  152.1878 LP  0  0  0  0  0  0  0  0  0  0  0  0  # atno 17342 bound_to 10162
  140.1165  144.5411  150.6890 LP  0  0  0  0  0  0  0  0  0  0  0  0  # atno 17343 bound_to 10162
  157.7127  130.9459  150.1145 LP  0  0  0  0  0  0  0  0  0  0  0  0  # atno 17370 bound_to 10713
  156.2051  130.3663  149.8739 LP  0  0  0  0  0  0  0  0  0  0  0  0  # atno 17371 bound_to 10713
  140.6043  134.0142  155.7550 LP  0  0  0  0  0  0  0  0  0  0  0  0  # atno 17394 bound_to 11000
  141.0992  133.9795  157.3108 LP  0  0  0  0  0  0  0  0  0  0  0  0  # atno 17395 bound_to 11000

$$$$
