AV-unprocessed.smi:2061|AV-procd|sdf|8368|dock5
  -GOLD-   2272011 43D 1   1.00000     0.00000
 Structure written by MMmdl.
 46 47  0  0  0  0  0  0  0  0  2 V2000
  153.3140  141.8083  161.1402 C   0  0  0  0  0  0  0  0  0  0  0  0
  152.5379  142.3562  159.9920 C   0  0  0  0  0  0  0  0  0  0  0  0
  151.6175  141.8067  159.1449 C   0  0  0  0  0  0  0  0  0  0  0  0
  151.2865  142.8941  158.2846 C   0  0  0  0  0  0  0  0  0  0  0  0
  150.3609  142.8643  157.2096 N   0  0  0  0  0  0  0  0  0  0  0  0
  149.8665  141.7953  156.5628 C   0  0  0  0  0  0  0  0  0  0  0  0
  150.1360  140.6210  156.8144 O   0  0  0  0  0  0  0  0  0  0  0  0
  149.0216  142.1662  155.5889 N   0  0  0  0  0  0  0  0  0  0  0  0
  148.3468  141.2612  154.6605 C   0  0  0  0  0  0  0  0  0  0  0  0
  146.8174  141.5190  154.5416 C   0  0  2  0  0  0  0  0  0  0  0  0
  146.5454  142.9196  153.9382 C   0  0  0  0  0  0  0  0  0  0  0  0
  146.1078  141.3355  155.8545 N   0  3  1  0  0  0  0  0  0  0  0  0
  146.4426  140.0550  156.5402 C   0  0  0  0  0  0  0  0  0  0  0  0
  145.6769  139.8819  157.8664 C   0  0  2  0  0  0  0  0  0  0  0  0
  144.1865  139.5420  157.6801 C   0  0  0  0  0  0  0  0  0  0  0  0
  145.8779  141.0160  158.7026 O   0  0  0  0  0  0  0  0  0  0  0  0
  145.4993  142.2505  158.1091 C   0  0  1  0  0  0  0  0  0  0  0  0
  145.7672  143.3602  159.1317 C   0  0  0  0  0  0  0  0  0  0  0  0
  146.2901  142.4668  156.8063 C   0  0  0  0  0  0  0  0  0  0  0  0
  151.9422  143.9996  158.5866 N   0  0  0  0  0  0  0  0  0  0  0  0
  152.7493  143.6631  159.6795 O   0  0  0  0  0  0  0  0  0  0  0  0
  152.9733  140.8053  161.3977 H   0  0  0  0  0  0  0  0  0  0  0  0
  153.1995  142.4402  162.0212 H   0  0  0  0  0  0  0  0  0  0  0  0
  154.3754  141.7534  160.8977 H   0  0  0  0  0  0  0  0  0  0  0  0
  151.2529  140.7906  159.1543 H   0  0  0  0  0  0  0  0  0  0  0  0
  150.0530  143.7687  156.8837 H   0  0  0  0  0  0  0  0  0  0  0  0
  148.8560  143.1538  155.4588 H   0  0  0  0  0  0  0  0  0  0  0  0
  148.8462  141.4390  153.7100 H   0  0  0  0  0  0  0  0  0  0  0  0
  148.5359  140.2177  154.9187 H   0  0  0  0  0  0  0  0  0  0  0  0
  146.4144  140.7793  153.8479 H   0  0  0  0  0  0  0  0  0  0  0  0
  147.0911  143.0797  153.0098 H   0  0  0  0  0  0  0  0  0  0  0  0
  146.8341  143.7122  154.6295 H   0  0  0  0  0  0  0  0  0  0  0  0
  145.5007  143.0647  153.6694 H   0  0  0  0  0  0  0  0  0  0  0  0
  146.2102  139.1929  155.9185 H   0  0  0  0  0  0  0  0  0  0  0  0
  147.5164  140.0286  156.7325 H   0  0  0  0  0  0  0  0  0  0  0  0
  146.1235  139.0400  158.3963 H   0  0  0  0  0  0  0  0  0  0  0  0
  144.0699  138.5881  157.1649 H   0  0  0  0  0  0  0  0  0  0  0  0
  143.6589  140.2919  157.0912 H   0  0  0  0  0  0  0  0  0  0  0  0
  143.6840  139.4573  158.6440 H   0  0  0  0  0  0  0  0  0  0  0  0
  144.4310  142.2460  157.8922 H   0  0  0  0  0  0  0  0  0  0  0  0
  145.4874  144.3369  158.7356 H   0  0  0  0  0  0  0  0  0  0  0  0
  146.8223  143.3994  159.4050 H   0  0  0  0  0  0  0  0  0  0  0  0
  145.1931  143.1957  160.0438 H   0  0  0  0  0  0  0  0  0  0  0  0
  147.3527  142.5934  157.0210 H   0  0  0  0  0  0  0  0  0  0  0  0
  145.9309  143.4003  156.3783 H   0  0  0  0  0  0  0  0  0  0  0  0
  145.1208  141.2981  155.6431 H   0  0  0  0  0  0  0  0  0  0  0  0
  1  2  1  0  0  0  0
  1 22  1  0  0  0  0
  1 23  1  0  0  0  0
  1 24  1  0  0  0  0
  2 21  1  0  0  0  0
  2  3  2  0  0  0  0
  3  4  1  0  0  0  0
  3 25  1  0  0  0  0
  4  5  1  0  0  0  0
  4 20  2  0  0  0  0
  5  6  1  0  0  0  0
  5 26  1  0  0  0  0
  6  7  2  0  0  0  0
  6  8  1  0  0  0  0
  8  9  1  0  0  0  0
  8 27  1  0  0  0  0
  9 10  1  0  0  0  0
  9 28  1  0  0  0  0
  9 29  1  0  0  0  0
 10 11  1  0  0  0  0
 10 12  1  0  0  0  0
 10 30  1  0  0  0  0
 11 31  1  0  0  0  0
 11 32  1  0  0  0  0
 11 33  1  0  0  0  0
 12 19  1  0  0  0  0
 12 13  1  0  0  0  0
 12 46  1  0  0  0  0
 13 14  1  0  0  0  0
 13 34  1  0  0  0  0
 13 35  1  0  0  0  0
 14 15  1  0  0  0  0
 14 16  1  0  0  0  0
 14 36  1  0  0  0  0
 15 37  1  0  0  0  0
 15 38  1  0  0  0  0
 15 39  1  0  0  0  0
 16 17  1  0  0  0  0
 17 18  1  0  0  0  0
 17 19  1  0  0  0  0
 17 40  1  0  0  0  0
 18 41  1  0  0  0  0
 18 42  1  0  0  0  0
 18 43  1  0  0  0  0
 19 44  1  0  0  0  0
 19 45  1  0  0  0  0
 20 21  1  0  0  0  0
M  CHG  1  12   1
M  END
> <s_m_source_file>
AV-unprocessed.smi

> <i_m_source_file_index>
2061

> <i_lp_mmshare_version>
43012

> <i_f3d_flags>
0

> <s_epik_input>
W0NIM11jMVtjSF1jKG5vMSlbTkhdQyg9TylbTkhdW0NIMl1bQ0BIXShbQ0gzXSlOMltDSDJdW0NAQEhdKFtDSDNdKU9bQ0BASF0oW0NIM10pW0NIMl0y

> <s_epik_cmdline>
J2VwaWtfcHl0aG9uJywgJy1waCcsICc3LjAnLCAnLXRuJywgJzgnLCAnLW1hJywgJzIwMCcsICctbWV0YWxfYmluZGluZycsICctaW1hZScsICc8aW5maWxlLm1hZT4nLCAnLW9tYWUnLCAnPG91dGZpbGUubWFlPic=

> <r_epik_Ionization_Penalty>
0.707076

> <r_epik_Ionization_Penalty_Charging>
0.707039

> <r_epik_Ionization_Penalty_Neutral>
3.6548e-05

> <r_epik_State_Penalty>
0.730276

> <r_epik_Charging_Adjusted_Penalty>
1.43732

> <i_epik_Tot_Q>
1

> <i_epik_Tot_abs_Q>
1

> <r_epik_Metal_State_Penalty>
0.743132

> <b_epik_Metal_Only>
0

> <s_lp_Force_Field>
OPLS_2005

> <r_lp_Energy>
23.7206

> <b_lp_Chiralities_Consistent>
1

> <s_lp_Variant>
AV-unprocessed.smi:2061-9

> <Gold.Version>
5.8.1

> <Gold.Id.Protein>
6NUR|6NUR_protein|mol2

> <Gold.PLP.Fitness>
39.3348

> <Gold.PLP.PLP>
-32.3500

> <Gold.PLP.part.hbond>
-3.0000

> <Gold.PLP.part.metal>
0.0000

> <Gold.PLP.part.buried>
-7.2883

> <Gold.PLP.part.nonpolar>
-22.7441

> <Gold.PLP.part.repulsive>
0.2651

> <Gold.PLP.ligand.clash>
0.0000

> <Gold.PLP.ligand.torsion>
0.2656

> <Gold.PLP.Chemscore.Hbond>
2.4869

> <Gold.PLP.Chemscore.CHOScore>
0.0000

> <Gold.PLP.Chemscore.Metal>
0.0000

> <Gold.Chemscore.Hbonds>
donor molecule, donor type, donor heavy atom, donor atom, acceptor molecule, acceptor atom, score
      L1  H     5    26       P1  8028  0.94
      L1  H     8    27       P1  8028  1.00
      P1  H  6934  6946       L1    16  0.26

> <Gold.PLP.Chemscore.Internal.Correction>
0.0554

> <Gold.Rescore>
     Score         DG    S(hbond)    S(metal)    S(lipo)     H(rot)  DE(clash)    DE(int)     intcor
     15.01     -15.69       2.32        0.00      55.78       1.58       0.01       0.67       ----

> <Gold.Chemscore.Fitness>
15.0096

> <Gold.Chemscore.DG>
-15.6906

> <Gold.Chemscore.ZeroCoef>
-5.4800

> <Gold.Chemscore.Hbond>
2.3166

> <Gold.Chemscore.Metal>
0.0000

> <Gold.Chemscore.Lipo>
55.7824

> <Gold.Chemscore.Internal_Hbond>
0.0000

> <Gold.Chemscore.DEClash>
0.0077

> <Gold.Chemscore.DEInternal>
0.6733

> <Gold.Chemscore.Rot>
1.5834

> <Gold.Chemscore.Internal.Correction>
   9.000000E+99

> <Gold.Chemscore.Hbonds>
donor molecule, donor type, donor heavy atom, donor atom, acceptor molecule, acceptor atom, score
      L1  H     5    26       P1  8028  0.90
      L1  H     8    27       P1  8028  0.97
      P1  H  6934  6946       L1    16  0.26

> <Gold.Chemscore.Hbond.Weighted>
-7.7375

> <Gold.Chemscore.Metal.Weighted>
-0.0000

> <Gold.Chemscore.Lipo.Weighted>
-6.5265

> <Gold.Chemscore.Internal_Hbond.Weighted>
0.0000

> <Gold.Chemscore.DEClash.Weighted>
0.0077

> <Gold.Chemscore.DEInternal.Weighted>
0.6733

> <Gold.Chemscore.Rot.Weighted>
4.0535

> <Gold.Chemscore.Internal.Correction.Weighted>
   9.000000E+99

> <Gold.Protein.RotatedTorsions>
[ 6907 6896 6895 6894 ] final   93.44 input  -60.11 | X-H torsion
[ 7974 7965 7964 7962 ] final  110.35 input  175.53 | X-H torsion
[ 8008 7997 7996 7995 ] final  -94.01 input   59.86 | X-H torsion
[ 10167 10162 10161 10158 ] final   14.61 input  -65.29 | X-H torsion
[ 10718 10713 10712 10709 ] final  -72.06 input   66.30 | X-H torsion
[ 10763 10752 10751 10750 ] final  -86.44 input  -60.55 | X-H torsion
[ 11005 11000 10999 10996 ] final -119.87 input  -57.11 | X-H torsion

> <Gold.Protein.ActiveResidues>
 VAL166  LYS551  ARG553  GLY616  TRP617  ASP618  TYR619  PRO620  LYS621  CYS622 
 ASP623  PHE694  ASN695  SER759  ASP760  ASP761  ALA762  ILE779  LEU786  VAL792 
 PHE793  MET794  SER795  GLU796  ALA797  LYS798  CYS799  TRP800  GLU811  SER814 

> <Gold.Protein.RotatedAtoms>
  152.5452  134.1348  159.8453 H   0  0  0  0  0  0  0  0  0  0  0  0  # atno 6907 bound_to 6896
  151.1390  133.4977  159.2605 H   0  0  0  0  0  0  0  0  0  0  0  0  # atno 6908 bound_to 6896
  151.1594  135.0276  159.8758 H   0  0  0  0  0  0  0  0  0  0  0  0  # atno 6909 bound_to 6896
  145.2561  139.2720  143.4042 H   0  0  0  0  0  0  0  0  0  0  0  0  # atno 7974 bound_to 7965
  154.7430  140.0493  157.0827 H   0  0  0  0  0  0  0  0  0  0  0  0  # atno 8008 bound_to 7997
  155.0155  140.3141  155.4794 H   0  0  0  0  0  0  0  0  0  0  0  0  # atno 8009 bound_to 7997
  156.2868  140.2176  156.5271 H   0  0  0  0  0  0  0  0  0  0  0  0  # atno 8010 bound_to 7997
  140.5924  143.8770  150.6885 H   0  0  0  0  0  0  0  0  0  0  0  0  # atno 10167 bound_to 10162
  156.0336  130.4364  150.2537 H   0  0  0  0  0  0  0  0  0  0  0  0  # atno 10718 bound_to 10713
  154.6224  135.5449  153.7590 H   0  0  0  0  0  0  0  0  0  0  0  0  # atno 10763 bound_to 10752
  153.0245  135.6416  154.1421 H   0  0  0  0  0  0  0  0  0  0  0  0  # atno 10764 bound_to 10752
  154.1354  135.2911  155.3154 H   0  0  0  0  0  0  0  0  0  0  0  0  # atno 10765 bound_to 10752
  141.0184  134.0161  157.3317 H   0  0  0  0  0  0  0  0  0  0  0  0  # atno 11005 bound_to 11000
  146.3289  140.2965  142.8618 LP  0  0  0  0  0  0  0  0  0  0  0  0  # atno 17320 bound_to 7965
  144.9460  140.8128  143.5601 LP  0  0  0  0  0  0  0  0  0  0  0  0  # atno 17321 bound_to 7965
  140.2296  143.3746  152.1577 LP  0  0  0  0  0  0  0  0  0  0  0  0  # atno 17342 bound_to 10162
  139.5236  144.7073  151.5315 LP  0  0  0  0  0  0  0  0  0  0  0  0  # atno 17343 bound_to 10162
  157.0637  131.0097  151.3214 LP  0  0  0  0  0  0  0  0  0  0  0  0  # atno 17370 bound_to 10713
  157.5051  130.7904  149.7645 LP  0  0  0  0  0  0  0  0  0  0  0  0  # atno 17371 bound_to 10713
  139.9131  135.0193  156.7772 LP  0  0  0  0  0  0  0  0  0  0  0  0  # atno 17394 bound_to 11000
  140.6615  133.9641  155.7807 LP  0  0  0  0  0  0  0  0  0  0  0  0  # atno 17395 bound_to 11000

$$$$
