#       Name:                AV-unprocessed.smi:658
#       Creating user name   scv26
#       Creation time:       Fri Mar 27 00:17:26 2020


#       File generated by GOLD software.
#

@<TRIPOS>MOLECULE
AV-unprocessed.smi:658
    40    40     1
SMALL
NO_CHARGES


@<TRIPOS>ATOM
      1 ****        -1.5614  -1.6029   1.7095 C.3            1 S1                 0.0000
      2 ****        -1.0835  -0.7418   0.5260 C.3            1 S1                 0.0000
      3 ****         0.3960  -0.6854   0.5477 N.4            1 S1                 1.0000
      4 ****         0.9679   0.6765   0.5153 C.3            1 S1                 0.0000
      5 ****         2.4998   0.6283   0.4765 C.3            1 S1                 0.0000
      6 ****         3.1308   2.0262   0.4450 C.3            1 S1                 0.0000
      7 ****         4.9673   1.9095   0.3882 S.o2           1 S1                 0.0000
      8 ****         5.4517   3.5596   0.3817 N.3            1 S1                 0.0000
      9 ****         5.4356   1.3093   1.6464 O.2            1 S1                 0.0000
     10 ****         5.3564   1.3230  -0.9029 O.2            1 S1                 0.0000
     11 ****        -1.5901  -1.2602  -0.8467 C.3            1 S1                 0.0000
     12 ****        -1.2236  -0.3317  -2.0193 C.3            1 S1                 0.0000
     13 ****        -3.0288  -1.4952  -0.8366 N.pl3          1 S1                 0.0000
     14 ****        -4.0541  -0.5754  -0.7372 C.2            1 S1                 0.0000
     15 ****        -5.2294  -1.2696  -0.7585 C.2            1 S1                 0.0000
     16 ****        -4.8180  -2.6268  -0.8701 C.2            1 S1                 0.0000
     17 ****        -3.5020  -2.7583  -0.9139 N.2            1 S1                 0.0000
     18 ****        -2.6471  -1.5909   1.8094 H              1 S1                 0.0000
     19 ****        -1.1521  -1.2352   2.6511 H              1 S1                 0.0000
     20 ****        -1.2495  -2.6416   1.5951 H              1 S1                 0.0000
     21 ****        -1.4807   0.2623   0.6853 H              1 S1                 0.0000
     22 ****         0.7139  -1.1329   1.3955 H              1 S1                 0.0000
     23 ****         0.5920   1.2121  -0.3570 H              1 S1                 0.0000
     24 ****         0.6340   1.2239   1.3976 H              1 S1                 0.0000
     25 ****         2.8703   0.0843   1.3464 H              1 S1                 0.0000
     26 ****         2.8241   0.0669  -0.4006 H              1 S1                 0.0000
     27 ****         2.7992   2.5839  -0.4312 H              1 S1                 0.0000
     28 ****         2.8535   2.5981   1.3309 H              1 S1                 0.0000
     29 ****         5.2039   4.0533   1.2389 H              1 S1                 0.0000
     30 ****         5.1997   4.0480  -0.4772 H              1 S1                 0.0000
     31 ****        -1.1081  -2.2215  -1.0364 H              1 S1                 0.0000
     32 ****        -0.1440  -0.2596  -2.1503 H              1 S1                 0.0000
     33 ****        -1.6092   0.6770  -1.8681 H              1 S1                 0.0000
     34 ****        -1.6343  -0.7066  -2.9575 H              1 S1                 0.0000
     35 ****        -3.8651   0.4852  -0.6610 H              1 S1                 0.0000
     36 ****        -6.2308  -0.8692  -0.7019 H              1 S1                 0.0000
     37 ****        -5.4321  -3.5139  -0.9191 H              1 S1                 0.0000
     38 ****         0.7481  -1.2102  -0.2403 H              1 S1                 0.0000
     39 ****         6.4517   3.5550   0.3790 LP             1 S1                 0.0000
     40 ****        -2.9747  -3.6047  -0.9878 LP             1 S1                 0.0000
@<TRIPOS>BOND
    1    1    2 1     
    2    1   18 1     
    3    1   19 1     
    4    1   20 1     
    5    2    3 1     
    6    2   11 1     
    7    2   21 1     
    8    3    4 1     
    9    3   22 1     
   10    3   38 1     
   11    4    5 1     
   12    4   23 1     
   13    4   24 1     
   14    5    6 1     
   15    5   25 1     
   16    5   26 1     
   17    6    7 1     
   18    6   27 1     
   19    6   28 1     
   20    7    8 1     
   21    7    9 2     
   22    7   10 2     
   23    8   29 1     
   24    8   30 1     
   25   11   12 1     
   26   11   13 1     
   27   11   31 1     
   28   12   32 1     
   29   12   33 1     
   30   12   34 1     
   31   13   17 1     
   32   13   14 1     
   33   14   15 2     
   34   14   35 1     
   35   15   16 1     
   36   15   36 1     
   37   16   17 2     
   38   16   37 1     
   39    8   39 1     
   40   17   40 1     
@<TRIPOS>SUBSTRUCTURE
      1 S1             1
@<TRIPOS>SET
LONE_PAIRS      STATIC     ATOMS    <user>   **** ""
4 39 9 10 40
DONOR_HYDROGENS      STATIC     ATOMS    <user>   **** ""
4 22 38 29 30
ATOM$BLUE        STATIC     ATOMS    COLORGROUP SYSTEM
4 39 9 10 40
ATOM$RED        STATIC     ATOMS    COLORGROUP SYSTEM
4 22 38 29 30
