AV-unprocessed.smi:2499|AV-procd|sdf|9833|dock1
  -GOLD-   2272013463D 1   1.00000     0.00000
 Structure written by MMmdl.
 28 29  0  0  0  0  0  0  0  0  2 V2000
  153.7142  141.8694  160.1642 C   0  0  0  0  0  0  0  0  0  0  0  0
  152.3588  142.5192  159.8543 C   0  0  2  0  0  0  0  0  0  0  0  0
  152.1351  142.4697  158.4125 N   0  0  0  0  0  0  0  0  0  0  0  0
  151.0502  141.9549  157.8143 C   0  0  0  0  0  0  0  0  0  0  0  0
  150.1060  141.4516  158.4241 O   0  0  0  0  0  0  0  0  0  0  0  0
  151.1249  142.0585  156.4787 N   0  0  0  0  0  0  0  0  0  0  0  0
  150.1453  141.6108  155.5624 C   0  0  0  0  0  0  0  0  0  0  0  0
  149.0421  142.2920  155.2575 N   0  3  0  0  0  0  0  0  0  0  0  0
  148.3185  141.5708  154.3403 C   0  0  0  0  0  0  0  0  0  0  0  0
  149.0423  140.4255  154.1105 C   0  0  0  0  0  0  0  0  0  0  0  0
  150.1934  140.4359  154.8723 O   0  0  0  0  0  0  0  0  0  0  0  0
  152.2881  143.9238  160.4297 C   0  0  0  0  0  0  0  0  0  0  0  0
  151.0135  144.7306  160.3513 C   0  0  0  0  0  0  0  0  0  0  0  0
  152.2187  145.1401  159.5365 C   0  0  0  0  0  0  0  0  0  0  0  0
  153.8982  141.8392  161.2386 H   0  0  0  0  0  0  0  0  0  0  0  0
  154.5346  142.4206  159.7032 H   0  0  0  0  0  0  0  0  0  0  0  0
  153.7530  140.8431  159.7974 H   0  0  0  0  0  0  0  0  0  0  0  0
  151.5927  141.9150  160.3446 H   0  0  0  0  0  0  0  0  0  0  0  0
  152.8617  142.8620  157.8312 H   0  0  0  0  0  0  0  0  0  0  0  0
  148.7493  143.1918  155.6176 H   0  0  0  0  0  0  0  0  0  0  0  0
  147.3795  141.9364  153.9499 H   0  0  0  0  0  0  0  0  0  0  0  0
  148.8920  139.5609  153.4803 H   0  0  0  0  0  0  0  0  0  0  0  0
  152.8580  144.0442  161.3494 H   0  0  0  0  0  0  0  0  0  0  0  0
  150.1704  144.2985  159.8154 H   0  0  0  0  0  0  0  0  0  0  0  0
  150.7544  145.3470  161.2097 H   0  0  0  0  0  0  0  0  0  0  0  0
  152.7635  146.0268  159.8536 H   0  0  0  0  0  0  0  0  0  0  0  0
  152.1706  144.9825  158.4607 H   0  0  0  0  0  0  0  0  0  0  0  0
  151.9477  142.4910  156.0859 H   0  0  0  0  0  0  0  0  0  0  0  0
  1  2  1  0  0  0  0
  1 15  1  0  0  0  0
  1 16  1  0  0  0  0
  1 17  1  0  0  0  0
  2  3  1  0  0  0  0
  2 12  1  0  0  0  0
  2 18  1  0  0  0  0
  3 19  1  0  0  0  0
  3  4  1  0  0  0  0
  4  6  1  0  0  0  0
  4  5  2  0  0  0  0
  6  7  1  0  0  0  0
  6 28  1  0  0  0  0
  7 11  1  0  0  0  0
  7  8  2  0  0  0  0
  8 20  1  0  0  0  0
  8  9  1  0  0  0  0
  9 21  1  0  0  0  0
  9 10  2  0  0  0  0
 10 22  1  0  0  0  0
 10 11  1  0  0  0  0
 12 14  1  0  0  0  0
 12 13  1  0  0  0  0
 12 23  1  0  0  0  0
 13 14  1  0  0  0  0
 13 24  1  0  0  0  0
 13 25  1  0  0  0  0
 14 26  1  0  0  0  0
 14 27  1  0  0  0  0
M  CHG  1   8   1
M  END
> <s_m_source_file>
AV-unprocessed.smi

> <i_m_source_file_index>
2499

> <i_lp_mmshare_version>
43012

> <i_f3d_flags>
0

> <s_epik_input>
W0NIMl0xW0NIMl1bQ0hdMVtDQEhdKFtDSDNdKVtOSF1DKD1PKVtOSF1jMm5bY0hdW2NIXW8y

> <s_epik_cmdline>
J2VwaWtfcHl0aG9uJywgJy1waCcsICc3LjAnLCAnLXRuJywgJzgnLCAnLW1hJywgJzIwMCcsICctbWV0YWxfYmluZGluZycsICctaW1hZScsICc8aW5maWxlLm1hZT4nLCAnLW9tYWUnLCAnPG91dGZpbGUubWFlPic=

> <r_epik_Ionization_Penalty>
6.56099

> <r_epik_Ionization_Penalty_Charging>
6.51293

> <r_epik_Ionization_Penalty_Neutral>
0.0480564

> <r_epik_State_Penalty>
1.72359

> <r_epik_Charging_Adjusted_Penalty>
8.23652

> <i_epik_Tot_Q>
1

> <i_epik_Tot_abs_Q>
1

> <r_epik_Metal_State_Penalty>
1.73747

> <b_epik_Metal_Only>
0

> <s_lp_Force_Field>
OPLS_2005

> <r_lp_Energy>
20.6817

> <b_lp_Chiralities_Consistent>
1

> <s_lp_Variant>
AV-unprocessed.smi:2499-3

> <Gold.Version>
5.8.1

> <Gold.Id.Protein>
6NUR|6NUR_protein|mol2

> <Gold.PLP.Fitness>
40.9576

> <Gold.PLP.PLP>
-32.0752

> <Gold.PLP.part.hbond>
-1.7652

> <Gold.PLP.part.metal>
0.0000

> <Gold.PLP.part.buried>
-3.4591

> <Gold.PLP.part.nonpolar>
-26.5820

> <Gold.PLP.part.repulsive>
0.4706

> <Gold.PLP.ligand.clash>
0.0000

> <Gold.PLP.ligand.torsion>
1.5213

> <Gold.PLP.Chemscore.Hbond>
2.9920

> <Gold.PLP.Chemscore.CHOScore>
0.6245

> <Gold.PLP.Chemscore.Metal>
0.0000

> <Gold.Chemscore.Hbonds>
donor molecule, donor type, donor heavy atom, donor atom, acceptor molecule, acceptor atom, score
      L1  H     8    20       P1  8028  1.98
      P1  H  7989  7998       L1    11  0.98
      L1  C    10    22       P1  7957  0.62

> <Gold.PLP.Chemscore.Internal.Correction>
1.0756

> <Gold.Rescore>
     Score         DG    S(hbond)    S(metal)    S(lipo)     H(rot)  DE(clash)    DE(int)     intcor
     12.42     -14.07       1.00        0.00      73.33       1.30       0.20       1.44       ----

> <Gold.Chemscore.Fitness>
12.4208

> <Gold.Chemscore.DG>
-14.0654

> <Gold.Chemscore.ZeroCoef>
-5.4800

> <Gold.Chemscore.Hbond>
1.0008

> <Gold.Chemscore.Metal>
0.0000

> <Gold.Chemscore.Lipo>
73.3315

> <Gold.Chemscore.Internal_Hbond>
0.0000

> <Gold.Chemscore.DEClash>
0.1997

> <Gold.Chemscore.DEInternal>
1.4449

> <Gold.Chemscore.Rot>
1.3036

> <Gold.Chemscore.Internal.Correction>
   9.000000E+99

> <Gold.Chemscore.Hbonds>
donor molecule, donor type, donor heavy atom, donor atom, acceptor molecule, acceptor atom, score
      L1  H     8    20       P1  8028  0.88
      P1  H  7989  7998       L1    11  0.08

> <Gold.Chemscore.Hbond.Weighted>
-3.3427

> <Gold.Chemscore.Metal.Weighted>
-0.0000

> <Gold.Chemscore.Lipo.Weighted>
-8.5798

> <Gold.Chemscore.Internal_Hbond.Weighted>
0.0000

> <Gold.Chemscore.DEClash.Weighted>
0.1997

> <Gold.Chemscore.DEInternal.Weighted>
1.4449

> <Gold.Chemscore.Rot.Weighted>
3.3371

> <Gold.Chemscore.Internal.Correction.Weighted>
   9.000000E+99

> <Gold.Protein.RotatedTorsions>
[ 6907 6896 6895 6894 ] final  171.87 input  -60.11 | X-H torsion
[ 7974 7965 7964 7962 ] final  112.18 input  175.53 | X-H torsion
[ 8008 7997 7996 7995 ] final   93.75 input   59.86 | X-H torsion
[ 10167 10162 10161 10158 ] final -168.13 input  -65.29 | X-H torsion
[ 10718 10713 10712 10709 ] final  -11.54 input   66.30 | X-H torsion
[ 10763 10752 10751 10750 ] final  156.78 input  -60.55 | X-H torsion
[ 11005 11000 10999 10996 ] final  172.53 input  -57.11 | X-H torsion

> <Gold.Protein.ActiveResidues>
 VAL166  LYS551  ARG553  GLY616  TRP617  ASP618  TYR619  PRO620  LYS621  CYS622 
 ASP623  PHE694  ASN695  SER759  ASP760  ASP761  ALA762  ILE779  LEU786  VAL792 
 PHE793  MET794  SER795  GLU796  ALA797  LYS798  CYS799  TRP800  GLU811  SER814 

> <Gold.Protein.RotatedAtoms>
  151.7934  133.3362  159.3505 H   0  0  0  0  0  0  0  0  0  0  0  0  # atno 6907 bound_to 6896
  150.7384  134.5821  159.5953 H   0  0  0  0  0  0  0  0  0  0  0  0  # atno 6908 bound_to 6896
  152.3194  134.7400  160.0368 H   0  0  0  0  0  0  0  0  0  0  0  0  # atno 6909 bound_to 6896
  145.2328  139.2812  143.4159 H   0  0  0  0  0  0  0  0  0  0  0  0  # atno 7974 bound_to 7965
  156.0503  140.3309  155.7343 H   0  0  0  0  0  0  0  0  0  0  0  0  # atno 8008 bound_to 7997
  155.5611  140.0619  157.2846 H   0  0  0  0  0  0  0  0  0  0  0  0  # atno 8009 bound_to 7997
  154.4432  140.1877  156.0772 H   0  0  0  0  0  0  0  0  0  0  0  0  # atno 8010 bound_to 7997
  139.6005  144.1022  152.1737 H   0  0  0  0  0  0  0  0  0  0  0  0  # atno 10167 bound_to 10162
  156.6576  130.4972  149.6041 H   0  0  0  0  0  0  0  0  0  0  0  0  # atno 10718 bound_to 10713
  154.1898  135.2795  155.3025 H   0  0  0  0  0  0  0  0  0  0  0  0  # atno 10763 bound_to 10752
  154.5938  135.5551  153.7308 H   0  0  0  0  0  0  0  0  0  0  0  0  # atno 10764 bound_to 10752
  153.0115  135.6375  154.2037 H   0  0  0  0  0  0  0  0  0  0  0  0  # atno 10765 bound_to 10752
  140.3307  134.7360  157.4132 H   0  0  0  0  0  0  0  0  0  0  0  0  # atno 11005 bound_to 11000
  146.3349  140.2668  142.8604 LP  0  0  0  0  0  0  0  0  0  0  0  0  # atno 17320 bound_to 7965
  144.9661  140.8323  143.5484 LP  0  0  0  0  0  0  0  0  0  0  0  0  # atno 17321 bound_to 7965
  140.0617  144.5851  150.7258 LP  0  0  0  0  0  0  0  0  0  0  0  0  # atno 17342 bound_to 10162
  140.7245  143.2622  151.4166 LP  0  0  0  0  0  0  0  0  0  0  0  0  # atno 17343 bound_to 10162
  156.2036  130.6635  151.1194 LP  0  0  0  0  0  0  0  0  0  0  0  0  # atno 17370 bound_to 10713
  157.7120  131.0729  150.6465 LP  0  0  0  0  0  0  0  0  0  0  0  0  # atno 17371 bound_to 10713
  140.0863  134.5662  155.8489 LP  0  0  0  0  0  0  0  0  0  0  0  0  # atno 17394 bound_to 11000
  141.2064  133.6655  156.6240 LP  0  0  0  0  0  0  0  0  0  0  0  0  # atno 17395 bound_to 11000

$$$$
