#       Name:                AV-unprocessed.smi:246
#       Creating user name   scv26
#       Creation time:       Thu Mar 26 20:54:27 2020


#       File generated by GOLD software.
#

@<TRIPOS>MOLECULE
AV-unprocessed.smi:246
    68    71     1
SMALL
NO_CHARGES


@<TRIPOS>ATOM
      1 ****        -5.9389   2.6045  -4.3769 C.3            1 S1                 0.0000
      2 ****        -5.8127   2.0982  -2.9335 C.3            1 S1                 0.0000
      3 ****        -4.4565   1.9090  -2.5542 O.3            1 S1                 0.0000
      4 ****        -3.7635   3.1090  -2.2433 C.3            1 S1                 0.0000
      5 ****        -2.3417   2.7610  -1.7941 C.3            1 S1                 0.0000
      6 ****        -1.5744   2.3888  -2.9295 O.3            1 S1                 0.0000
      7 ****        -0.2221   2.0834  -2.6230 C.3            1 S1                 0.0000
      8 ****         0.5983   1.8882  -3.8965 C.3            1 S1                 0.0000
      9 ****         1.7699   1.0378  -3.4092 C.3            1 S1                 0.0000
     10 ****         1.2013   0.1824  -2.3759 N.pl3          1 S1                 0.0000
     11 ****         1.9842  -0.5694  -1.5602 C.ar           1 S1                 0.0000
     12 ****         3.3336  -0.5315  -1.7222 N.ar           1 S1                 0.0000
     13 ****         4.1326  -1.2519  -0.9301 C.ar           1 S1                 0.0000
     14 ****         3.7990  -2.0702   0.0690 N.ar           1 S1                 0.0000
     15 ****         2.4461  -2.1260   0.2305 C.ar           1 S1                 0.0000
     16 ****         1.4743  -1.4221  -0.5375 C.ar           1 S1                 0.0000
     17 ****         0.1983  -1.7564  -0.0969 N.2            1 S1                 0.0000
     18 ****         0.4043  -2.5974   0.8784 C.2            1 S1                 0.0000
     19 ****         1.7261  -2.8621   1.1554 N.pl3          1 S1                 0.0000
     20 ****         2.2361  -3.7454   2.1917 C.3            1 S1                 0.0000
     21 ****         2.6394  -3.0287   3.5015 C.3            1 S1                 0.0000
     22 ****         3.7095  -2.1301   3.2826 O.3            1 S1                 0.0000
     23 ****         1.4884  -2.3182   4.2508 C.3            1 S1                 0.0000
     24 ****         1.8556  -1.7054   5.6071 C.3            1 S1                 0.0000
     25 ****         0.8319  -0.5992   5.7326 C.3            1 S1                 0.0000
     26 ****         0.7428  -0.1050   4.2935 C.3            1 S1                 0.0000
     27 ****         0.8925  -1.2689   3.4895 O.3            1 S1                 0.0000
     28 ****        -0.0504   0.7466  -1.8869 C.3            1 S1                 0.0000
     29 ****         0.2324   2.8875  -2.0410 H              1 S1                 0.0000
     30 ****        -6.9853   2.6466  -4.6790 H              1 S1                 0.0000
     31 ****        -5.4195   1.9423  -5.0697 H              1 S1                 0.0000
     32 ****        -5.5262   3.6058  -4.4949 H              1 S1                 0.0000
     33 ****        -6.3238   2.7646  -2.2370 H              1 S1                 0.0000
     34 ****        -6.3106   1.1314  -2.8570 H              1 S1                 0.0000
     35 ****        -3.7318   3.7904  -3.0935 H              1 S1                 0.0000
     36 ****        -4.2815   3.6221  -1.4317 H              1 S1                 0.0000
     37 ****        -1.8880   3.6363  -1.3268 H              1 S1                 0.0000
     38 ****        -2.3633   1.9660  -1.0476 H              1 S1                 0.0000
     39 ****         0.0185   1.3292  -4.6325 H              1 S1                 0.0000
     40 ****         0.9121   2.8271  -4.3531 H              1 S1                 0.0000
     41 ****         2.2097   0.4527  -4.2173 H              1 S1                 0.0000
     42 ****         2.5453   1.6743  -2.9803 H              1 S1                 0.0000
     43 ****         5.1908  -1.1576  -1.1240 H              1 S1                 0.0000
     44 ****        -0.4078  -3.0387   1.4378 H              1 S1                 0.0000
     45 ****         1.4754  -4.4975   2.4037 H              1 S1                 0.0000
     46 ****         3.0914  -4.2868   1.7856 H              1 S1                 0.0000
     47 ****         3.0308  -3.7957   4.1707 H              1 S1                 0.0000
     48 ****         4.4029  -2.5908   2.8352 H              1 S1                 0.0000
     49 ****         0.6941  -3.0461   4.4227 H              1 S1                 0.0000
     50 ****         1.8089  -2.4255   6.4243 H              1 S1                 0.0000
     51 ****         2.8571  -1.2740   5.5935 H              1 S1                 0.0000
     52 ****        -0.1278  -1.0080   6.0516 H              1 S1                 0.0000
     53 ****         1.1255   0.1812   6.4349 H              1 S1                 0.0000
     54 ****        -0.1930   0.4120   4.0806 H              1 S1                 0.0000
     55 ****         1.5660   0.5761   4.0738 H              1 S1                 0.0000
     56 ****        -0.0481   0.8948  -0.8063 H              1 S1                 0.0000
     57 ****        -0.8596   0.0598  -2.1379 H              1 S1                 0.0000
     58 ****        -3.9800   1.4589  -3.3094 LP             1 S1                 0.0000
     59 ****        -4.4364   1.3179  -1.7478 LP             1 S1                 0.0000
     60 ****        -1.5878   3.1458  -3.5827 LP             1 S1                 0.0000
     61 ****        -1.9948   1.5823  -3.3452 LP             1 S1                 0.0000
     62 ****         3.7312   0.0401  -2.4399 LP             1 S1                 0.0000
     63 ****         4.4559  -2.5771   0.6273 LP             1 S1                 0.0000
     64 ****        -0.6780  -1.4268  -0.4481 LP             1 S1                 0.0000
     65 ****         4.0449  -1.7855   4.1594 LP             1 S1                 0.0000
     66 ****         3.3968  -1.3641   2.7210 LP             1 S1                 0.0000
     67 ****        -0.0061  -1.5647   3.1655 LP             1 S1                 0.0000
     68 ****         1.4761  -1.0565   2.7058 LP             1 S1                 0.0000
@<TRIPOS>BOND
    1    1    2 1     
    2    1   30 1     
    3    1   31 1     
    4    1   32 1     
    5    2    3 1     
    6    2   33 1     
    7    2   34 1     
    8    3    4 1     
    9    4    5 1     
   10    4   35 1     
   11    4   36 1     
   12    5    6 1     
   13    5   37 1     
   14    5   38 1     
   15    6    7 1     
   16    7   29 1     
   17    7   28 1     
   18    7    8 1     
   19    8    9 1     
   20    8   39 1     
   21    8   40 1     
   22    9   10 1     
   23    9   41 1     
   24    9   42 1     
   25   10   11 1     
   26   10   28 1     
   27   11   16 ar    
   28   11   12 ar    
   29   12   13 ar    
   30   13   14 ar    
   31   13   43 1     
   32   14   15 ar    
   33   15   19 1     
   34   15   16 ar    
   35   16   17 1     
   36   17   18 2     
   37   18   19 1     
   38   18   44 1     
   39   19   20 1     
   40   20   21 1     
   41   20   45 1     
   42   20   46 1     
   43   21   22 1     
   44   21   23 1     
   45   21   47 1     
   46   22   48 1     
   47   23   27 1     
   48   23   24 1     
   49   23   49 1     
   50   24   25 1     
   51   24   50 1     
   52   24   51 1     
   53   25   26 1     
   54   25   52 1     
   55   25   53 1     
   56   26   27 1     
   57   26   54 1     
   58   26   55 1     
   59   28   56 1     
   60   28   57 1     
   61    3   58 1     
   62    3   59 1     
   63    6   60 1     
   64    6   61 1     
   65   12   62 1     
   66   14   63 1     
   67   17   64 1     
   68   22   65 1     
   69   22   66 1     
   70   27   67 1     
   71   27   68 1     
@<TRIPOS>SUBSTRUCTURE
      1 S1             1
@<TRIPOS>SET
LONE_PAIRS      STATIC     ATOMS    <user>   **** ""
11 58 59 60 61 62 63 64 65 66 67 68
DONOR_HYDROGENS      STATIC     ATOMS    <user>   **** ""
1 48
ATOM$BLUE        STATIC     ATOMS    COLORGROUP SYSTEM
11 58 59 60 61 62 63 64 65 66 67 68
ATOM$RED        STATIC     ATOMS    COLORGROUP SYSTEM
1 48
