AV-unprocessed.smi:1744|AV-procd|sdf|7027|dock3
  -GOLD-   22720 8243D 1   1.00000     0.00000
 Structure written by MMmdl.
 43 44  0  0  0  0  0  0  0  0  3 V2000
  152.9543  142.5268  161.2292 C   0  0  0  0  0  0  0  0  0  0  0  0
  153.3076  142.0317  159.8214 C   0  0  0  0  0  0  0  0  0  0  0  0
  152.3370  142.4693  158.8368 N   0  0  0  0  0  0  0  0  0  0  0  0
  151.5385  141.6921  158.0217 C   0  0  0  0  0  0  0  0  0  0  0  0
  150.7998  142.5659  157.2824 C   0  0  0  0  0  0  0  0  0  0  0  0
  149.8419  142.1922  156.3073 N   0  0  0  0  0  0  0  0  0  0  0  0
  149.5044  140.9469  155.9357 C   0  0  0  0  0  0  0  0  0  0  0  0
  149.9980  139.9141  156.3882 O   0  0  0  0  0  0  0  0  0  0  0  0
  148.5558  140.9621  154.9884 N   0  0  0  0  0  0  0  0  0  0  0  0
  147.9818  139.7792  154.3536 C   0  0  2  0  0  0  0  0  0  0  0  0
  147.5606  140.0890  152.9055 C   0  0  0  0  0  0  0  0  0  0  0  0
  146.8489  138.8878  152.2619 C   0  0  0  0  0  0  0  0  0  0  0  0
  145.6780  138.4634  153.0695 N   0  3  1  0  0  0  0  0  0  0  0  0
  144.8805  137.4056  152.3982 C   0  0  0  0  0  0  0  0  0  0  0  0
  143.5999  137.1093  153.1861 C   0  0  0  0  0  0  0  0  0  0  0  0
  142.7814  138.1784  153.2595 N   0  5  0  0  0  0  0  0  0  0  0  0
  143.4268  135.9911  153.6652 O   0  0  0  0  0  0  0  0  0  0  0  0
  146.0708  138.1130  154.4608 C   0  0  0  0  0  0  0  0  0  0  0  0
  146.7608  139.2989  155.1546 C   0  0  0  0  0  0  0  0  0  0  0  0
  151.2064  143.8660  157.6962 C   0  0  0  0  0  0  0  0  0  0  0  0
  152.1371  143.7955  158.6361 N   0  0  0  0  0  0  0  0  0  0  0  0
  153.6780  142.1659  161.9603 H   0  0  0  0  0  0  0  0  0  0  0  0
  151.9685  142.1746  161.5339 H   0  0  0  0  0  0  0  0  0  0  0  0
  152.9509  143.6162  161.2760 H   0  0  0  0  0  0  0  0  0  0  0  0
  154.2940  142.3931  159.5274 H   0  0  0  0  0  0  0  0  0  0  0  0
  153.3517  140.9423  159.8071 H   0  0  0  0  0  0  0  0  0  0  0  0
  151.5635  140.6126  158.0422 H   0  0  0  0  0  0  0  0  0  0  0  0
  149.3726  142.9523  155.8372 H   0  0  0  0  0  0  0  0  0  0  0  0
  148.2107  141.8585  154.6773 H   0  0  0  0  0  0  0  0  0  0  0  0
  148.7232  138.9776  154.3460 H   0  0  0  0  0  0  0  0  0  0  0  0
  146.8945  140.9530  152.8897 H   0  0  0  0  0  0  0  0  0  0  0  0
  148.4321  140.3606  152.3084 H   0  0  0  0  0  0  0  0  0  0  0  0
  146.5236  139.1626  151.2580 H   0  0  0  0  0  0  0  0  0  0  0  0
  147.5411  138.0512  152.1547 H   0  0  0  0  0  0  0  0  0  0  0  0
  144.5925  137.7241  151.3947 H   0  0  0  0  0  0  0  0  0  0  0  0
  145.4765  136.4996  152.2775 H   0  0  0  0  0  0  0  0  0  0  0  0
  143.1113  139.0851  152.9083 H   0  0  0  0  0  0  0  0  0  0  0  0
  145.1936  137.8250  155.0408 H   0  0  0  0  0  0  0  0  0  0  0  0
  146.7355  137.2480  154.4458 H   0  0  0  0  0  0  0  0  0  0  0  0
  147.0639  139.0105  156.1619 H   0  0  0  0  0  0  0  0  0  0  0  0
  146.0449  140.1146  155.2686 H   0  0  0  0  0  0  0  0  0  0  0  0
  150.8753  144.8376  157.3607 H   0  0  0  0  0  0  0  0  0  0  0  0
  145.0638  139.2637  153.1286 H   0  0  0  0  0  0  0  0  0  0  0  0
  1  2  1  0  0  0  0
  1 22  1  0  0  0  0
  1 23  1  0  0  0  0
  1 24  1  0  0  0  0
  2  3  1  0  0  0  0
  2 25  1  0  0  0  0
  2 26  1  0  0  0  0
  3 21  1  0  0  0  0
  3  4  1  0  0  0  0
  4  5  2  0  0  0  0
  4 27  1  0  0  0  0
  5  6  1  0  0  0  0
  5 20  1  0  0  0  0
  6  7  1  0  0  0  0
  6 28  1  0  0  0  0
  7  8  2  0  0  0  0
  7  9  1  0  0  0  0
  9 10  1  0  0  0  0
  9 29  1  0  0  0  0
 10 19  1  0  0  0  0
 10 11  1  0  0  0  0
 10 30  1  0  0  0  0
 11 12  1  0  0  0  0
 11 31  1  0  0  0  0
 11 32  1  0  0  0  0
 12 13  1  0  0  0  0
 12 33  1  0  0  0  0
 12 34  1  0  0  0  0
 13 14  1  0  0  0  0
 13 18  1  0  0  0  0
 13 43  1  0  0  0  0
 14 15  1  0  0  0  0
 14 35  1  0  0  0  0
 14 36  1  0  0  0  0
 15 16  1  0  0  0  0
 15 17  2  0  0  0  0
 16 37  1  0  0  0  0
 18 19  1  0  0  0  0
 18 38  1  0  0  0  0
 18 39  1  0  0  0  0
 19 40  1  0  0  0  0
 19 41  1  0  0  0  0
 20 21  2  0  0  0  0
 20 42  1  0  0  0  0
M  CHG  1  13   1
M  CHG  1  16  -1
M  END
> <s_m_source_file>
AV-unprocessed.smi

> <i_m_source_file_index>
1744

> <i_lp_mmshare_version>
43012

> <i_f3d_flags>
0

> <s_epik_input>
W0NIM11bQ0gyXW4xW2NIXWMoW2NIXW4xKVtOSF1DKD1PKVtOSF1bQ0hdMltDSDJdW0NIMl1OKFtDSDJdW0NIMl0yKVtDSDJdQyg9TylbTkgyXQ==

> <s_epik_cmdline>
J2VwaWtfcHl0aG9uJywgJy1waCcsICc3LjAnLCAnLXRuJywgJzgnLCAnLW1hJywgJzIwMCcsICctbWV0YWxfYmluZGluZycsICctaW1hZScsICc8aW5maWxlLm1hZT4nLCAnLW9tYWUnLCAnPG91dGZpbGUubWFlPic=

> <r_lp_tautomer_probability>
1

> <r_epik_Ionization_Penalty>
5.72895

> <r_epik_Ionization_Penalty_Charging>
5.7288

> <r_epik_Ionization_Penalty_Neutral>
0.000148676

> <r_epik_State_Penalty>
6.54882

> <r_epik_Charging_Adjusted_Penalty>
12.2776

> <i_epik_Tot_Q>
0

> <i_epik_Tot_abs_Q>
2

> <r_epik_Metal_State_Penalty>
2.51309

> <b_epik_Metal_Only>
1

> <s_lp_Force_Field>
OPLS_2005

> <r_lp_Energy>
12.1226

> <b_lp_Chiralities_Consistent>
1

> <s_lp_Variant>
AV-unprocessed.smi:1744-4

> <Gold.Version>
5.8.1

> <Gold.Id.Protein>
6NUR|6NUR_protein|mol2

> <Gold.PLP.Fitness>
45.8454

> <Gold.PLP.PLP>
-32.7119

> <Gold.PLP.part.hbond>
-3.0000

> <Gold.PLP.part.metal>
0.0000

> <Gold.PLP.part.buried>
-1.5174

> <Gold.PLP.part.nonpolar>
-29.4501

> <Gold.PLP.part.repulsive>
0.2470

> <Gold.PLP.ligand.clash>
0.0000

> <Gold.PLP.ligand.torsion>
0.3925

> <Gold.PLP.Chemscore.Hbond>
4.0000

> <Gold.PLP.Chemscore.CHOScore>
0.6258

> <Gold.PLP.Chemscore.Metal>
0.0000

> <Gold.Chemscore.Hbonds>
donor molecule, donor type, donor heavy atom, donor atom, acceptor molecule, acceptor atom, score
      L1  H     6    28       P1  8028  1.00
      L1  H    13    43       P1 10175  2.00
      L1  H    16    37       P1 10175  0.94
      L1  C    20    42       P1  8028  0.61

> <Gold.PLP.Chemscore.Internal.Correction>
0.0412

> <Gold.Rescore>
     Score         DG    S(hbond)    S(metal)    S(lipo)     H(rot)  DE(clash)    DE(int)     intcor
     15.99     -18.40       2.84        0.00      77.02       2.18       0.71       1.69       ----

> <Gold.Chemscore.Fitness>
15.9946

> <Gold.Chemscore.DG>
-18.3979

> <Gold.Chemscore.ZeroCoef>
-5.4800

> <Gold.Chemscore.Hbond>
2.8429

> <Gold.Chemscore.Metal>
0.0000

> <Gold.Chemscore.Lipo>
77.0244

> <Gold.Chemscore.Internal_Hbond>
0.0000

> <Gold.Chemscore.DEClash>
0.7097

> <Gold.Chemscore.DEInternal>
1.6936

> <Gold.Chemscore.Rot>
2.1833

> <Gold.Chemscore.Internal.Correction>
   9.000000E+99

> <Gold.Chemscore.Hbonds>
donor molecule, donor type, donor heavy atom, donor atom, acceptor molecule, acceptor atom, score
      L1  H     6    28       P1  8028  0.97
      L1  H    13    43       P1 10175  0.97
      L1  H    16    37       P1 10175  0.90

> <Gold.Chemscore.Hbond.Weighted>
-9.4953

> <Gold.Chemscore.Metal.Weighted>
-0.0000

> <Gold.Chemscore.Lipo.Weighted>
-9.0119

> <Gold.Chemscore.Internal_Hbond.Weighted>
0.0000

> <Gold.Chemscore.DEClash.Weighted>
0.7097

> <Gold.Chemscore.DEInternal.Weighted>
1.6936

> <Gold.Chemscore.Rot.Weighted>
5.5892

> <Gold.Chemscore.Internal.Correction.Weighted>
   9.000000E+99

> <Gold.Protein.RotatedTorsions>
[ 6907 6896 6895 6894 ] final -175.99 input  -60.11 | X-H torsion
[ 7974 7965 7964 7962 ] final  144.81 input  175.53 | X-H torsion
[ 8008 7997 7996 7995 ] final -143.54 input   59.86 | X-H torsion
[ 10167 10162 10161 10158 ] final  102.89 input  -65.29 | X-H torsion
[ 10718 10713 10712 10709 ] final   72.52 input   66.30 | X-H torsion
[ 10763 10752 10751 10750 ] final  129.48 input  -60.55 | X-H torsion
[ 11005 11000 10999 10996 ] final  -52.30 input  -57.11 | X-H torsion

> <Gold.Protein.ActiveResidues>
 VAL166  LYS551  ARG553  GLY616  TRP617  ASP618  TYR619  PRO620  LYS621  CYS622 
 ASP623  PHE694  ASN695  SER759  ASP760  ASP761  ALA762  ILE779  LEU786  VAL792 
 PHE793  MET794  SER795  GLU796  ALA797  LYS798  CYS799  TRP800  GLU811  SER814 

> <Gold.Protein.RotatedAtoms>
  151.5975  133.3360  159.3040 H   0  0  0  0  0  0  0  0  0  0  0  0  # atno 6907 bound_to 6896
  150.8226  134.7445  159.6797 H   0  0  0  0  0  0  0  0  0  0  0  0  # atno 6908 bound_to 6896
  152.4318  134.5768  159.9988 H   0  0  0  0  0  0  0  0  0  0  0  0  # atno 6909 bound_to 6896
  144.8804  139.5708  143.5845 H   0  0  0  0  0  0  0  0  0  0  0  0  # atno 7974 bound_to 7965
  155.5123  140.0584  157.2921 H   0  0  0  0  0  0  0  0  0  0  0  0  # atno 8008 bound_to 7997
  154.4547  140.1967  156.0362 H   0  0  0  0  0  0  0  0  0  0  0  0  # atno 8009 bound_to 7997
  156.0775  140.3251  155.7657 H   0  0  0  0  0  0  0  0  0  0  0  0  # atno 8010 bound_to 7997
  139.7311  144.7036  151.0721 H   0  0  0  0  0  0  0  0  0  0  0  0  # atno 10167 bound_to 10162
  157.6504  130.9582  150.0940 H   0  0  0  0  0  0  0  0  0  0  0  0  # atno 10718 bound_to 10713
  153.7424  135.3222  155.3306 H   0  0  0  0  0  0  0  0  0  0  0  0  # atno 10763 bound_to 10752
  154.8290  135.4548  154.1013 H   0  0  0  0  0  0  0  0  0  0  0  0  # atno 10764 bound_to 10752
  153.2192  135.6946  153.8102 H   0  0  0  0  0  0  0  0  0  0  0  0  # atno 10765 bound_to 10752
  141.0917  133.6631  156.4004 H   0  0  0  0  0  0  0  0  0  0  0  0  # atno 11005 bound_to 11000
  146.2991  139.7369  142.9105 LP  0  0  0  0  0  0  0  0  0  0  0  0  # atno 17320 bound_to 7965
  145.3964  141.0379  143.3095 LP  0  0  0  0  0  0  0  0  0  0  0  0  # atno 17321 bound_to 7965
  140.7771  143.5043  150.9732 LP  0  0  0  0  0  0  0  0  0  0  0  0  # atno 17342 bound_to 10162
  139.8731  143.7167  152.3164 LP  0  0  0  0  0  0  0  0  0  0  0  0  # atno 17343 bound_to 10162
  156.1881  130.3653  149.8946 LP  0  0  0  0  0  0  0  0  0  0  0  0  # atno 17370 bound_to 10713
  156.6881  130.8885  151.3585 LP  0  0  0  0  0  0  0  0  0  0  0  0  # atno 17371 bound_to 10713
  140.5236  134.6280  157.5326 LP  0  0  0  0  0  0  0  0  0  0  0  0  # atno 17394 bound_to 11000
  139.9744  134.7239  155.9978 LP  0  0  0  0  0  0  0  0  0  0  0  0  # atno 17395 bound_to 11000

$$$$
