AV-unprocessed.smi:234|AV-procd|sdf|1788|dock7
  -GOLD-   2262020343D 1   1.00000     0.00000
 Structure written by MMmdl.
 59 62  0  0  0  0  0  0  0  0  1 V2000
  152.5814  144.1900  159.6692 C   0  0  0  0  0  0  0  0  0  0  0  0
  153.2865  142.8555  159.9460 C   0  0  0  0  0  0  0  0  0  0  0  0
  152.4035  141.7575  159.7640 O   0  0  0  0  0  0  0  0  0  0  0  0
  152.2499  141.3441  158.4095 C   0  0  1  0  0  0  0  0  0  0  0  0
  151.9187  139.8528  158.3014 C   0  0  0  0  0  0  0  0  0  0  0  0
  150.4443  140.2651  158.4184 C   0  0  2  0  0  0  0  0  0  0  0  0
  149.5341  139.4859  157.5715 N   0  0  0  0  0  0  0  0  0  0  0  0
  148.1684  139.9745  157.4160 C   0  0  0  0  0  0  0  0  0  0  0  0
  149.5651  138.1349  157.6895 C   0  0  0  0  0  0  0  0  0  0  0  0
  149.2323  137.5426  158.8676 N   0  0  0  0  0  0  0  0  0  0  0  0
  149.2446  136.2111  158.9780 C   0  0  0  0  0  0  0  0  0  0  0  0
  149.5500  135.2997  158.0523 N   0  0  0  0  0  0  0  0  0  0  0  0
  149.8830  135.8886  156.8682 C   0  0  0  0  0  0  0  0  0  0  0  0
  149.9109  137.2864  156.6019 C   0  0  0  0  0  0  0  0  0  0  0  0
  150.2940  137.5116  155.2854 N   0  0  0  0  0  0  0  0  0  0  0  0
  150.4786  136.3145  154.7995 C   0  0  0  0  0  0  0  0  0  0  0  0
  150.2642  135.2812  155.6841 N   0  0  0  0  0  0  0  0  0  0  0  0
  150.4018  133.8589  155.4084 C   0  0  0  0  0  0  0  0  0  0  0  0
  149.1104  133.2105  154.8434 C   0  0  1  0  0  0  0  0  0  0  0  0
  148.0736  133.4029  155.7916 O   0  0  0  0  0  0  0  0  0  0  0  0
  148.6488  133.8152  153.5202 C   0  0  0  0  0  0  0  0  0  0  0  0
  147.9156  132.6614  152.8540 C   0  0  0  0  0  0  0  0  0  0  0  0
  148.7364  131.5539  153.1788 O   0  0  0  0  0  0  0  0  0  0  0  0
  149.1826  131.6897  154.5259 C   0  0  1  0  0  0  0  0  0  0  0  0
  150.5650  131.0260  154.6255 C   0  0  0  0  0  0  0  0  0  0  0  0
  150.8389  141.6575  157.8495 C   0  0  0  0  0  0  0  0  0  0  0  0
  150.1391  142.8765  158.4581 C   0  0  0  0  0  0  0  0  0  0  0  0
  150.7999  141.8410  156.3230 C   0  0  0  0  0  0  0  0  0  0  0  0
  153.2417  145.0285  159.8909 H   0  0  0  0  0  0  0  0  0  0  0  0
  151.6906  144.2958  160.2885 H   0  0  0  0  0  0  0  0  0  0  0  0
  152.2774  144.2806  158.6267 H   0  0  0  0  0  0  0  0  0  0  0  0
  154.1825  142.7503  159.3328 H   0  0  0  0  0  0  0  0  0  0  0  0
  153.6180  142.8414  160.9843 H   0  0  0  0  0  0  0  0  0  0  0  0
  153.0559  141.6730  157.7528 H   0  0  0  0  0  0  0  0  0  0  0  0
  152.1838  139.4282  157.3316 H   0  0  0  0  0  0  0  0  0  0  0  0
  152.2824  139.2341  159.1220 H   0  0  0  0  0  0  0  0  0  0  0  0
  150.1262  140.3262  159.4611 H   0  0  0  0  0  0  0  0  0  0  0  0
  147.4817  139.4477  158.0804 H   0  0  0  0  0  0  0  0  0  0  0  0
  147.8287  139.8346  156.3898 H   0  0  0  0  0  0  0  0  0  0  0  0
  148.0962  141.0361  157.6454 H   0  0  0  0  0  0  0  0  0  0  0  0
  148.9692  135.8201  159.9465 H   0  0  0  0  0  0  0  0  0  0  0  0
  150.7851  136.1507  153.7763 H   0  0  0  0  0  0  0  0  0  0  0  0
  151.2308  133.7345  154.7113 H   0  0  0  0  0  0  0  0  0  0  0  0
  150.7000  133.3646  156.3339 H   0  0  0  0  0  0  0  0  0  0  0  0
  148.2933  134.1500  156.3267 H   0  0  0  0  0  0  0  0  0  0  0  0
  148.0351  134.7101  153.6314 H   0  0  0  0  0  0  0  0  0  0  0  0
  149.5108  134.0771  152.9058 H   0  0  0  0  0  0  0  0  0  0  0  0
  146.9211  132.5250  153.2813 H   0  0  0  0  0  0  0  0  0  0  0  0
  147.8177  132.7880  151.7758 H   0  0  0  0  0  0  0  0  0  0  0  0
  148.4892  131.1351  155.1613 H   0  0  0  0  0  0  0  0  0  0  0  0
  150.9607  131.0791  155.6396 H   0  0  0  0  0  0  0  0  0  0  0  0
  151.2833  131.4938  153.9518 H   0  0  0  0  0  0  0  0  0  0  0  0
  150.5038  129.9717  154.3553 H   0  0  0  0  0  0  0  0  0  0  0  0
  149.1513  143.0384  158.0275 H   0  0  0  0  0  0  0  0  0  0  0  0
  150.7180  143.7864  158.2969 H   0  0  0  0  0  0  0  0  0  0  0  0
  150.0021  142.7671  159.5342 H   0  0  0  0  0  0  0  0  0  0  0  0
  149.7795  141.9407  155.9521 H   0  0  0  0  0  0  0  0  0  0  0  0
  151.2499  140.9990  155.7964 H   0  0  0  0  0  0  0  0  0  0  0  0
  151.3439  142.7357  156.0183 H   0  0  0  0  0  0  0  0  0  0  0  0
  1  2  1  0  0  0  0
  1 29  1  0  0  0  0
  1 30  1  0  0  0  0
  1 31  1  0  0  0  0
  2  3  1  0  0  0  0
  2 32  1  0  0  0  0
  2 33  1  0  0  0  0
  3  4  1  0  0  0  0
  4 26  1  0  0  0  0
  4  5  1  0  0  0  0
  4 34  1  0  0  0  0
  5  6  1  0  0  0  0
  5 35  1  0  0  0  0
  5 36  1  0  0  0  0
  6  7  1  0  0  0  0
  6 26  1  0  0  0  0
  6 37  1  0  0  0  0
  7  8  1  0  0  0  0
  7  9  1  0  0  0  0
  8 38  1  0  0  0  0
  8 39  1  0  0  0  0
  8 40  1  0  0  0  0
  9 14  1  0  0  0  0
  9 10  2  0  0  0  0
 10 11  1  0  0  0  0
 11 12  2  0  0  0  0
 11 41  1  0  0  0  0
 12 13  1  0  0  0  0
 13 17  1  0  0  0  0
 13 14  2  0  0  0  0
 14 15  1  0  0  0  0
 15 16  2  0  0  0  0
 16 17  1  0  0  0  0
 16 42  1  0  0  0  0
 17 18  1  0  0  0  0
 18 19  1  0  0  0  0
 18 43  1  0  0  0  0
 18 44  1  0  0  0  0
 19 24  1  0  0  0  0
 19 20  1  0  0  0  0
 19 21  1  0  0  0  0
 20 45  1  0  0  0  0
 21 22  1  0  0  0  0
 21 46  1  0  0  0  0
 21 47  1  0  0  0  0
 22 23  1  0  0  0  0
 22 48  1  0  0  0  0
 22 49  1  0  0  0  0
 23 24  1  0  0  0  0
 24 25  1  0  0  0  0
 24 50  1  0  0  0  0
 25 51  1  0  0  0  0
 25 52  1  0  0  0  0
 25 53  1  0  0  0  0
 26 27  1  0  0  0  0
 26 28  1  0  0  0  0
 27 54  1  0  0  0  0
 27 55  1  0  0  0  0
 27 56  1  0  0  0  0
 28 57  1  0  0  0  0
 28 58  1  0  0  0  0
 28 59  1  0  0  0  0
M  END
> <s_m_source_file>
AV-unprocessed.smi

> <i_m_source_file_index>
234

> <i_lp_mmshare_version>
43012

> <i_f3d_flags>
0

> <s_epik_input>
W0NIM11bQ0gyXU9bQ0BASF0oQzEoW0NIM10pW0NIM10pW0NIMl1bQ0BIXTFOKFtDSDNdKWMobltjSF1uMiljKGMyMyluW2NIXW4zW0NIMl1bQ0BAXTQoW09IXSlbQ0gyXVtDSDJdT1tDQEhdNFtDSDNd

> <s_epik_cmdline>
J2VwaWtfcHl0aG9uJywgJy1waCcsICc3LjAnLCAnLXRuJywgJzgnLCAnLW1hJywgJzIwMCcsICctbWV0YWxfYmluZGluZycsICctaW1hZScsICc8aW5maWxlLm1hZT4nLCAnLW9tYWUnLCAnPG91dGZpbGUubWFlPic=

> <r_lp_tautomer_probability>
1

> <r_epik_Ionization_Penalty>
0.00349132

> <r_epik_Ionization_Penalty_Charging>
0

> <r_epik_Ionization_Penalty_Neutral>
0.00349132

> <r_epik_State_Penalty>
0.00242418

> <r_epik_Charging_Adjusted_Penalty>
0.00242418

> <i_epik_Tot_Q>
0

> <i_epik_Tot_abs_Q>
0

> <r_epik_Metal_State_Penalty>
-0

> <b_epik_Metal_Only>
0

> <s_lp_Force_Field>
OPLS_2005

> <r_lp_Energy>
49.5598

> <b_lp_Chiralities_Consistent>
1

> <s_lp_Variant>
AV-unprocessed.smi:234-4

> <Gold.Version>
5.8.1

> <Gold.Id.Protein>
6NUR|6NUR_protein|mol2

> <Gold.PLP.Fitness>
45.7841

> <Gold.PLP.PLP>
-41.7671

> <Gold.PLP.part.hbond>
-1.0000

> <Gold.PLP.part.metal>
0.0000

> <Gold.PLP.part.buried>
-6.1205

> <Gold.PLP.part.nonpolar>
-34.4043

> <Gold.PLP.part.repulsive>
0.1793

> <Gold.PLP.ligand.clash>
0.0000

> <Gold.PLP.ligand.torsion>
1.4713

> <Gold.PLP.Chemscore.Hbond>
1.0000

> <Gold.PLP.Chemscore.CHOScore>
0.9993

> <Gold.PLP.Chemscore.Metal>
0.0000

> <Gold.Chemscore.Hbonds>
donor molecule, donor type, donor heavy atom, donor atom, acceptor molecule, acceptor atom, score
      P1  H  6896  6908       L1    12  0.45
      L1  C    16    42       P1  7948  0.06
      L1  C    16    42       P1  7949  0.70

> <Gold.PLP.Chemscore.Internal.Correction>
0.9617

> <Gold.Rescore>
     Score         DG    S(hbond)    S(metal)    S(lipo)     H(rot)  DE(clash)    DE(int)     intcor
     11.05     -12.62       0.84        0.00      94.52       2.62       0.12       1.45       ----

> <Gold.Chemscore.Fitness>
11.0480

> <Gold.Chemscore.DG>
-12.6232

> <Gold.Chemscore.ZeroCoef>
-5.4800

> <Gold.Chemscore.Hbond>
0.8372

> <Gold.Chemscore.Metal>
0.0000

> <Gold.Chemscore.Lipo>
94.5222

> <Gold.Chemscore.Internal_Hbond>
0.0000

> <Gold.Chemscore.DEClash>
0.1208

> <Gold.Chemscore.DEInternal>
1.4544

> <Gold.Chemscore.Rot>
2.6219

> <Gold.Chemscore.Internal.Correction>
   9.000000E+99

> <Gold.Chemscore.Hbonds>
donor molecule, donor type, donor heavy atom, donor atom, acceptor molecule, acceptor atom, score
      P1  H  6896  6908       L1    12  0.01

> <Gold.Chemscore.Hbond.Weighted>
-2.7962

> <Gold.Chemscore.Metal.Weighted>
-0.0000

> <Gold.Chemscore.Lipo.Weighted>
-11.0591

> <Gold.Chemscore.Internal_Hbond.Weighted>
0.0000

> <Gold.Chemscore.DEClash.Weighted>
0.1208

> <Gold.Chemscore.DEInternal.Weighted>
1.4544

> <Gold.Chemscore.Rot.Weighted>
6.7121

> <Gold.Chemscore.Internal.Correction.Weighted>
   9.000000E+99

> <Gold.Protein.RotatedTorsions>
[ 6907 6896 6895 6894 ] final  153.69 input  -60.11 | X-H torsion
[ 7974 7965 7964 7962 ] final -169.09 input  175.53 | X-H torsion
[ 8008 7997 7996 7995 ] final  -72.14 input   59.86 | X-H torsion
[ 10167 10162 10161 10158 ] final  138.50 input  -65.29 | X-H torsion
[ 10718 10713 10712 10709 ] final   61.03 input   66.30 | X-H torsion
[ 10763 10752 10751 10750 ] final   81.29 input  -60.55 | X-H torsion
[ 11005 11000 10999 10996 ] final  146.43 input  -57.11 | X-H torsion

> <Gold.Protein.ActiveResidues>
 VAL166  LYS551  ARG553  GLY616  TRP617  ASP618  TYR619  PRO620  LYS621  CYS622 
 ASP623  PHE694  ASN695  SER759  ASP760  ASP761  ALA762  ILE779  LEU786  VAL792 
 PHE793  MET794  SER795  GLU796  ALA797  LYS798  CYS799  TRP800  GLU811  SER814 

> <Gold.Protein.RotatedAtoms>
  152.0691  133.4098  159.4451 H   0  0  0  0  0  0  0  0  0  0  0  0  # atno 6907 bound_to 6896
  150.6864  134.3112  159.4756 H   0  0  0  0  0  0  0  0  0  0  0  0  # atno 6908 bound_to 6896
  152.0942  134.9386  160.0622 H   0  0  0  0  0  0  0  0  0  0  0  0  # atno 6909 bound_to 6896
  144.7191  140.2273  143.6308 H   0  0  0  0  0  0  0  0  0  0  0  0  # atno 7974 bound_to 7965
  154.5142  140.0802  156.8050 H   0  0  0  0  0  0  0  0  0  0  0  0  # atno 8008 bound_to 7997
  155.3716  140.3423  155.4225 H   0  0  0  0  0  0  0  0  0  0  0  0  # atno 8009 bound_to 7997
  156.1609  140.1588  156.8601 H   0  0  0  0  0  0  0  0  0  0  0  0  # atno 8010 bound_to 7997
  139.5108  144.6349  151.5722 H   0  0  0  0  0  0  0  0  0  0  0  0  # atno 10167 bound_to 10162
  157.5797  130.8972  149.9409 H   0  0  0  0  0  0  0  0  0  0  0  0  # atno 10718 bound_to 10713
  153.1104  135.4771  154.9026 H   0  0  0  0  0  0  0  0  0  0  0  0  # atno 10763 bound_to 10752
  154.7475  135.3097  154.8621 H   0  0  0  0  0  0  0  0  0  0  0  0  # atno 10764 bound_to 10752
  153.9211  135.6855  153.4801 H   0  0  0  0  0  0  0  0  0  0  0  0  # atno 10765 bound_to 10752
  140.0793  134.9106  157.1474 H   0  0  0  0  0  0  0  0  0  0  0  0  # atno 11005 bound_to 11000
  145.8444  139.2145  143.1809 LP  0  0  0  0  0  0  0  0  0  0  0  0  # atno 17320 bound_to 7965
  146.0317  140.8251  142.9872 LP  0  0  0  0  0  0  0  0  0  0  0  0  # atno 17321 bound_to 7965
  140.6095  143.9462  150.6443 LP  0  0  0  0  0  0  0  0  0  0  0  0  # atno 17342 bound_to 10162
  140.2700  143.3462  152.1246 LP  0  0  0  0  0  0  0  0  0  0  0  0  # atno 17343 bound_to 10162
  156.0843  130.3670  150.0519 LP  0  0  0  0  0  0  0  0  0  0  0  0  # atno 17370 bound_to 10713
  156.8660  130.9508  151.3613 LP  0  0  0  0  0  0  0  0  0  0  0  0  # atno 17371 bound_to 10713
  140.3512  134.2597  155.7198 LP  0  0  0  0  0  0  0  0  0  0  0  0  # atno 17394 bound_to 11000
  141.2041  133.7896  157.0306 LP  0  0  0  0  0  0  0  0  0  0  0  0  # atno 17395 bound_to 11000

$$$$
