AV-unprocessed.smi:2204|AV-procd|sdf|8939|dock1
  -GOLD-   2272012153D 1   1.00000     0.00000
 Structure written by MMmdl.
 39 40  0  0  0  0  0  0  0  0  1 V2000
  150.5137  141.7777  157.0493 C   0  0  0  0  0  0  0  0  0  0  0  0
  150.5283  142.9317  158.0076 C   0  0  0  0  0  0  0  0  0  0  0  0
  151.6094  143.8009  158.3224 C   0  0  0  0  0  0  0  0  0  0  0  0
  151.0968  144.6511  159.2612 C   0  0  0  0  0  0  0  0  0  0  0  0
  151.7498  145.7740  159.9976 C   0  0  0  0  0  0  0  0  0  0  0  0
  149.7778  144.2815  159.4615 N   0  0  0  0  0  0  0  0  0  0  0  0
  148.7912  144.8413  160.3777 C   0  0  0  0  0  0  0  0  0  0  0  0
  147.4298  144.1535  160.2319 C   0  0  0  0  0  0  0  0  0  0  0  0
  147.1330  143.2149  160.9703 O   0  0  0  0  0  0  0  0  0  0  0  0
  146.6116  144.6429  159.2872 N   0  0  0  0  0  0  0  0  0  0  0  0
  145.2123  144.2817  159.0814 C   0  0  2  0  0  0  0  0  0  0  0  0
  144.7125  144.8607  157.7503 C   0  0  0  0  0  0  0  0  0  0  0  0
  144.3693  144.7574  160.2827 C   0  0  1  0  0  0  0  0  0  0  0  0
  142.9281  144.2297  160.3128 C   0  0  0  0  0  0  0  0  0  0  0  0
  142.6368  144.1856  161.7951 C   0  0  0  0  0  0  0  0  0  0  0  0
  143.9812  143.7362  162.3531 C   0  0  0  0  0  0  0  0  0  0  0  0
  144.9592  144.3453  161.5170 O   0  0  0  0  0  0  0  0  0  0  0  0
  149.4333  143.2288  158.6871 N   0  0  0  0  0  0  0  0  0  0  0  0
  151.3926  141.7907  156.4046 H   0  0  0  0  0  0  0  0  0  0  0  0
  149.6322  141.8058  156.4081 H   0  0  0  0  0  0  0  0  0  0  0  0
  150.5088  140.8276  157.5840 H   0  0  0  0  0  0  0  0  0  0  0  0
  152.6146  143.7930  157.9276 H   0  0  0  0  0  0  0  0  0  0  0  0
  152.7959  145.8740  159.7067 H   0  0  0  0  0  0  0  0  0  0  0  0
  151.7171  145.6037  161.0741 H   0  0  0  0  0  0  0  0  0  0  0  0
  151.2513  146.7201  159.7860 H   0  0  0  0  0  0  0  0  0  0  0  0
  149.1424  144.7393  161.4046 H   0  0  0  0  0  0  0  0  0  0  0  0
  148.6938  145.9100  160.1802 H   0  0  0  0  0  0  0  0  0  0  0  0
  146.9580  145.4062  158.7242 H   0  0  0  0  0  0  0  0  0  0  0  0
  145.1145  143.1963  159.0253 H   0  0  0  0  0  0  0  0  0  0  0  0
  143.6722  144.5879  157.5714 H   0  0  0  0  0  0  0  0  0  0  0  0
  145.3003  144.4822  156.9134 H   0  0  0  0  0  0  0  0  0  0  0  0
  144.7779  145.9493  157.7382 H   0  0  0  0  0  0  0  0  0  0  0  0
  144.3347  145.8478  160.2951 H   0  0  0  0  0  0  0  0  0  0  0  0
  142.2343  144.8638  159.7604 H   0  0  0  0  0  0  0  0  0  0  0  0
  142.8583  143.2219  159.9027 H   0  0  0  0  0  0  0  0  0  0  0  0
  142.3895  145.1828  162.1613 H   0  0  0  0  0  0  0  0  0  0  0  0
  141.8208  143.5099  162.0525 H   0  0  0  0  0  0  0  0  0  0  0  0
  144.1175  144.0141  163.3982 H   0  0  0  0  0  0  0  0  0  0  0  0
  144.0818  142.6536  162.2738 H   0  0  0  0  0  0  0  0  0  0  0  0
  1  2  1  0  0  0  0
  1 19  1  0  0  0  0
  1 20  1  0  0  0  0
  1 21  1  0  0  0  0
  2 18  2  0  0  0  0
  2  3  1  0  0  0  0
  3  4  2  0  0  0  0
  3 22  1  0  0  0  0
  4  5  1  0  0  0  0
  4  6  1  0  0  0  0
  5 23  1  0  0  0  0
  5 24  1  0  0  0  0
  5 25  1  0  0  0  0
  6  7  1  0  0  0  0
  6 18  1  0  0  0  0
  7  8  1  0  0  0  0
  7 26  1  0  0  0  0
  7 27  1  0  0  0  0
  8  9  2  0  0  0  0
  8 10  1  0  0  0  0
 10 11  1  0  0  0  0
 10 28  1  0  0  0  0
 11 12  1  0  0  0  0
 11 13  1  0  0  0  0
 11 29  1  0  0  0  0
 12 30  1  0  0  0  0
 12 31  1  0  0  0  0
 12 32  1  0  0  0  0
 13 17  1  0  0  0  0
 13 14  1  0  0  0  0
 13 33  1  0  0  0  0
 14 15  1  0  0  0  0
 14 34  1  0  0  0  0
 14 35  1  0  0  0  0
 15 16  1  0  0  0  0
 15 36  1  0  0  0  0
 15 37  1  0  0  0  0
 16 17  1  0  0  0  0
 16 38  1  0  0  0  0
 16 39  1  0  0  0  0
M  END
> <s_m_source_file>
AV-unprocessed.smi

> <i_m_source_file_index>
2204

> <i_lp_mmshare_version>
43012

> <i_f3d_flags>
0

> <s_epik_input>
W0NIM11jMVtjSF1jKFtDSDNdKW4objEpW0NIMl1DKD1PKVtOSF1bQ0BIXShbQ0gzXSlbQ0BASF0yW0NIMl1bQ0gyXVtDSDJdTzI=

> <s_epik_cmdline>
J2VwaWtfcHl0aG9uJywgJy1waCcsICc3LjAnLCAnLXRuJywgJzgnLCAnLW1hJywgJzIwMCcsICctbWV0YWxfYmluZGluZycsICctaW1hZScsICc8aW5maWxlLm1hZT4nLCAnLW9tYWUnLCAnPG91dGZpbGUubWFlPic=

> <r_lp_tautomer_probability>
1

> <r_epik_Ionization_Penalty>
0.000433354

> <r_epik_Ionization_Penalty_Charging>
0

> <r_epik_Ionization_Penalty_Neutral>
0.000433354

> <r_epik_State_Penalty>
-0

> <r_epik_Charging_Adjusted_Penalty>
0

> <i_epik_Tot_Q>
0

> <i_epik_Tot_abs_Q>
0

> <r_epik_Metal_State_Penalty>
-0

> <b_epik_Metal_Only>
0

> <s_lp_Force_Field>
OPLS_2005

> <r_lp_Energy>
16.4317

> <b_lp_Chiralities_Consistent>
1

> <s_lp_Variant>
AV-unprocessed.smi:2204-3

> <Gold.Version>
5.8.1

> <Gold.Id.Protein>
6NUR|6NUR_protein|mol2

> <Gold.PLP.Fitness>
39.2395

> <Gold.PLP.PLP>
-33.8519

> <Gold.PLP.part.hbond>
-2.6970

> <Gold.PLP.part.metal>
0.0000

> <Gold.PLP.part.buried>
-6.9397

> <Gold.PLP.part.nonpolar>
-26.6647

> <Gold.PLP.part.repulsive>
0.4890

> <Gold.PLP.ligand.clash>
0.0000

> <Gold.PLP.ligand.torsion>
0.5174

> <Gold.PLP.Chemscore.Hbond>
2.1289

> <Gold.PLP.Chemscore.CHOScore>
0.0000

> <Gold.PLP.Chemscore.Metal>
0.0000

> <Gold.Chemscore.Hbonds>
donor molecule, donor type, donor heavy atom, donor atom, acceptor molecule, acceptor atom, score
      L1  H    10    28       P1  8029  0.98
      P1  H  6933  6944       L1     9  1.00
      P1  H  6934  6946       L1     9  0.12

> <Gold.PLP.Chemscore.Internal.Correction>
0.0357

> <Gold.Rescore>
     Score         DG    S(hbond)    S(metal)    S(lipo)     H(rot)  DE(clash)    DE(int)     intcor
     15.42     -18.73       2.09        0.00      86.53       1.50       0.14       3.17       ----

> <Gold.Chemscore.Fitness>
15.4166

> <Gold.Chemscore.DG>
-18.7304

> <Gold.Chemscore.ZeroCoef>
-5.4800

> <Gold.Chemscore.Hbond>
2.0860

> <Gold.Chemscore.Metal>
0.0000

> <Gold.Chemscore.Lipo>
86.5348

> <Gold.Chemscore.Internal_Hbond>
0.0000

> <Gold.Chemscore.DEClash>
0.1410

> <Gold.Chemscore.DEInternal>
3.1729

> <Gold.Chemscore.Rot>
1.5005

> <Gold.Chemscore.Internal.Correction>
   9.000000E+99

> <Gold.Chemscore.Hbonds>
donor molecule, donor type, donor heavy atom, donor atom, acceptor molecule, acceptor atom, score
      L1  H    10    28       P1  8029  0.93
      P1  H  6933  6944       L1     9  0.82
      P1  H  6934  6946       L1     9  0.13

> <Gold.Chemscore.Hbond.Weighted>
-6.9671

> <Gold.Chemscore.Metal.Weighted>
-0.0000

> <Gold.Chemscore.Lipo.Weighted>
-10.1246

> <Gold.Chemscore.Internal_Hbond.Weighted>
0.0000

> <Gold.Chemscore.DEClash.Weighted>
0.1410

> <Gold.Chemscore.DEInternal.Weighted>
3.1729

> <Gold.Chemscore.Rot.Weighted>
3.8412

> <Gold.Chemscore.Internal.Correction.Weighted>
   9.000000E+99

> <Gold.Protein.RotatedTorsions>
[ 6907 6896 6895 6894 ] final  142.78 input  -60.11 | X-H torsion
[ 7974 7965 7964 7962 ] final -111.62 input  175.53 | X-H torsion
[ 8008 7997 7996 7995 ] final  -99.22 input   59.86 | X-H torsion
[ 10167 10162 10161 10158 ] final  -66.43 input  -65.29 | X-H torsion
[ 10718 10713 10712 10709 ] final   97.91 input   66.30 | X-H torsion
[ 10763 10752 10751 10750 ] final  -16.37 input  -60.55 | X-H torsion
[ 11005 11000 10999 10996 ] final  113.01 input  -57.11 | X-H torsion

> <Gold.Protein.ActiveResidues>
 VAL166  LYS551  ARG553  GLY616  TRP617  ASP618  TYR619  PRO620  LYS621  CYS622 
 ASP623  PHE694  ASN695  SER759  ASP760  ASP761  ALA762  ILE779  LEU786  VAL792 
 PHE793  MET794  SER795  GLU796  ALA797  LYS798  CYS799  TRP800  GLU811  SER814 

> <Gold.Protein.RotatedAtoms>
  152.2145  133.4936  159.5128 H   0  0  0  0  0  0  0  0  0  0  0  0  # atno 6907 bound_to 6896
  150.6998  134.1423  159.4118 H   0  0  0  0  0  0  0  0  0  0  0  0  # atno 6908 bound_to 6896
  151.9343  135.0242  160.0582 H   0  0  0  0  0  0  0  0  0  0  0  0  # atno 6909 bound_to 6896
  145.1539  140.8843  143.3630 H   0  0  0  0  0  0  0  0  0  0  0  0  # atno 7974 bound_to 7965
  154.8118  140.0449  157.1348 H   0  0  0  0  0  0  0  0  0  0  0  0  # atno 8008 bound_to 7997
  154.9359  140.3046  155.5124 H   0  0  0  0  0  0  0  0  0  0  0  0  # atno 8009 bound_to 7997
  156.2972  140.2314  156.4424 H   0  0  0  0  0  0  0  0  0  0  0  0  # atno 8010 bound_to 7997
  140.5657  143.2314  151.6639 H   0  0  0  0  0  0  0  0  0  0  0  0  # atno 10167 bound_to 10162
  157.6905  131.0624  150.4715 H   0  0  0  0  0  0  0  0  0  0  0  0  # atno 10718 bound_to 10713
  153.5576  135.7010  153.5562 H   0  0  0  0  0  0  0  0  0  0  0  0  # atno 10763 bound_to 10752
  153.3459  135.4008  155.1608 H   0  0  0  0  0  0  0  0  0  0  0  0  # atno 10764 bound_to 10752
  154.8652  135.3753  154.5091 H   0  0  0  0  0  0  0  0  0  0  0  0  # atno 10765 bound_to 10752
  139.8942  134.9541  156.6673 H   0  0  0  0  0  0  0  0  0  0  0  0  # atno 11005 bound_to 11000
  145.0401  139.3267  143.5981 LP  0  0  0  0  0  0  0  0  0  0  0  0  # atno 17320 bound_to 7965
  146.3491  139.9772  142.8700 LP  0  0  0  0  0  0  0  0  0  0  0  0  # atno 17321 bound_to 7965
  139.5092  144.3585  152.0584 LP  0  0  0  0  0  0  0  0  0  0  0  0  # atno 17342 bound_to 10162
  140.2717  144.3957  150.6149 LP  0  0  0  0  0  0  0  0  0  0  0  0  # atno 17343 bound_to 10162
  156.5053  130.4126  149.6331 LP  0  0  0  0  0  0  0  0  0  0  0  0  # atno 17370 bound_to 10713
  156.3291  130.7321  151.2248 LP  0  0  0  0  0  0  0  0  0  0  0  0  # atno 17371 bound_to 10713
  140.7401  133.8985  155.8272 LP  0  0  0  0  0  0  0  0  0  0  0  0  # atno 17394 bound_to 11000
  141.0085  134.1053  157.4246 LP  0  0  0  0  0  0  0  0  0  0  0  0  # atno 17395 bound_to 11000

$$$$
