AV-unprocessed.smi:1487|AV-procd|sdf|6009|dock7
  -GOLD-   22720 6103D 1   1.00000     0.00000
 Structure written by MMmdl.
 48 50  0  0  0  0  0  0  0  0  2 V2000
  153.1604  142.7528  160.0648 C   0  0  0  0  0  0  0  0  0  0  0  0
  152.3308  142.2838  158.8826 C   0  0  0  0  0  0  0  0  0  0  0  0
  152.1301  140.8982  158.6911 C   0  0  0  0  0  0  0  0  0  0  0  0
  151.3646  140.4207  157.6052 C   0  0  0  0  0  0  0  0  0  0  0  0
  151.0444  139.1269  157.2318 N   0  0  0  0  0  0  0  0  0  0  0  0
  150.3102  139.3353  156.1432 C   0  0  0  0  0  0  0  0  0  0  0  0
  150.1288  140.6132  155.7571 N   0  0  0  0  0  0  0  0  0  0  0  0
  149.3794  141.0802  154.6041 C   0  0  0  0  0  0  0  0  0  0  0  0
  148.3513  140.0463  154.1017 C   0  0  2  0  0  0  0  0  0  0  0  0
  149.0658  139.0290  153.4289 O   0  0  0  0  0  0  0  0  0  0  0  0
  147.2939  140.6412  153.1437 C   0  0  0  0  0  0  0  0  0  0  0  0
  146.2017  141.3403  153.8673 N   0  3  2  0  0  0  0  0  0  0  0  0
  146.4492  142.7991  153.9953 C   0  0  0  0  0  0  0  0  0  0  0  0
  145.2228  143.5149  154.5824 C   0  0  0  0  0  0  0  0  0  0  0  0
  144.8311  142.9141  155.9396 C   0  0  0  0  0  0  0  0  0  0  0  0
  144.6559  141.3893  155.8409 C   0  0  1  0  0  0  0  0  0  0  0  0
  143.4846  141.0711  155.1148 O   0  0  0  0  0  0  0  0  0  0  0  0
  145.8763  140.7184  155.1809 C   0  0  0  0  0  0  0  0  0  0  0  0
  150.8015  141.3746  156.7075 C   0  0  0  0  0  0  0  0  0  0  0  0
  150.9912  142.7559  156.8900 C   0  0  0  0  0  0  0  0  0  0  0  0
  151.7608  143.2161  157.9789 C   0  0  0  0  0  0  0  0  0  0  0  0
  151.9617  144.7096  158.1653 C   0  0  0  0  0  0  0  0  0  0  0  0
  153.4620  141.9165  160.6965 H   0  0  0  0  0  0  0  0  0  0  0  0
  152.5907  143.4475  160.6823 H   0  0  0  0  0  0  0  0  0  0  0  0
  154.0640  143.2554  159.7196 H   0  0  0  0  0  0  0  0  0  0  0  0
  152.5631  140.1878  159.3803 H   0  0  0  0  0  0  0  0  0  0  0  0
  149.8874  138.5099  155.5891 H   0  0  0  0  0  0  0  0  0  0  0  0
  148.8781  142.0119  154.8717 H   0  0  0  0  0  0  0  0  0  0  0  0
  150.0904  141.3237  153.8135 H   0  0  0  0  0  0  0  0  0  0  0  0
  147.8700  139.5933  154.9668 H   0  0  0  0  0  0  0  0  0  0  0  0
  149.0687  139.2141  152.5023 H   0  0  0  0  0  0  0  0  0  0  0  0
  147.7429  141.3454  152.4423 H   0  0  0  0  0  0  0  0  0  0  0  0
  146.8879  139.8319  152.5346 H   0  0  0  0  0  0  0  0  0  0  0  0
  147.3268  142.9700  154.6213 H   0  0  0  0  0  0  0  0  0  0  0  0
  146.6699  143.2237  153.0152 H   0  0  0  0  0  0  0  0  0  0  0  0
  145.4307  144.5796  154.6943 H   0  0  0  0  0  0  0  0  0  0  0  0
  144.3851  143.4366  153.8879 H   0  0  0  0  0  0  0  0  0  0  0  0
  145.6136  143.1373  156.6660 H   0  0  0  0  0  0  0  0  0  0  0  0
  143.9207  143.3827  156.3158 H   0  0  0  0  0  0  0  0  0  0  0  0
  144.5236  140.9841  156.8447 H   0  0  0  0  0  0  0  0  0  0  0  0
  143.7328  140.6253  154.3189 H   0  0  0  0  0  0  0  0  0  0  0  0
  145.6883  139.6506  155.0705 H   0  0  0  0  0  0  0  0  0  0  0  0
  146.7417  140.8105  155.8396 H   0  0  0  0  0  0  0  0  0  0  0  0
  150.5465  143.4573  156.1999 H   0  0  0  0  0  0  0  0  0  0  0  0
  151.5220  145.2760  157.3438 H   0  0  0  0  0  0  0  0  0  0  0  0
  153.0236  144.9526  158.2065 H   0  0  0  0  0  0  0  0  0  0  0  0
  151.4933  145.0432  159.0915 H   0  0  0  0  0  0  0  0  0  0  0  0
  145.3772  141.2521  153.2908 H   0  0  0  0  0  0  0  0  0  0  0  0
  1  2  1  0  0  0  0
  1 23  1  0  0  0  0
  1 24  1  0  0  0  0
  1 25  1  0  0  0  0
  2 21  1  0  0  0  0
  2  3  2  0  0  0  0
  3  4  1  0  0  0  0
  3 26  1  0  0  0  0
  4 19  2  0  0  0  0
  4  5  1  0  0  0  0
  5  6  2  0  0  0  0
  6  7  1  0  0  0  0
  6 27  1  0  0  0  0
  7  8  1  0  0  0  0
  7 19  1  0  0  0  0
  8  9  1  0  0  0  0
  8 28  1  0  0  0  0
  8 29  1  0  0  0  0
  9 10  1  0  0  0  0
  9 11  1  0  0  0  0
  9 30  1  0  0  0  0
 10 31  1  0  0  0  0
 11 12  1  0  0  0  0
 11 32  1  0  0  0  0
 11 33  1  0  0  0  0
 12 18  1  0  0  0  0
 12 13  1  0  0  0  0
 12 48  1  0  0  0  0
 13 14  1  0  0  0  0
 13 34  1  0  0  0  0
 13 35  1  0  0  0  0
 14 15  1  0  0  0  0
 14 36  1  0  0  0  0
 14 37  1  0  0  0  0
 15 16  1  0  0  0  0
 15 38  1  0  0  0  0
 15 39  1  0  0  0  0
 16 17  1  0  0  0  0
 16 18  1  0  0  0  0
 16 40  1  0  0  0  0
 17 41  1  0  0  0  0
 18 42  1  0  0  0  0
 18 43  1  0  0  0  0
 19 20  1  0  0  0  0
 20 21  2  0  0  0  0
 20 44  1  0  0  0  0
 21 22  1  0  0  0  0
 22 45  1  0  0  0  0
 22 46  1  0  0  0  0
 22 47  1  0  0  0  0
M  CHG  1  12   1
M  END
> <s_m_source_file>
AV-unprocessed.smi

> <i_m_source_file_index>
1487

> <i_lp_mmshare_version>
43012

> <i_f3d_flags>
0

> <s_epik_input>
W0NIM11jKFtjSF0xKWMoW0NIM10pW2NIXWMoYzEyKW4oW2NIXW4yKVtDSDJdW0NASF0oW09IXSlbQ0gyXU4zW0NIMl1bQ0gyXVtDSDJdW0NAQEhdKFtPSF0pW0NIMl0z

> <s_epik_cmdline>
J2VwaWtfcHl0aG9uJywgJy1waCcsICc3LjAnLCAnLXRuJywgJzgnLCAnLW1hJywgJzIwMCcsICctbWV0YWxfYmluZGluZycsICctaW1hZScsICc8aW5maWxlLm1hZT4nLCAnLW9tYWUnLCAnPG91dGZpbGUubWFlPic=

> <r_epik_Ionization_Penalty>
0.0940186

> <r_epik_Ionization_Penalty_Charging>
0.00679686

> <r_epik_Ionization_Penalty_Neutral>
0.0872218

> <r_epik_State_Penalty>
0.0799311

> <r_epik_Charging_Adjusted_Penalty>
0.086728

> <i_epik_Tot_Q>
1

> <i_epik_Tot_abs_Q>
1

> <r_epik_Metal_State_Penalty>
7.95545e-05

> <b_epik_Metal_Only>
0

> <s_lp_Force_Field>
OPLS_2005

> <r_lp_Energy>
25.8202

> <b_lp_Chiralities_Consistent>
1

> <s_lp_Variant>
AV-unprocessed.smi:1487-3

> <Gold.Version>
5.8.1

> <Gold.Id.Protein>
6NUR|6NUR_protein|mol2

> <Gold.PLP.Fitness>
56.1466

> <Gold.PLP.PLP>
-46.1453

> <Gold.PLP.part.hbond>
-3.4460

> <Gold.PLP.part.metal>
0.0000

> <Gold.PLP.part.buried>
-4.2030

> <Gold.PLP.part.nonpolar>
-38.8866

> <Gold.PLP.part.repulsive>
0.0187

> <Gold.PLP.ligand.clash>
0.0000

> <Gold.PLP.ligand.torsion>
1.0035

> <Gold.PLP.Chemscore.Hbond>
3.9920

> <Gold.PLP.Chemscore.CHOScore>
0.0000

> <Gold.PLP.Chemscore.Metal>
0.0000

> <Gold.Chemscore.Hbonds>
donor molecule, donor type, donor heavy atom, donor atom, acceptor molecule, acceptor atom, score
      L1  H    10    31       P1  7957  1.00
      L1  H    12    48       P1 10175  1.90
      L1  H    17    41       P1 10175  0.98

> <Gold.PLP.Chemscore.Internal.Correction>
0.0322

> <Gold.Rescore>
     Score         DG    S(hbond)    S(metal)    S(lipo)     H(rot)  DE(clash)    DE(int)     intcor
     18.19     -19.88       2.35        0.00     114.37       2.67       0.06       1.63       ----

> <Gold.Chemscore.Fitness>
18.1857

> <Gold.Chemscore.DG>
-19.8820

> <Gold.Chemscore.ZeroCoef>
-5.4800

> <Gold.Chemscore.Hbond>
2.3529

> <Gold.Chemscore.Metal>
0.0000

> <Gold.Chemscore.Lipo>
114.3734

> <Gold.Chemscore.Internal_Hbond>
0.0000

> <Gold.Chemscore.DEClash>
0.0630

> <Gold.Chemscore.DEInternal>
1.6332

> <Gold.Chemscore.Rot>
2.6712

> <Gold.Chemscore.Internal.Correction>
   9.000000E+99

> <Gold.Chemscore.Hbonds>
donor molecule, donor type, donor heavy atom, donor atom, acceptor molecule, acceptor atom, score
      L1  H    10    31       P1  7957  0.97
      L1  H    12    48       P1 10175  0.20
      L1  H    17    41       P1 10175  0.93

> <Gold.Chemscore.Hbond.Weighted>
-7.8586

> <Gold.Chemscore.Metal.Weighted>
-0.0000

> <Gold.Chemscore.Lipo.Weighted>
-13.3817

> <Gold.Chemscore.Internal_Hbond.Weighted>
0.0000

> <Gold.Chemscore.DEClash.Weighted>
0.0630

> <Gold.Chemscore.DEInternal.Weighted>
1.6332

> <Gold.Chemscore.Rot.Weighted>
6.8383

> <Gold.Chemscore.Internal.Correction.Weighted>
   9.000000E+99

> <Gold.Protein.RotatedTorsions>
[ 6907 6896 6895 6894 ] final  166.36 input  -60.11 | X-H torsion
[ 7974 7965 7964 7962 ] final  142.52 input  175.53 | X-H torsion
[ 8008 7997 7996 7995 ] final  -51.72 input   59.86 | X-H torsion
[ 10167 10162 10161 10158 ] final   79.71 input  -65.29 | X-H torsion
[ 10718 10713 10712 10709 ] final  -74.69 input   66.30 | X-H torsion
[ 10763 10752 10751 10750 ] final  177.66 input  -60.55 | X-H torsion
[ 11005 11000 10999 10996 ] final  165.34 input  -57.11 | X-H torsion

> <Gold.Protein.ActiveResidues>
 VAL166  LYS551  ARG553  GLY616  TRP617  ASP618  TYR619  PRO620  LYS621  CYS622 
 ASP623  PHE694  ASN695  SER759  ASP760  ASP761  ALA762  ILE779  LEU786  VAL792 
 PHE793  MET794  SER795  GLU796  ALA797  LYS798  CYS799  TRP800  GLU811  SER814 

> <Gold.Protein.RotatedAtoms>
  151.8801  133.3493  159.3763 H   0  0  0  0  0  0  0  0  0  0  0  0  # atno 6907 bound_to 6896
  150.7130  134.5027  159.5578 H   0  0  0  0  0  0  0  0  0  0  0  0  # atno 6908 bound_to 6896
  152.2577  134.8067  160.0486 H   0  0  0  0  0  0  0  0  0  0  0  0  # atno 6909 bound_to 6896
  144.9001  139.5436  143.5758 H   0  0  0  0  0  0  0  0  0  0  0  0  # atno 7974 bound_to 7965
  154.4089  140.1241  156.4875 H   0  0  0  0  0  0  0  0  0  0  0  0  # atno 8008 bound_to 7997
  155.7023  140.3494  155.4919 H   0  0  0  0  0  0  0  0  0  0  0  0  # atno 8009 bound_to 7997
  155.9374  140.1081  157.1073 H   0  0  0  0  0  0  0  0  0  0  0  0  # atno 8010 bound_to 7997
  139.9575  144.5984  150.8103 H   0  0  0  0  0  0  0  0  0  0  0  0  # atno 10167 bound_to 10162
  156.0233  130.4423  150.2930 H   0  0  0  0  0  0  0  0  0  0  0  0  # atno 10718 bound_to 10713
  154.4975  135.2782  155.1448 H   0  0  0  0  0  0  0  0  0  0  0  0  # atno 10763 bound_to 10752
  154.3094  135.6232  153.5463 H   0  0  0  0  0  0  0  0  0  0  0  0  # atno 10764 bound_to 10752
  152.9897  135.5716  154.5410 H   0  0  0  0  0  0  0  0  0  0  0  0  # atno 10765 bound_to 10752
  140.2551  134.7946  157.3538 H   0  0  0  0  0  0  0  0  0  0  0  0  # atno 11005 bound_to 11000
  146.3103  139.7723  142.9025 LP  0  0  0  0  0  0  0  0  0  0  0  0  # atno 17320 bound_to 7965
  145.3632  141.0329  143.3273 LP  0  0  0  0  0  0  0  0  0  0  0  0  # atno 17321 bound_to 7965
  140.7564  143.3064  151.2951 LP  0  0  0  0  0  0  0  0  0  0  0  0  # atno 17342 bound_to 10162
  139.6580  144.0241  152.2673 LP  0  0  0  0  0  0  0  0  0  0  0  0  # atno 17343 bound_to 10162
  157.1034  131.0202  151.3076 LP  0  0  0  0  0  0  0  0  0  0  0  0  # atno 17370 bound_to 10713
  157.4762  130.7738  149.7370 LP  0  0  0  0  0  0  0  0  0  0  0  0  # atno 17371 bound_to 10713
  140.1519  134.4838  155.7955 LP  0  0  0  0  0  0  0  0  0  0  0  0  # atno 17394 bound_to 11000
  141.2197  133.6866  156.7394 LP  0  0  0  0  0  0  0  0  0  0  0  0  # atno 17395 bound_to 11000

$$$$
