#       Name:                AV-unprocessed.smi:149
#       Creating user name   scv26
#       Creation time:       Thu Mar 26 18:45:01 2020


#       File generated by GOLD software.
#

@<TRIPOS>MOLECULE
AV-unprocessed.smi:149
    69    73     1
SMALL
NO_CHARGES


@<TRIPOS>ATOM
      1 ****        -4.0499  -1.8147   1.1514 C.3            1 S1                 0.0000
      2 ****        -3.2296  -0.5128   1.2326 C.3            1 S1                 0.0000
      3 ****        -1.7546  -0.7931   0.8918 C.3            1 S1                 0.0000
      4 ****        -1.2920   0.3160   0.0747 N.pl3          1 S1                 0.0000
      5 ****         0.0261   0.6456   0.0333 C.ar           1 S1                 0.0000
      6 ****         0.3688   1.9394  -0.2069 N.ar           1 S1                 0.0000
      7 ****         1.6527   2.3060  -0.2465 C.ar           1 S1                 0.0000
      8 ****         2.7398   1.5509  -0.0859 N.ar           1 S1                 0.0000
      9 ****         2.4097   0.2466   0.1359 C.ar           1 S1                 0.0000
     10 ****         1.0907  -0.2866   0.2154 C.ar           1 S1                 0.0000
     11 ****         1.1561  -1.6529   0.4625 N.2            1 S1                 0.0000
     12 ****         2.4331  -1.9072   0.5421 C.2            1 S1                 0.0000
     13 ****         3.2624  -0.8287   0.3253 N.pl3          1 S1                 0.0000
     14 ****         4.7003  -0.8054   0.3818 C.3            1 S1                 0.0000
     15 ****         5.5067  -0.1409  -0.7434 C.3            1 S1                 0.0000
     16 ****         5.8622  -1.5315  -1.3135 C.3            1 S1                 0.0000
     17 ****         4.9162  -2.0085  -2.4323 C.3            1 S1                 0.0000
     18 ****         5.0050  -3.4054  -2.6285 O.3            1 S1                 0.0000
     19 ****         7.3036  -1.7204  -1.8266 C.3            1 S1                 0.0000
     20 ****         8.2741  -1.2754  -0.9000 O.3            1 S1                 0.0000
     21 ****         5.5367  -2.0627   0.1003 C.3            1 S1                 0.0000
     22 ****        -2.3239   1.3334  -0.0008 C.3            1 S1                 0.0000
     23 ****        -3.6492   0.5986   0.2406 C.3            1 S1                 0.0000
     24 ****        -4.6981   1.5507   0.7166 N.4            1 S1                 1.0000
     25 ****        -5.1138   2.5051  -0.3449 C.3            1 S1                 0.0000
     26 ****        -6.1341   3.5207   0.1942 C.3            1 S1                 0.0000
     27 ****        -7.2593   2.8284   0.7151 O.3            1 S1                 0.0000
     28 ****        -6.8980   1.9893   1.8026 C.3            1 S1                 0.0000
     29 ****        -5.8950   0.9220   1.3313 C.3            1 S1                 0.0000
     30 ****        -4.0226  -2.2341   0.1451 H              1 S1                 0.0000
     31 ****        -5.0958  -1.6770   1.4164 H              1 S1                 0.0000
     32 ****        -3.6456  -2.5664   1.8300 H              1 S1                 0.0000
     33 ****        -3.2655  -0.1157   2.2483 H              1 S1                 0.0000
     34 ****        -1.1621  -0.8998   1.8016 H              1 S1                 0.0000
     35 ****        -1.6510  -1.7116   0.3127 H              1 S1                 0.0000
     36 ****         1.8354   3.3537  -0.4345 H              1 S1                 0.0000
     37 ****         2.7972  -2.9006   0.7568 H              1 S1                 0.0000
     38 ****         4.9495  -0.3757   1.3529 H              1 S1                 0.0000
     39 ****         4.9265   0.4833  -1.4235 H              1 S1                 0.0000
     40 ****         6.3645   0.4115  -0.3575 H              1 S1                 0.0000
     41 ****         3.8776  -1.7707  -2.2030 H              1 S1                 0.0000
     42 ****         5.1396  -1.5071  -3.3747 H              1 S1                 0.0000
     43 ****         4.4031  -3.6513  -3.3144 H              1 S1                 0.0000
     44 ****         7.5109  -2.7698  -2.0376 H              1 S1                 0.0000
     45 ****         7.4579  -1.1759  -2.7587 H              1 S1                 0.0000
     46 ****         9.1317  -1.4293  -1.2660 H              1 S1                 0.0000
     47 ****         6.4095  -2.1220   0.7523 H              1 S1                 0.0000
     48 ****         4.9955  -3.0080   0.1122 H              1 S1                 0.0000
     49 ****        -2.1489   2.0813   0.7744 H              1 S1                 0.0000
     50 ****        -2.3083   1.8311  -0.9711 H              1 S1                 0.0000
     51 ****        -3.9736   0.1311  -0.6911 H              1 S1                 0.0000
     52 ****        -4.2512   3.0457  -0.7340 H              1 S1                 0.0000
     53 ****        -5.5476   1.9542  -1.1809 H              1 S1                 0.0000
     54 ****        -5.6882   4.1537   0.9632 H              1 S1                 0.0000
     55 ****        -6.4666   4.1803  -0.6077 H              1 S1                 0.0000
     56 ****        -6.4779   2.5863   2.6139 H              1 S1                 0.0000
     57 ****        -7.7969   1.5124   2.1935 H              1 S1                 0.0000
     58 ****        -6.3692   0.2515   0.6127 H              1 S1                 0.0000
     59 ****        -5.6078   0.3322   2.2003 H              1 S1                 0.0000
     60 ****        -4.2685   2.0997   1.4477 H              1 S1                 0.0000
     61 ****        -0.3465   2.6223  -0.3551 LP             1 S1                 0.0000
     62 ****         3.6773   1.8969  -0.1233 LP             1 S1                 0.0000
     63 ****         0.3960  -2.2957   0.5578 LP             1 S1                 0.0000
     64 ****         4.7643  -3.8807  -1.7822 LP             1 S1                 0.0000
     65 ****         5.9375  -3.6499  -2.8944 LP             1 S1                 0.0000
     66 ****         8.1780  -1.7805  -0.0423 LP             1 S1                 0.0000
     67 ****         8.1518  -0.2981  -0.7268 LP             1 S1                 0.0000
     68 ****        -7.6591   2.2669  -0.0094 LP             1 S1                 0.0000
     69 ****        -7.9339   3.4959   1.0302 LP             1 S1                 0.0000
@<TRIPOS>BOND
    1    1    2 1     
    2    1   30 1     
    3    1   31 1     
    4    1   32 1     
    5    2   23 1     
    6    2    3 1     
    7    2   33 1     
    8    3    4 1     
    9    3   34 1     
   10    3   35 1     
   11    4    5 1     
   12    4   22 1     
   13    5   10 ar    
   14    5    6 ar    
   15    6    7 ar    
   16    7    8 ar    
   17    7   36 1     
   18    8    9 ar    
   19    9   13 1     
   20    9   10 ar    
   21   10   11 1     
   22   11   12 2     
   23   12   13 1     
   24   12   37 1     
   25   13   14 1     
   26   14   21 1     
   27   14   15 1     
   28   14   38 1     
   29   15   16 1     
   30   15   39 1     
   31   15   40 1     
   32   16   17 1     
   33   16   19 1     
   34   16   21 1     
   35   17   18 1     
   36   17   41 1     
   37   17   42 1     
   38   18   43 1     
   39   19   20 1     
   40   19   44 1     
   41   19   45 1     
   42   20   46 1     
   43   21   47 1     
   44   21   48 1     
   45   22   23 1     
   46   22   49 1     
   47   22   50 1     
   48   23   24 1     
   49   23   51 1     
   50   24   29 1     
   51   24   25 1     
   52   24   60 1     
   53   25   26 1     
   54   25   52 1     
   55   25   53 1     
   56   26   27 1     
   57   26   54 1     
   58   26   55 1     
   59   27   28 1     
   60   28   29 1     
   61   28   56 1     
   62   28   57 1     
   63   29   58 1     
   64   29   59 1     
   65    6   61 1     
   66    8   62 1     
   67   11   63 1     
   68   18   64 1     
   69   18   65 1     
   70   20   66 1     
   71   20   67 1     
   72   27   68 1     
   73   27   69 1     
@<TRIPOS>SUBSTRUCTURE
      1 S1             1
@<TRIPOS>SET
LONE_PAIRS      STATIC     ATOMS    <user>   **** ""
9 61 62 63 64 65 66 67 68 69
DONOR_HYDROGENS      STATIC     ATOMS    <user>   **** ""
3 43 46 60
ATOM$BLUE        STATIC     ATOMS    COLORGROUP SYSTEM
9 61 62 63 64 65 66 67 68 69
ATOM$RED        STATIC     ATOMS    COLORGROUP SYSTEM
3 43 46 60
