#       Name:                AV-unprocessed.smi:2061
#       Creating user name   scv26
#       Creation time:       Fri Mar 27 11:07:22 2020


#       File generated by GOLD software.
#

@<TRIPOS>MOLECULE
AV-unprocessed.smi:2061
    53    54     1
SMALL
NO_CHARGES


@<TRIPOS>ATOM
      1 ****        -6.1742   5.8642  -1.7276 C.3            1 S1                 0.0000
      2 ****        -5.2013   4.7369  -1.6740 C.2            1 S1                 0.0000
      3 ****        -3.9608   4.6048  -1.1168 C.2            1 S1                 0.0000
      4 ****        -3.6026   3.2694  -1.4424 C.2            1 S1                 0.0000
      5 ****        -2.3551   2.7335  -1.0272 N.am           1 S1                 0.0000
      6 ****        -1.8400   1.5138  -1.2671 C.2            1 S1                 0.0000
      7 ****        -2.4610   0.6992  -1.9600 O.2            1 S1                 0.0000
      8 ****        -0.6268   1.3426  -0.6742 N.pl3          1 S1                -1.0000
      9 ****         0.1772   0.1236  -0.7598 C.3            1 S1                 0.0000
     10 ****         1.1014  -0.0065   0.4798 C.3            1 S1                 0.0000
     11 ****         2.2035   1.0791   0.5708 C.3            1 S1                 0.0000
     12 ****         1.6445  -1.3965   0.5812 N.4            1 S1                 1.0000
     13 ****         2.8959  -1.6815  -0.1739 C.3            1 S1                 0.0000
     14 ****         3.2189  -3.1866  -0.1376 C.3            1 S1                 0.0000
     15 ****         2.2793  -4.0368  -1.0111 C.3            1 S1                 0.0000
     16 ****         3.2665  -3.6424   1.2152 O.3            1 S1                 0.0000
     17 ****         2.0855  -3.3961   1.9758 C.3            1 S1                 0.0000
     18 ****         2.3166  -3.9323   3.3929 C.3            1 S1                 0.0000
     19 ****         1.7690  -1.8895   1.9738 C.3            1 S1                 0.0000
     20 ****        -4.5426   2.6430  -2.1349 N.2            1 S1                 0.0000
     21 ****        -5.5716   3.5799  -2.2866 O.3            1 S1                 0.0000
     22 ****        -5.7202   6.7876  -1.3677 H              1 S1                 0.0000
     23 ****        -7.0457   5.6515  -1.1082 H              1 S1                 0.0000
     24 ****        -6.5161   6.0320  -2.7491 H              1 S1                 0.0000
     25 ****        -3.4005   5.3451  -0.5654 H              1 S1                 0.0000
     26 ****        -1.7808   3.3486  -0.4705 H              1 S1                 0.0000
     27 ****        -0.4507  -0.7677  -0.8097 H              1 S1                 0.0000
     28 ****         0.7847   0.1028  -1.6649 H              1 S1                 0.0000
     29 ****         0.4510   0.1354   1.3447 H              1 S1                 0.0000
     30 ****         1.7796   2.0819   0.6485 H              1 S1                 0.0000
     31 ****         2.8716   1.0770  -0.2921 H              1 S1                 0.0000
     32 ****         2.8174   0.9341   1.4600 H              1 S1                 0.0000
     33 ****         2.8146  -1.3470  -1.2086 H              1 S1                 0.0000
     34 ****         3.7260  -1.1315   0.2715 H              1 S1                 0.0000
     35 ****         4.2253  -3.3196  -0.5356 H              1 S1                 0.0000
     36 ****         2.3618  -3.7483  -2.0593 H              1 S1                 0.0000
     37 ****         1.2330  -3.9236  -0.7281 H              1 S1                 0.0000
     38 ****         2.5333  -5.0945  -0.9399 H              1 S1                 0.0000
     39 ****         1.2495  -3.9443   1.5409 H              1 S1                 0.0000
     40 ****         1.4380  -3.7778   4.0197 H              1 S1                 0.0000
     41 ****         3.1608  -3.4347   3.8711 H              1 S1                 0.0000
     42 ****         2.5270  -5.0018   3.3751 H              1 S1                 0.0000
     43 ****         2.5496  -1.3313   2.4929 H              1 S1                 0.0000
     44 ****         0.8378  -1.7205   2.5163 H              1 S1                 0.0000
     45 ****         0.9289  -1.9732   0.1618 H              1 S1                 0.0000
     46 ****        -3.3504   0.9456  -2.3450 LP             1 S1                 0.0000
     47 ****        -2.0737  -0.2060  -2.1353 LP             1 S1                 0.0000
     48 ****        -0.2587   2.1049  -0.1419 LP             1 S1                 0.0000
     49 ****         4.0299  -3.1841   1.6704 LP             1 S1                 0.0000
     50 ****         3.4286  -4.6292   1.2046 LP             1 S1                 0.0000
     51 ****        -4.5215   1.7031  -2.4758 LP             1 S1                 0.0000
     52 ****        -5.7312   3.7500  -3.2590 LP             1 S1                 0.0000
     53 ****        -6.4095   3.2303  -1.8674 LP             1 S1                 0.0000
@<TRIPOS>BOND
    1    1    2 1     
    2    1   22 1     
    3    1   23 1     
    4    1   24 1     
    5    2   21 1     
    6    2    3 2     
    7    3    4 1     
    8    3   25 1     
    9    4    5 1     
   10    4   20 2     
   11    5    6 am    
   12    5   26 1     
   13    6    7 2     
   14    6    8 1     
   15    8    9 1     
   16    9   10 1     
   17    9   27 1     
   18    9   28 1     
   19   10   11 1     
   20   10   12 1     
   21   10   29 1     
   22   11   30 1     
   23   11   31 1     
   24   11   32 1     
   25   12   19 1     
   26   12   13 1     
   27   12   45 1     
   28   13   14 1     
   29   13   33 1     
   30   13   34 1     
   31   14   15 1     
   32   14   16 1     
   33   14   35 1     
   34   15   36 1     
   35   15   37 1     
   36   15   38 1     
   37   16   17 1     
   38   17   18 1     
   39   17   19 1     
   40   17   39 1     
   41   18   40 1     
   42   18   41 1     
   43   18   42 1     
   44   19   43 1     
   45   19   44 1     
   46   20   21 1     
   47    7   46 1     
   48    7   47 1     
   49    8   48 1     
   50   16   49 1     
   51   16   50 1     
   52   20   51 1     
   53   21   52 1     
   54   21   53 1     
@<TRIPOS>SUBSTRUCTURE
      1 S1             1
@<TRIPOS>SET
LONE_PAIRS      STATIC     ATOMS    <user>   **** ""
8 46 47 48 49 50 51 52 53
DONOR_HYDROGENS      STATIC     ATOMS    <user>   **** ""
2 26 45
ATOM$BLUE        STATIC     ATOMS    COLORGROUP SYSTEM
8 46 47 48 49 50 51 52 53
ATOM$RED        STATIC     ATOMS    COLORGROUP SYSTEM
2 26 45
