#       Name:                AV-unprocessed.smi:948
#       Creating user name   scv26
#       Creation time:       Fri Mar 27 02:15:06 2020


#       File generated by GOLD software.
#

@<TRIPOS>MOLECULE
AV-unprocessed.smi:948
    19    19     1
SMALL
NO_CHARGES


@<TRIPOS>ATOM
      1 ****        -1.8045   2.3830   0.0420 N.4            1 S1                 1.0000
      2 ****        -1.3098   0.9960  -0.0048 C.3            1 S1                 0.0000
      3 ****         0.2195   0.9395   0.1285 C.3            1 S1                 0.0000
      4 ****         0.7280  -0.4650   0.0940 C.2            1 S1                 0.0000
      5 ****         1.1403  -1.3078   1.0973 C.2            1 S1                 0.0000
      6 ****         1.5083  -2.4855   0.5039 N.pl3          1 S1                 0.0000
      7 ****         1.3405  -2.4039  -0.8184 C.2            1 S1                 0.0000
      8 ****         0.8665  -1.1795  -1.0700 N.pl3          1 S1                 1.0000
      9 ****         1.8590  -3.3006   0.9921 H              1 S1                 0.0000
     10 ****        -2.8105   2.3855  -0.0524 H              1 S1                 0.0000
     11 ****        -1.3973   2.9166  -0.7129 H              1 S1                 0.0000
     12 ****        -1.7814   0.4312   0.8002 H              1 S1                 0.0000
     13 ****        -1.6280   0.5440  -0.9450 H              1 S1                 0.0000
     14 ****         0.6921   1.5056  -0.6755 H              1 S1                 0.0000
     15 ****         0.5334   1.4019   1.0653 H              1 S1                 0.0000
     16 ****         1.1997  -1.1596   2.1662 H              1 S1                 0.0000
     17 ****         1.5484  -3.1735  -1.5404 H              1 S1                 0.0000
     18 ****        -1.5521   2.8044   0.9248 H              1 S1                 0.0000
     19 ****         0.6478  -0.8315  -1.9953 H              1 S1                 0.0000
@<TRIPOS>BOND
    1    1    2 1     
    2    1   10 1     
    3    1   11 1     
    4    1   18 1     
    5    2    3 1     
    6    2   12 1     
    7    2   13 1     
    8    3    4 1     
    9    3   14 1     
   10    3   15 1     
   11    4    8 1     
   12    4    5 2     
   13    5    6 1     
   14    5   16 1     
   15    6    9 1     
   16    6    7 1     
   17    7    8 2     
   18    7   17 1     
   19    8   19 1     
@<TRIPOS>SUBSTRUCTURE
      1 S1             1
@<TRIPOS>SET
DONOR_HYDROGENS      STATIC     ATOMS    <user>   **** ""
5 10 11 18 9 19
ATOM$RED        STATIC     ATOMS    COLORGROUP SYSTEM
5 10 11 18 9 19
