AV-unprocessed.smi:344|AV-procd|sdf|2389|dock9
  -GOLD-   2262022313D 1   1.00000     0.00000
 Structure written by MMmdl.
 38 39  0  0  0  0  0  0  0  0  1 V2000
  156.1249  135.2545  159.4228 N   0  0  0  0  0  0  0  0  0  0  0  0
  155.3028  134.3764  160.0032 C   0  0  0  0  0  0  0  0  0  0  0  0
  154.3993  133.8182  159.3837 O   0  0  0  0  0  0  0  0  0  0  0  0
  155.5260  134.0860  161.4901 C   0  0  0  0  0  0  0  0  0  0  0  0
  155.3538  135.3362  162.3046 C   0  0  0  0  0  0  0  0  0  0  0  0
  155.3723  135.4385  163.6752 C   0  0  0  0  0  0  0  0  0  0  0  0
  155.1354  137.0794  164.2134 S   0  0  0  0  0  0  0  0  0  0  0  0
  155.0269  137.5741  162.5315 C   0  0  0  0  0  0  0  0  0  0  0  0
  154.8218  138.9285  162.1592 N   0  0  0  0  0  0  0  0  0  0  0  0
  154.9727  139.4943  160.9471 C   0  0  0  0  0  0  0  0  0  0  0  0
  155.3172  138.8872  159.9321 O   0  0  0  0  0  0  0  0  0  0  0  0
  154.6818  140.9985  160.8930 C   0  0  0  0  0  0  0  0  0  0  0  0
  153.3992  141.3600  160.1178 C   0  0  0  0  0  0  0  0  0  0  0  0
  153.1260  142.8741  160.0756 C   0  0  0  0  0  0  0  0  0  0  0  0
  152.6401  143.4719  161.4007 C   0  0  0  0  0  0  0  0  0  0  0  0
  151.9147  144.7703  161.0246 C   0  0  0  0  0  0  0  0  0  0  0  0
  151.5995  144.6736  159.5246 C   0  0  0  0  0  0  0  0  0  0  0  0
  152.0203  143.2661  159.0937 C   0  0  0  0  0  0  0  0  0  0  0  0
  155.1613  136.5648  161.6640 N   0  0  0  0  0  0  0  0  0  0  0  0
  156.0089  135.4764  158.4444 H   0  0  0  0  0  0  0  0  0  0  0  0
  156.8556  135.6960  159.9615 H   0  0  0  0  0  0  0  0  0  0  0  0
  154.8340  133.3144  161.8306 H   0  0  0  0  0  0  0  0  0  0  0  0
  156.5285  133.6753  161.6157 H   0  0  0  0  0  0  0  0  0  0  0  0
  155.5068  134.6482  164.3985 H   0  0  0  0  0  0  0  0  0  0  0  0
  154.5276  139.5428  162.9042 H   0  0  0  0  0  0  0  0  0  0  0  0
  154.6116  141.3704  161.9159 H   0  0  0  0  0  0  0  0  0  0  0  0
  155.5389  141.4951  160.4365 H   0  0  0  0  0  0  0  0  0  0  0  0
  153.4827  140.9956  159.0928 H   0  0  0  0  0  0  0  0  0  0  0  0
  152.5431  140.8448  160.5562 H   0  0  0  0  0  0  0  0  0  0  0  0
  154.0391  143.3923  159.7779 H   0  0  0  0  0  0  0  0  0  0  0  0
  151.9351  142.7906  161.8791 H   0  0  0  0  0  0  0  0  0  0  0  0
  153.4558  143.6455  162.1032 H   0  0  0  0  0  0  0  0  0  0  0  0
  151.0083  144.8954  161.6176 H   0  0  0  0  0  0  0  0  0  0  0  0
  152.5508  145.6350  161.2164 H   0  0  0  0  0  0  0  0  0  0  0  0
  150.5477  144.8653  159.3109 H   0  0  0  0  0  0  0  0  0  0  0  0
  152.1841  145.4161  158.9799 H   0  0  0  0  0  0  0  0  0  0  0  0
  152.3501  143.2302  158.0549 H   0  0  0  0  0  0  0  0  0  0  0  0
  151.1730  142.5863  159.1956 H   0  0  0  0  0  0  0  0  0  0  0  0
  1  2  1  0  0  0  0
  1 20  1  0  0  0  0
  1 21  1  0  0  0  0
  2  3  2  0  0  0  0
  2  4  1  0  0  0  0
  4  5  1  0  0  0  0
  4 22  1  0  0  0  0
  4 23  1  0  0  0  0
  5 19  1  0  0  0  0
  5  6  2  0  0  0  0
  6  7  1  0  0  0  0
  6 24  1  0  0  0  0
  7  8  1  0  0  0  0
  8  9  1  0  0  0  0
  8 19  2  0  0  0  0
  9 10  1  0  0  0  0
  9 25  1  0  0  0  0
 10 11  2  0  0  0  0
 10 12  1  0  0  0  0
 12 13  1  0  0  0  0
 12 26  1  0  0  0  0
 12 27  1  0  0  0  0
 13 14  1  0  0  0  0
 13 28  1  0  0  0  0
 13 29  1  0  0  0  0
 14 18  1  0  0  0  0
 14 15  1  0  0  0  0
 14 30  1  0  0  0  0
 15 16  1  0  0  0  0
 15 31  1  0  0  0  0
 15 32  1  0  0  0  0
 16 17  1  0  0  0  0
 16 33  1  0  0  0  0
 16 34  1  0  0  0  0
 17 18  1  0  0  0  0
 17 35  1  0  0  0  0
 17 36  1  0  0  0  0
 18 37  1  0  0  0  0
 18 38  1  0  0  0  0
M  END
> <s_m_source_file>
AV-unprocessed.smi

> <i_m_source_file_index>
344

> <i_lp_mmshare_version>
43012

> <i_f3d_flags>
0

> <s_epik_input>
W05IMl1DKD1PKVtDSDJdYzFbY0hdc2MobjEpW05IXUMoPU8pW0NIMl1bQ0gyXVtDSF0yW0NIMl1bQ0gyXVtDSDJdW0NIMl0y

> <s_epik_cmdline>
J2VwaWtfcHl0aG9uJywgJy1waCcsICc3LjAnLCAnLXRuJywgJzgnLCAnLW1hJywgJzIwMCcsICctbWV0YWxfYmluZGluZycsICctaW1hZScsICc8aW5maWxlLm1hZT4nLCAnLW9tYWUnLCAnPG91dGZpbGUubWFlPic=

> <r_lp_tautomer_probability>
1

> <r_epik_Ionization_Penalty>
0.000156249

> <r_epik_Ionization_Penalty_Charging>
0

> <r_epik_Ionization_Penalty_Neutral>
0.000156249

> <r_epik_State_Penalty>
-0

> <r_epik_Charging_Adjusted_Penalty>
0

> <i_epik_Tot_Q>
0

> <i_epik_Tot_abs_Q>
0

> <r_epik_Metal_State_Penalty>
0.0972404

> <b_epik_Metal_Only>
0

> <s_lp_Force_Field>
OPLS_2005

> <r_lp_Energy>
21.4861

> <b_lp_Chiralities_Consistent>
1

> <s_lp_Variant>
AV-unprocessed.smi:344-1

> <Gold.Version>
5.8.1

> <Gold.Id.Protein>
6NUR|6NUR_protein|mol2

> <Gold.PLP.Fitness>
45.5188

> <Gold.PLP.PLP>
-42.9701

> <Gold.PLP.part.hbond>
-1.0000

> <Gold.PLP.part.metal>
0.0000

> <Gold.PLP.part.buried>
-4.6210

> <Gold.PLP.part.nonpolar>
-37.6966

> <Gold.PLP.part.repulsive>
0.0219

> <Gold.PLP.ligand.clash>
0.0000

> <Gold.PLP.ligand.torsion>
0.2420

> <Gold.PLP.Chemscore.Hbond>
1.0000

> <Gold.PLP.Chemscore.CHOScore>
0.0000

> <Gold.PLP.Chemscore.Metal>
0.0000

> <Gold.Chemscore.Hbonds>
donor molecule, donor type, donor heavy atom, donor atom, acceptor molecule, acceptor atom, score
      P1  H  6896  6907       L1     3  1.00

> <Gold.PLP.Chemscore.Internal.Correction>
0.0328

> <Gold.Rescore>
     Score         DG    S(hbond)    S(metal)    S(lipo)     H(rot)  DE(clash)    DE(int)     intcor
     13.44     -15.29       1.00        0.00     108.73       2.44       0.06       1.79       ----

> <Gold.Chemscore.Fitness>
13.4405

> <Gold.Chemscore.DG>
-15.2862

> <Gold.Chemscore.ZeroCoef>
-5.4800

> <Gold.Chemscore.Hbond>
0.9972

> <Gold.Chemscore.Metal>
0.0000

> <Gold.Chemscore.Lipo>
108.7348

> <Gold.Chemscore.Internal_Hbond>
0.0000

> <Gold.Chemscore.DEClash>
0.0605

> <Gold.Chemscore.DEInternal>
1.7852

> <Gold.Chemscore.Rot>
2.4400

> <Gold.Chemscore.Internal.Correction>
   9.000000E+99

> <Gold.Chemscore.Hbonds>
donor molecule, donor type, donor heavy atom, donor atom, acceptor molecule, acceptor atom, score
      P1  H  6896  6907       L1     3  0.98

> <Gold.Chemscore.Hbond.Weighted>
-3.3307

> <Gold.Chemscore.Metal.Weighted>
-0.0000

> <Gold.Chemscore.Lipo.Weighted>
-12.7220

> <Gold.Chemscore.Internal_Hbond.Weighted>
0.0000

> <Gold.Chemscore.DEClash.Weighted>
0.0605

> <Gold.Chemscore.DEInternal.Weighted>
1.7852

> <Gold.Chemscore.Rot.Weighted>
6.2465

> <Gold.Chemscore.Internal.Correction.Weighted>
   9.000000E+99

> <Gold.Protein.RotatedTorsions>
[ 6907 6896 6895 6894 ] final   91.62 input  -60.11 | X-H torsion
[ 7974 7965 7964 7962 ] final  156.82 input  175.53 | X-H torsion
[ 8008 7997 7996 7995 ] final -117.96 input   59.86 | X-H torsion
[ 10167 10162 10161 10158 ] final  -46.88 input  -65.29 | X-H torsion
[ 10718 10713 10712 10709 ] final -151.82 input   66.30 | X-H torsion
[ 10763 10752 10751 10750 ] final -136.21 input  -60.55 | X-H torsion
[ 11005 11000 10999 10996 ] final  105.23 input  -57.11 | X-H torsion

> <Gold.Protein.ActiveResidues>
 VAL166  LYS551  ARG553  GLY616  TRP617  ASP618  TYR619  PRO620  LYS621  CYS622 
 ASP623  PHE694  ASN695  SER759  ASP760  ASP761  ALA762  ILE779  LEU786  VAL792 
 PHE793  MET794  SER795  GLU796  ALA797  LYS798  CYS799  TRP800  GLU811  SER814 

> <Gold.Protein.RotatedAtoms>
  152.5450  134.1628  159.8564 H   0  0  0  0  0  0  0  0  0  0  0  0  # atno 6907 bound_to 6896
  151.1645  133.4817  159.2601 H   0  0  0  0  0  0  0  0  0  0  0  0  # atno 6908 bound_to 6896
  151.1338  135.0155  159.8650 H   0  0  0  0  0  0  0  0  0  0  0  0  # atno 6909 bound_to 6896
  144.7940  139.7256  143.6209 H   0  0  0  0  0  0  0  0  0  0  0  0  # atno 7974 bound_to 7965
  155.0920  140.0395  157.2671 H   0  0  0  0  0  0  0  0  0  0  0  0  # atno 8008 bound_to 7997
  154.6824  140.2636  155.6870 H   0  0  0  0  0  0  0  0  0  0  0  0  # atno 8009 bound_to 7997
  156.2699  140.2776  156.1373 H   0  0  0  0  0  0  0  0  0  0  0  0  # atno 8010 bound_to 7997
  140.6799  143.2810  151.3846 H   0  0  0  0  0  0  0  0  0  0  0  0  # atno 10167 bound_to 10162
  156.4644  130.8228  151.2459 H   0  0  0  0  0  0  0  0  0  0  0  0  # atno 10718 bound_to 10713
  154.8688  135.3679  154.5023 H   0  0  0  0  0  0  0  0  0  0  0  0  # atno 10763 bound_to 10752
  153.5663  135.7022  153.5529 H   0  0  0  0  0  0  0  0  0  0  0  0  # atno 10764 bound_to 10752
  153.3582  135.4053  155.1661 H   0  0  0  0  0  0  0  0  0  0  0  0  # atno 10765 bound_to 10752
  139.8800  134.9328  156.5482 H   0  0  0  0  0  0  0  0  0  0  0  0  # atno 11005 bound_to 11000
  146.2202  139.5622  142.9623 LP  0  0  0  0  0  0  0  0  0  0  0  0  # atno 17320 bound_to 7965
  145.5721  141.0393  143.2168 LP  0  0  0  0  0  0  0  0  0  0  0  0  # atno 17321 bound_to 7965
  139.6114  144.1090  152.2303 LP  0  0  0  0  0  0  0  0  0  0  0  0  # atno 17342 bound_to 10162
  140.0505  144.5936  150.7340 LP  0  0  0  0  0  0  0  0  0  0  0  0  # atno 17343 bound_to 10162
  157.7496  131.0097  150.3276 LP  0  0  0  0  0  0  0  0  0  0  0  0  # atno 17370 bound_to 10713
  156.3683  130.3859  149.7195 LP  0  0  0  0  0  0  0  0  0  0  0  0  # atno 17371 bound_to 10713
  140.8260  133.8316  155.8939 LP  0  0  0  0  0  0  0  0  0  0  0  0  # atno 17394 bound_to 11000
  140.9374  134.1945  157.4822 LP  0  0  0  0  0  0  0  0  0  0  0  0  # atno 17395 bound_to 11000

$$$$
