AV-unprocessed.smi:1761|AV-procd|sdf|7098|dock10
  -GOLD-   22720 8313D 1   1.00000     0.00000
 Structure written by MMmdl.
 34 35  0  0  0  0  0  0  0  0  1 V2000
  149.6518  140.4241  157.1844 O   0  0  0  0  0  0  0  0  0  0  0  0
  149.4743  141.5435  156.7029 C   0  0  0  0  0  0  0  0  0  0  0  0
  148.8495  141.7991  155.5401 N   0  0  0  0  0  0  0  0  0  0  0  0
  148.2921  140.8717  154.6199 C   0  0  0  0  0  0  0  0  0  0  0  0
  147.4073  141.4309  153.6701 C   0  0  0  0  0  0  0  0  0  0  0  0
  146.8029  140.5960  152.7105 C   0  0  0  0  0  0  0  0  0  0  0  0
  147.0998  139.2216  152.7248 C   0  0  0  0  0  0  0  0  0  0  0  0
  147.9912  138.7456  153.7039 C   0  0  0  0  0  0  0  0  0  0  0  0
  148.5714  139.5440  154.6247 N   0  0  0  0  0  0  0  0  0  0  0  0
  149.8852  142.6774  157.2893 N   0  0  0  0  0  0  0  0  0  0  0  0
  150.5874  142.7664  158.5681 C   0  0  1  0  0  0  0  0  0  0  0  0
  151.8587  141.8974  158.4722 C   0  0  0  0  0  0  0  0  0  0  0  0
  152.7511  142.0355  159.7139 C   0  0  0  0  0  0  0  0  0  0  0  0
  153.1240  143.5033  159.9601 C   0  0  0  0  0  0  0  0  0  0  0  0
  151.8629  144.3654  160.1062 C   0  0  0  0  0  0  0  0  0  0  0  0
  150.9403  144.2416  158.8781 C   0  0  2  0  0  0  0  0  0  0  0  0
  149.7618  144.9698  159.1597 O   0  0  0  0  0  0  0  0  0  0  0  0
  148.7662  142.7708  155.2807 H   0  0  0  0  0  0  0  0  0  0  0  0
  147.1908  142.4895  153.6732 H   0  0  0  0  0  0  0  0  0  0  0  0
  146.1234  141.0045  151.9772 H   0  0  0  0  0  0  0  0  0  0  0  0
  146.6565  138.5499  152.0048 H   0  0  0  0  0  0  0  0  0  0  0  0
  148.2458  137.6972  153.7495 H   0  0  0  0  0  0  0  0  0  0  0  0
  149.6903  143.5500  156.8209 H   0  0  0  0  0  0  0  0  0  0  0  0
  149.9731  142.3684  159.3784 H   0  0  0  0  0  0  0  0  0  0  0  0
  151.5842  140.8511  158.3334 H   0  0  0  0  0  0  0  0  0  0  0  0
  152.4348  142.1821  157.5902 H   0  0  0  0  0  0  0  0  0  0  0  0
  152.2318  141.6351  160.5855 H   0  0  0  0  0  0  0  0  0  0  0  0
  153.6548  141.4379  159.5904 H   0  0  0  0  0  0  0  0  0  0  0  0
  153.7379  143.5866  160.8574 H   0  0  0  0  0  0  0  0  0  0  0  0
  153.7300  143.8743  159.1327 H   0  0  0  0  0  0  0  0  0  0  0  0
  151.3257  144.0582  161.0050 H   0  0  0  0  0  0  0  0  0  0  0  0
  152.1457  145.4077  160.2575 H   0  0  0  0  0  0  0  0  0  0  0  0
  151.4311  144.6950  158.0155 H   0  0  0  0  0  0  0  0  0  0  0  0
  149.4229  145.3188  158.3493 H   0  0  0  0  0  0  0  0  0  0  0  0
  1  2  2  0  0  0  0
  2  3  1  0  0  0  0
  2 10  1  0  0  0  0
  3  4  1  0  0  0  0
  3 18  1  0  0  0  0
  4  9  1  0  0  0  0
  4  5  2  0  0  0  0
  5  6  1  0  0  0  0
  5 19  1  0  0  0  0
  6  7  2  0  0  0  0
  6 20  1  0  0  0  0
  7  8  1  0  0  0  0
  7 21  1  0  0  0  0
  8  9  2  0  0  0  0
  8 22  1  0  0  0  0
 10 11  1  0  0  0  0
 10 23  1  0  0  0  0
 11 16  1  0  0  0  0
 11 12  1  0  0  0  0
 11 24  1  0  0  0  0
 12 13  1  0  0  0  0
 12 25  1  0  0  0  0
 12 26  1  0  0  0  0
 13 14  1  0  0  0  0
 13 27  1  0  0  0  0
 13 28  1  0  0  0  0
 14 15  1  0  0  0  0
 14 29  1  0  0  0  0
 14 30  1  0  0  0  0
 15 16  1  0  0  0  0
 15 31  1  0  0  0  0
 15 32  1  0  0  0  0
 16 17  1  0  0  0  0
 16 33  1  0  0  0  0
 17 34  1  0  0  0  0
M  END
> <s_m_source_file>
AV-unprocessed.smi

> <i_m_source_file_index>
1761

> <i_lp_mmshare_version>
43012

> <i_f3d_flags>
0

> <s_epik_input>
bjFbY0hdW2NIXVtjSF1bY0hdYzFbTkhdQyg9TylbTkhdW0NAQEhdMltDSDJdW0NIMl1bQ0gyXVtDSDJdW0NASF0yW09IXQ==

> <s_epik_cmdline>
J2VwaWtfcHl0aG9uJywgJy1waCcsICc3LjAnLCAnLXRuJywgJzgnLCAnLW1hJywgJzIwMCcsICctbWV0YWxfYmluZGluZycsICctaW1hZScsICc8aW5maWxlLm1hZT4nLCAnLW9tYWUnLCAnPG91dGZpbGUubWFlPic=

> <r_lp_tautomer_probability>
1

> <r_epik_Ionization_Penalty>
4.92589e-05

> <r_epik_Ionization_Penalty_Charging>
0

> <r_epik_Ionization_Penalty_Neutral>
4.92589e-05

> <r_epik_State_Penalty>
-0

> <r_epik_Charging_Adjusted_Penalty>
0

> <i_epik_Tot_Q>
0

> <i_epik_Tot_abs_Q>
0

> <r_epik_Metal_State_Penalty>
-0

> <b_epik_Metal_Only>
0

> <s_lp_Force_Field>
OPLS_2005

> <r_lp_Energy>
12.6575

> <b_lp_Chiralities_Consistent>
1

> <s_lp_Variant>
AV-unprocessed.smi:1761-4

> <Gold.Version>
5.8.1

> <Gold.Id.Protein>
6NUR|6NUR_protein|mol2

> <Gold.PLP.Fitness>
43.6930

> <Gold.PLP.PLP>
-32.0185

> <Gold.PLP.part.hbond>
-3.0000

> <Gold.PLP.part.metal>
0.0000

> <Gold.PLP.part.buried>
-2.4297

> <Gold.PLP.part.nonpolar>
-27.1711

> <Gold.PLP.part.repulsive>
0.2573

> <Gold.PLP.ligand.clash>
0.0000

> <Gold.PLP.ligand.torsion>
0.0642

> <Gold.PLP.Chemscore.Hbond>
3.0000

> <Gold.PLP.Chemscore.CHOScore>
0.9339

> <Gold.PLP.Chemscore.Metal>
0.0000

> <Gold.Chemscore.Hbonds>
donor molecule, donor type, donor heavy atom, donor atom, acceptor molecule, acceptor atom, score
      L1  H     3    18       P1  8028  1.00
      L1  H    10    23       P1  8028  1.00
      L1  H    17    34       P1  8029  1.00
      L1  C     8    22       P1  7948  0.94

> <Gold.PLP.Chemscore.Internal.Correction>
0.0011

> <Gold.Rescore>
     Score         DG    S(hbond)    S(metal)    S(lipo)     H(rot)  DE(clash)    DE(int)     intcor
     19.03     -21.63       2.80        0.00      90.05       1.47       0.13       2.47       ----

> <Gold.Chemscore.Fitness>
19.0316

> <Gold.Chemscore.DG>
-21.6284

> <Gold.Chemscore.ZeroCoef>
-5.4800

> <Gold.Chemscore.Hbond>
2.8036

> <Gold.Chemscore.Metal>
0.0000

> <Gold.Chemscore.Lipo>
90.0456

> <Gold.Chemscore.Internal_Hbond>
0.0000

> <Gold.Chemscore.DEClash>
0.1252

> <Gold.Chemscore.DEInternal>
2.4716

> <Gold.Chemscore.Rot>
1.4653

> <Gold.Chemscore.Internal.Correction>
   9.000000E+99

> <Gold.Chemscore.Hbonds>
donor molecule, donor type, donor heavy atom, donor atom, acceptor molecule, acceptor atom, score
      L1  H     3    18       P1  8028  0.95
      L1  H    10    23       P1  8028  0.99
      L1  H    17    34       P1  8029  0.66

> <Gold.Chemscore.Hbond.Weighted>
-9.3642

> <Gold.Chemscore.Metal.Weighted>
-0.0000

> <Gold.Chemscore.Lipo.Weighted>
-10.5353

> <Gold.Chemscore.Internal_Hbond.Weighted>
0.0000

> <Gold.Chemscore.DEClash.Weighted>
0.1252

> <Gold.Chemscore.DEInternal.Weighted>
2.4716

> <Gold.Chemscore.Rot.Weighted>
3.7511

> <Gold.Chemscore.Internal.Correction.Weighted>
   9.000000E+99

> <Gold.Protein.RotatedTorsions>
[ 6907 6896 6895 6894 ] final -137.68 input  -60.11 | X-H torsion
[ 7974 7965 7964 7962 ] final    5.67 input  175.53 | X-H torsion
[ 8008 7997 7996 7995 ] final   59.39 input   59.86 | X-H torsion
[ 10167 10162 10161 10158 ] final   43.33 input  -65.29 | X-H torsion
[ 10718 10713 10712 10709 ] final  151.00 input   66.30 | X-H torsion
[ 10763 10752 10751 10750 ] final   91.46 input  -60.55 | X-H torsion
[ 11005 11000 10999 10996 ] final   42.33 input  -57.11 | X-H torsion

> <Gold.Protein.ActiveResidues>
 VAL166  LYS551  ARG553  GLY616  TRP617  ASP618  TYR619  PRO620  LYS621  CYS622 
 ASP623  PHE694  ASN695  SER759  ASP760  ASP761  ALA762  ILE779  LEU786  VAL792 
 PHE793  MET794  SER795  GLU796  ALA797  LYS798  CYS799  TRP800  GLU811  SER814 

> <Gold.Protein.RotatedAtoms>
  151.0256  133.5837  159.2666 H   0  0  0  0  0  0  0  0  0  0  0  0  # atno 6907 bound_to 6896
  151.2938  135.0748  159.9223 H   0  0  0  0  0  0  0  0  0  0  0  0  # atno 6908 bound_to 6896
  152.5333  133.9949  159.7922 H   0  0  0  0  0  0  0  0  0  0  0  0  # atno 6909 bound_to 6896
  146.2439  140.0349  142.8387 H   0  0  0  0  0  0  0  0  0  0  0  0  # atno 7974 bound_to 7965
  155.5654  140.3489  155.4501 H   0  0  0  0  0  0  0  0  0  0  0  0  # atno 8008 bound_to 7997
  156.0484  140.1312  157.0104 H   0  0  0  0  0  0  0  0  0  0  0  0  # atno 8009 bound_to 7997
  154.4423  140.1010  156.6325 H   0  0  0  0  0  0  0  0  0  0  0  0  # atno 8010 bound_to 7997
  140.3454  144.2417  150.6151 H   0  0  0  0  0  0  0  0  0  0  0  0  # atno 10167 bound_to 10162
  157.2763  131.0827  151.1563 H   0  0  0  0  0  0  0  0  0  0  0  0  # atno 10718 bound_to 10713
  153.2085  135.4397  155.0351 H   0  0  0  0  0  0  0  0  0  0  0  0  # atno 10763 bound_to 10752
  154.8187  135.3327  154.7105 H   0  0  0  0  0  0  0  0  0  0  0  0  # atno 10764 bound_to 10752
  153.7544  135.6996  153.4994 H   0  0  0  0  0  0  0  0  0  0  0  0  # atno 10765 bound_to 10752
  140.1749  134.4176  155.8235 H   0  0  0  0  0  0  0  0  0  0  0  0  # atno 11005 bound_to 11000
  145.1121  140.9411  143.4650 LP  0  0  0  0  0  0  0  0  0  0  0  0  # atno 17320 bound_to 7965
  145.0565  139.3139  143.5902 LP  0  0  0  0  0  0  0  0  0  0  0  0  # atno 17321 bound_to 7965
  140.5269  143.2252  151.8300 LP  0  0  0  0  0  0  0  0  0  0  0  0  # atno 17342 bound_to 10162
  139.4834  144.4768  151.9357 LP  0  0  0  0  0  0  0  0  0  0  0  0  # atno 17343 bound_to 10162
  157.3015  130.6845  149.6166 LP  0  0  0  0  0  0  0  0  0  0  0  0  # atno 17370 bound_to 10713
  155.9664  130.4390  150.5243 LP  0  0  0  0  0  0  0  0  0  0  0  0  # atno 17371 bound_to 10713
  141.2220  133.6973  156.7828 LP  0  0  0  0  0  0  0  0  0  0  0  0  # atno 17394 bound_to 11000
  140.2334  134.8668  157.3500 LP  0  0  0  0  0  0  0  0  0  0  0  0  # atno 17395 bound_to 11000

$$$$
