AV-unprocessed.smi:33|AV-procd|sdf|207|dock9
  -GOLD-   2262015493D 1   1.00000     0.00000
 Structure written by MMmdl.
 67 72  0  0  0  0  0  0  0  0  1 V2000
  152.2000  140.0066  156.7403 O   0  0  0  0  0  0  0  0  0  0  0  0
  151.4573  140.9865  156.8301 C   0  0  0  0  0  0  0  0  0  0  0  0
  150.3860  141.1854  156.0370 O   0  0  0  0  0  0  0  0  0  0  0  0
  150.0354  140.2179  155.0610 C   0  0  0  0  0  0  0  0  0  0  0  0
  148.9834  140.8081  154.1071 C   0  0  2  0  0  0  0  0  0  0  0  0
  148.3370  141.9051  154.7455 O   0  0  0  0  0  0  0  0  0  0  0  0
  147.2407  141.4449  155.4774 C   0  0  1  0  0  0  0  0  0  0  0  0
  146.1141  142.4188  155.3145 N   0  0  0  0  0  0  0  0  0  0  0  0
  145.9303  143.3184  154.2875 C   0  0  0  0  0  0  0  0  0  0  0  0
  144.8604  144.0613  154.3762 N   0  0  0  0  0  0  0  0  0  0  0  0
  144.2608  143.6448  155.5574 C   0  0  0  0  0  0  0  0  0  0  0  0
  143.0815  144.0248  156.2545 C   0  0  0  0  0  0  0  0  0  0  0  0
  142.2418  144.9928  155.8147 N   0  0  0  0  0  0  0  0  0  0  0  0
  140.9998  144.5582  155.1581 C   0  0  0  0  0  0  0  0  0  0  0  0
  140.9480  143.4463  154.6288 O   0  0  0  0  0  0  0  0  0  0  0  0
  139.8130  145.4777  155.0881 C   0  0  0  0  0  0  0  0  0  0  0  0
  139.6568  146.5042  156.0452 C   0  0  0  0  0  0  0  0  0  0  0  0
  138.5542  147.3778  155.9762 C   0  0  0  0  0  0  0  0  0  0  0  0
  137.6107  147.2417  154.9402 C   0  0  0  0  0  0  0  0  0  0  0  0
  137.7751  146.2381  153.9667 C   0  0  0  0  0  0  0  0  0  0  0  0
  138.8779  145.3648  154.0344 C   0  0  0  0  0  0  0  0  0  0  0  0
  142.6548  146.3894  156.0189 C   0  0  0  0  0  0  0  0  0  0  0  0
  142.2389  147.2634  155.2557 O   0  0  0  0  0  0  0  0  0  0  0  0
  143.6243  146.7462  157.1105 C   0  0  0  0  0  0  0  0  0  0  0  0
  144.5681  147.7771  156.9087 C   0  0  0  0  0  0  0  0  0  0  0  0
  145.4689  148.1263  157.9336 C   0  0  0  0  0  0  0  0  0  0  0  0
  145.4190  147.4606  159.1731 C   0  0  0  0  0  0  0  0  0  0  0  0
  144.4622  146.4510  159.3907 C   0  0  0  0  0  0  0  0  0  0  0  0
  143.5622  146.1004  158.3660 C   0  0  0  0  0  0  0  0  0  0  0  0
  142.7935  143.3816  157.4159 N   0  0  0  0  0  0  0  0  0  0  0  0
  143.6096  142.4241  157.8650 C   0  0  0  0  0  0  0  0  0  0  0  0
  144.7394  141.9677  157.3204 N   0  0  0  0  0  0  0  0  0  0  0  0
  145.0351  142.6116  156.1543 C   0  0  0  0  0  0  0  0  0  0  0  0
  146.8987  140.0277  154.9714 C   0  0  1  0  0  0  0  0  0  0  0  0
  145.5419  139.8013  154.6339 O   0  0  0  0  0  0  0  0  0  0  0  0
  147.8333  139.8520  153.7824 C   0  0  1  0  0  0  0  0  0  0  0  0
  147.2601  140.2624  152.6495 F   0  0  0  0  0  0  0  0  0  0  0  0
  151.6485  142.0759  157.8304 C   0  0  0  0  0  0  0  0  0  0  0  0
  151.1620  143.3731  157.5445 C   0  0  0  0  0  0  0  0  0  0  0  0
  151.3300  144.4221  158.4692 C   0  0  0  0  0  0  0  0  0  0  0  0
  151.9843  144.1862  159.6921 C   0  0  0  0  0  0  0  0  0  0  0  0
  152.4702  142.8995  159.9897 C   0  0  0  0  0  0  0  0  0  0  0  0
  152.3051  141.8497  159.0654 C   0  0  0  0  0  0  0  0  0  0  0  0
  150.9223  139.8958  154.5141 H   0  0  0  0  0  0  0  0  0  0  0  0
  149.6238  139.3400  155.5610 H   0  0  0  0  0  0  0  0  0  0  0  0
  149.4777  141.1593  153.2005 H   0  0  0  0  0  0  0  0  0  0  0  0
  147.4644  141.4645  156.5449 H   0  0  0  0  0  0  0  0  0  0  0  0
  146.6229  143.4091  153.4633 H   0  0  0  0  0  0  0  0  0  0  0  0
  140.3747  146.6179  156.8447 H   0  0  0  0  0  0  0  0  0  0  0  0
  138.4330  148.1533  156.7182 H   0  0  0  0  0  0  0  0  0  0  0  0
  136.7649  147.9113  154.8879 H   0  0  0  0  0  0  0  0  0  0  0  0
  137.0565  146.1386  153.1666 H   0  0  0  0  0  0  0  0  0  0  0  0
  138.9970  144.6019  153.2783 H   0  0  0  0  0  0  0  0  0  0  0  0
  144.6150  148.2954  155.9618 H   0  0  0  0  0  0  0  0  0  0  0  0
  146.1976  148.9063  157.7691 H   0  0  0  0  0  0  0  0  0  0  0  0
  146.1098  147.7290  159.9588 H   0  0  0  0  0  0  0  0  0  0  0  0
  144.4174  145.9464  160.3445 H   0  0  0  0  0  0  0  0  0  0  0  0
  142.8286  145.3277  158.5466 H   0  0  0  0  0  0  0  0  0  0  0  0
  143.3156  141.9564  158.7929 H   0  0  0  0  0  0  0  0  0  0  0  0
  147.1807  139.3263  155.7574 H   0  0  0  0  0  0  0  0  0  0  0  0
  145.3409  140.3086  153.8616 H   0  0  0  0  0  0  0  0  0  0  0  0
  148.1490  138.8197  153.6278 H   0  0  0  0  0  0  0  0  0  0  0  0
  150.6568  143.5785  156.6117 H   0  0  0  0  0  0  0  0  0  0  0  0
  150.9565  145.4091  158.2393 H   0  0  0  0  0  0  0  0  0  0  0  0
  152.1132  144.9905  160.4013 H   0  0  0  0  0  0  0  0  0  0  0  0
  152.9709  142.7165  160.9292 H   0  0  0  0  0  0  0  0  0  0  0  0
  152.6896  140.8745  159.3260 H   0  0  0  0  0  0  0  0  0  0  0  0
  1  2  2  0  0  0  0
  2  3  1  0  0  0  0
  2 38  1  0  0  0  0
  3  4  1  0  0  0  0
  4  5  1  0  0  0  0
  4 44  1  0  0  0  0
  4 45  1  0  0  0  0
  5 36  1  0  0  0  0
  5  6  1  0  0  0  0
  5 46  1  0  0  0  0
  6  7  1  0  0  0  0
  7  8  1  0  0  0  0
  7 34  1  0  0  0  0
  7 47  1  0  0  0  0
  8 33  1  0  0  0  0
  8  9  1  0  0  0  0
  9 10  2  0  0  0  0
  9 48  1  0  0  0  0
 10 11  1  0  0  0  0
 11 33  2  0  0  0  0
 11 12  1  0  0  0  0
 12 13  1  0  0  0  0
 12 30  2  0  0  0  0
 13 14  1  0  0  0  0
 13 22  1  0  0  0  0
 14 15  2  0  0  0  0
 14 16  1  0  0  0  0
 16 21  1  0  0  0  0
 16 17  2  0  0  0  0
 17 18  1  0  0  0  0
 17 49  1  0  0  0  0
 18 19  2  0  0  0  0
 18 50  1  0  0  0  0
 19 20  1  0  0  0  0
 19 51  1  0  0  0  0
 20 21  2  0  0  0  0
 20 52  1  0  0  0  0
 21 53  1  0  0  0  0
 22 23  2  0  0  0  0
 22 24  1  0  0  0  0
 24 29  1  0  0  0  0
 24 25  2  0  0  0  0
 25 26  1  0  0  0  0
 25 54  1  0  0  0  0
 26 27  2  0  0  0  0
 26 55  1  0  0  0  0
 27 28  1  0  0  0  0
 27 56  1  0  0  0  0
 28 29  2  0  0  0  0
 28 57  1  0  0  0  0
 29 58  1  0  0  0  0
 30 31  1  0  0  0  0
 31 32  2  0  0  0  0
 31 59  1  0  0  0  0
 32 33  1  0  0  0  0
 34 35  1  0  0  0  0
 34 36  1  0  0  0  0
 34 60  1  0  0  0  0
 35 61  1  0  0  0  0
 36 37  1  0  0  0  0
 36 62  1  0  0  0  0
 38 43  1  0  0  0  0
 38 39  2  0  0  0  0
 39 40  1  0  0  0  0
 39 63  1  0  0  0  0
 40 41  2  0  0  0  0
 40 64  1  0  0  0  0
 41 42  1  0  0  0  0
 41 65  1  0  0  0  0
 42 43  2  0  0  0  0
 42 66  1  0  0  0  0
 43 67  1  0  0  0  0
M  END
> <s_m_source_file>
AV-unprocessed.smi

> <i_m_source_file_index>
33

> <i_lp_mmshare_version>
43012

> <i_f3d_flags>
0

> <s_epik_input>
W2NIXTFbY0hdW2NIXVtjSF1bY0hdYzFDKD1PKU9bQ0gyXVtDQEBIXTJPW0NASF0oW0NAQEhdKFtPSF0pW0NAQEhdMkYpbihbY0hdbjMpYyhjMzQpbltjSF1uYzROKEMoPU8pYzVbY0hdW2NIXVtjSF1bY0hdW2NIXTUpQyg9TyljNltjSF1bY0hdW2NIXVtjSF1bY0hdNg==

> <s_epik_cmdline>
J2VwaWtfcHl0aG9uJywgJy1waCcsICc3LjAnLCAnLXRuJywgJzgnLCAnLW1hJywgJzIwMCcsICctbWV0YWxfYmluZGluZycsICctaW1hZScsICc8aW5maWxlLm1hZT4nLCAnLW9tYWUnLCAnPG91dGZpbGUubWFlPic=

> <r_lp_tautomer_probability>
1

> <r_epik_Ionization_Penalty>
0.00067664

> <r_epik_Ionization_Penalty_Charging>
0

> <r_epik_Ionization_Penalty_Neutral>
0.00067664

> <r_epik_State_Penalty>
0.000428095

> <r_epik_Charging_Adjusted_Penalty>
0.000428095

> <i_epik_Tot_Q>
0

> <i_epik_Tot_abs_Q>
0

> <r_epik_Metal_State_Penalty>
-0

> <b_epik_Metal_Only>
0

> <s_epik_Chemistry_Notes>
This compound has an ester and may undergo hydrolysis at high or low pH. This compound contains an acetal/aminal-like group ( X-CH(R)-Y where X, Y are N, S, or O) that may be acid/base labile, releasing an aldehyde.

> <s_lp_Force_Field>
OPLS_2005

> <r_lp_Energy>
79.5237

> <b_lp_Chiralities_Consistent>
1

> <s_lp_Variant>
AV-unprocessed.smi:33-9

> <Gold.Version>
5.8.1

> <Gold.Id.Protein>
6NUR|6NUR_protein|mol2

> <Gold.PLP.Fitness>
63.8908

> <Gold.PLP.PLP>
-64.7575

> <Gold.PLP.part.hbond>
-2.0000

> <Gold.PLP.part.metal>
0.0000

> <Gold.PLP.part.buried>
-2.2576

> <Gold.PLP.part.nonpolar>
-61.1752

> <Gold.PLP.part.repulsive>
1.3179

> <Gold.PLP.ligand.clash>
0.0134

> <Gold.PLP.ligand.torsion>
4.3064

> <Gold.PLP.Chemscore.Hbond>
1.3607

> <Gold.PLP.Chemscore.CHOScore>
0.0000

> <Gold.PLP.Chemscore.Metal>
0.0000

> <Gold.Chemscore.Hbonds>
donor molecule, donor type, donor heavy atom, donor atom, acceptor molecule, acceptor atom, score
      L1  H    35    61       P1 10175  0.49
      P1  H  7997  8009       L1     1  0.68

> <Gold.PLP.Chemscore.Internal.Correction>
3.6773

> <Gold.Rescore>
     Score         DG    S(hbond)    S(metal)    S(lipo)     H(rot)  DE(clash)    DE(int)     intcor
     11.24     -21.91       0.97        0.00     168.05       2.52       1.26       9.41       ----

> <Gold.Chemscore.Fitness>
11.2374

> <Gold.Chemscore.DG>
-21.9090

> <Gold.Chemscore.ZeroCoef>
-5.4800

> <Gold.Chemscore.Hbond>
0.9673

> <Gold.Chemscore.Metal>
0.0000

> <Gold.Chemscore.Lipo>
168.0477

> <Gold.Chemscore.Internal_Hbond>
0.0000

> <Gold.Chemscore.DEClash>
1.2603

> <Gold.Chemscore.DEInternal>
9.4114

> <Gold.Chemscore.Rot>
2.5247

> <Gold.Chemscore.Internal.Correction>
   9.000000E+99

> <Gold.Chemscore.Hbonds>
donor molecule, donor type, donor heavy atom, donor atom, acceptor molecule, acceptor atom, score
      L1  H    35    61       P1 10175  0.49
      P1  H  7997  8009       L1     1  0.68

> <Gold.Chemscore.Hbond.Weighted>
-3.2307

> <Gold.Chemscore.Metal.Weighted>
-0.0000

> <Gold.Chemscore.Lipo.Weighted>
-19.6616

> <Gold.Chemscore.Internal_Hbond.Weighted>
0.0000

> <Gold.Chemscore.DEClash.Weighted>
1.2603

> <Gold.Chemscore.DEInternal.Weighted>
9.4114

> <Gold.Chemscore.Rot.Weighted>
6.4633

> <Gold.Chemscore.Internal.Correction.Weighted>
   9.000000E+99

> <Gold.Protein.RotatedTorsions>
[ 6907 6896 6895 6894 ] final    4.35 input  -60.11 | X-H torsion
[ 7974 7965 7964 7962 ] final  127.52 input  175.53 | X-H torsion
[ 8008 7997 7996 7995 ] final -167.10 input   59.86 | X-H torsion
[ 10167 10162 10161 10158 ] final -160.12 input  -65.29 | X-H torsion
[ 10718 10713 10712 10709 ] final -125.97 input   66.30 | X-H torsion
[ 10763 10752 10751 10750 ] final  164.39 input  -60.55 | X-H torsion
[ 11005 11000 10999 10996 ] final  -17.21 input  -57.11 | X-H torsion

> <Gold.Protein.ActiveResidues>
 VAL166  LYS551  ARG553  GLY616  TRP617  ASP618  TYR619  PRO620  LYS621  CYS622 
 ASP623  PHE694  ASN695  SER759  ASP760  ASP761  ALA762  ILE779  LEU786  VAL792 
 PHE793  MET794  SER795  GLU796  ALA797  LYS798  CYS799  TRP800  GLU811  SER814 

> <Gold.Protein.RotatedAtoms>
  151.6398  135.1014  160.0138 H   0  0  0  0  0  0  0  0  0  0  0  0  # atno 6907 bound_to 6896
  152.4060  133.6886  159.6365 H   0  0  0  0  0  0  0  0  0  0  0  0  # atno 6908 bound_to 6896
  150.7955  133.8625  159.3276 H   0  0  0  0  0  0  0  0  0  0  0  0  # atno 6909 bound_to 6896
  145.0496  139.3894  143.5060 H   0  0  0  0  0  0  0  0  0  0  0  0  # atno 7974 bound_to 7965
  155.8731  140.0996  157.1537 H   0  0  0  0  0  0  0  0  0  0  0  0  # atno 8008 bound_to 7997
  154.3998  140.1343  156.4166 H   0  0  0  0  0  0  0  0  0  0  0  0  # atno 8009 bound_to 7997
  155.7728  140.3460  155.5258 H   0  0  0  0  0  0  0  0  0  0  0  0  # atno 8010 bound_to 7997
  139.6563  143.9992  152.2196 H   0  0  0  0  0  0  0  0  0  0  0  0  # atno 10167 bound_to 10162
  156.1723  130.6676  151.0196 H   0  0  0  0  0  0  0  0  0  0  0  0  # atno 10718 bound_to 10713
  154.3082  135.2758  155.2578 H   0  0  0  0  0  0  0  0  0  0  0  0  # atno 10763 bound_to 10752
  154.4985  135.5814  153.6516 H   0  0  0  0  0  0  0  0  0  0  0  0  # atno 10764 bound_to 10752
  152.9891  135.6152  154.3258 H   0  0  0  0  0  0  0  0  0  0  0  0  # atno 10765 bound_to 10752
  140.8146  133.8115  155.9597 H   0  0  0  0  0  0  0  0  0  0  0  0  # atno 11005 bound_to 11000
  146.3517  140.0140  142.8664 LP  0  0  0  0  0  0  0  0  0  0  0  0  # atno 17320 bound_to 7965
  145.1544  140.9640  143.4414 LP  0  0  0  0  0  0  0  0  0  0  0  0  # atno 17321 bound_to 7965
  139.9720  144.6487  150.7980 LP  0  0  0  0  0  0  0  0  0  0  0  0  # atno 17342 bound_to 10162
  140.7560  143.3058  151.2965 LP  0  0  0  0  0  0  0  0  0  0  0  0  # atno 17343 bound_to 10162
  157.6811  131.0837  150.7366 LP  0  0  0  0  0  0  0  0  0  0  0  0  # atno 17370 bound_to 10713
  156.7425  130.4743  149.5474 LP  0  0  0  0  0  0  0  0  0  0  0  0  # atno 17371 bound_to 10713
  140.9162  134.2198  157.4955 LP  0  0  0  0  0  0  0  0  0  0  0  0  # atno 17394 bound_to 11000
  139.8712  134.9772  156.4951 LP  0  0  0  0  0  0  0  0  0  0  0  0  # atno 17395 bound_to 11000

$$$$
