AV-unprocessed.smi:308|AV-procd|sdf|2287|dock2
  -GOLD-   2262022183D 1   1.00000     0.00000
 Structure written by MMmdl.
 50 51  0  0  0  0  0  0  0  0  2 V2000
  146.1104  132.1163  151.4310 C   0  0  0  0  0  0  0  0  0  0  0  0
  145.6445  133.4925  151.9262 C   0  0  2  0  0  0  0  0  0  0  0  0
  145.5191  134.5024  150.7734 C   0  0  0  0  0  0  0  0  0  0  0  0
  145.0793  135.8839  151.2872 C   0  0  0  0  0  0  0  0  0  0  0  0
  146.0110  136.3952  152.3251 N   0  3  1  0  0  0  0  0  0  0  0  0
  145.6782  137.7810  152.7445 C   0  0  0  0  0  0  0  0  0  0  0  0
  146.7135  138.8281  152.2794 C   0  0  0  0  0  0  0  0  0  0  0  0
  147.9334  138.8252  153.0832 N   0  0  0  0  0  0  0  0  0  0  0  0
  148.2854  139.7856  153.9496 C   0  0  0  0  0  0  0  0  0  0  0  0
  147.6127  140.7972  154.1418 O   0  0  0  0  0  0  0  0  0  0  0  0
  149.4460  139.4861  154.5578 N   0  0  0  0  0  0  0  0  0  0  0  0
  150.1662  140.2195  155.5413 C   0  0  0  0  0  0  0  0  0  0  0  0
  151.1814  139.6888  156.3713 C   0  0  0  0  0  0  0  0  0  0  0  0
  151.8103  140.5320  157.3076 C   0  0  0  0  0  0  0  0  0  0  0  0
  151.4109  141.8882  157.4024 C   0  0  0  0  0  0  0  0  0  0  0  0
  152.0136  142.7729  158.3258 N   0  0  0  0  0  0  0  0  0  0  0  0
  152.7070  142.2415  159.4949 C   0  0  0  0  0  0  0  0  0  0  0  0
  151.8509  144.2133  158.1725 C   0  0  0  0  0  0  0  0  0  0  0  0
  150.4305  142.3875  156.6111 N   0  0  0  0  0  0  0  0  0  0  0  0
  149.8326  141.5772  155.7140 C   0  0  0  0  0  0  0  0  0  0  0  0
  146.1304  135.4514  153.4674 C   0  0  0  0  0  0  0  0  0  0  0  0
  146.5912  134.0623  152.9951 C   0  0  0  0  0  0  0  0  0  0  0  0
  147.0957  132.1728  150.9675 H   0  0  0  0  0  0  0  0  0  0  0  0
  145.4184  131.7096  150.6931 H   0  0  0  0  0  0  0  0  0  0  0  0
  146.1698  131.4035  152.2538 H   0  0  0  0  0  0  0  0  0  0  0  0
  144.6586  133.3657  152.3766 H   0  0  0  0  0  0  0  0  0  0  0  0
  146.4745  134.5943  150.2543 H   0  0  0  0  0  0  0  0  0  0  0  0
  144.8016  134.1411  150.0360 H   0  0  0  0  0  0  0  0  0  0  0  0
  145.0449  136.5807  150.4487 H   0  0  0  0  0  0  0  0  0  0  0  0
  144.0697  135.8298  151.6977 H   0  0  0  0  0  0  0  0  0  0  0  0
  144.7113  138.0529  152.3190 H   0  0  0  0  0  0  0  0  0  0  0  0
  145.5515  137.8240  153.8271 H   0  0  0  0  0  0  0  0  0  0  0  0
  146.9634  138.6643  151.2301 H   0  0  0  0  0  0  0  0  0  0  0  0
  146.2847  139.8287  152.3293 H   0  0  0  0  0  0  0  0  0  0  0  0
  148.5378  138.0209  152.9941 H   0  0  0  0  0  0  0  0  0  0  0  0
  149.8540  138.5966  154.3099 H   0  0  0  0  0  0  0  0  0  0  0  0
  151.4927  138.6579  156.3226 H   0  0  0  0  0  0  0  0  0  0  0  0
  152.5835  140.1191  157.9375 H   0  0  0  0  0  0  0  0  0  0  0  0
  152.0117  141.7042  160.1405 H   0  0  0  0  0  0  0  0  0  0  0  0
  153.1633  143.0381  160.0825 H   0  0  0  0  0  0  0  0  0  0  0  0
  153.5004  141.5569  159.1933 H   0  0  0  0  0  0  0  0  0  0  0  0
  152.3291  144.5571  157.2550 H   0  0  0  0  0  0  0  0  0  0  0  0
  152.3004  144.7541  159.0056 H   0  0  0  0  0  0  0  0  0  0  0  0
  150.7939  144.4790  158.1371 H   0  0  0  0  0  0  0  0  0  0  0  0
  149.0602  142.0328  155.1116 H   0  0  0  0  0  0  0  0  0  0  0  0
  146.8472  135.8305  154.1952 H   0  0  0  0  0  0  0  0  0  0  0  0
  145.1700  135.3740  153.9801 H   0  0  0  0  0  0  0  0  0  0  0  0
  146.6435  133.3840  153.8476 H   0  0  0  0  0  0  0  0  0  0  0  0
  147.6037  134.1322  152.5942 H   0  0  0  0  0  0  0  0  0  0  0  0
  146.9198  136.4438  151.8868 H   0  0  0  0  0  0  0  0  0  0  0  0
  1  2  1  0  0  0  0
  1 23  1  0  0  0  0
  1 24  1  0  0  0  0
  1 25  1  0  0  0  0
  2 22  1  0  0  0  0
  2  3  1  0  0  0  0
  2 26  1  0  0  0  0
  3  4  1  0  0  0  0
  3 27  1  0  0  0  0
  3 28  1  0  0  0  0
  4  5  1  0  0  0  0
  4 29  1  0  0  0  0
  4 30  1  0  0  0  0
  5  6  1  0  0  0  0
  5 21  1  0  0  0  0
  5 50  1  0  0  0  0
  6  7  1  0  0  0  0
  6 31  1  0  0  0  0
  6 32  1  0  0  0  0
  7  8  1  0  0  0  0
  7 33  1  0  0  0  0
  7 34  1  0  0  0  0
  8  9  1  0  0  0  0
  8 35  1  0  0  0  0
  9 10  2  0  0  0  0
  9 11  1  0  0  0  0
 11 12  1  0  0  0  0
 11 36  1  0  0  0  0
 12 20  1  0  0  0  0
 12 13  2  0  0  0  0
 13 14  1  0  0  0  0
 13 37  1  0  0  0  0
 14 15  2  0  0  0  0
 14 38  1  0  0  0  0
 15 16  1  0  0  0  0
 15 19  1  0  0  0  0
 16 17  1  0  0  0  0
 16 18  1  0  0  0  0
 17 39  1  0  0  0  0
 17 40  1  0  0  0  0
 17 41  1  0  0  0  0
 18 42  1  0  0  0  0
 18 43  1  0  0  0  0
 18 44  1  0  0  0  0
 19 20  2  0  0  0  0
 20 45  1  0  0  0  0
 21 22  1  0  0  0  0
 21 46  1  0  0  0  0
 21 47  1  0  0  0  0
 22 48  1  0  0  0  0
 22 49  1  0  0  0  0
M  CHG  1   5   1
M  END
> <s_m_source_file>
AV-unprocessed.smi

> <i_m_source_file_index>
308

> <i_lp_mmshare_version>
43012

> <i_f3d_flags>
0

> <s_epik_input>
W0NIM11bQ0hdMVtDSDJdW0NIMl1OKFtDSDJdW0NIMl0xKVtDSDJdW0NIMl1bTkhdQyg9TylbTkhdYzJbY0hdW2NIXWMoTihbQ0gzXSlbQ0gzXSluW2NIXTI=

> <s_epik_cmdline>
J2VwaWtfcHl0aG9uJywgJy1waCcsICc3LjAnLCAnLXRuJywgJzgnLCAnLW1hJywgJzIwMCcsICctbWV0YWxfYmluZGluZycsICctaW1hZScsICc8aW5maWxlLm1hZT4nLCAnLW9tYWUnLCAnPG91dGZpbGUubWFlPic=

> <r_lp_tautomer_probability>
1

> <r_epik_Ionization_Penalty>
0.536661

> <r_epik_Ionization_Penalty_Charging>
0.00139388

> <r_epik_Ionization_Penalty_Neutral>
0.535267

> <r_epik_State_Penalty>
0.543381

> <r_epik_Charging_Adjusted_Penalty>
0.544775

> <i_epik_Tot_Q>
1

> <i_epik_Tot_abs_Q>
1

> <r_epik_Metal_State_Penalty>
0.284523

> <b_epik_Metal_Only>
0

> <s_lp_Force_Field>
OPLS_2005

> <r_lp_Energy>
27.2838

> <b_lp_Chiralities_Consistent>
1

> <s_lp_Variant>
AV-unprocessed.smi:308-3

> <Gold.Version>
5.8.1

> <Gold.Id.Protein>
6NUR|6NUR_protein|mol2

> <Gold.PLP.Fitness>
48.4402

> <Gold.PLP.PLP>
-41.5019

> <Gold.PLP.part.hbond>
-3.0000

> <Gold.PLP.part.metal>
0.0000

> <Gold.PLP.part.buried>
-4.4367

> <Gold.PLP.part.nonpolar>
-35.8310

> <Gold.PLP.part.repulsive>
1.2361

> <Gold.PLP.ligand.clash>
0.0000

> <Gold.PLP.ligand.torsion>
1.0748

> <Gold.PLP.Chemscore.Hbond>
2.7150

> <Gold.PLP.Chemscore.CHOScore>
0.2799

> <Gold.PLP.Chemscore.Metal>
0.0000

> <Gold.Chemscore.Hbonds>
donor molecule, donor type, donor heavy atom, donor atom, acceptor molecule, acceptor atom, score
      L1  H     5    50       P1  7948  2.00
      L1  H     8    35       P1  7948  0.67
      L1  C    20    45       P1  8028  0.30

> <Gold.PLP.Chemscore.Internal.Correction>
0.1033

> <Gold.Rescore>
     Score         DG    S(hbond)    S(metal)    S(lipo)     H(rot)  DE(clash)    DE(int)     intcor
     16.13     -18.63       1.80        0.00      92.24       1.42       0.14       2.36       ----

> <Gold.Chemscore.Fitness>
16.1305

> <Gold.Chemscore.DG>
-18.6333

> <Gold.Chemscore.ZeroCoef>
-5.4800

> <Gold.Chemscore.Hbond>
1.7985

> <Gold.Chemscore.Metal>
0.0000

> <Gold.Chemscore.Lipo>
92.2376

> <Gold.Chemscore.Internal_Hbond>
0.0000

> <Gold.Chemscore.DEClash>
0.1421

> <Gold.Chemscore.DEInternal>
2.3607

> <Gold.Chemscore.Rot>
1.4241

> <Gold.Chemscore.Internal.Correction>
   9.000000E+99

> <Gold.Chemscore.Hbonds>
donor molecule, donor type, donor heavy atom, donor atom, acceptor molecule, acceptor atom, score
      L1  H     5    50       P1  7948  0.93
      L1  H     8    35       P1  7948  0.64

> <Gold.Chemscore.Hbond.Weighted>
-6.0071

> <Gold.Chemscore.Metal.Weighted>
-0.0000

> <Gold.Chemscore.Lipo.Weighted>
-10.7918

> <Gold.Chemscore.Internal_Hbond.Weighted>
0.0000

> <Gold.Chemscore.DEClash.Weighted>
0.1421

> <Gold.Chemscore.DEInternal.Weighted>
2.3607

> <Gold.Chemscore.Rot.Weighted>
3.6456

> <Gold.Chemscore.Internal.Correction.Weighted>
   9.000000E+99

> <Gold.Protein.RotatedTorsions>
[ 6907 6896 6895 6894 ] final -100.29 input  -60.11 | X-H torsion
[ 7974 7965 7964 7962 ] final -150.25 input  175.53 | X-H torsion
[ 8008 7997 7996 7995 ] final  -77.87 input   59.86 | X-H torsion
[ 10167 10162 10161 10158 ] final -139.69 input  -65.29 | X-H torsion
[ 10718 10713 10712 10709 ] final   10.91 input   66.30 | X-H torsion
[ 10763 10752 10751 10750 ] final   20.79 input  -60.55 | X-H torsion
[ 11005 11000 10999 10996 ] final -135.78 input  -57.11 | X-H torsion

> <Gold.Protein.ActiveResidues>
 VAL166  LYS551  ARG553  GLY616  TRP617  ASP618  TYR619  PRO620  LYS621  CYS622 
 ASP623  PHE694  ASN695  SER759  ASP760  ASP761  ALA762  ILE779  LEU786  VAL792 
 PHE793  MET794  SER795  GLU796  ALA797  LYS798  CYS799  TRP800  GLU811  SER814 

> <Gold.Protein.RotatedAtoms>
  150.7110  134.0910  159.3931 H   0  0  0  0  0  0  0  0  0  0  0  0  # atno 6907 bound_to 6896
  151.8895  135.0420  160.0506 H   0  0  0  0  0  0  0  0  0  0  0  0  # atno 6908 bound_to 6896
  152.2503  133.5174  159.5358 H   0  0  0  0  0  0  0  0  0  0  0  0  # atno 6909 bound_to 6896
  144.7919  140.4957  143.5767 H   0  0  0  0  0  0  0  0  0  0  0  0  # atno 7974 bound_to 7965
  154.5636  140.0703  156.8857 H   0  0  0  0  0  0  0  0  0  0  0  0  # atno 8008 bound_to 7997
  155.2765  140.3369  155.4243 H   0  0  0  0  0  0  0  0  0  0  0  0  # atno 8009 bound_to 7997
  156.2062  140.1741  156.7779 H   0  0  0  0  0  0  0  0  0  0  0  0  # atno 8010 bound_to 7997
  139.8355  143.7390  152.2665 H   0  0  0  0  0  0  0  0  0  0  0  0  # atno 10167 bound_to 10162
  156.9878  130.6031  149.5683 H   0  0  0  0  0  0  0  0  0  0  0  0  # atno 10718 bound_to 10713
  153.1048  135.6682  153.9606 H   0  0  0  0  0  0  0  0  0  0  0  0  # atno 10763 bound_to 10752
  153.9166  135.3019  155.3449 H   0  0  0  0  0  0  0  0  0  0  0  0  # atno 10764 bound_to 10752
  154.7469  135.5053  153.9296 H   0  0  0  0  0  0  0  0  0  0  0  0  # atno 10765 bound_to 10752
  140.8866  134.1865  157.4556 H   0  0  0  0  0  0  0  0  0  0  0  0  # atno 11005 bound_to 11000
  145.5773  139.1487  143.3255 LP  0  0  0  0  0  0  0  0  0  0  0  0  # atno 17320 bound_to 7965
  146.2173  140.5904  142.9032 LP  0  0  0  0  0  0  0  0  0  0  0  0  # atno 17321 bound_to 7965
  139.7611  144.7506  151.0362 LP  0  0  0  0  0  0  0  0  0  0  0  0  # atno 17342 bound_to 10162
  140.7803  143.4750  151.0095 LP  0  0  0  0  0  0  0  0  0  0  0  0  # atno 17343 bound_to 10162
  156.0219  130.5313  150.8299 LP  0  0  0  0  0  0  0  0  0  0  0  0  # atno 17370 bound_to 10713
  157.5480  131.0943  150.9735 LP  0  0  0  0  0  0  0  0  0  0  0  0  # atno 17371 bound_to 10713
  139.8725  134.9840  156.5223 LP  0  0  0  0  0  0  0  0  0  0  0  0  # atno 17394 bound_to 11000
  140.8397  133.8214  155.9063 LP  0  0  0  0  0  0  0  0  0  0  0  0  # atno 17395 bound_to 11000

$$$$
