#       Name:                AV-unprocessed.smi:109
#       Creating user name   scv26
#       Creation time:       Thu Mar 26 18:13:57 2020


#       File generated by GOLD software.
#

@<TRIPOS>MOLECULE
AV-unprocessed.smi:109
    71    74     1
SMALL
NO_CHARGES


@<TRIPOS>ATOM
      1 ****        -2.5067   2.1066   4.0838 O.3            1 S1                 0.0000
      2 ****        -1.9480   1.7795   2.8298 C.3            1 S1                 0.0000
      3 ****        -3.0678   1.5820   1.7937 C.3            1 S1                 0.0000
      4 ****        -2.5649   1.3004   0.3557 C.3            1 S1                 0.0000
      5 ****        -1.7795   0.0641   0.3442 N.pl3          1 S1                 0.0000
      6 ****        -0.4278   0.0638   0.3452 C.ar           1 S1                 0.0000
      7 ****         0.2846   1.2198   0.3817 N.ar           1 S1                 0.0000
      8 ****         1.6201   1.1829   0.3917 C.ar           1 S1                 0.0000
      9 ****         2.4246   0.1184   0.3707 N.ar           1 S1                 0.0000
     10 ****         1.7150  -1.0461   0.3306 C.ar           1 S1                 0.0000
     11 ****         0.2967  -1.1554   0.3149 C.ar           1 S1                 0.0000
     12 ****        -0.0721  -2.4935   0.2726 N.2            1 S1                 0.0000
     13 ****         1.0660  -3.1341   0.2607 C.2            1 S1                 0.0000
     14 ****         2.1913  -2.3412   0.3020 N.pl3          1 S1                 0.0000
     15 ****         3.6169  -2.7861   0.2977 C.3            1 S1                 0.0000
     16 ****         4.2851  -2.0716  -0.6915 O.3            1 S1                 0.0000
     17 ****         5.6407  -1.8275  -0.3110 C.3            1 S1                 0.0000
     18 ****         5.9207  -0.3211  -0.4507 C.3            1 S1                 0.0000
     19 ****         6.1447   0.0078  -1.8051 O.3            1 S1                 0.0000
     20 ****         5.7611  -2.3226   1.1444 C.3            1 S1                 0.0000
     21 ****         6.4453  -3.5651   1.1459 O.3            1 S1                 0.0000
     22 ****         4.3139  -2.4508   1.6124 C.3            1 S1                 0.0000
     23 ****         4.1573  -3.4494   2.6032 O.3            1 S1                 0.0000
     24 ****        -3.7099   1.1884  -0.6921 C.3            1 S1                 0.0000
     25 ****        -3.1428   0.9456  -2.1149 C.3            1 S1                 0.0000
     26 ****        -4.2474   0.8234  -3.1759 C.3            1 S1                 0.0000
     27 ****        -5.1442   2.0668  -3.1858 C.3            1 S1                 0.0000
     28 ****        -5.7360   2.3148  -1.7933 C.3            1 S1                 0.0000
     29 ****        -4.6361   2.4302  -0.7249 C.3            1 S1                 0.0000
     30 ****         3.6059  -3.8509   0.0594 H              1 S1                 0.0000
     31 ****         6.3133  -2.3873  -0.9641 H              1 S1                 0.0000
     32 ****         6.3227  -1.6352   1.7781 H              1 S1                 0.0000
     33 ****         3.9625  -1.4885   1.9850 H              1 S1                 0.0000
     34 ****        -3.0536   1.3892   4.3655 H              1 S1                 0.0000
     35 ****        -1.2763   2.5813   2.5217 H              1 S1                 0.0000
     36 ****        -1.3501   0.8755   2.9447 H              1 S1                 0.0000
     37 ****        -3.7294   0.7766   2.1160 H              1 S1                 0.0000
     38 ****        -3.6643   2.4925   1.8041 H              1 S1                 0.0000
     39 ****        -1.9496   2.1465   0.0502 H              1 S1                 0.0000
     40 ****        -2.3195  -0.7887   0.3073 H              1 S1                 0.0000
     41 ****         2.1142   2.1426   0.4226 H              1 S1                 0.0000
     42 ****         1.1154  -4.2128   0.2252 H              1 S1                 0.0000
     43 ****         5.1091   0.2801  -0.0426 H              1 S1                 0.0000
     44 ****         6.8244  -0.0532   0.0973 H              1 S1                 0.0000
     45 ****         6.3072   0.9368  -1.8659 H              1 S1                 0.0000
     46 ****         5.9476  -4.1838   0.6340 H              1 S1                 0.0000
     47 ****         3.2436  -3.4941   2.8404 H              1 S1                 0.0000
     48 ****        -4.3255   0.3275  -0.4252 H              1 S1                 0.0000
     49 ****        -2.4715   1.7622  -2.3844 H              1 S1                 0.0000
     50 ****        -2.5414   0.0368  -2.1437 H              1 S1                 0.0000
     51 ****        -3.8019   0.6796  -4.1607 H              1 S1                 0.0000
     52 ****        -4.8506  -0.0633  -2.9766 H              1 S1                 0.0000
     53 ****        -4.5654   2.9362  -3.5002 H              1 S1                 0.0000
     54 ****        -5.9448   1.9445  -3.9160 H              1 S1                 0.0000
     55 ****        -6.3396   3.2228  -1.8033 H              1 S1                 0.0000
     56 ****        -6.4113   1.4985  -1.5335 H              1 S1                 0.0000
     57 ****        -5.1312   2.5711   0.2345 H              1 S1                 0.0000
     58 ****        -4.0429   3.3274  -0.9057 H              1 S1                 0.0000
     59 ****        -3.0567   2.9377   4.0014 LP             1 S1                 0.0000
     60 ****        -1.7759   2.2552   4.7500 LP             1 S1                 0.0000
     61 ****        -0.1909   2.0993   0.4011 LP             1 S1                 0.0000
     62 ****         3.4233   0.1681   0.3828 LP             1 S1                 0.0000
     63 ****        -0.9952  -2.8776   0.2553 LP             1 S1                 0.0000
     64 ****         3.8218  -1.1970  -0.8342 LP             1 S1                 0.0000
     65 ****         4.2727  -2.5980  -1.5416 LP             1 S1                 0.0000
     66 ****         5.3389  -0.2297  -2.3474 LP             1 S1                 0.0000
     67 ****         6.9375  -0.4963  -2.1478 LP             1 S1                 0.0000
     68 ****         6.5351  -3.8992   2.0842 LP             1 S1                 0.0000
     69 ****         7.3541  -3.4498   0.7448 LP             1 S1                 0.0000
     70 ****         4.7039  -3.2158   3.4074 LP             1 S1                 0.0000
     71 ****         4.4561  -4.3329   2.2423 LP             1 S1                 0.0000
@<TRIPOS>BOND
    1    1    2 1     
    2    1   34 1     
    3    2    3 1     
    4    2   35 1     
    5    2   36 1     
    6    3    4 1     
    7    3   37 1     
    8    3   38 1     
    9    4    5 1     
   10    4   24 1     
   11    4   39 1     
   12    5    6 1     
   13    5   40 1     
   14    6   11 ar    
   15    6    7 ar    
   16    7    8 ar    
   17    8    9 ar    
   18    8   41 1     
   19    9   10 ar    
   20   10   14 1     
   21   10   11 ar    
   22   11   12 1     
   23   12   13 2     
   24   13   14 1     
   25   13   42 1     
   26   14   15 1     
   27   15   30 1     
   28   15   22 1     
   29   15   16 1     
   30   16   17 1     
   31   17   31 1     
   32   17   18 1     
   33   17   20 1     
   34   18   19 1     
   35   18   43 1     
   36   18   44 1     
   37   19   45 1     
   38   20   32 1     
   39   20   21 1     
   40   20   22 1     
   41   21   46 1     
   42   22   33 1     
   43   22   23 1     
   44   23   47 1     
   45   24   29 1     
   46   24   25 1     
   47   24   48 1     
   48   25   26 1     
   49   25   49 1     
   50   25   50 1     
   51   26   27 1     
   52   26   51 1     
   53   26   52 1     
   54   27   28 1     
   55   27   53 1     
   56   27   54 1     
   57   28   29 1     
   58   28   55 1     
   59   28   56 1     
   60   29   57 1     
   61   29   58 1     
   62    1   59 1     
   63    1   60 1     
   64    7   61 1     
   65    9   62 1     
   66   12   63 1     
   67   16   64 1     
   68   16   65 1     
   69   19   66 1     
   70   19   67 1     
   71   21   68 1     
   72   21   69 1     
   73   23   70 1     
   74   23   71 1     
@<TRIPOS>SUBSTRUCTURE
      1 S1             1
@<TRIPOS>SET
LONE_PAIRS      STATIC     ATOMS    <user>   **** ""
13 59 60 61 62 63 64 65 66 67 68 69 70 71
DONOR_HYDROGENS      STATIC     ATOMS    <user>   **** ""
5 34 40 45 46 47
ATOM$BLUE        STATIC     ATOMS    COLORGROUP SYSTEM
13 59 60 61 62 63 64 65 66 67 68 69 70 71
ATOM$RED        STATIC     ATOMS    COLORGROUP SYSTEM
5 34 40 45 46 47
