AV-unprocessed.smi:2663|AV-procd|sdf|10323|dock2
  -GOLD-   2272014333D 1   1.00000     0.00000
 Structure written by MMmdl.
 39 40  0  0  0  0  0  0  0  0  1 V2000
  143.8864  136.7029  152.6462 C   0  0  0  0  0  0  0  0  0  0  0  0
  145.0300  135.6806  152.8427 C   0  0  2  0  0  0  0  0  0  0  0  0
  144.7994  134.9280  154.1869 C   0  0  0  0  0  0  0  0  0  0  0  0
  143.4638  134.4841  154.3374 O   0  0  0  0  0  0  0  0  0  0  0  0
  146.2756  136.4637  152.9193 N   0  0  0  0  0  0  0  0  0  0  0  0
  146.4837  137.6533  153.5107 C   0  0  0  0  0  0  0  0  0  0  0  0
  145.6168  138.2819  154.1167 O   0  0  0  0  0  0  0  0  0  0  0  0
  147.7562  138.0512  153.3516 N   0  0  0  0  0  0  0  0  0  0  0  0
  148.3615  139.2453  153.8174 C   0  0  0  0  0  0  0  0  0  0  0  0
  149.6589  139.2062  154.1430 N   0  0  0  0  0  0  0  0  0  0  0  0
  150.1234  140.4407  154.5804 N   0  0  0  0  0  0  0  0  0  0  0  0
  149.1569  141.3636  154.5670 C   0  0  0  0  0  0  0  0  0  0  0  0
  147.5820  140.8173  154.0195 S   0  0  0  0  0  0  0  0  0  0  0  0
  145.0967  134.6694  151.6403 C   0  0  0  0  0  0  0  0  0  0  0  0
  143.7968  133.8481  151.4246 C   0  0  0  0  0  0  0  0  0  0  0  0
  143.8754  132.9752  150.1618 C   0  0  0  0  0  0  0  0  0  0  0  0
  145.0865  132.0342  150.2093 C   0  0  0  0  0  0  0  0  0  0  0  0
  146.3848  132.8242  150.4228 C   0  0  0  0  0  0  0  0  0  0  0  0
  146.3067  133.7007  151.6837 C   0  0  0  0  0  0  0  0  0  0  0  0
  142.9074  136.2244  152.6526 H   0  0  0  0  0  0  0  0  0  0  0  0
  143.9814  137.2515  151.7098 H   0  0  0  0  0  0  0  0  0  0  0  0
  143.8772  137.4464  153.4439 H   0  0  0  0  0  0  0  0  0  0  0  0
  145.4361  134.0466  154.2532 H   0  0  0  0  0  0  0  0  0  0  0  0
  145.0528  135.5543  155.0421 H   0  0  0  0  0  0  0  0  0  0  0  0
  143.4713  133.5476  154.4631 H   0  0  0  0  0  0  0  0  0  0  0  0
  147.0686  136.0501  152.4515 H   0  0  0  0  0  0  0  0  0  0  0  0
  148.3620  137.4315  152.8342 H   0  0  0  0  0  0  0  0  0  0  0  0
  149.3734  142.3737  154.8816 H   0  0  0  0  0  0  0  0  0  0  0  0
  145.2316  135.2649  150.7368 H   0  0  0  0  0  0  0  0  0  0  0  0
  143.6080  133.2052  152.2842 H   0  0  0  0  0  0  0  0  0  0  0  0
  142.9290  134.5007  151.3335 H   0  0  0  0  0  0  0  0  0  0  0  0
  142.9590  132.3943  150.0548 H   0  0  0  0  0  0  0  0  0  0  0  0
  143.9408  133.6137  149.2800 H   0  0  0  0  0  0  0  0  0  0  0  0
  144.9589  131.3129  151.0174 H   0  0  0  0  0  0  0  0  0  0  0  0
  145.1485  131.4583  149.2856 H   0  0  0  0  0  0  0  0  0  0  0  0
  147.2276  132.1369  150.5007 H   0  0  0  0  0  0  0  0  0  0  0  0
  146.5786  133.4526  149.5525 H   0  0  0  0  0  0  0  0  0  0  0  0
  147.2427  134.2493  151.7724 H   0  0  0  0  0  0  0  0  0  0  0  0
  146.2427  133.0525  152.5576 H   0  0  0  0  0  0  0  0  0  0  0  0
  1  2  1  0  0  0  0
  1 20  1  0  0  0  0
  1 21  1  0  0  0  0
  1 22  1  0  0  0  0
  2  3  1  0  0  0  0
  2  5  1  0  0  0  0
  2 14  1  0  0  0  0
  3  4  1  0  0  0  0
  3 23  1  0  0  0  0
  3 24  1  0  0  0  0
  4 25  1  0  0  0  0
  5  6  1  0  0  0  0
  5 26  1  0  0  0  0
  6  7  2  0  0  0  0
  6  8  1  0  0  0  0
  8  9  1  0  0  0  0
  8 27  1  0  0  0  0
  9 13  1  0  0  0  0
  9 10  2  0  0  0  0
 10 11  1  0  0  0  0
 11 12  2  0  0  0  0
 12 13  1  0  0  0  0
 12 28  1  0  0  0  0
 14 19  1  0  0  0  0
 14 15  1  0  0  0  0
 14 29  1  0  0  0  0
 15 16  1  0  0  0  0
 15 30  1  0  0  0  0
 15 31  1  0  0  0  0
 16 17  1  0  0  0  0
 16 32  1  0  0  0  0
 16 33  1  0  0  0  0
 17 18  1  0  0  0  0
 17 34  1  0  0  0  0
 17 35  1  0  0  0  0
 18 19  1  0  0  0  0
 18 36  1  0  0  0  0
 18 37  1  0  0  0  0
 19 38  1  0  0  0  0
 19 39  1  0  0  0  0
M  END
> <s_m_source_file>
AV-unprocessed.smi

> <i_m_source_file_index>
2663

> <i_lp_mmshare_version>
43012

> <i_f3d_flags>
0

> <s_epik_input>
W0NIMl0xW0NIMl1bQ0gyXVtDSDJdW0NIMl1bQ0hdMVtDQF0oW0NIM10pKFtDSDJdW09IXSlbTkhdQyg9TylbTkhdYzJubltjSF1zMg==

> <s_epik_cmdline>
J2VwaWtfcHl0aG9uJywgJy1waCcsICc3LjAnLCAnLXRuJywgJzgnLCAnLW1hJywgJzIwMCcsICctbWV0YWxfYmluZGluZycsICctaW1hZScsICc8aW5maWxlLm1hZT4nLCAnLW9tYWUnLCAnPG91dGZpbGUubWFlPic=

> <r_lp_tautomer_probability>
1

> <r_epik_Ionization_Penalty>
0.000410407

> <r_epik_Ionization_Penalty_Charging>
0

> <r_epik_Ionization_Penalty_Neutral>
0.000410407

> <r_epik_State_Penalty>
-0

> <r_epik_Charging_Adjusted_Penalty>
0

> <i_epik_Tot_Q>
0

> <i_epik_Tot_abs_Q>
0

> <r_epik_Metal_State_Penalty>
0.197604

> <b_epik_Metal_Only>
0

> <s_lp_Force_Field>
OPLS_2005

> <r_lp_Energy>
18.5807

> <b_lp_Chiralities_Consistent>
1

> <s_lp_Variant>
AV-unprocessed.smi:2663-2

> <Gold.Version>
5.8.1

> <Gold.Id.Protein>
6NUR|6NUR_protein|mol2

> <Gold.PLP.Fitness>
44.2956

> <Gold.PLP.PLP>
-31.1902

> <Gold.PLP.part.hbond>
-4.0000

> <Gold.PLP.part.metal>
0.0000

> <Gold.PLP.part.buried>
-4.4285

> <Gold.PLP.part.nonpolar>
-23.9983

> <Gold.PLP.part.repulsive>
0.6444

> <Gold.PLP.ligand.clash>
0.0020

> <Gold.PLP.ligand.torsion>
0.8449

> <Gold.PLP.Chemscore.Hbond>
3.9040

> <Gold.PLP.Chemscore.CHOScore>
1.0000

> <Gold.PLP.Chemscore.Metal>
0.0000

> <Gold.Chemscore.Hbonds>
donor molecule, donor type, donor heavy atom, donor atom, acceptor molecule, acceptor atom, score
      L1  H     4    25       P1 10957  1.00
      L1  H     5    26       P1  7948  0.98
      L1  H     8    27       P1  7948  1.00
      P1  H  7989  7998       L1    11  0.94
      L1  C    12    28       P1  8028  1.00

> <Gold.PLP.Chemscore.Internal.Correction>
0.0852

> <Gold.Rescore>
     Score         DG    S(hbond)    S(metal)    S(lipo)     H(rot)  DE(clash)    DE(int)     intcor
     16.81     -19.13       3.46        0.00      66.41       2.21       0.03       2.28       ----

> <Gold.Chemscore.Fitness>
16.8104

> <Gold.Chemscore.DG>
-19.1280

> <Gold.Chemscore.ZeroCoef>
-5.4800

> <Gold.Chemscore.Hbond>
3.4554

> <Gold.Chemscore.Metal>
0.0000

> <Gold.Chemscore.Lipo>
66.4070

> <Gold.Chemscore.Internal_Hbond>
0.0000

> <Gold.Chemscore.DEClash>
0.0346

> <Gold.Chemscore.DEInternal>
2.2831

> <Gold.Chemscore.Rot>
2.2120

> <Gold.Chemscore.Internal.Correction>
   9.000000E+99

> <Gold.Chemscore.Hbonds>
donor molecule, donor type, donor heavy atom, donor atom, acceptor molecule, acceptor atom, score
      L1  H     4    25       P1 10957  0.95
      L1  H     5    26       P1  7948  0.92
      L1  H     8    27       P1  7948  1.00
      P1  H  7989  7998       L1    11  0.47

> <Gold.Chemscore.Hbond.Weighted>
-11.5411

> <Gold.Chemscore.Metal.Weighted>
-0.0000

> <Gold.Chemscore.Lipo.Weighted>
-7.7696

> <Gold.Chemscore.Internal_Hbond.Weighted>
0.0000

> <Gold.Chemscore.DEClash.Weighted>
0.0346

> <Gold.Chemscore.DEInternal.Weighted>
2.2831

> <Gold.Chemscore.Rot.Weighted>
5.6627

> <Gold.Chemscore.Internal.Correction.Weighted>
   9.000000E+99

> <Gold.Protein.RotatedTorsions>
[ 6907 6896 6895 6894 ] final  166.44 input  -60.11 | X-H torsion
[ 7974 7965 7964 7962 ] final   46.05 input  175.53 | X-H torsion
[ 8008 7997 7996 7995 ] final   38.97 input   59.86 | X-H torsion
[ 10167 10162 10161 10158 ] final  109.17 input  -65.29 | X-H torsion
[ 10718 10713 10712 10709 ] final  151.47 input   66.30 | X-H torsion
[ 10763 10752 10751 10750 ] final  -32.37 input  -60.55 | X-H torsion
[ 11005 11000 10999 10996 ] final   74.96 input  -57.11 | X-H torsion

> <Gold.Protein.ActiveResidues>
 VAL166  LYS551  ARG553  GLY616  TRP617  ASP618  TYR619  PRO620  LYS621  CYS622 
 ASP623  PHE694  ASN695  SER759  ASP760  ASP761  ALA762  ILE779  LEU786  VAL792 
 PHE793  MET794  SER795  GLU796  ALA797  LYS798  CYS799  TRP800  GLU811  SER814 

> <Gold.Protein.RotatedAtoms>
  151.8789  133.3491  159.3759 H   0  0  0  0  0  0  0  0  0  0  0  0  # atno 6907 bound_to 6896
  150.7133  134.5039  159.5584 H   0  0  0  0  0  0  0  0  0  0  0  0  # atno 6908 bound_to 6896
  152.2586  134.8058  160.0485 H   0  0  0  0  0  0  0  0  0  0  0  0  # atno 6909 bound_to 6896
  146.0425  139.4898  142.9769 H   0  0  0  0  0  0  0  0  0  0  0  0  # atno 7974 bound_to 7965
  155.2289  140.3336  155.4306 H   0  0  0  0  0  0  0  0  0  0  0  0  # atno 8008 bound_to 7997
  156.2303  140.1847  156.7305 H   0  0  0  0  0  0  0  0  0  0  0  0  # atno 8009 bound_to 7997
  154.5967  140.0629  156.9298 H   0  0  0  0  0  0  0  0  0  0  0  0  # atno 8010 bound_to 7997
  139.6787  144.7120  151.1554 H   0  0  0  0  0  0  0  0  0  0  0  0  # atno 10167 bound_to 10162
  157.2703  131.0815  151.1604 H   0  0  0  0  0  0  0  0  0  0  0  0  # atno 10718 bound_to 10713
  153.8127  135.6881  153.4838 H   0  0  0  0  0  0  0  0  0  0  0  0  # atno 10763 bound_to 10752
  153.1618  135.4577  154.9781 H   0  0  0  0  0  0  0  0  0  0  0  0  # atno 10764 bound_to 10752
  154.7961  135.3319  154.7606 H   0  0  0  0  0  0  0  0  0  0  0  0  # atno 10765 bound_to 10752
  139.9366  134.7477  156.1212 H   0  0  0  0  0  0  0  0  0  0  0  0  # atno 11005 bound_to 11000
  145.6861  141.0177  143.1580 LP  0  0  0  0  0  0  0  0  0  0  0  0  # atno 17320 bound_to 7965
  144.7081  139.8478  143.7423 LP  0  0  0  0  0  0  0  0  0  0  0  0  # atno 17321 bound_to 7965
  140.7645  143.5732  150.8974 LP  0  0  0  0  0  0  0  0  0  0  0  0  # atno 17342 bound_to 10162
  139.9402  143.6391  152.3055 LP  0  0  0  0  0  0  0  0  0  0  0  0  # atno 17343 bound_to 10162
  157.3078  130.6875  149.6199 LP  0  0  0  0  0  0  0  0  0  0  0  0  # atno 17370 bound_to 10713
  155.9663  130.4372  150.5167 LP  0  0  0  0  0  0  0  0  0  0  0  0  # atno 17371 bound_to 10713
  141.0983  133.6687  156.2695 LP  0  0  0  0  0  0  0  0  0  0  0  0  # atno 17394 bound_to 11000
  140.6059  134.5507  157.5525 LP  0  0  0  0  0  0  0  0  0  0  0  0  # atno 17395 bound_to 11000

$$$$
