AV-unprocessed.smi:2067|AV-procd|sdf|8425|dock7
  -GOLD-   2272011123D 1   1.00000     0.00000
 Structure written by MMmdl.
 47 48  0  0  0  0  0  0  0  0  1 V2000
  144.9120  136.1112  151.3532 C   0  0  0  0  0  0  0  0  0  0  0  0
  144.7773  134.6540  150.8881 C   0  0  2  0  0  0  0  0  0  0  0  0
  143.7589  133.8662  151.7360 C   0  0  0  0  0  0  0  0  0  0  0  0
  143.5978  132.4266  151.2209 C   0  0  0  0  0  0  0  0  0  0  0  0
  144.9495  131.6979  151.1584 C   0  0  0  0  0  0  0  0  0  0  0  0
  145.9745  132.4871  150.3251 C   0  0  0  0  0  0  0  0  0  0  0  0
  146.1406  133.9296  150.8465 C   0  0  2  0  0  0  0  0  0  0  0  0
  146.6849  133.8939  152.1611 O   0  0  0  0  0  0  0  0  0  0  0  0
  147.8539  133.0997  152.2917 C   0  0  0  0  0  0  0  0  0  0  0  0
  148.2507  133.0519  153.7696 C   0  0  0  0  0  0  0  0  0  0  0  0
  149.0029  131.8469  154.0834 N   0  0  0  0  0  0  0  0  0  0  0  0
  150.1975  131.7906  154.7951 C   0  0  0  0  0  0  0  0  0  0  0  0
  150.7865  132.9162  155.2902 C   0  0  0  0  0  0  0  0  0  0  0  0
  150.2149  134.2209  155.1675 C   0  0  0  0  0  0  0  0  0  0  0  0
  149.7620  135.2803  155.0506 N   0  0  0  0  0  0  0  0  0  0  0  0
  152.0477  132.8752  156.0292 C   0  0  0  0  0  0  0  0  0  0  0  0
  152.5941  133.8775  156.4947 O   0  0  0  0  0  0  0  0  0  0  0  0
  152.5992  131.5839  156.1771 N   0  0  0  0  0  0  0  0  0  0  0  0
  153.8523  131.4278  156.8888 C   0  0  0  0  0  0  0  0  0  0  0  0
  152.0013  130.4049  155.6922 C   0  0  0  0  0  0  0  0  0  0  0  0
  152.5287  129.3023  155.8728 O   0  0  0  0  0  0  0  0  0  0  0  0
  150.7748  130.5340  154.9978 N   0  0  0  0  0  0  0  0  0  0  0  0
  150.2126  129.2821  154.5366 C   0  0  0  0  0  0  0  0  0  0  0  0
  145.2850  136.1686  152.3744 H   0  0  0  0  0  0  0  0  0  0  0  0
  143.9504  136.6240  151.3215 H   0  0  0  0  0  0  0  0  0  0  0  0
  145.6023  136.6647  150.7162 H   0  0  0  0  0  0  0  0  0  0  0  0
  144.3943  134.6859  149.8669 H   0  0  0  0  0  0  0  0  0  0  0  0
  144.0774  133.8490  152.7795 H   0  0  0  0  0  0  0  0  0  0  0  0
  142.7914  134.3690  151.7195 H   0  0  0  0  0  0  0  0  0  0  0  0
  142.9088  131.8772  151.8628 H   0  0  0  0  0  0  0  0  0  0  0  0
  143.1474  132.4432  150.2277 H   0  0  0  0  0  0  0  0  0  0  0  0
  145.3325  131.5527  152.1694 H   0  0  0  0  0  0  0  0  0  0  0  0
  144.8147  130.7022  150.7351 H   0  0  0  0  0  0  0  0  0  0  0  0
  146.9310  131.9649  150.3243 H   0  0  0  0  0  0  0  0  0  0  0  0
  145.6459  132.5163  149.2855 H   0  0  0  0  0  0  0  0  0  0  0  0
  146.8046  134.4852  150.1811 H   0  0  0  0  0  0  0  0  0  0  0  0
  147.6666  132.0837  151.9435 H   0  0  0  0  0  0  0  0  0  0  0  0
  148.6594  133.5107  151.6813 H   0  0  0  0  0  0  0  0  0  0  0  0
  148.8338  133.9414  154.0074 H   0  0  0  0  0  0  0  0  0  0  0  0
  147.3588  133.0739  154.3959 H   0  0  0  0  0  0  0  0  0  0  0  0
  148.9155  131.1440  153.3633 H   0  0  0  0  0  0  0  0  0  0  0  0
  154.5252  130.8513  156.2517 H   0  0  0  0  0  0  0  0  0  0  0  0
  153.6291  130.8971  157.8158 H   0  0  0  0  0  0  0  0  0  0  0  0
  154.3114  132.3922  157.1038 H   0  0  0  0  0  0  0  0  0  0  0  0
  150.9240  128.8453  153.8335 H   0  0  0  0  0  0  0  0  0  0  0  0
  149.2567  129.4477  154.0451 H   0  0  0  0  0  0  0  0  0  0  0  0
  150.0662  128.6446  155.4107 H   0  0  0  0  0  0  0  0  0  0  0  0
  1  2  1  0  0  0  0
  1 24  1  0  0  0  0
  1 25  1  0  0  0  0
  1 26  1  0  0  0  0
  2  7  1  0  0  0  0
  2  3  1  0  0  0  0
  2 27  1  0  0  0  0
  3  4  1  0  0  0  0
  3 28  1  0  0  0  0
  3 29  1  0  0  0  0
  4  5  1  0  0  0  0
  4 30  1  0  0  0  0
  4 31  1  0  0  0  0
  5  6  1  0  0  0  0
  5 32  1  0  0  0  0
  5 33  1  0  0  0  0
  6  7  1  0  0  0  0
  6 34  1  0  0  0  0
  6 35  1  0  0  0  0
  7  8  1  0  0  0  0
  7 36  1  0  0  0  0
  8  9  1  0  0  0  0
  9 10  1  0  0  0  0
  9 37  1  0  0  0  0
  9 38  1  0  0  0  0
 10 11  1  0  0  0  0
 10 39  1  0  0  0  0
 10 40  1  0  0  0  0
 11 12  1  0  0  0  0
 11 41  1  0  0  0  0
 12 22  1  0  0  0  0
 12 13  2  0  0  0  0
 13 14  1  0  0  0  0
 13 16  1  0  0  0  0
 14 15  3  0  0  0  0
 16 17  2  0  0  0  0
 16 18  1  0  0  0  0
 18 19  1  0  0  0  0
 18 20  1  0  0  0  0
 19 42  1  0  0  0  0
 19 43  1  0  0  0  0
 19 44  1  0  0  0  0
 20 21  2  0  0  0  0
 20 22  1  0  0  0  0
 22 23  1  0  0  0  0
 23 45  1  0  0  0  0
 23 46  1  0  0  0  0
 23 47  1  0  0  0  0
M  END
> <s_m_source_file>
AV-unprocessed.smi

> <i_m_source_file_index>
2067

> <i_lp_mmshare_version>
43012

> <i_f3d_flags>
0

> <s_epik_input>
W0NIM11bQ0BASF0xW0NIMl1bQ0gyXVtDSDJdW0NIMl1bQ0BIXTFPW0NIMl1bQ0gyXVtOSF1jMmMoQyNOKWMoPU8pbihbQ0gzXSljKD1PKW4yW0NIM10=

> <s_epik_cmdline>
J2VwaWtfcHl0aG9uJywgJy1waCcsICc3LjAnLCAnLXRuJywgJzgnLCAnLW1hJywgJzIwMCcsICctbWV0YWxfYmluZGluZycsICctaW1hZScsICc8aW5maWxlLm1hZT4nLCAnLW9tYWUnLCAnPG91dGZpbGUubWFlPic=

> <r_epik_Ionization_Penalty>
0.00056529

> <r_epik_Ionization_Penalty_Charging>
3.94678e-10

> <r_epik_Ionization_Penalty_Neutral>
0.000565289

> <r_epik_State_Penalty>
0.000354611

> <r_epik_Charging_Adjusted_Penalty>
0.000354611

> <i_epik_Tot_Q>
0

> <i_epik_Tot_abs_Q>
0

> <r_epik_Metal_State_Penalty>
-0

> <b_epik_Metal_Only>
0

> <s_lp_Force_Field>
OPLS_2005

> <r_lp_Energy>
32.9241

> <b_lp_Chiralities_Consistent>
1

> <s_lp_Variant>
AV-unprocessed.smi:2067-3

> <Gold.Version>
5.8.1

> <Gold.Id.Protein>
6NUR|6NUR_protein|mol2

> <Gold.PLP.Fitness>
41.9166

> <Gold.PLP.PLP>
-42.2968

> <Gold.PLP.part.hbond>
-1.0000

> <Gold.PLP.part.metal>
0.0000

> <Gold.PLP.part.buried>
-5.5074

> <Gold.PLP.part.nonpolar>
-36.1170

> <Gold.PLP.part.repulsive>
0.2434

> <Gold.PLP.ligand.clash>
10.1185

> <Gold.PLP.ligand.torsion>
0.2525

> <Gold.PLP.Chemscore.Hbond>
0.0406

> <Gold.PLP.Chemscore.CHOScore>
0.0000

> <Gold.PLP.Chemscore.Metal>
0.0000

> <Gold.PLP.Chemscore.Internal.Correction>
10.1216

> <Gold.Rescore>
     Score         DG    S(hbond)    S(metal)    S(lipo)     H(rot)  DE(clash)    DE(int)     intcor
      9.60     -12.68       0.53        0.00      84.93       1.76       0.17       2.92       ----

> <Gold.Chemscore.Fitness>
9.5961

> <Gold.Chemscore.DG>
-12.6826

> <Gold.Chemscore.ZeroCoef>
-5.4800

> <Gold.Chemscore.Hbond>
0.5289

> <Gold.Chemscore.Metal>
0.0000

> <Gold.Chemscore.Lipo>
84.9329

> <Gold.Chemscore.Internal_Hbond>
0.0000

> <Gold.Chemscore.DEClash>
0.1686

> <Gold.Chemscore.DEInternal>
2.9179

> <Gold.Chemscore.Rot>
1.7583

> <Gold.Chemscore.Internal.Correction>
   9.000000E+99

> <Gold.Chemscore.Hbond.Weighted>
-1.7666

> <Gold.Chemscore.Metal.Weighted>
-0.0000

> <Gold.Chemscore.Lipo.Weighted>
-9.9371

> <Gold.Chemscore.Internal_Hbond.Weighted>
0.0000

> <Gold.Chemscore.DEClash.Weighted>
0.1686

> <Gold.Chemscore.DEInternal.Weighted>
2.9179

> <Gold.Chemscore.Rot.Weighted>
4.5012

> <Gold.Chemscore.Internal.Correction.Weighted>
   9.000000E+99

> <Gold.Protein.RotatedTorsions>
[ 6907 6896 6895 6894 ] final -127.74 input  -60.11 | X-H torsion
[ 7974 7965 7964 7962 ] final -167.54 input  175.53 | X-H torsion
[ 8008 7997 7996 7995 ] final -167.52 input   59.86 | X-H torsion
[ 10167 10162 10161 10158 ] final  -72.86 input  -65.29 | X-H torsion
[ 10718 10713 10712 10709 ] final  172.70 input   66.30 | X-H torsion
[ 10763 10752 10751 10750 ] final -171.51 input  -60.55 | X-H torsion
[ 11005 11000 10999 10996 ] final  131.48 input  -57.11 | X-H torsion

> <Gold.Protein.ActiveResidues>
 VAL166  LYS551  ARG553  GLY616  TRP617  ASP618  TYR619  PRO620  LYS621  CYS622 
 ASP623  PHE694  ASN695  SER759  ASP760  ASP761  ALA762  ILE779  LEU786  VAL792 
 PHE793  MET794  SER795  GLU796  ALA797  LYS798  CYS799  TRP800  GLU811  SER814 

> <Gold.Protein.RotatedAtoms>
  150.9105  133.7004  159.2855 H   0  0  0  0  0  0  0  0  0  0  0  0  # atno 6907 bound_to 6896
  151.4492  135.1027  159.9702 H   0  0  0  0  0  0  0  0  0  0  0  0  # atno 6908 bound_to 6896
  152.4927  133.8494  159.7249 H   0  0  0  0  0  0  0  0  0  0  0  0  # atno 6909 bound_to 6896
  144.7221  140.2504  143.6279 H   0  0  0  0  0  0  0  0  0  0  0  0  # atno 7974 bound_to 7965
  155.8788  140.1005  157.1500 H   0  0  0  0  0  0  0  0  0  0  0  0  # atno 8008 bound_to 7997
  154.4003  140.1333  156.4233 H   0  0  0  0  0  0  0  0  0  0  0  0  # atno 8009 bound_to 7997
  155.7667  140.3462  155.5228 H   0  0  0  0  0  0  0  0  0  0  0  0  # atno 8010 bound_to 7997
  140.5158  143.2338  151.7516 H   0  0  0  0  0  0  0  0  0  0  0  0  # atno 10167 bound_to 10162
  156.9751  131.0102  151.2895 H   0  0  0  0  0  0  0  0  0  0  0  0  # atno 10718 bound_to 10713
  154.6297  135.2885  155.0230 H   0  0  0  0  0  0  0  0  0  0  0  0  # atno 10763 bound_to 10752
  154.1395  135.6521  153.4943 H   0  0  0  0  0  0  0  0  0  0  0  0  # atno 10764 bound_to 10752
  153.0274  135.5329  154.7120 H   0  0  0  0  0  0  0  0  0  0  0  0  # atno 10765 bound_to 10752
  139.9733  134.9571  156.9445 H   0  0  0  0  0  0  0  0  0  0  0  0  # atno 11005 bound_to 11000
  145.8234  139.2053  143.1925 LP  0  0  0  0  0  0  0  0  0  0  0  0  # atno 17320 bound_to 7965
  146.0494  140.8084  142.9789 LP  0  0  0  0  0  0  0  0  0  0  0  0  # atno 17321 bound_to 7965
  139.4909  144.4326  151.9855 LP  0  0  0  0  0  0  0  0  0  0  0  0  # atno 17342 bound_to 10162
  140.3420  144.3191  150.5965 LP  0  0  0  0  0  0  0  0  0  0  0  0  # atno 17343 bound_to 10162
  157.5565  130.8217  149.8211 LP  0  0  0  0  0  0  0  0  0  0  0  0  # atno 17370 bound_to 10713
  156.0267  130.3777  150.1803 LP  0  0  0  0  0  0  0  0  0  0  0  0  # atno 17371 bound_to 10713
  140.5247  134.0872  155.7301 LP  0  0  0  0  0  0  0  0  0  0  0  0  # atno 17394 bound_to 11000
  141.1411  133.9136  157.2322 LP  0  0  0  0  0  0  0  0  0  0  0  0  # atno 17395 bound_to 11000

$$$$
