AV-unprocessed.smi:3098|AV-procd|sdf|11800|dock1
  -GOLD-   2272017173D 1   1.00000     0.00000
 Structure written by MMmdl.
 30 31  0  0  0  0  0  0  0  0  2 V2000
  149.4500  138.4529  153.4115 N   0  3  0  0  0  0  0  0  0  0  0  0
  150.8007  138.3019  153.9776 C   0  0  0  0  0  0  0  0  0  0  0  0
  150.9911  139.2071  155.1780 C   0  0  0  0  0  0  0  0  0  0  0  0
  152.2003  139.2016  155.9047 C   0  0  0  0  0  0  0  0  0  0  0  0
  152.4208  139.9821  156.9834 N   0  0  0  0  0  0  0  0  0  0  0  0
  151.4329  140.8172  157.3881 C   0  0  0  0  0  0  0  0  0  0  0  0
  151.6643  141.6248  158.5111 N   0  0  0  0  0  0  0  0  0  0  0  0
  152.7939  141.1859  159.3211 C   0  0  0  0  0  0  0  0  0  0  0  0
  152.8914  142.0426  160.5954 C   0  0  0  0  0  0  0  0  0  0  0  0
  152.9811  143.4192  160.2392 O   0  0  0  0  0  0  0  0  0  0  0  0
  151.8380  143.8596  159.5113 C   0  0  0  0  0  0  0  0  0  0  0  0
  151.7132  143.0501  158.2089 C   0  0  0  0  0  0  0  0  0  0  0  0
  150.1893  140.8971  156.7234 C   0  0  0  0  0  0  0  0  0  0  0  0
  149.2223  141.7424  157.1543 F   0  0  0  0  0  0  0  0  0  0  0  0
  149.9665  140.0792  155.5991 C   0  0  0  0  0  0  0  0  0  0  0  0
  149.4485  139.2055  152.7378 H   0  0  0  0  0  0  0  0  0  0  0  0
  148.7951  138.6630  154.1513 H   0  0  0  0  0  0  0  0  0  0  0  0
  150.9559  137.2624  154.2678 H   0  0  0  0  0  0  0  0  0  0  0  0
  151.5411  138.5367  153.2120 H   0  0  0  0  0  0  0  0  0  0  0  0
  153.0114  138.5491  155.6168 H   0  0  0  0  0  0  0  0  0  0  0  0
  152.6746  140.1342  159.5846 H   0  0  0  0  0  0  0  0  0  0  0  0
  153.7167  141.2727  158.7458 H   0  0  0  0  0  0  0  0  0  0  0  0
  152.0278  141.8788  161.2423 H   0  0  0  0  0  0  0  0  0  0  0  0
  153.7764  141.7655  161.1685 H   0  0  0  0  0  0  0  0  0  0  0  0
  150.9409  143.7538  160.1234 H   0  0  0  0  0  0  0  0  0  0  0  0
  151.9473  144.9203  159.2856 H   0  0  0  0  0  0  0  0  0  0  0  0
  152.5639  143.2620  157.5596 H   0  0  0  0  0  0  0  0  0  0  0  0
  150.8124  143.3447  157.6691 H   0  0  0  0  0  0  0  0  0  0  0  0
  149.0240  140.1208  155.0729 H   0  0  0  0  0  0  0  0  0  0  0  0
  149.1769  137.5940  152.9553 H   0  0  0  0  0  0  0  0  0  0  0  0
  1  2  1  0  0  0  0
  1 16  1  0  0  0  0
  1 17  1  0  0  0  0
  1 30  1  0  0  0  0
  2  3  1  0  0  0  0
  2 18  1  0  0  0  0
  2 19  1  0  0  0  0
  3 15  1  0  0  0  0
  3  4  2  0  0  0  0
  4  5  1  0  0  0  0
  4 20  1  0  0  0  0
  5  6  2  0  0  0  0
  6  7  1  0  0  0  0
  6 13  1  0  0  0  0
  7 12  1  0  0  0  0
  7  8  1  0  0  0  0
  8  9  1  0  0  0  0
  8 21  1  0  0  0  0
  8 22  1  0  0  0  0
  9 10  1  0  0  0  0
  9 23  1  0  0  0  0
  9 24  1  0  0  0  0
 10 11  1  0  0  0  0
 11 12  1  0  0  0  0
 11 25  1  0  0  0  0
 11 26  1  0  0  0  0
 12 27  1  0  0  0  0
 12 28  1  0  0  0  0
 13 14  1  0  0  0  0
 13 15  2  0  0  0  0
 15 29  1  0  0  0  0
M  CHG  1   1   1
M  END
> <s_m_source_file>
AV-unprocessed.smi

> <i_m_source_file_index>
3098

> <i_lp_mmshare_version>
43012

> <i_f3d_flags>
0

> <s_epik_input>
W05IMl1bQ0gyXWMxW2NIXW5jKGMoRilbY0hdMSlOMltDSDJdW0NIMl1PW0NIMl1bQ0gyXTI=

> <s_epik_cmdline>
J2VwaWtfcHl0aG9uJywgJy1waCcsICc3LjAnLCAnLXRuJywgJzgnLCAnLW1hJywgJzIwMCcsICctbWV0YWxfYmluZGluZycsICctaW1hZScsICc8aW5maWxlLm1hZT4nLCAnLW9tYWUnLCAnPG91dGZpbGUubWFlPic=

> <r_lp_tautomer_probability>
1

> <r_epik_Ionization_Penalty>
0.06982

> <r_epik_Ionization_Penalty_Charging>
0.0698168

> <r_epik_Ionization_Penalty_Neutral>
3.20429e-06

> <r_epik_State_Penalty>
0.0611812

> <r_epik_Charging_Adjusted_Penalty>
0.130998

> <i_epik_Tot_Q>
1

> <i_epik_Tot_abs_Q>
1

> <r_epik_Metal_State_Penalty>
0.0611834

> <b_epik_Metal_Only>
0

> <s_lp_Force_Field>
OPLS_2005

> <r_lp_Energy>
20.0675

> <b_lp_Chiralities_Consistent>
1

> <s_lp_Variant>
AV-unprocessed.smi:3098-1

> <Gold.Version>
5.8.1

> <Gold.Id.Protein>
6NUR|6NUR_protein|mol2

> <Gold.PLP.Fitness>
42.4947

> <Gold.PLP.PLP>
-31.1753

> <Gold.PLP.part.hbond>
-3.0000

> <Gold.PLP.part.metal>
0.0000

> <Gold.PLP.part.buried>
-4.6464

> <Gold.PLP.part.nonpolar>
-24.9651

> <Gold.PLP.part.repulsive>
0.0756

> <Gold.PLP.ligand.clash>
0.0000

> <Gold.PLP.ligand.torsion>
0.2631

> <Gold.PLP.Chemscore.Hbond>
3.9120

> <Gold.PLP.Chemscore.CHOScore>
0.0000

> <Gold.PLP.Chemscore.Metal>
0.0000

> <Gold.Chemscore.Hbonds>
donor molecule, donor type, donor heavy atom, donor atom, acceptor molecule, acceptor atom, score
      L1  H     1    16       P1  7957  1.00
      L1  H     1    30       P1  7948  2.00
      P1  H  7997  8009       L1     5  0.79

> <Gold.PLP.Chemscore.Internal.Correction>
0.1096

> <Gold.Rescore>
     Score         DG    S(hbond)    S(metal)    S(lipo)     H(rot)  DE(clash)    DE(int)     intcor
     17.60     -18.34       2.06        0.00      80.39       1.34       0.27       0.47       ----

> <Gold.Chemscore.Fitness>
17.5954

> <Gold.Chemscore.DG>
-18.3391

> <Gold.Chemscore.ZeroCoef>
-5.4800

> <Gold.Chemscore.Hbond>
2.0629

> <Gold.Chemscore.Metal>
0.0000

> <Gold.Chemscore.Lipo>
80.3864

> <Gold.Chemscore.Internal_Hbond>
0.0000

> <Gold.Chemscore.DEClash>
0.2748

> <Gold.Chemscore.DEInternal>
0.4689

> <Gold.Chemscore.Rot>
1.3423

> <Gold.Chemscore.Internal.Correction>
   9.000000E+99

> <Gold.Chemscore.Hbonds>
donor molecule, donor type, donor heavy atom, donor atom, acceptor molecule, acceptor atom, score
      L1  H     1    16       P1  7957  0.99
      L1  H     1    30       P1  7948  0.99
      P1  H  7997  8009       L1     5  0.14

> <Gold.Chemscore.Hbond.Weighted>
-6.8902

> <Gold.Chemscore.Metal.Weighted>
-0.0000

> <Gold.Chemscore.Lipo.Weighted>
-9.4052

> <Gold.Chemscore.Internal_Hbond.Weighted>
0.0000

> <Gold.Chemscore.DEClash.Weighted>
0.2748

> <Gold.Chemscore.DEInternal.Weighted>
0.4689

> <Gold.Chemscore.Rot.Weighted>
3.4363

> <Gold.Chemscore.Internal.Correction.Weighted>
   9.000000E+99

> <Gold.Protein.RotatedTorsions>
[ 6907 6896 6895 6894 ] final -135.57 input  -60.11 | X-H torsion
[ 7974 7965 7964 7962 ] final -142.87 input  175.53 | X-H torsion
[ 8008 7997 7996 7995 ] final  165.23 input   59.86 | X-H torsion
[ 10167 10162 10161 10158 ] final  115.91 input  -65.29 | X-H torsion
[ 10718 10713 10712 10709 ] final   81.83 input   66.30 | X-H torsion
[ 10763 10752 10751 10750 ] final  -15.19 input  -60.55 | X-H torsion
[ 11005 11000 10999 10996 ] final -127.60 input  -57.11 | X-H torsion

> <Gold.Protein.ActiveResidues>
 VAL166  LYS551  ARG553  GLY616  TRP617  ASP618  TYR619  PRO620  LYS621  CYS622 
 ASP623  PHE694  ASN695  SER759  ASP760  ASP761  ALA762  ILE779  LEU786  VAL792 
 PHE793  MET794  SER795  GLU796  ALA797  LYS798  CYS799  TRP800  GLU811  SER814 

> <Gold.Protein.RotatedAtoms>
  150.9994  133.6070  159.2696 H   0  0  0  0  0  0  0  0  0  0  0  0  # atno 6907 bound_to 6896
  151.3262  135.0830  159.9332 H   0  0  0  0  0  0  0  0  0  0  0  0  # atno 6908 bound_to 6896
  152.5269  133.9632  159.7781 H   0  0  0  0  0  0  0  0  0  0  0  0  # atno 6909 bound_to 6896
  144.8411  140.5904  143.5452 H   0  0  0  0  0  0  0  0  0  0  0  0  # atno 7974 bound_to 7965
  156.1817  140.1675  156.8261 H   0  0  0  0  0  0  0  0  0  0  0  0  # atno 8008 bound_to 7997
  154.5368  140.0745  156.8474 H   0  0  0  0  0  0  0  0  0  0  0  0  # atno 8009 bound_to 7997
  155.3295  140.3378  155.4242 H   0  0  0  0  0  0  0  0  0  0  0  0  # atno 8010 bound_to 7997
  139.6284  144.7111  151.2484 H   0  0  0  0  0  0  0  0  0  0  0  0  # atno 10167 bound_to 10162
  157.6843  131.0021  150.2285 H   0  0  0  0  0  0  0  0  0  0  0  0  # atno 10718 bound_to 10713
  153.5396  135.7013  153.5643 H   0  0  0  0  0  0  0  0  0  0  0  0  # atno 10763 bound_to 10752
  153.3615  135.3968  155.1721 H   0  0  0  0  0  0  0  0  0  0  0  0  # atno 10764 bound_to 10752
  154.8675  135.3790  154.4899 H   0  0  0  0  0  0  0  0  0  0  0  0  # atno 10765 bound_to 10752
  140.9586  134.0968  157.3991 H   0  0  0  0  0  0  0  0  0  0  0  0  # atno 11005 bound_to 11000
  145.4692  139.1505  143.3823 LP  0  0  0  0  0  0  0  0  0  0  0  0  # atno 17320 bound_to 7965
  146.2703  140.4825  142.8817 LP  0  0  0  0  0  0  0  0  0  0  0  0  # atno 17321 bound_to 7965
  140.7424  143.6525  150.8236 LP  0  0  0  0  0  0  0  0  0  0  0  0  # atno 17342 bound_to 10162
  140.0147  143.5606  152.2825 LP  0  0  0  0  0  0  0  0  0  0  0  0  # atno 17343 bound_to 10162
  156.2922  130.3747  149.7830 LP  0  0  0  0  0  0  0  0  0  0  0  0  # atno 17370 bound_to 10713
  156.5486  130.8332  151.3292 LP  0  0  0  0  0  0  0  0  0  0  0  0  # atno 17371 bound_to 10713
  139.8870  135.0086  156.6535 LP  0  0  0  0  0  0  0  0  0  0  0  0  # atno 17394 bound_to 11000
  140.7500  133.8905  155.8340 LP  0  0  0  0  0  0  0  0  0  0  0  0  # atno 17395 bound_to 11000

$$$$
