AV-unprocessed.smi:221|AV-procd|sdf|1700|dock7
  -GOLD-   2262020153D 1   1.00000     0.00000
 Structure written by MMmdl.
 50 53  0  0  0  0  0  0  0  0  1 V2000
  150.1686  142.5828  156.7193 N   0  0  0  0  0  0  0  0  0  0  0  0
  150.8627  141.4402  156.7064 C   0  0  0  0  0  0  0  0  0  0  0  0
  151.1760  140.8920  155.6521 O   0  0  0  0  0  0  0  0  0  0  0  0
  151.2813  140.8080  158.0468 C   0  0  2  0  0  0  0  0  0  0  0  0
  152.2929  141.6863  158.7997 C   0  0  0  0  0  0  0  0  0  0  0  0
  152.9985  140.6860  159.7035 C   0  0  2  0  0  0  0  0  0  0  0  0
  154.1862  141.1209  160.1235 F   0  0  0  0  0  0  0  0  0  0  0  0
  153.1039  139.4505  158.8142 C   0  0  0  0  0  0  0  0  0  0  0  0
  151.9503  139.5041  157.9198 N   0  0  0  0  0  0  0  0  0  0  0  0
  151.1494  138.4147  157.9605 C   0  0  0  0  0  0  0  0  0  0  0  0
  150.5080  138.0817  159.1118 N   0  0  0  0  0  0  0  0  0  0  0  0
  149.7211  137.0015  159.1475 C   0  0  0  0  0  0  0  0  0  0  0  0
  149.4469  136.1348  158.1693 N   0  0  0  0  0  0  0  0  0  0  0  0
  150.0959  136.4675  157.0165 C   0  0  0  0  0  0  0  0  0  0  0  0
  150.9620  137.5798  156.8286 C   0  0  0  0  0  0  0  0  0  0  0  0
  151.4459  137.5954  155.5266 N   0  0  0  0  0  0  0  0  0  0  0  0
  150.8924  136.5509  154.9725 C   0  0  0  0  0  0  0  0  0  0  0  0
  150.0609  135.8221  155.7936 N   0  0  0  0  0  0  0  0  0  0  0  0
  149.3191  134.6239  155.4439 C   0  0  0  0  0  0  0  0  0  0  0  0
  150.2134  133.4345  155.0020 C   0  0  1  0  0  0  0  0  0  0  0  0
  150.7361  132.6102  156.2066 C   0  0  0  0  0  0  0  0  0  0  0  0
  151.1805  133.4371  157.2625 O   0  0  0  0  0  0  0  0  0  0  0  0
  149.4522  132.5298  153.9978 C   0  0  1  0  0  0  0  0  0  0  0  0
  148.3881  131.6387  154.6175 C   0  0  0  0  0  0  0  0  0  0  0  0
  147.5389  131.2612  153.4105 C   0  0  0  0  0  0  0  0  0  0  0  0
  147.5592  132.4037  152.5645 O   0  0  0  0  0  0  0  0  0  0  0  0
  148.6082  133.2830  152.9598 C   0  0  0  0  0  0  0  0  0  0  0  0
  150.3837  140.7150  158.6607 H   0  0  0  0  0  0  0  0  0  0  0  0
  152.3887  140.4731  160.5826 H   0  0  0  0  0  0  0  0  0  0  0  0
  149.8898  143.0105  155.8484 H   0  0  0  0  0  0  0  0  0  0  0  0
  149.9280  143.0157  157.5997 H   0  0  0  0  0  0  0  0  0  0  0  0
  153.0118  142.1322  158.1095 H   0  0  0  0  0  0  0  0  0  0  0  0
  151.8186  142.4930  159.3596 H   0  0  0  0  0  0  0  0  0  0  0  0
  154.0027  139.5006  158.1980 H   0  0  0  0  0  0  0  0  0  0  0  0
  153.1662  138.5349  159.4054 H   0  0  0  0  0  0  0  0  0  0  0  0
  149.2420  136.8035  160.0949 H   0  0  0  0  0  0  0  0  0  0  0  0
  151.0709  136.2858  153.9406 H   0  0  0  0  0  0  0  0  0  0  0  0
  148.7074  134.3342  156.2992 H   0  0  0  0  0  0  0  0  0  0  0  0
  148.6255  134.9012  154.6504 H   0  0  0  0  0  0  0  0  0  0  0  0
  151.0785  133.8395  154.4742 H   0  0  0  0  0  0  0  0  0  0  0  0
  149.9675  131.9291  156.5729 H   0  0  0  0  0  0  0  0  0  0  0  0
  151.5892  131.9948  155.9251 H   0  0  0  0  0  0  0  0  0  0  0  0
  151.4818  134.2553  156.8979 H   0  0  0  0  0  0  0  0  0  0  0  0
  150.1656  131.8944  153.4700 H   0  0  0  0  0  0  0  0  0  0  0  0
  148.7965  130.7630  155.1224 H   0  0  0  0  0  0  0  0  0  0  0  0
  147.7892  132.2003  155.3360 H   0  0  0  0  0  0  0  0  0  0  0  0
  147.9894  130.4238  152.8759 H   0  0  0  0  0  0  0  0  0  0  0  0
  146.5211  130.9817  153.6838 H   0  0  0  0  0  0  0  0  0  0  0  0
  148.1567  134.1739  153.3985 H   0  0  0  0  0  0  0  0  0  0  0  0
  149.1928  133.5938  152.0937 H   0  0  0  0  0  0  0  0  0  0  0  0
  1  2  1  0  0  0  0
  1 30  1  0  0  0  0
  1 31  1  0  0  0  0
  2  3  2  0  0  0  0
  2  4  1  0  0  0  0
  4 28  1  0  0  0  0
  4  9  1  0  0  0  0
  4  5  1  0  0  0  0
  5  6  1  0  0  0  0
  5 32  1  0  0  0  0
  5 33  1  0  0  0  0
  6 29  1  0  0  0  0
  6  7  1  0  0  0  0
  6  8  1  0  0  0  0
  8  9  1  0  0  0  0
  8 34  1  0  0  0  0
  8 35  1  0  0  0  0
  9 10  1  0  0  0  0
 10 15  1  0  0  0  0
 10 11  2  0  0  0  0
 11 12  1  0  0  0  0
 12 13  2  0  0  0  0
 12 36  1  0  0  0  0
 13 14  1  0  0  0  0
 14 18  1  0  0  0  0
 14 15  2  0  0  0  0
 15 16  1  0  0  0  0
 16 17  2  0  0  0  0
 17 18  1  0  0  0  0
 17 37  1  0  0  0  0
 18 19  1  0  0  0  0
 19 20  1  0  0  0  0
 19 38  1  0  0  0  0
 19 39  1  0  0  0  0
 20 21  1  0  0  0  0
 20 23  1  0  0  0  0
 20 40  1  0  0  0  0
 21 22  1  0  0  0  0
 21 41  1  0  0  0  0
 21 42  1  0  0  0  0
 22 43  1  0  0  0  0
 23 27  1  0  0  0  0
 23 24  1  0  0  0  0
 23 44  1  0  0  0  0
 24 25  1  0  0  0  0
 24 45  1  0  0  0  0
 24 46  1  0  0  0  0
 25 26  1  0  0  0  0
 25 47  1  0  0  0  0
 25 48  1  0  0  0  0
 26 27  1  0  0  0  0
 27 49  1  0  0  0  0
 27 50  1  0  0  0  0
M  END
> <s_m_source_file>
AV-unprocessed.smi

> <i_m_source_file_index>
221

> <i_lp_mmshare_version>
43012

> <i_f3d_flags>
0

> <s_epik_input>
W05IMl1DKD1PKVtDQEBIXTFbQ0gyXVtDQEBIXShGKVtDSDJdTjFjKG5bY0hdbjIpYyhjMjMpbltjSF1uM1tDSDJdW0NASF0oW0NIMl1bT0hdKVtDQEBIXTRbQ0gyXVtDSDJdT1tDSDJdNA==

> <s_epik_cmdline>
J2VwaWtfcHl0aG9uJywgJy1waCcsICc3LjAnLCAnLXRuJywgJzgnLCAnLW1hJywgJzIwMCcsICctbWV0YWxfYmluZGluZycsICctaW1hZScsICc8aW5maWxlLm1hZT4nLCAnLW9tYWUnLCAnPG91dGZpbGUubWFlPic=

> <r_lp_tautomer_probability>
1

> <r_epik_Ionization_Penalty>
0.000818822

> <r_epik_Ionization_Penalty_Charging>
0

> <r_epik_Ionization_Penalty_Neutral>
0.000818822

> <r_epik_State_Penalty>
0.000440551

> <r_epik_Charging_Adjusted_Penalty>
0.000440551

> <i_epik_Tot_Q>
0

> <i_epik_Tot_abs_Q>
0

> <r_epik_Metal_State_Penalty>
-0

> <b_epik_Metal_Only>
0

> <s_lp_Force_Field>
OPLS_2005

> <r_lp_Energy>
51.3471

> <b_lp_Chiralities_Consistent>
1

> <s_lp_Variant>
AV-unprocessed.smi:221-15

> <Gold.Version>
5.8.1

> <Gold.Id.Protein>
6NUR|6NUR_protein|mol2

> <Gold.PLP.Fitness>
46.2720

> <Gold.PLP.PLP>
-39.4033

> <Gold.PLP.part.hbond>
-3.3783

> <Gold.PLP.part.metal>
0.0000

> <Gold.PLP.part.buried>
-6.6330

> <Gold.PLP.part.nonpolar>
-29.7932

> <Gold.PLP.part.repulsive>
0.3908

> <Gold.PLP.ligand.clash>
0.0000

> <Gold.PLP.ligand.torsion>
0.7636

> <Gold.PLP.Chemscore.Hbond>
1.7144

> <Gold.PLP.Chemscore.CHOScore>
1.0000

> <Gold.PLP.Chemscore.Metal>
0.0000

> <Gold.Chemscore.Hbonds>
donor molecule, donor type, donor heavy atom, donor atom, acceptor molecule, acceptor atom, score
      L1  H     1    30       P1  8028  0.53
      P1  H  6896  6907       L1    22  0.70
      P1  H  7989  7998       L1     3  0.42
      L1  C    17    37       P1  7949  1.00

> <Gold.PLP.Chemscore.Internal.Correction>
0.2528

> <Gold.Rescore>
     Score         DG    S(hbond)    S(metal)    S(lipo)     H(rot)  DE(clash)    DE(int)     intcor
      7.66      -9.41       1.71        0.00      66.34       3.72       0.22       1.53       ----

> <Gold.Chemscore.Fitness>
7.6636

> <Gold.Chemscore.DG>
-9.4135

> <Gold.Chemscore.ZeroCoef>
-5.4800

> <Gold.Chemscore.Hbond>
1.7053

> <Gold.Chemscore.Metal>
0.0000

> <Gold.Chemscore.Lipo>
66.3388

> <Gold.Chemscore.Internal_Hbond>
0.0000

> <Gold.Chemscore.DEClash>
0.2189

> <Gold.Chemscore.DEInternal>
1.5309

> <Gold.Chemscore.Rot>
3.7202

> <Gold.Chemscore.Internal.Correction>
   9.000000E+99

> <Gold.Chemscore.Hbonds>
donor molecule, donor type, donor heavy atom, donor atom, acceptor molecule, acceptor atom, score
      L1  H     1    30       P1  8028  0.50
      P1  H  6896  6907       L1    22  0.57
      P1  H  7989  7998       L1     3  0.42

> <Gold.Chemscore.Hbond.Weighted>
-5.6956

> <Gold.Chemscore.Metal.Weighted>
-0.0000

> <Gold.Chemscore.Lipo.Weighted>
-7.7616

> <Gold.Chemscore.Internal_Hbond.Weighted>
0.0000

> <Gold.Chemscore.DEClash.Weighted>
0.2189

> <Gold.Chemscore.DEInternal.Weighted>
1.5309

> <Gold.Chemscore.Rot.Weighted>
9.5237

> <Gold.Chemscore.Internal.Correction.Weighted>
   9.000000E+99

> <Gold.Protein.RotatedTorsions>
[ 6907 6896 6895 6894 ] final -151.88 input  -60.11 | X-H torsion
[ 7974 7965 7964 7962 ] final  133.40 input  175.53 | X-H torsion
[ 8008 7997 7996 7995 ] final -156.77 input   59.86 | X-H torsion
[ 10167 10162 10161 10158 ] final  147.07 input  -65.29 | X-H torsion
[ 10718 10713 10712 10709 ] final  -64.40 input   66.30 | X-H torsion
[ 10763 10752 10751 10750 ] final  110.55 input  -60.55 | X-H torsion
[ 11005 11000 10999 10996 ] final  -62.65 input  -57.11 | X-H torsion

> <Gold.Protein.ActiveResidues>
 VAL166  LYS551  ARG553  GLY616  TRP617  ASP618  TYR619  PRO620  LYS621  CYS622 
 ASP623  PHE694  ASN695  SER759  ASP760  ASP761  ALA762  ILE779  LEU786  VAL792 
 PHE793  MET794  SER795  GLU796  ALA797  LYS798  CYS799  TRP800  GLU811  SER814 

> <Gold.Protein.RotatedAtoms>
  151.2196  133.4510  159.2600 H   0  0  0  0  0  0  0  0  0  0  0  0  # atno 6907 bound_to 6896
  151.0897  134.9909  159.8407 H   0  0  0  0  0  0  0  0  0  0  0  0  # atno 6908 bound_to 6896
  152.5433  134.2131  159.8810 H   0  0  0  0  0  0  0  0  0  0  0  0  # atno 6909 bound_to 6896
  144.9869  139.4446  143.5358 H   0  0  0  0  0  0  0  0  0  0  0  0  # atno 7974 bound_to 7965
  155.7223  140.0791  157.2325 H   0  0  0  0  0  0  0  0  0  0  0  0  # atno 8008 bound_to 7997
  154.4043  140.1610  156.2470 H   0  0  0  0  0  0  0  0  0  0  0  0  # atno 8009 bound_to 7997
  155.9185  140.3399  155.6157 H   0  0  0  0  0  0  0  0  0  0  0  0  # atno 8010 bound_to 7997
  139.4896  144.5783  151.6922 H   0  0  0  0  0  0  0  0  0  0  0  0  # atno 10167 bound_to 10162
  156.0732  130.4233  150.1414 H   0  0  0  0  0  0  0  0  0  0  0  0  # atno 10718 bound_to 10713
  153.4506  135.3745  155.2281 H   0  0  0  0  0  0  0  0  0  0  0  0  # atno 10763 bound_to 10752
  154.8756  135.3885  154.4043 H   0  0  0  0  0  0  0  0  0  0  0  0  # atno 10764 bound_to 10752
  153.4602  135.7086  153.6119 H   0  0  0  0  0  0  0  0  0  0  0  0  # atno 10765 bound_to 10752
  141.1367  133.6642  156.5559 H   0  0  0  0  0  0  0  0  0  0  0  0  # atno 11005 bound_to 11000
  146.3422  139.9176  142.8771 LP  0  0  0  0  0  0  0  0  0  0  0  0  # atno 17320 bound_to 7965
  145.2341  140.9984  143.3974 LP  0  0  0  0  0  0  0  0  0  0  0  0  # atno 17321 bound_to 7965
  140.5384  144.0619  150.6079 LP  0  0  0  0  0  0  0  0  0  0  0  0  # atno 17342 bound_to 10162
  140.3633  143.2896  152.0360 LP  0  0  0  0  0  0  0  0  0  0  0  0  # atno 17343 bound_to 10162
  156.9461  130.9760  151.3507 LP  0  0  0  0  0  0  0  0  0  0  0  0  # atno 17370 bound_to 10713
  157.5813  130.8378  149.8527 LP  0  0  0  0  0  0  0  0  0  0  0  0  # atno 17371 bound_to 10713
  140.4026  134.7343  157.4789 LP  0  0  0  0  0  0  0  0  0  0  0  0  # atno 17394 bound_to 11000
  140.0485  134.6165  155.8891 LP  0  0  0  0  0  0  0  0  0  0  0  0  # atno 17395 bound_to 11000

$$$$
