AV-unprocessed.smi:72|AV-procd|sdf|672|dock7
  -GOLD-   2262016573D 1   1.00000     0.00000
 Structure written by MMmdl.
 29 30  0  0  0  0  0  0  0  0  1 V2000
  146.2695  139.1550  152.9619 N   0  0  0  0  0  0  0  0  0  0  0  0
  147.3365  139.5809  153.5385 C   0  0  0  0  0  0  0  0  0  0  0  0
  147.5039  140.8572  154.0946 N   0  0  0  0  0  0  0  0  0  0  0  0
  148.6278  141.1396  154.6772 C   0  0  0  0  0  0  0  0  0  0  0  0
  149.7047  140.1653  154.8173 N   0  0  0  0  0  0  0  0  0  0  0  0
  151.0480  140.5020  155.4539 C   0  0  1  0  0  0  0  0  0  0  0  0
  150.9661  141.7787  156.0030 O   0  0  0  0  0  0  0  0  0  0  0  0
  150.6134  141.6616  157.3728 C   0  0  2  0  0  0  0  0  0  0  0  0
  150.9662  142.9501  158.1381 C   0  0  0  0  0  0  0  0  0  0  0  0
  150.9972  144.0815  157.2919 O   0  0  0  0  0  0  0  0  0  0  0  0
  151.2741  140.3580  157.8605 C   0  0  1  0  0  0  0  0  0  0  0  0
  150.3998  139.6751  158.7369 O   0  0  0  0  0  0  0  0  0  0  0  0
  151.4952  139.5429  156.5796 C   0  0  2  0  0  0  0  0  0  0  0  0
  152.8621  139.2098  156.4441 O   0  0  0  0  0  0  0  0  0  0  0  0
  149.5790  138.9049  154.1776 C   0  0  0  0  0  0  0  0  0  0  0  0
  150.4852  138.0720  154.1663 O   0  0  0  0  0  0  0  0  0  0  0  0
  148.3912  138.6614  153.5826 N   0  0  0  0  0  0  0  0  0  0  0  0
  151.7616  140.4935  154.6285 H   0  0  0  0  0  0  0  0  0  0  0  0
  149.5277  141.5507  157.3932 H   0  0  0  0  0  0  0  0  0  0  0  0
  152.2189  140.5457  158.3715 H   0  0  0  0  0  0  0  0  0  0  0  0
  150.9415  138.6047  156.5506 H   0  0  0  0  0  0  0  0  0  0  0  0
  145.5540  139.8673  152.9668 H   0  0  0  0  0  0  0  0  0  0  0  0
  148.8317  142.1274  155.0877 H   0  0  0  0  0  0  0  0  0  0  0  0
  150.2564  143.1204  158.9478 H   0  0  0  0  0  0  0  0  0  0  0  0
  151.9511  142.8469  158.5942 H   0  0  0  0  0  0  0  0  0  0  0  0
  150.1129  144.2833  157.0266 H   0  0  0  0  0  0  0  0  0  0  0  0
  150.9126  139.0883  159.2715 H   0  0  0  0  0  0  0  0  0  0  0  0
  152.9466  138.2689  156.4696 H   0  0  0  0  0  0  0  0  0  0  0  0
  148.2702  137.7637  153.1374 H   0  0  0  0  0  0  0  0  0  0  0  0
  1  2  2  0  0  0  0
  1 22  1  0  0  0  0
  2 17  1  0  0  0  0
  2  3  1  0  0  0  0
  3  4  2  0  0  0  0
  4  5  1  0  0  0  0
  4 23  1  0  0  0  0
  5  6  1  0  0  0  0
  5 15  1  0  0  0  0
  6 18  1  0  0  0  0
  6 13  1  0  0  0  0
  6  7  1  0  0  0  0
  7  8  1  0  0  0  0
  8 19  1  0  0  0  0
  8  9  1  0  0  0  0
  8 11  1  0  0  0  0
  9 10  1  0  0  0  0
  9 24  1  0  0  0  0
  9 25  1  0  0  0  0
 10 26  1  0  0  0  0
 11 20  1  0  0  0  0
 11 12  1  0  0  0  0
 11 13  1  0  0  0  0
 12 27  1  0  0  0  0
 13 21  1  0  0  0  0
 13 14  1  0  0  0  0
 14 28  1  0  0  0  0
 15 16  2  0  0  0  0
 15 17  1  0  0  0  0
 17 29  1  0  0  0  0
M  END
> <s_m_source_file>
AV-unprocessed.smi

> <i_m_source_file_index>
72

> <i_lp_mmshare_version>
43012

> <i_f3d_flags>
0

> <s_epik_input>
W05IMl1jMW5bY0hdbihjKD1PKW4xKVtDQEBIXTJPW0NASF0oW0NIMl1bT0hdKVtDQEBIXShbT0hdKVtDQEhdMltPSF0=

> <s_epik_cmdline>
J2VwaWtfcHl0aG9uJywgJy1waCcsICc3LjAnLCAnLXRuJywgJzgnLCAnLW1hJywgJzIwMCcsICctbWV0YWxfYmluZGluZycsICctaW1hZScsICc8aW5maWxlLm1hZT4nLCAnLW9tYWUnLCAnPG91dGZpbGUubWFlPic=

> <r_lp_tautomer_probability>
7.17554e-07

> <r_epik_Ionization_Penalty>
0.0066451

> <r_epik_Ionization_Penalty_Charging>
0.00663793

> <r_epik_Ionization_Penalty_Neutral>
7.17052e-06

> <r_epik_State_Penalty>
0.419231

> <r_epik_Charging_Adjusted_Penalty>
0.425868

> <i_epik_Tot_Q>
0

> <i_epik_Tot_abs_Q>
0

> <r_epik_Metal_State_Penalty>
1.44144

> <b_epik_Metal_Only>
0

> <s_epik_Chemistry_Notes>
This compound contains an acetal/aminal-like group ( X-CH(R)-Y where X, Y are N, S, or O) that may be acid/base labile, releasing an aldehyde.

> <s_lp_Force_Field>
OPLS_2005

> <r_lp_Energy>
39.4446

> <b_lp_Chiralities_Consistent>
1

> <s_lp_Variant>
AV-unprocessed.smi:72-10

> <Gold.Version>
5.8.1

> <Gold.Id.Protein>
6NUR|6NUR_protein|mol2

> <Gold.PLP.Fitness>
39.1949

> <Gold.PLP.PLP>
-26.0797

> <Gold.PLP.part.hbond>
-5.1365

> <Gold.PLP.part.metal>
0.0000

> <Gold.PLP.part.buried>
-1.1068

> <Gold.PLP.part.nonpolar>
-19.5444

> <Gold.PLP.part.repulsive>
0.5166

> <Gold.PLP.ligand.clash>
0.0000

> <Gold.PLP.ligand.torsion>
0.5194

> <Gold.PLP.Chemscore.Hbond>
3.9422

> <Gold.PLP.Chemscore.CHOScore>
0.7498

> <Gold.PLP.Chemscore.Metal>
0.0000

> <Gold.Chemscore.Hbonds>
donor molecule, donor type, donor heavy atom, donor atom, acceptor molecule, acceptor atom, score
      L1  H     1    22       P1 10175  0.99
      L1  H    10    26       P1  8028  0.99
      L1  H    17    29       P1  7948  0.84
      P1  H  7997  8009       L1    14  1.00
      L1  C     4    23       P1  8028  0.71

> <Gold.PLP.Chemscore.Internal.Correction>
0.0781

> <Gold.Rescore>
     Score         DG    S(hbond)    S(metal)    S(lipo)     H(rot)  DE(clash)    DE(int)     intcor
      9.69     -10.36       3.74        0.00      23.74       4.06       0.09       0.59       ----

> <Gold.Chemscore.Fitness>
9.6865

> <Gold.Chemscore.DG>
-10.3612

> <Gold.Chemscore.ZeroCoef>
-5.4800

> <Gold.Chemscore.Hbond>
3.7416

> <Gold.Chemscore.Metal>
0.0000

> <Gold.Chemscore.Lipo>
23.7435

> <Gold.Chemscore.Internal_Hbond>
0.0000

> <Gold.Chemscore.DEClash>
0.0866

> <Gold.Chemscore.DEInternal>
0.5881

> <Gold.Chemscore.Rot>
4.0600

> <Gold.Chemscore.Internal.Correction>
   9.000000E+99

> <Gold.Chemscore.Hbonds>
donor molecule, donor type, donor heavy atom, donor atom, acceptor molecule, acceptor atom, score
      L1  H     1    22       P1 10175  0.88
      L1  H    10    26       P1  8028  0.78
      L1  H    17    29       P1  7948  0.78
      P1  H  7997  8009       L1    14  0.93

> <Gold.Chemscore.Hbond.Weighted>
-12.4969

> <Gold.Chemscore.Metal.Weighted>
-0.0000

> <Gold.Chemscore.Lipo.Weighted>
-2.7780

> <Gold.Chemscore.Internal_Hbond.Weighted>
0.0000

> <Gold.Chemscore.DEClash.Weighted>
0.0866

> <Gold.Chemscore.DEInternal.Weighted>
0.5881

> <Gold.Chemscore.Rot.Weighted>
10.3936

> <Gold.Chemscore.Internal.Correction.Weighted>
   9.000000E+99

> <Gold.Protein.RotatedTorsions>
[ 6907 6896 6895 6894 ] final -120.48 input  -60.11 | X-H torsion
[ 7974 7965 7964 7962 ] final   59.56 input  175.53 | X-H torsion
[ 8008 7997 7996 7995 ] final -158.37 input   59.86 | X-H torsion
[ 10167 10162 10161 10158 ] final -127.12 input  -65.29 | X-H torsion
[ 10718 10713 10712 10709 ] final  -25.93 input   66.30 | X-H torsion
[ 10763 10752 10751 10750 ] final  125.31 input  -60.55 | X-H torsion
[ 11005 11000 10999 10996 ] final  -38.90 input  -57.11 | X-H torsion

> <Gold.Protein.ActiveResidues>
 VAL166  LYS551  ARG553  GLY616  TRP617  ASP618  TYR619  PRO620  LYS621  CYS622 
 ASP623  PHE694  ASN695  SER759  ASP760  ASP761  ALA762  ILE779  LEU786  VAL792 
 PHE793  MET794  SER795  GLU796  ALA797  LYS798  CYS799  TRP800  GLU811  SER814 

> <Gold.Protein.RotatedAtoms>
  150.8396  133.7957  159.3065 H   0  0  0  0  0  0  0  0  0  0  0  0  # atno 6907 bound_to 6896
  151.5662  135.1062  159.9994 H   0  0  0  0  0  0  0  0  0  0  0  0  # atno 6908 bound_to 6896
  152.4463  133.7500  159.6744 H   0  0  0  0  0  0  0  0  0  0  0  0  # atno 6909 bound_to 6896
  145.9057  139.3615  143.0565 H   0  0  0  0  0  0  0  0  0  0  0  0  # atno 7974 bound_to 7965
  155.7465  140.0821  157.2221 H   0  0  0  0  0  0  0  0  0  0  0  0  # atno 8008 bound_to 7997
  154.4016  140.1568  156.2730 H   0  0  0  0  0  0  0  0  0  0  0  0  # atno 8009 bound_to 7997
  155.8971  140.3412  155.6002 H   0  0  0  0  0  0  0  0  0  0  0  0  # atno 8010 bound_to 7997
  139.9642  143.5916  152.2435 H   0  0  0  0  0  0  0  0  0  0  0  0  # atno 10167 bound_to 10162
  156.4579  130.4497  149.6947 H   0  0  0  0  0  0  0  0  0  0  0  0  # atno 10718 bound_to 10713
  153.6754  135.3323  155.3164 H   0  0  0  0  0  0  0  0  0  0  0  0  # atno 10763 bound_to 10752
  154.8480  135.4396  154.1662 H   0  0  0  0  0  0  0  0  0  0  0  0  # atno 10764 bound_to 10752
  153.2664  135.6996  153.7602 H   0  0  0  0  0  0  0  0  0  0  0  0  # atno 10765 bound_to 10752
  141.0062  133.6930  156.2115 H   0  0  0  0  0  0  0  0  0  0  0  0  # atno 11005 bound_to 11000
  145.8734  140.9406  143.0638 LP  0  0  0  0  0  0  0  0  0  0  0  0  # atno 17320 bound_to 7965
  144.6739  140.0685  143.7474 LP  0  0  0  0  0  0  0  0  0  0  0  0  # atno 17321 bound_to 7965
  139.6530  144.7661  151.2110 LP  0  0  0  0  0  0  0  0  0  0  0  0  # atno 17342 bound_to 10162
  140.7543  143.6130  150.8587 LP  0  0  0  0  0  0  0  0  0  0  0  0  # atno 17343 bound_to 10162
  156.3747  130.7548  151.2535 LP  0  0  0  0  0  0  0  0  0  0  0  0  # atno 17370 bound_to 10713
  157.7499  131.0313  150.4174 LP  0  0  0  0  0  0  0  0  0  0  0  0  # atno 17371 bound_to 10713
  140.6809  134.4768  157.5589 LP  0  0  0  0  0  0  0  0  0  0  0  0  # atno 17394 bound_to 11000
  139.9065  134.8439  156.1688 LP  0  0  0  0  0  0  0  0  0  0  0  0  # atno 17395 bound_to 11000

$$$$
