AV-unprocessed.smi:1120|AV-procd|sdf|4823|dock7
  -GOLD-   22720 3383D 1   1.00000     0.00000
 Structure written by MMmdl.
 47 48  0  0  0  0  0  0  0  0  2 V2000
  153.1477  143.1175  160.0037 C   0  0  0  0  0  0  0  0  0  0  0  0
  152.5872  141.7021  159.8089 C   0  0  2  0  0  0  0  0  0  0  0  0
  153.7092  140.6399  159.7613 C   0  0  0  0  0  0  0  0  0  0  0  0
  153.1749  139.2041  159.5190 C   0  0  0  0  0  0  0  0  0  0  0  0
  152.2857  139.0600  158.2590 C   0  0  2  0  0  0  0  0  0  0  0  0
  153.1052  139.1706  157.0591 N   0  5  0  0  0  0  0  0  0  0  0  0
  153.2761  137.8969  156.0686 S   0  0  0  0  0  0  0  0  0  0  0  0
  154.6842  137.6660  155.7078 O   0  0  0  0  0  0  0  0  0  0  0  0
  152.4988  136.7235  156.5021 O   0  0  0  0  0  0  0  0  0  0  0  0
  152.4710  138.5411  154.5314 C   0  0  0  0  0  0  0  0  0  0  0  0
  151.0281  138.9762  154.7945 C   0  0  0  0  0  0  0  0  0  0  0  0
  150.7767  140.1539  155.0500 O   0  0  0  0  0  0  0  0  0  0  0  0
  150.0873  138.0230  154.7065 N   0  0  0  0  0  0  0  0  0  0  0  0
  148.6589  138.2315  154.9079 C   0  0  0  0  0  0  0  0  0  0  0  0
  148.0577  139.1208  153.8070 C   0  0  0  0  0  0  0  0  0  0  0  0
  147.3419  140.3323  154.3735 C   0  0  0  0  0  0  0  0  0  0  0  0
  146.1711  140.1811  155.1467 C   0  0  0  0  0  0  0  0  0  0  0  0
  145.5420  141.3385  155.6450 C   0  0  0  0  0  0  0  0  0  0  0  0
  146.1034  142.5958  155.3505 C   0  0  0  0  0  0  0  0  0  0  0  0
  147.2739  142.6400  154.5674 C   0  0  0  0  0  0  0  0  0  0  0  0
  147.8857  141.5367  154.0859 N   0  0  0  0  0  0  0  0  0  0  0  0
  151.1925  140.1594  158.2815 C   0  0  0  0  0  0  0  0  0  0  0  0
  151.7357  141.5915  158.5237 C   0  0  0  0  0  0  0  0  0  0  0  0
  153.8013  143.4015  159.1785 H   0  0  0  0  0  0  0  0  0  0  0  0
  153.7261  143.1866  160.9252 H   0  0  0  0  0  0  0  0  0  0  0  0
  152.3449  143.8527  160.0617 H   0  0  0  0  0  0  0  0  0  0  0  0
  151.9443  141.4774  160.6613 H   0  0  0  0  0  0  0  0  0  0  0  0
  154.4320  140.9044  158.9864 H   0  0  0  0  0  0  0  0  0  0  0  0
  154.2649  140.6578  160.6993 H   0  0  0  0  0  0  0  0  0  0  0  0
  154.0087  138.5023  159.4722 H   0  0  0  0  0  0  0  0  0  0  0  0
  152.5891  138.9066  160.3896 H   0  0  0  0  0  0  0  0  0  0  0  0
  151.7981  138.0855  158.3052 H   0  0  0  0  0  0  0  0  0  0  0  0
  153.0661  139.3666  154.1410 H   0  0  0  0  0  0  0  0  0  0  0  0
  152.4824  137.7450  153.7870 H   0  0  0  0  0  0  0  0  0  0  0  0
  150.3864  137.0799  154.5045 H   0  0  0  0  0  0  0  0  0  0  0  0
  148.1752  137.2546  154.9051 H   0  0  0  0  0  0  0  0  0  0  0  0
  148.4778  138.6653  155.8926 H   0  0  0  0  0  0  0  0  0  0  0  0
  148.8399  139.4566  153.1248 H   0  0  0  0  0  0  0  0  0  0  0  0
  147.3540  138.5448  153.2043 H   0  0  0  0  0  0  0  0  0  0  0  0
  145.7626  139.2025  155.3521 H   0  0  0  0  0  0  0  0  0  0  0  0
  144.6451  141.2631  156.2419 H   0  0  0  0  0  0  0  0  0  0  0  0
  145.6480  143.5046  155.7154 H   0  0  0  0  0  0  0  0  0  0  0  0
  147.7317  143.5869  154.3223 H   0  0  0  0  0  0  0  0  0  0  0  0
  150.6090  140.1385  157.3611 H   0  0  0  0  0  0  0  0  0  0  0  0
  150.4865  139.9240  159.0784 H   0  0  0  0  0  0  0  0  0  0  0  0
  150.8949  142.2831  158.5853 H   0  0  0  0  0  0  0  0  0  0  0  0
  152.3236  141.9181  157.6631 H   0  0  0  0  0  0  0  0  0  0  0  0
  1  2  1  0  0  0  0
  1 24  1  0  0  0  0
  1 25  1  0  0  0  0
  1 26  1  0  0  0  0
  2 23  1  0  0  0  0
  2  3  1  0  0  0  0
  2 27  1  0  0  0  0
  3  4  1  0  0  0  0
  3 28  1  0  0  0  0
  3 29  1  0  0  0  0
  4  5  1  0  0  0  0
  4 30  1  0  0  0  0
  4 31  1  0  0  0  0
  5  6  1  0  0  0  0
  5 22  1  0  0  0  0
  5 32  1  0  0  0  0
  6  7  1  0  0  0  0
  7  8  2  0  0  0  0
  7  9  2  0  0  0  0
  7 10  1  0  0  0  0
 10 11  1  0  0  0  0
 10 33  1  0  0  0  0
 10 34  1  0  0  0  0
 11 12  2  0  0  0  0
 11 13  1  0  0  0  0
 13 14  1  0  0  0  0
 13 35  1  0  0  0  0
 14 15  1  0  0  0  0
 14 36  1  0  0  0  0
 14 37  1  0  0  0  0
 15 16  1  0  0  0  0
 15 38  1  0  0  0  0
 15 39  1  0  0  0  0
 16 21  1  0  0  0  0
 16 17  2  0  0  0  0
 17 18  1  0  0  0  0
 17 40  1  0  0  0  0
 18 19  2  0  0  0  0
 18 41  1  0  0  0  0
 19 20  1  0  0  0  0
 19 42  1  0  0  0  0
 20 21  2  0  0  0  0
 20 43  1  0  0  0  0
 22 23  1  0  0  0  0
 22 44  1  0  0  0  0
 22 45  1  0  0  0  0
 23 46  1  0  0  0  0
 23 47  1  0  0  0  0
M  CHG  1   6  -1
M  END
> <s_m_source_file>
AV-unprocessed.smi

> <i_m_source_file_index>
1120

> <i_lp_mmshare_version>
43012

> <i_f3d_flags>
0

> <s_epik_input>
W0NIM11bQ0BASF0xW0NIMl1bQ0gyXVtDQEhdKFtDSDJdW0NIMl0xKVtOSF1TKD1PKSg9TylbQ0gyXUMoPU8pW05IXVtDSDJdW0NIMl1jMltjSF1bY0hdW2NIXVtjSF1uMg==

> <s_epik_cmdline>
J2VwaWtfcHl0aG9uJywgJy1waCcsICc3LjAnLCAnLXRuJywgJzgnLCAnLW1hJywgJzIwMCcsICctbWV0YWxfYmluZGluZycsICctaW1hZScsICc8aW5maWxlLm1hZT4nLCAnLW9tYWUnLCAnPG91dGZpbGUubWFlPic=

> <r_epik_Ionization_Penalty>
5.68623

> <r_epik_Ionization_Penalty_Charging>
5.66033

> <r_epik_Ionization_Penalty_Neutral>
0.0259005

> <r_epik_State_Penalty>
5.67764

> <r_epik_Charging_Adjusted_Penalty>
11.338

> <i_epik_Tot_Q>
-1

> <i_epik_Tot_abs_Q>
1

> <r_epik_Metal_State_Penalty>
1.68319

> <b_epik_Metal_Only>
1

> <s_lp_Force_Field>
OPLS_2005

> <r_lp_Energy>
10.049

> <b_lp_Chiralities_Consistent>
1

> <s_lp_Variant>
AV-unprocessed.smi:1120-6

> <Gold.Version>
5.8.1

> <Gold.Id.Protein>
6NUR|6NUR_protein|mol2

> <Gold.PLP.Fitness>
52.5340

> <Gold.PLP.PLP>
-39.6540

> <Gold.PLP.part.hbond>
-5.0000

> <Gold.PLP.part.metal>
0.0000

> <Gold.PLP.part.buried>
-5.0753

> <Gold.PLP.part.nonpolar>
-30.3548

> <Gold.PLP.part.repulsive>
0.2676

> <Gold.PLP.ligand.clash>
0.0000

> <Gold.PLP.ligand.torsion>
1.3428

> <Gold.PLP.Chemscore.Hbond>
4.0000

> <Gold.PLP.Chemscore.CHOScore>
0.8458

> <Gold.PLP.Chemscore.Metal>
0.0000

> <Gold.Chemscore.Hbonds>
donor molecule, donor type, donor heavy atom, donor atom, acceptor molecule, acceptor atom, score
      P1  H  7989  7998       L1    12  0.80
      P1  H  7997  8008       L1     6  2.00
      P1  H 10752 10765       L1     9  0.80
      L1  C    20    43       P1  8028  0.91

> <Gold.PLP.Chemscore.Internal.Correction>
1.0280

> <Gold.Rescore>
     Score         DG    S(hbond)    S(metal)    S(lipo)     H(rot)  DE(clash)    DE(int)     intcor
     16.27     -17.73       1.79        0.00      94.42       1.86       0.03       1.43       ----

> <Gold.Chemscore.Fitness>
16.2741

> <Gold.Chemscore.DG>
-17.7323

> <Gold.Chemscore.ZeroCoef>
-5.4800

> <Gold.Chemscore.Hbond>
1.7866

> <Gold.Chemscore.Metal>
0.0000

> <Gold.Chemscore.Lipo>
94.4210

> <Gold.Chemscore.Internal_Hbond>
0.0000

> <Gold.Chemscore.DEClash>
0.0329

> <Gold.Chemscore.DEInternal>
1.4252

> <Gold.Chemscore.Rot>
1.8602

> <Gold.Chemscore.Internal.Correction>
   9.000000E+99

> <Gold.Chemscore.Hbonds>
donor molecule, donor type, donor heavy atom, donor atom, acceptor molecule, acceptor atom, score
      P1  H  7989  7998       L1    12  0.12
      P1  H  7997  8008       L1     6  0.25
      P1  H 10752 10765       L1     9  0.11

> <Gold.Chemscore.Hbond.Weighted>
-5.9672

> <Gold.Chemscore.Metal.Weighted>
-0.0000

> <Gold.Chemscore.Lipo.Weighted>
-11.0473

> <Gold.Chemscore.Internal_Hbond.Weighted>
0.0000

> <Gold.Chemscore.DEClash.Weighted>
0.0329

> <Gold.Chemscore.DEInternal.Weighted>
1.4252

> <Gold.Chemscore.Rot.Weighted>
4.7622

> <Gold.Chemscore.Internal.Correction.Weighted>
   9.000000E+99

> <Gold.Protein.RotatedTorsions>
[ 6907 6896 6895 6894 ] final  166.85 input  -60.11 | X-H torsion
[ 7974 7965 7964 7962 ] final -125.73 input  175.53 | X-H torsion
[ 8008 7997 7996 7995 ] final  -56.59 input   59.86 | X-H torsion
[ 10167 10162 10161 10158 ] final  -23.70 input  -65.29 | X-H torsion
[ 10718 10713 10712 10709 ] final -118.85 input   66.30 | X-H torsion
[ 10763 10752 10751 10750 ] final -140.83 input  -60.55 | X-H torsion
[ 11005 11000 10999 10996 ] final  -87.41 input  -57.11 | X-H torsion

> <Gold.Protein.ActiveResidues>
 VAL166  LYS551  ARG553  GLY616  TRP617  ASP618  TYR619  PRO620  LYS621  CYS622 
 ASP623  PHE694  ASN695  SER759  ASP760  ASP761  ALA762  ILE779  LEU786  VAL792 
 PHE793  MET794  SER795  GLU796  ALA797  LYS798  CYS799  TRP800  GLU811  SER814 

> <Gold.Protein.RotatedAtoms>
  151.8724  133.3478  159.3739 H   0  0  0  0  0  0  0  0  0  0  0  0  # atno 6907 bound_to 6896
  150.7149  134.5099  159.5611 H   0  0  0  0  0  0  0  0  0  0  0  0  # atno 6908 bound_to 6896
  152.2635  134.8010  160.0477 H   0  0  0  0  0  0  0  0  0  0  0  0  # atno 6909 bound_to 6896
  144.9946  140.7764  143.4533 H   0  0  0  0  0  0  0  0  0  0  0  0  # atno 7974 bound_to 7965
  154.4236  140.1126  156.5662 H   0  0  0  0  0  0  0  0  0  0  0  0  # atno 8008 bound_to 7997
  155.6259  140.3495  155.4648 H   0  0  0  0  0  0  0  0  0  0  0  0  # atno 8009 bound_to 7997
  155.9986  140.1194  157.0558 H   0  0  0  0  0  0  0  0  0  0  0  0  # atno 8010 bound_to 7997
  140.7288  143.4420  151.0643 H   0  0  0  0  0  0  0  0  0  0  0  0  # atno 10167 bound_to 10162
  156.1137  130.6269  150.9342 H   0  0  0  0  0  0  0  0  0  0  0  0  # atno 10718 bound_to 10713
  154.8565  135.3542  154.5771 H   0  0  0  0  0  0  0  0  0  0  0  0  # atno 10763 bound_to 10752
  153.6383  135.6999  153.5255 H   0  0  0  0  0  0  0  0  0  0  0  0  # atno 10764 bound_to 10752
  153.2992  135.4211  155.1196 H   0  0  0  0  0  0  0  0  0  0  0  0  # atno 10765 bound_to 10752
  141.1617  133.7509  156.9302 H   0  0  0  0  0  0  0  0  0  0  0  0  # atno 11005 bound_to 11000
  145.2238  139.2146  143.5079 LP  0  0  0  0  0  0  0  0  0  0  0  0  # atno 17320 bound_to 7965
  146.3439  140.2101  142.8590 LP  0  0  0  0  0  0  0  0  0  0  0  0  # atno 17321 bound_to 7965
  139.8087  143.7981  152.3169 LP  0  0  0  0  0  0  0  0  0  0  0  0  # atno 17342 bound_to 10162
  139.8023  144.7369  150.9808 LP  0  0  0  0  0  0  0  0  0  0  0  0  # atno 17343 bound_to 10162
  157.6319  131.0920  150.8424 LP  0  0  0  0  0  0  0  0  0  0  0  0  # atno 17370 bound_to 10713
  156.8531  130.5087  149.5310 LP  0  0  0  0  0  0  0  0  0  0  0  0  # atno 17371 bound_to 10713
  140.1391  134.9305  157.2443 LP  0  0  0  0  0  0  0  0  0  0  0  0  # atno 17394 bound_to 11000
  140.2858  134.3297  155.7329 LP  0  0  0  0  0  0  0  0  0  0  0  0  # atno 17395 bound_to 11000

$$$$
