AV-unprocessed.smi:2562|AV-procd|sdf|10044|dock9
  -GOLD-   2272014 93D 1   1.00000     0.00000
 Structure written by MMmdl.
 31 32  0  0  0  0  0  0  0  0  2 V2000
  153.6749  142.0607  162.1306 C   0  0  0  0  0  0  0  0  0  0  0  0
  153.1652  142.0087  160.6862 C   0  0  0  0  0  0  0  0  0  0  0  0
  152.3272  143.2396  160.3107 C   0  0  0  0  0  0  0  0  0  0  0  0
  151.7578  143.1336  158.9345 C   0  0  0  0  0  0  0  0  0  0  0  0
  151.0130  144.1099  158.4179 N   0  0  0  0  0  0  0  0  0  0  0  0
  150.6733  143.5980  157.2164 N   0  0  0  0  0  0  0  0  0  0  0  0
  151.2040  142.3797  157.0883 C   0  0  0  0  0  0  0  0  0  0  0  0
  150.9815  141.5365  155.8729 C   0  0  2  0  0  0  0  0  0  0  0  0
  149.4865  141.2672  155.6127 C   0  0  0  0  0  0  0  0  0  0  0  0
  149.3302  140.3492  154.4677 N   0  3  0  0  0  0  0  0  0  0  0  0
  150.0974  139.1037  154.6664 C   0  0  0  0  0  0  0  0  0  0  0  0
  151.5714  139.4316  154.9625 C   0  0  0  0  0  0  0  0  0  0  0  0
  151.6547  140.2983  156.0891 O   0  0  0  0  0  0  0  0  0  0  0  0
  151.9043  142.0174  158.1591 N   0  0  0  0  0  0  0  0  0  0  0  0
  150.0968  144.0929  156.5508 H   0  0  0  0  0  0  0  0  0  0  0  0
  154.2807  141.1838  162.3598 H   0  0  0  0  0  0  0  0  0  0  0  0
  152.8466  142.0876  162.8395 H   0  0  0  0  0  0  0  0  0  0  0  0
  154.2912  142.9439  162.3000 H   0  0  0  0  0  0  0  0  0  0  0  0
  154.0157  141.9261  160.0085 H   0  0  0  0  0  0  0  0  0  0  0  0
  152.5712  141.1045  160.5480 H   0  0  0  0  0  0  0  0  0  0  0  0
  151.5135  143.3704  161.0254 H   0  0  0  0  0  0  0  0  0  0  0  0
  152.9391  144.1405  160.3712 H   0  0  0  0  0  0  0  0  0  0  0  0
  151.4274  142.0424  155.0141 H   0  0  0  0  0  0  0  0  0  0  0  0
  149.0204  140.8198  156.4921 H   0  0  0  0  0  0  0  0  0  0  0  0
  148.9567  142.1975  155.4059 H   0  0  0  0  0  0  0  0  0  0  0  0
  148.3523  140.1263  154.3464 H   0  0  0  0  0  0  0  0  0  0  0  0
  149.6623  138.5429  155.4949 H   0  0  0  0  0  0  0  0  0  0  0  0
  150.0133  138.4805  153.7760 H   0  0  0  0  0  0  0  0  0  0  0  0
  152.1245  138.5173  155.1779 H   0  0  0  0  0  0  0  0  0  0  0  0
  152.0479  139.8960  154.0976 H   0  0  0  0  0  0  0  0  0  0  0  0
  149.6689  140.8085  153.6342 H   0  0  0  0  0  0  0  0  0  0  0  0
  1  2  1  0  0  0  0
  1 16  1  0  0  0  0
  1 17  1  0  0  0  0
  1 18  1  0  0  0  0
  2  3  1  0  0  0  0
  2 19  1  0  0  0  0
  2 20  1  0  0  0  0
  3  4  1  0  0  0  0
  3 21  1  0  0  0  0
  3 22  1  0  0  0  0
  4 14  1  0  0  0  0
  4  5  2  0  0  0  0
  5  6  1  0  0  0  0
  6 15  1  0  0  0  0
  6  7  1  0  0  0  0
  7  8  1  0  0  0  0
  7 14  2  0  0  0  0
  8 13  1  0  0  0  0
  8  9  1  0  0  0  0
  8 23  1  0  0  0  0
  9 10  1  0  0  0  0
  9 24  1  0  0  0  0
  9 25  1  0  0  0  0
 10 11  1  0  0  0  0
 10 26  1  0  0  0  0
 10 31  1  0  0  0  0
 11 12  1  0  0  0  0
 11 27  1  0  0  0  0
 11 28  1  0  0  0  0
 12 13  1  0  0  0  0
 12 29  1  0  0  0  0
 12 30  1  0  0  0  0
M  CHG  1  10   1
M  END
> <s_m_source_file>
AV-unprocessed.smi

> <i_m_source_file_index>
2562

> <i_lp_mmshare_version>
43012

> <i_f3d_flags>
0

> <s_epik_input>
W0NIM11bQ0gyXVtDSDJdYzFuW25IXWMobjEpW0NAQEhdMltDSDJdW05IXVtDSDJdW0NIMl1PMg==

> <s_epik_cmdline>
J2VwaWtfcHl0aG9uJywgJy1waCcsICc3LjAnLCAnLXRuJywgJzgnLCAnLW1hJywgJzIwMCcsICctbWV0YWxfYmluZGluZycsICctaW1hZScsICc8aW5maWxlLm1hZT4nLCAnLW9tYWUnLCAnPG91dGZpbGUubWFlPic=

> <r_epik_Ionization_Penalty>
0.162344

> <r_epik_Ionization_Penalty_Charging>
0.125708

> <r_epik_Ionization_Penalty_Neutral>
0.0366364

> <r_epik_State_Penalty>
0.771409

> <r_epik_Charging_Adjusted_Penalty>
0.897117

> <i_epik_Tot_Q>
1

> <i_epik_Tot_abs_Q>
1

> <r_epik_Metal_State_Penalty>
0.893868

> <b_epik_Metal_Only>
0

> <s_lp_Force_Field>
OPLS_2005

> <r_lp_Energy>
9.76643

> <b_lp_Chiralities_Consistent>
1

> <s_lp_Variant>
AV-unprocessed.smi:2562-3

> <Gold.Version>
5.8.1

> <Gold.Id.Protein>
6NUR|6NUR_protein|mol2

> <Gold.PLP.Fitness>
33.2659

> <Gold.PLP.PLP>
-30.2906

> <Gold.PLP.part.hbond>
-1.0000

> <Gold.PLP.part.metal>
0.0000

> <Gold.PLP.part.buried>
-4.7691

> <Gold.PLP.part.nonpolar>
-23.5667

> <Gold.PLP.part.repulsive>
0.2902

> <Gold.PLP.ligand.clash>
0.0000

> <Gold.PLP.ligand.torsion>
0.0169

> <Gold.PLP.Chemscore.Hbond>
1.0000

> <Gold.PLP.Chemscore.CHOScore>
0.0000

> <Gold.PLP.Chemscore.Metal>
0.0000

> <Gold.Chemscore.Hbonds>
donor molecule, donor type, donor heavy atom, donor atom, acceptor molecule, acceptor atom, score
      L1  H     6    15       P1  8028  1.00

> <Gold.PLP.Chemscore.Internal.Correction>
0.0090

> <Gold.Rescore>
     Score         DG    S(hbond)    S(metal)    S(lipo)     H(rot)  DE(clash)    DE(int)     intcor
     12.86     -12.96       1.24        0.00      61.47       1.51       0.08       0.02       ----

> <Gold.Chemscore.Fitness>
12.8648

> <Gold.Chemscore.DG>
-12.9577

> <Gold.Chemscore.ZeroCoef>
-5.4800

> <Gold.Chemscore.Hbond>
1.2442

> <Gold.Chemscore.Metal>
0.0000

> <Gold.Chemscore.Lipo>
61.4659

> <Gold.Chemscore.Internal_Hbond>
0.0000

> <Gold.Chemscore.DEClash>
0.0778

> <Gold.Chemscore.DEInternal>
0.0151

> <Gold.Chemscore.Rot>
1.5115

> <Gold.Chemscore.Internal.Correction>
   9.000000E+99

> <Gold.Chemscore.Hbonds>
donor molecule, donor type, donor heavy atom, donor atom, acceptor molecule, acceptor atom, score
      L1  H     6    15       P1  8028  0.99

> <Gold.Chemscore.Hbond.Weighted>
-4.1556

> <Gold.Chemscore.Metal.Weighted>
-0.0000

> <Gold.Chemscore.Lipo.Weighted>
-7.1915

> <Gold.Chemscore.Internal_Hbond.Weighted>
0.0000

> <Gold.Chemscore.DEClash.Weighted>
0.0778

> <Gold.Chemscore.DEInternal.Weighted>
0.0151

> <Gold.Chemscore.Rot.Weighted>
3.8695

> <Gold.Chemscore.Internal.Correction.Weighted>
   9.000000E+99

> <Gold.Protein.RotatedTorsions>
[ 6907 6896 6895 6894 ] final -167.92 input  -60.11 | X-H torsion
[ 7974 7965 7964 7962 ] final -104.63 input  175.53 | X-H torsion
[ 8008 7997 7996 7995 ] final  -40.63 input   59.86 | X-H torsion
[ 10167 10162 10161 10158 ] final -153.81 input  -65.29 | X-H torsion
[ 10718 10713 10712 10709 ] final   73.77 input   66.30 | X-H torsion
[ 10763 10752 10751 10750 ] final -150.51 input  -60.55 | X-H torsion
[ 11005 11000 10999 10996 ] final -112.51 input  -57.11 | X-H torsion

> <Gold.Protein.ActiveResidues>
 VAL166  LYS551  ARG553  GLY616  TRP617  ASP618  TYR619  PRO620  LYS621  CYS622 
 ASP623  PHE694  ASN695  SER759  ASP760  ASP761  ALA762  ILE779  LEU786  VAL792 
 PHE793  MET794  SER795  GLU796  ALA797  LYS798  CYS799  TRP800  GLU811  SER814 

> <Gold.Protein.RotatedAtoms>
  151.4672  133.3578  159.2817 H   0  0  0  0  0  0  0  0  0  0  0  0  # atno 6907 bound_to 6896
  150.8985  134.8397  159.7354 H   0  0  0  0  0  0  0  0  0  0  0  0  # atno 6908 bound_to 6896
  152.4865  134.4590  159.9651 H   0  0  0  0  0  0  0  0  0  0  0  0  # atno 6909 bound_to 6896
  145.2407  140.9204  143.3151 H   0  0  0  0  0  0  0  0  0  0  0  0  # atno 7974 bound_to 7965
  154.4010  140.1520  156.3059 H   0  0  0  0  0  0  0  0  0  0  0  0  # atno 8008 bound_to 7997
  155.8659  140.3451  155.5766 H   0  0  0  0  0  0  0  0  0  0  0  0  # atno 8009 bound_to 7997
  155.7828  140.0846  157.2040 H   0  0  0  0  0  0  0  0  0  0  0  0  # atno 8010 bound_to 7997
  139.7066  143.9176  152.2451 H   0  0  0  0  0  0  0  0  0  0  0  0  # atno 10167 bound_to 10162
  157.6563  130.9645  150.1117 H   0  0  0  0  0  0  0  0  0  0  0  0  # atno 10718 bound_to 10713
  154.8115  135.3282  154.7293 H   0  0  0  0  0  0  0  0  0  0  0  0  # atno 10763 bound_to 10752
  153.7941  135.6908  153.4871 H   0  0  0  0  0  0  0  0  0  0  0  0  # atno 10764 bound_to 10752
  153.1897  135.4555  155.0080 H   0  0  0  0  0  0  0  0  0  0  0  0  # atno 10765 bound_to 10752
  141.0670  133.9442  157.2559 H   0  0  0  0  0  0  0  0  0  0  0  0  # atno 11005 bound_to 11000
  144.9591  139.3999  143.6364 LP  0  0  0  0  0  0  0  0  0  0  0  0  # atno 17320 bound_to 7965
  146.3329  139.8636  142.8852 LP  0  0  0  0  0  0  0  0  0  0  0  0  # atno 17321 bound_to 7965
  139.9034  144.6899  150.8641 LP  0  0  0  0  0  0  0  0  0  0  0  0  # atno 17342 bound_to 10162
  140.7723  143.3497  151.2039 LP  0  0  0  0  0  0  0  0  0  0  0  0  # atno 17343 bound_to 10162
  156.2012  130.3660  149.8786 LP  0  0  0  0  0  0  0  0  0  0  0  0  # atno 17370 bound_to 10713
  156.6690  130.8812  151.3559 LP  0  0  0  0  0  0  0  0  0  0  0  0  # atno 17371 bound_to 10713
  139.9486  135.0179  156.8927 LP  0  0  0  0  0  0  0  0  0  0  0  0  # atno 17394 bound_to 11000
  140.5752  134.0405  155.7444 LP  0  0  0  0  0  0  0  0  0  0  0  0  # atno 17395 bound_to 11000

$$$$
