#       Name:                AV-unprocessed.smi:327
#       Creating user name   scv26
#       Creation time:       Thu Mar 26 22:25:48 2020


#       File generated by GOLD software.
#

@<TRIPOS>MOLECULE
AV-unprocessed.smi:327
    54    55     1
SMALL
NO_CHARGES


@<TRIPOS>ATOM
      1 ****        -2.8545   3.2996  -3.7189 C.3            1 S1                 0.0000
      2 ****        -1.4697   3.0252  -3.8346 O.3            1 S1                 0.0000
      3 ****        -1.1629   1.6619  -3.5934 C.3            1 S1                 0.0000
      4 ****         0.3511   1.4332  -3.7311 C.3            1 S1                 0.0000
      5 ****         1.1025   2.0886  -2.6544 N.am           1 S1                 0.0000
      6 ****         1.1906   1.3365  -1.4945 N.2            1 S1                 0.0000
      7 ****         1.8167   1.8025  -0.4622 C.2            1 S1                 0.0000
      8 ****         1.9214   1.0304   0.8069 C.2            1 S1                 0.0000
      9 ****         2.5118   1.4755   1.7927 O.2            1 S1                 0.0000
     10 ****         1.3196  -0.1730   0.7971 N.am           1 S1                 0.0000
     11 ****         1.2446  -1.1039   1.9205 C.3            1 S1                 0.0000
     12 ****         1.2003  -2.5480   1.3749 C.3            1 S1                 0.0000
     13 ****         0.8651  -3.6428   2.4077 C.3            1 S1                 0.0000
     14 ****        -0.5846  -4.1656   2.3388 C.3            1 S1                 0.0000
     15 ****        -1.6985  -3.1976   2.7875 C.3            1 S1                 0.0000
     16 ****        -1.9276  -1.9955   1.8488 C.3            1 S1                 0.0000
     17 ****        -1.3249  -0.6602   2.3262 C.3            1 S1                 0.0000
     18 ****         0.1086  -0.7058   2.8920 C.3            1 S1                 0.0000
     19 ****         2.4421   3.1135  -0.5008 C.2            1 S1                 0.0000
     20 ****         2.3436   3.8377  -1.6370 C.2            1 S1                 0.0000
     21 ****         1.6337   3.3383  -2.8157 C.2            1 S1                 0.0000
     22 ****         1.5237   3.9856  -3.8565 O.2            1 S1                 0.0000
     23 ****        -3.0347   4.3581  -3.9056 H              1 S1                 0.0000
     24 ****        -3.2207   3.0673  -2.7180 H              1 S1                 0.0000
     25 ****        -3.4322   2.7266  -4.4453 H              1 S1                 0.0000
     26 ****        -1.5048   1.3625  -2.6012 H              1 S1                 0.0000
     27 ****        -1.6901   1.0397  -4.3181 H              1 S1                 0.0000
     28 ****         0.5519   0.3610  -3.6979 H              1 S1                 0.0000
     29 ****         0.6922   1.7564  -4.7160 H              1 S1                 0.0000
     30 ****         0.8600  -0.4576  -0.0559 H              1 S1                 0.0000
     31 ****         2.1743  -1.0258   2.4872 H              1 S1                 0.0000
     32 ****         0.5350  -2.6254   0.5161 H              1 S1                 0.0000
     33 ****         2.1882  -2.7645   0.9659 H              1 S1                 0.0000
     34 ****         1.5156  -4.4939   2.2028 H              1 S1                 0.0000
     35 ****         1.1244  -3.3321   3.4196 H              1 S1                 0.0000
     36 ****        -0.7959  -4.5182   1.3286 H              1 S1                 0.0000
     37 ****        -0.6454  -5.0521   2.9710 H              1 S1                 0.0000
     38 ****        -2.6243  -3.7734   2.8113 H              1 S1                 0.0000
     39 ****        -1.5451  -2.8739   3.8169 H              1 S1                 0.0000
     40 ****        -1.5960  -2.2294   0.8384 H              1 S1                 0.0000
     41 ****        -3.0028  -1.8418   1.7485 H              1 S1                 0.0000
     42 ****        -1.3809   0.0676   1.5160 H              1 S1                 0.0000
     43 ****        -1.9703  -0.2665   3.1122 H              1 S1                 0.0000
     44 ****         0.1380  -1.3344   3.7803 H              1 S1                 0.0000
     45 ****         0.3341   0.2908   3.2737 H              1 S1                 0.0000
     46 ****         2.9731   3.5073   0.3538 H              1 S1                 0.0000
     47 ****         2.8022   4.8147  -1.6789 H              1 S1                 0.0000
     48 ****        -0.9751   3.5872  -3.1715 LP             1 S1                 0.0000
     49 ****        -1.1723   3.2618  -4.7596 LP             1 S1                 0.0000
     50 ****         0.7691   0.4306  -1.4547 LP             1 S1                 0.0000
     51 ****         2.9378   2.3795   1.7545 LP             1 S1                 0.0000
     52 ****         2.5650   0.9328   2.6309 LP             1 S1                 0.0000
     53 ****         1.0271   3.6008  -4.6345 LP             1 S1                 0.0000
     54 ****         1.9309   4.8964  -3.9242 LP             1 S1                 0.0000
@<TRIPOS>BOND
    1    1    2 1     
    2    1   23 1     
    3    1   24 1     
    4    1   25 1     
    5    2    3 1     
    6    3    4 1     
    7    3   26 1     
    8    3   27 1     
    9    4    5 1     
   10    4   28 1     
   11    4   29 1     
   12    5   21 am    
   13    5    6 1     
   14    6    7 2     
   15    7    8 1     
   16    7   19 1     
   17    8    9 2     
   18    8   10 am    
   19   10   11 1     
   20   10   30 1     
   21   11   18 1     
   22   11   12 1     
   23   11   31 1     
   24   12   13 1     
   25   12   32 1     
   26   12   33 1     
   27   13   14 1     
   28   13   34 1     
   29   13   35 1     
   30   14   15 1     
   31   14   36 1     
   32   14   37 1     
   33   15   16 1     
   34   15   38 1     
   35   15   39 1     
   36   16   17 1     
   37   16   40 1     
   38   16   41 1     
   39   17   18 1     
   40   17   42 1     
   41   17   43 1     
   42   18   44 1     
   43   18   45 1     
   44   19   20 2     
   45   19   46 1     
   46   20   21 1     
   47   20   47 1     
   48   21   22 2     
   49    2   48 1     
   50    2   49 1     
   51    6   50 1     
   52    9   51 1     
   53    9   52 1     
   54   22   53 1     
   55   22   54 1     
@<TRIPOS>SUBSTRUCTURE
      1 S1             1
@<TRIPOS>SET
LONE_PAIRS      STATIC     ATOMS    <user>   **** ""
7 48 49 50 51 52 53 54
DONOR_HYDROGENS      STATIC     ATOMS    <user>   **** ""
1 30
ATOM$BLUE        STATIC     ATOMS    COLORGROUP SYSTEM
7 48 49 50 51 52 53 54
ATOM$RED        STATIC     ATOMS    COLORGROUP SYSTEM
1 30
