#       Name:                AV-unprocessed.smi:3195
#       Creating user name   scv26
#       Creation time:       Fri Mar 27 18:05:21 2020


#       File generated by GOLD software.
#

@<TRIPOS>MOLECULE
AV-unprocessed.smi:3195
    34    35     1
SMALL
NO_CHARGES


@<TRIPOS>ATOM
      1 ****         1.0582  -2.6670  -0.9021 C.3            1 S1                 0.0000
      2 ****         0.1446  -1.4821  -1.2573 C.3            1 S1                 0.0000
      3 ****         0.5811  -0.2148  -0.4803 C.2            1 S1                 0.0000
      4 ****         1.3242   0.5981  -1.0380 O.2            1 S1                 0.0000
      5 ****         0.0606  -0.1801   0.8130 N.2            1 S1                 0.0000
      6 ****         0.2504   0.8079   1.6445 C.2            1 S1                 0.0000
      7 ****         0.9968   1.9552   1.3239 N.pl3          1 S1                 0.0000
      8 ****         1.1901   2.9979   2.2049 C.2            1 S1                 0.0000
      9 ****         0.6716   2.9779   3.4338 C.2            1 S1                 0.0000
     10 ****        -0.1114   1.8306   3.8442 C.2            1 S1                 0.0000
     11 ****        -0.3410   0.7429   2.9933 C.2            1 S1                 0.0000
     12 ****        -1.0253  -0.2284   3.3909 O.co2          1 S1                -1.0000
     13 ****         0.0256  -1.2614  -2.7743 C.3            1 S1                 0.0000
     14 ****        -1.3162  -0.5655  -2.9316 C.3            1 S1                 0.0000
     15 ****        -2.1084  -1.0317  -1.7066 C.3            1 S1                 0.0000
     16 ****        -1.2040  -1.8193  -0.9332 O.3            1 S1                 0.0000
     17 ****         2.0867  -2.4806  -1.2133 H              1 S1                 0.0000
     18 ****         0.7248  -3.5818  -1.3927 H              1 S1                 0.0000
     19 ****         1.0637  -2.8589   0.1716 H              1 S1                 0.0000
     20 ****         1.7845   3.8129   1.8197 H              1 S1                 0.0000
     21 ****         0.8325   3.8031   4.1117 H              1 S1                 0.0000
     22 ****        -0.5265   1.8251   4.8418 H              1 S1                 0.0000
     23 ****         1.4243   2.0539   0.4150 H              1 S1                 0.0000
     24 ****         0.8485  -0.6944  -3.2109 H              1 S1                 0.0000
     25 ****        -0.0077  -2.2236  -3.2873 H              1 S1                 0.0000
     26 ****        -1.1892   0.5175  -2.9052 H              1 S1                 0.0000
     27 ****        -1.8057  -0.8238  -3.8709 H              1 S1                 0.0000
     28 ****        -2.4566  -0.1800  -1.1208 H              1 S1                 0.0000
     29 ****        -2.9767  -1.6299  -1.9833 H              1 S1                 0.0000
     30 ****         1.6333   0.4324  -1.9745 LP             1 S1                 0.0000
     31 ****         1.6171   1.4223  -0.5533 LP             1 S1                 0.0000
     32 ****        -0.4894  -0.9564   1.1209 LP             1 S1                 0.0000
     33 ****        -1.3633  -1.6463   0.0387 LP             1 S1                 0.0000
     34 ****        -1.3586  -2.7877  -1.1291 LP             1 S1                 0.0000
@<TRIPOS>BOND
    1    1    2 1     
    2    1   17 1     
    3    1   18 1     
    4    1   19 1     
    5    2   16 1     
    6    2    3 1     
    7    2   13 1     
    8    3    4 2     
    9    3    5 1     
   10    5    6 2     
   11    6   11 1     
   12    6    7 1     
   13    7   23 1     
   14    7    8 1     
   15    8   20 1     
   16    8    9 2     
   17    9   21 1     
   18    9   10 1     
   19   10   11 2     
   20   10   22 1     
   21   11   12 ar    
   22   13   14 1     
   23   13   24 1     
   24   13   25 1     
   25   14   15 1     
   26   14   26 1     
   27   14   27 1     
   28   15   16 1     
   29   15   28 1     
   30   15   29 1     
   31    4   30 1     
   32    4   31 1     
   33    5   32 1     
   34   16   33 1     
   35   16   34 1     
@<TRIPOS>SUBSTRUCTURE
      1 S1             1
@<TRIPOS>SET
LONE_PAIRS      STATIC     ATOMS    <user>   **** ""
6 30 31 32 12 33 34
DONOR_HYDROGENS      STATIC     ATOMS    <user>   **** ""
1 23
ATOM$BLUE        STATIC     ATOMS    COLORGROUP SYSTEM
6 30 31 32 12 33 34
ATOM$RED        STATIC     ATOMS    COLORGROUP SYSTEM
1 23
