AV-unprocessed.smi:158|AV-procd|sdf|1324|dock10
  -GOLD-   2262019 23D 1   1.00000     0.00000
 Structure written by MMmdl.
 31 33  0  0  0  0  0  0  0  0  1 V2000
  151.0480  132.8853  156.2866 N   0  0  0  0  0  0  0  0  0  0  0  0
  150.3418  133.9684  156.6404 C   0  0  0  0  0  0  0  0  0  0  0  0
  149.5028  133.8732  157.6980 N   0  0  0  0  0  0  0  0  0  0  0  0
  148.7796  134.9315  158.0841 C   0  0  0  0  0  0  0  0  0  0  0  0
  147.7433  134.6998  159.4423 Cl  0  0  0  0  0  0  0  0  0  0  0  0
  148.7713  136.1512  157.5362 N   0  0  0  0  0  0  0  0  0  0  0  0
  149.6155  136.2521  156.4693 C   0  0  0  0  0  0  0  0  0  0  0  0
  150.4326  135.2074  155.9602 C   0  0  0  0  0  0  0  0  0  0  0  0
  151.1602  135.6638  154.8700 N   0  0  0  0  0  0  0  0  0  0  0  0
  150.7894  136.9103  154.7455 C   0  0  0  0  0  0  0  0  0  0  0  0
  149.8678  137.3498  155.6709 N   0  0  0  0  0  0  0  0  0  0  0  0
  149.2561  138.7109  155.7704 C   0  0  1  0  0  0  0  0  0  0  0  0
  150.2073  139.5965  156.2812 O   0  0  0  0  0  0  0  0  0  0  0  0
  150.4599  140.6543  155.3570 C   0  0  2  0  0  0  0  0  0  0  0  0
  150.7275  141.9605  156.1210 C   0  0  0  0  0  0  0  0  0  0  0  0
  149.5853  142.3345  156.8611 O   0  0  0  0  0  0  0  0  0  0  0  0
  149.1884  140.7011  154.5041 C   0  0  1  0  0  0  0  0  0  0  0  0
  149.4382  141.2520  153.2266 O   0  0  0  0  0  0  0  0  0  0  0  0
  148.8189  139.2346  154.4000 C   0  0  2  0  0  0  0  0  0  0  0  0
  147.5060  139.0636  154.2419 F   0  0  0  0  0  0  0  0  0  0  0  0
  148.4338  138.6080  156.4800 H   0  0  0  0  0  0  0  0  0  0  0  0
  151.3120  140.3881  154.7295 H   0  0  0  0  0  0  0  0  0  0  0  0
  148.4013  141.2570  155.0159 H   0  0  0  0  0  0  0  0  0  0  0  0
  149.3505  138.7272  153.5940 H   0  0  0  0  0  0  0  0  0  0  0  0
  151.6809  132.9326  155.5008 H   0  0  0  0  0  0  0  0  0  0  0  0
  150.9448  132.0243  156.8039 H   0  0  0  0  0  0  0  0  0  0  0  0
  151.1842  137.5498  153.9692 H   0  0  0  0  0  0  0  0  0  0  0  0
  151.5431  141.8190  156.8310 H   0  0  0  0  0  0  0  0  0  0  0  0
  151.0231  142.7627  155.4444 H   0  0  0  0  0  0  0  0  0  0  0  0
  149.4034  143.2464  156.6932 H   0  0  0  0  0  0  0  0  0  0  0  0
  149.4335  140.5522  152.5912 H   0  0  0  0  0  0  0  0  0  0  0  0
  1  2  1  0  0  0  0
  1 25  1  0  0  0  0
  1 26  1  0  0  0  0
  2  8  1  0  0  0  0
  2  3  2  0  0  0  0
  3  4  1  0  0  0  0
  4  5  1  0  0  0  0
  4  6  2  0  0  0  0
  6  7  1  0  0  0  0
  7 11  1  0  0  0  0
  7  8  2  0  0  0  0
  8  9  1  0  0  0  0
  9 10  2  0  0  0  0
 10 11  1  0  0  0  0
 10 27  1  0  0  0  0
 11 12  1  0  0  0  0
 12 21  1  0  0  0  0
 12 19  1  0  0  0  0
 12 13  1  0  0  0  0
 13 14  1  0  0  0  0
 14 22  1  0  0  0  0
 14 15  1  0  0  0  0
 14 17  1  0  0  0  0
 15 16  1  0  0  0  0
 15 28  1  0  0  0  0
 15 29  1  0  0  0  0
 16 30  1  0  0  0  0
 17 23  1  0  0  0  0
 17 18  1  0  0  0  0
 17 19  1  0  0  0  0
 18 31  1  0  0  0  0
 19 24  1  0  0  0  0
 19 20  1  0  0  0  0
M  END
> <s_m_source_file>
AV-unprocessed.smi

> <i_m_source_file_index>
158

> <i_lp_mmshare_version>
43012

> <i_f3d_flags>
0

> <s_epik_input>
Q2xjKG4xKW5jKFtOSDJdKWMoYzEyKW5bY0hdbjJbQ0BASF0zT1tDQEhdKFtDSDJdW09IXSlbQ0BASF0oW09IXSlbQ0BASF0zRg==

> <s_epik_cmdline>
J2VwaWtfcHl0aG9uJywgJy1waCcsICc3LjAnLCAnLXRuJywgJzgnLCAnLW1hJywgJzIwMCcsICctbWV0YWxfYmluZGluZycsICctaW1hZScsICc8aW5maWxlLm1hZT4nLCAnLW9tYWUnLCAnPG91dGZpbGUubWFlPic=

> <r_lp_tautomer_probability>
1

> <r_epik_Ionization_Penalty>
6.51543e-05

> <r_epik_Ionization_Penalty_Charging>
0

> <r_epik_Ionization_Penalty_Neutral>
6.51543e-05

> <r_epik_State_Penalty>
-0

> <r_epik_Charging_Adjusted_Penalty>
0

> <i_epik_Tot_Q>
0

> <i_epik_Tot_abs_Q>
0

> <r_epik_Metal_State_Penalty>
-0

> <b_epik_Metal_Only>
0

> <s_epik_Chemistry_Notes>
This compound contains an acetal/aminal-like group ( X-CH(R)-Y where X, Y are N, S, or O) that may be acid/base labile, releasing an aldehyde.

> <s_lp_Force_Field>
OPLS_2005

> <r_lp_Energy>
33.0982

> <b_lp_Chiralities_Consistent>
1

> <s_lp_Variant>
AV-unprocessed.smi:158-2

> <Gold.Version>
5.8.1

> <Gold.Id.Protein>
6NUR|6NUR_protein|mol2

> <Gold.PLP.Fitness>
38.1378

> <Gold.PLP.PLP>
-23.8279

> <Gold.PLP.part.hbond>
-5.4383

> <Gold.PLP.part.metal>
0.0000

> <Gold.PLP.part.buried>
-2.1152

> <Gold.PLP.part.nonpolar>
-16.1538

> <Gold.PLP.part.repulsive>
0.2681

> <Gold.PLP.ligand.clash>
0.0000

> <Gold.PLP.ligand.torsion>
0.3572

> <Gold.PLP.Chemscore.Hbond>
4.9316

> <Gold.PLP.Chemscore.CHOScore>
0.0737

> <Gold.PLP.Chemscore.Metal>
0.0000

> <Gold.Chemscore.Hbonds>
donor molecule, donor type, donor heavy atom, donor atom, acceptor molecule, acceptor atom, score
      L1  H    16    30       P1  8028  1.00
      L1  H    18    31       P1  7957  0.99
      P1  H  6896  6908       L1     3  0.98
      P1  H  7989  7998       L1    18  0.01
      P1  H  8011  8017       L1    18  0.94
      P1  H 10752 10765       L1     9  1.00

> <Gold.PLP.Chemscore.Internal.Correction>
0.0087

> <Gold.Rescore>
     Score         DG    S(hbond)    S(metal)    S(lipo)     H(rot)  DE(clash)    DE(int)     intcor
     11.98     -12.37       3.20        0.00      35.93       3.12       0.01       0.38       ----

> <Gold.Chemscore.Fitness>
11.9805

> <Gold.Chemscore.DG>
-12.3712

> <Gold.Chemscore.ZeroCoef>
-5.4800

> <Gold.Chemscore.Hbond>
3.1985

> <Gold.Chemscore.Metal>
0.0000

> <Gold.Chemscore.Lipo>
35.9253

> <Gold.Chemscore.Internal_Hbond>
0.0000

> <Gold.Chemscore.DEClash>
0.0061

> <Gold.Chemscore.DEInternal>
0.3846

> <Gold.Chemscore.Rot>
3.1230

> <Gold.Chemscore.Internal.Correction>
   9.000000E+99

> <Gold.Chemscore.Hbonds>
donor molecule, donor type, donor heavy atom, donor atom, acceptor molecule, acceptor atom, score
      L1  H    16    30       P1  8028  0.98
      L1  H    18    31       P1  7957  0.87
      P1  H  6896  6908       L1     3  0.07
      P1  H  8011  8017       L1    18  0.23
      P1  H 10752 10765       L1     9  0.60

> <Gold.Chemscore.Hbond.Weighted>
-10.6829

> <Gold.Chemscore.Metal.Weighted>
-0.0000

> <Gold.Chemscore.Lipo.Weighted>
-4.2033

> <Gold.Chemscore.Internal_Hbond.Weighted>
0.0000

> <Gold.Chemscore.DEClash.Weighted>
0.0061

> <Gold.Chemscore.DEInternal.Weighted>
0.3846

> <Gold.Chemscore.Rot.Weighted>
7.9950

> <Gold.Chemscore.Internal.Correction.Weighted>
   9.000000E+99

> <Gold.Protein.RotatedTorsions>
[ 6907 6896 6895 6894 ] final  115.66 input  -60.11 | X-H torsion
[ 7974 7965 7964 7962 ] final   53.81 input  175.53 | X-H torsion
[ 8008 7997 7996 7995 ] final  -29.25 input   59.86 | X-H torsion
[ 10167 10162 10161 10158 ] final   18.80 input  -65.29 | X-H torsion
[ 10718 10713 10712 10709 ] final   52.10 input   66.30 | X-H torsion
[ 10763 10752 10751 10750 ] final  172.15 input  -60.55 | X-H torsion
[ 11005 11000 10999 10996 ] final -130.80 input  -57.11 | X-H torsion

> <Gold.Protein.ActiveResidues>
 VAL166  LYS551  ARG553  GLY616  TRP617  ASP618  TYR619  PRO620  LYS621  CYS622 
 ASP623  PHE694  ASN695  SER759  ASP760  ASP761  ALA762  ILE779  LEU786  VAL792 
 PHE793  MET794  SER795  GLU796  ALA797  LYS798  CYS799  TRP800  GLU811  SER814 

> <Gold.Protein.RotatedAtoms>
  152.4728  133.8068  159.6981 H   0  0  0  0  0  0  0  0  0  0  0  0  # atno 6907 bound_to 6896
  150.8726  133.7474  159.2963 H   0  0  0  0  0  0  0  0  0  0  0  0  # atno 6908 bound_to 6896
  151.5004  135.1065  159.9879 H   0  0  0  0  0  0  0  0  0  0  0  0  # atno 6909 bound_to 6896
  145.9673  139.4115  143.0211 H   0  0  0  0  0  0  0  0  0  0  0  0  # atno 7974 bound_to 7965
  154.4298  140.1823  156.1217 H   0  0  0  0  0  0  0  0  0  0  0  0  # atno 8008 bound_to 7997
  156.0137  140.3348  155.6942 H   0  0  0  0  0  0  0  0  0  0  0  0  # atno 8009 bound_to 7997
  155.6074  140.0646  157.2706 H   0  0  0  0  0  0  0  0  0  0  0  0  # atno 8010 bound_to 7997
  140.5627  143.9308  150.6654 H   0  0  0  0  0  0  0  0  0  0  0  0  # atno 10167 bound_to 10162
  157.5044  130.8459  149.8356 H   0  0  0  0  0  0  0  0  0  0  0  0  # atno 10718 bound_to 10713
  154.4220  135.2758  155.1969 H   0  0  0  0  0  0  0  0  0  0  0  0  # atno 10763 bound_to 10752
  154.3911  135.6066  153.5847 H   0  0  0  0  0  0  0  0  0  0  0  0  # atno 10764 bound_to 10752
  152.9833  135.5903  154.4517 H   0  0  0  0  0  0  0  0  0  0  0  0  # atno 10765 bound_to 10752
  140.9315  134.1314  157.4231 H   0  0  0  0  0  0  0  0  0  0  0  0  # atno 11005 bound_to 11000
  145.7956  140.9794  143.1026 LP  0  0  0  0  0  0  0  0  0  0  0  0  # atno 17320 bound_to 7965
  144.6828  139.9737  143.7482 LP  0  0  0  0  0  0  0  0  0  0  0  0  # atno 17321 bound_to 7965
  140.2763  143.3421  152.1192 LP  0  0  0  0  0  0  0  0  0  0  0  0  # atno 17342 bound_to 10162
  139.5078  144.6838  151.5941 LP  0  0  0  0  0  0  0  0  0  0  0  0  # atno 17343 bound_to 10162
  156.0249  130.3783  150.1853 LP  0  0  0  0  0  0  0  0  0  0  0  0  # atno 17370 bound_to 10713
  157.0043  130.9932  151.3383 LP  0  0  0  0  0  0  0  0  0  0  0  0  # atno 17371 bound_to 10713
  139.8797  135.0006  156.6022 LP  0  0  0  0  0  0  0  0  0  0  0  0  # atno 17394 bound_to 11000
  140.7857  133.8624  155.8604 LP  0  0  0  0  0  0  0  0  0  0  0  0  # atno 17395 bound_to 11000

$$$$
