#       Name:                AV-unprocessed.smi:2027
#       Creating user name   scv26
#       Creation time:       Fri Mar 27 10:47:09 2020


#       File generated by GOLD software.
#

@<TRIPOS>MOLECULE
AV-unprocessed.smi:2027
    54    56     1
SMALL
NO_CHARGES


@<TRIPOS>ATOM
      1 ****        -4.8728  -1.1979   1.8445 C.3            1 S1                 0.0000
      2 ****        -3.8933  -0.6635   0.8145 C.ar           1 S1                 0.0000
      3 ****        -4.3825  -0.2288  -0.4389 C.ar           1 S1                 0.0000
      4 ****        -3.5044   0.2728  -1.4250 C.ar           1 S1                 0.0000
      5 ****        -3.7555   0.7462  -2.7022 N.2            1 S1                 0.0000
      6 ****        -2.5320   1.0642  -3.1177 C.2            1 S1                 0.0000
      7 ****        -1.5175   0.8484  -2.2591 N.pl3          1 S1                 0.0000
      8 ****        -0.1057   1.1040  -2.4644 C.3            1 S1                 0.0000
      9 ****         0.6665  -0.1875  -2.8016 C.3            1 S1                 0.0000
     10 ****         0.3836  -0.5536  -4.1363 O.3            1 S1                 0.0000
     11 ****         2.1930  -0.0284  -2.6437 C.3            1 S1                 0.0000
     12 ****         2.6444   0.2833  -1.2845 N.3            1 S1                 0.0000
     13 ****         4.0312   0.7378  -1.3005 C.3            1 S1                 0.0000
     14 ****         2.4738  -0.8393  -0.3568 C.3            1 S1                 0.0000
     15 ****         2.5861  -0.4253   1.0865 C.2            1 S1                 0.0000
     16 ****         3.3279  -1.0588   2.1239 C.2            1 S1                 0.0000
     17 ****         3.1944  -0.4558   3.2943 N.2            1 S1                 0.0000
     18 ****         2.3641   0.5781   3.0468 N.pl3          1 S1                 0.0000
     19 ****         1.9837   1.4650   4.1253 C.3            1 S1                 0.0000
     20 ****         1.9799   0.6206   1.7247 C.2            1 S1                 0.0000
     21 ****        -2.1143   0.3260  -1.1188 C.ar           1 S1                 0.0000
     22 ****        -1.6153  -0.1020   0.1235 C.ar           1 S1                 0.0000
     23 ****        -2.5051  -0.5978   1.0980 C.ar           1 S1                 0.0000
     24 ****        -1.9528  -1.0558   2.4365 C.3            1 S1                 0.0000
     25 ****        -5.8841  -1.2544   1.4404 H              1 S1                 0.0000
     26 ****        -4.8966  -0.5479   2.7195 H              1 S1                 0.0000
     27 ****        -4.5853  -2.1998   2.1638 H              1 S1                 0.0000
     28 ****        -5.4398  -0.2776  -0.6541 H              1 S1                 0.0000
     29 ****        -2.3629   1.4745  -4.1027 H              1 S1                 0.0000
     30 ****         0.0195   1.8548  -3.2459 H              1 S1                 0.0000
     31 ****         0.2760   1.5502  -1.5456 H              1 S1                 0.0000
     32 ****         0.3075  -1.0060  -2.1796 H              1 S1                 0.0000
     33 ****        -0.5462  -0.7038  -4.2140 H              1 S1                 0.0000
     34 ****         2.6945  -0.9328  -2.9920 H              1 S1                 0.0000
     35 ****         2.5119   0.7680  -3.3179 H              1 S1                 0.0000
     36 ****         4.3616   1.0354  -0.3051 H              1 S1                 0.0000
     37 ****         4.1471   1.6045  -1.9522 H              1 S1                 0.0000
     38 ****         4.6982  -0.0472  -1.6596 H              1 S1                 0.0000
     39 ****         1.4989  -1.3004  -0.4965 H              1 S1                 0.0000
     40 ****         3.1941  -1.6229  -0.5965 H              1 S1                 0.0000
     41 ****         3.9534  -1.9371   2.0613 H              1 S1                 0.0000
     42 ****         1.5277   2.3691   3.7208 H              1 S1                 0.0000
     43 ****         2.8629   1.7433   4.7079 H              1 S1                 0.0000
     44 ****         1.2651   0.9650   4.7749 H              1 S1                 0.0000
     45 ****         1.3098   1.3802   1.3493 H              1 S1                 0.0000
     46 ****        -0.5555  -0.0499   0.3226 H              1 S1                 0.0000
     47 ****        -0.8848  -0.8501   2.5170 H              1 S1                 0.0000
     48 ****        -2.0990  -2.1290   2.5610 H              1 S1                 0.0000
     49 ****        -2.4534  -0.5398   3.2560 H              1 S1                 0.0000
     50 ****        -4.6273   0.8277  -3.1853 LP             1 S1                 0.0000
     51 ****         0.8813  -1.3888  -4.3701 LP             1 S1                 0.0000
     52 ****         0.6595   0.1828  -4.7542 LP             1 S1                 0.0000
     53 ****         2.0618   1.0222  -0.9460 LP             1 S1                 0.0000
     54 ****         3.6144  -0.7094   4.1657 LP             1 S1                 0.0000
@<TRIPOS>BOND
    1    1    2 1     
    2    1   25 1     
    3    1   26 1     
    4    1   27 1     
    5    2   23 ar    
    6    2    3 ar    
    7    3    4 ar    
    8    3   28 1     
    9    4   21 ar    
   10    4    5 1     
   11    5    6 2     
   12    6    7 1     
   13    6   29 1     
   14    7    8 1     
   15    7   21 1     
   16    8    9 1     
   17    8   30 1     
   18    8   31 1     
   19    9   10 1     
   20    9   11 1     
   21    9   32 1     
   22   10   33 1     
   23   11   12 1     
   24   11   34 1     
   25   11   35 1     
   26   12   13 1     
   27   12   14 1     
   28   13   36 1     
   29   13   37 1     
   30   13   38 1     
   31   14   15 1     
   32   14   39 1     
   33   14   40 1     
   34   15   20 2     
   35   15   16 1     
   36   16   17 2     
   37   16   41 1     
   38   17   18 1     
   39   18   19 1     
   40   18   20 1     
   41   19   42 1     
   42   19   43 1     
   43   19   44 1     
   44   20   45 1     
   45   21   22 ar    
   46   22   23 ar    
   47   22   46 1     
   48   23   24 1     
   49   24   47 1     
   50   24   48 1     
   51   24   49 1     
   52    5   50 1     
   53   10   51 1     
   54   10   52 1     
   55   12   53 1     
   56   17   54 1     
@<TRIPOS>SUBSTRUCTURE
      1 S1             1
@<TRIPOS>SET
LONE_PAIRS      STATIC     ATOMS    <user>   **** ""
5 50 51 52 53 54
DONOR_HYDROGENS      STATIC     ATOMS    <user>   **** ""
1 33
ATOM$BLUE        STATIC     ATOMS    COLORGROUP SYSTEM
5 50 51 52 53 54
ATOM$RED        STATIC     ATOMS    COLORGROUP SYSTEM
1 33
