AV-unprocessed.smi:831|AV-procd|sdf|3874|dock4
  -GOLD-   22720 1323D 1   1.00000     0.00000
 Structure written by MMmdl.
 50 51  0  0  0  0  0  0  0  0  1 V2000
  154.9111  144.7781  165.1940 C   0  0  0  0  0  0  0  0  0  0  0  0
  155.0965  143.4704  165.9766 C   0  0  0  0  0  0  0  0  0  0  0  0
  155.1073  143.7365  167.4902 C   0  0  0  0  0  0  0  0  0  0  0  0
  156.3685  142.7332  165.5282 C   0  0  0  0  0  0  0  0  0  0  0  0
  156.4128  141.4580  166.1589 O   0  0  0  0  0  0  0  0  0  0  0  0
  157.3732  140.5506  165.6277 C   0  0  2  0  0  0  0  0  0  0  0  0
  158.7311  141.2670  165.6460 C   0  0  0  0  0  0  0  0  0  0  0  0
  156.9800  140.1604  164.1872 C   0  0  0  0  0  0  0  0  0  0  0  0
  157.7037  140.5035  163.2541 O   0  0  0  0  0  0  0  0  0  0  0  0
  155.8471  139.4766  163.9565 N   0  0  0  0  0  0  0  0  0  0  0  0
  155.3290  139.0309  162.6676 C   0  0  0  0  0  0  0  0  0  0  0  0
  154.5993  140.1116  161.8827 C   0  0  0  0  0  0  0  0  0  0  0  0
  154.2421  141.3550  162.4479 C   0  0  0  0  0  0  0  0  0  0  0  0
  153.5776  142.3044  161.6489 C   0  0  0  0  0  0  0  0  0  0  0  0
  153.2862  141.9915  160.3002 C   0  0  0  0  0  0  0  0  0  0  0  0
  152.6175  142.9290  159.4838 N   0  0  0  0  0  0  0  0  0  0  0  0
  151.5758  142.4381  158.5836 C   0  0  0  0  0  0  0  0  0  0  0  0
  151.1767  143.5335  157.5803 C   0  0  0  0  0  0  0  0  0  0  0  0
  150.7860  144.7080  158.2836 O   0  0  0  0  0  0  0  0  0  0  0  0
  151.8504  145.2326  159.0700 C   0  0  0  0  0  0  0  0  0  0  0  0
  152.2791  144.1975  160.1243 C   0  0  0  0  0  0  0  0  0  0  0  0
  153.6430  140.8017  159.7565 N   0  0  0  0  0  0  0  0  0  0  0  0
  154.2782  139.8942  160.5275 C   0  0  0  0  0  0  0  0  0  0  0  0
  155.7375  145.4672  165.3714 H   0  0  0  0  0  0  0  0  0  0  0  0
  153.9889  145.2821  165.4843 H   0  0  0  0  0  0  0  0  0  0  0  0
  154.8579  144.5908  164.1212 H   0  0  0  0  0  0  0  0  0  0  0  0
  154.2415  142.8310  165.7531 H   0  0  0  0  0  0  0  0  0  0  0  0
  155.9501  144.3668  167.7757 H   0  0  0  0  0  0  0  0  0  0  0  0
  155.1827  142.8075  168.0559 H   0  0  0  0  0  0  0  0  0  0  0  0
  154.1936  144.2392  167.8078 H   0  0  0  0  0  0  0  0  0  0  0  0
  156.3606  142.5937  164.4461 H   0  0  0  0  0  0  0  0  0  0  0  0
  157.2466  143.3329  165.7703 H   0  0  0  0  0  0  0  0  0  0  0  0
  157.4402  139.6878  166.2891 H   0  0  0  0  0  0  0  0  0  0  0  0
  159.5209  140.6271  165.2508 H   0  0  0  0  0  0  0  0  0  0  0  0
  159.0089  141.5411  166.6641 H   0  0  0  0  0  0  0  0  0  0  0  0
  158.7118  142.1824  165.0530 H   0  0  0  0  0  0  0  0  0  0  0  0
  155.2768  139.2600  164.7608 H   0  0  0  0  0  0  0  0  0  0  0  0
  156.1520  138.6703  162.0493 H   0  0  0  0  0  0  0  0  0  0  0  0
  154.6482  138.1934  162.8280 H   0  0  0  0  0  0  0  0  0  0  0  0
  154.4736  141.5954  163.4749 H   0  0  0  0  0  0  0  0  0  0  0  0
  153.3156  143.2622  162.0733 H   0  0  0  0  0  0  0  0  0  0  0  0
  151.9289  141.5611  158.0394 H   0  0  0  0  0  0  0  0  0  0  0  0
  150.7068  142.1327  159.1680 H   0  0  0  0  0  0  0  0  0  0  0  0
  152.0020  143.7593  156.9029 H   0  0  0  0  0  0  0  0  0  0  0  0
  150.3435  143.1942  156.9647 H   0  0  0  0  0  0  0  0  0  0  0  0
  152.6904  145.5057  158.4291 H   0  0  0  0  0  0  0  0  0  0  0  0
  151.5131  146.1474  159.5578 H   0  0  0  0  0  0  0  0  0  0  0  0
  151.4655  144.0274  160.8307 H   0  0  0  0  0  0  0  0  0  0  0  0
  153.1149  144.5987  160.6953 H   0  0  0  0  0  0  0  0  0  0  0  0
  154.5403  138.9642  160.0448 H   0  0  0  0  0  0  0  0  0  0  0  0
  1  2  1  0  0  0  0
  1 24  1  0  0  0  0
  1 25  1  0  0  0  0
  1 26  1  0  0  0  0
  2  3  1  0  0  0  0
  2  4  1  0  0  0  0
  2 27  1  0  0  0  0
  3 28  1  0  0  0  0
  3 29  1  0  0  0  0
  3 30  1  0  0  0  0
  4  5  1  0  0  0  0
  4 31  1  0  0  0  0
  4 32  1  0  0  0  0
  5  6  1  0  0  0  0
  6  7  1  0  0  0  0
  6  8  1  0  0  0  0
  6 33  1  0  0  0  0
  7 34  1  0  0  0  0
  7 35  1  0  0  0  0
  7 36  1  0  0  0  0
  8  9  2  0  0  0  0
  8 10  1  0  0  0  0
 10 11  1  0  0  0  0
 10 37  1  0  0  0  0
 11 12  1  0  0  0  0
 11 38  1  0  0  0  0
 11 39  1  0  0  0  0
 12 23  1  0  0  0  0
 12 13  2  0  0  0  0
 13 14  1  0  0  0  0
 13 40  1  0  0  0  0
 14 15  2  0  0  0  0
 14 41  1  0  0  0  0
 15 16  1  0  0  0  0
 15 22  1  0  0  0  0
 16 21  1  0  0  0  0
 16 17  1  0  0  0  0
 17 18  1  0  0  0  0
 17 42  1  0  0  0  0
 17 43  1  0  0  0  0
 18 19  1  0  0  0  0
 18 44  1  0  0  0  0
 18 45  1  0  0  0  0
 19 20  1  0  0  0  0
 20 21  1  0  0  0  0
 20 46  1  0  0  0  0
 20 47  1  0  0  0  0
 21 48  1  0  0  0  0
 21 49  1  0  0  0  0
 22 23  2  0  0  0  0
 23 50  1  0  0  0  0
M  END
> <s_m_source_file>
AV-unprocessed.smi

> <i_m_source_file_index>
831

> <i_lp_mmshare_version>
43012

> <i_f3d_flags>
0

> <s_epik_input>
W0NIM11bQ0hdKFtDSDNdKVtDSDJdT1tDQEhdKFtDSDNdKUMoPU8pW05IXVtDSDJdYzFbY0hdW2NIXWMobltjSF0xKU4yW0NIMl1bQ0gyXU9bQ0gyXVtDSDJdMg==

> <s_epik_cmdline>
J2VwaWtfcHl0aG9uJywgJy1waCcsICc3LjAnLCAnLXRuJywgJzgnLCAnLW1hJywgJzIwMCcsICctbWV0YWxfYmluZGluZycsICctaW1hZScsICc8aW5maWxlLm1hZT4nLCAnLW9tYWUnLCAnPG91dGZpbGUubWFlPic=

> <r_lp_tautomer_probability>
1

> <r_epik_Ionization_Penalty>
0.00456501

> <r_epik_Ionization_Penalty_Charging>
0

> <r_epik_Ionization_Penalty_Neutral>
0.00456501

> <r_epik_State_Penalty>
0.00329791

> <r_epik_Charging_Adjusted_Penalty>
0.00329791

> <i_epik_Tot_Q>
0

> <i_epik_Tot_abs_Q>
0

> <r_epik_Metal_State_Penalty>
-0

> <b_epik_Metal_Only>
0

> <s_lp_Force_Field>
OPLS_2005

> <r_lp_Energy>
23.9744

> <b_lp_Chiralities_Consistent>
1

> <s_lp_Variant>
AV-unprocessed.smi:831-1

> <Gold.Version>
5.8.1

> <Gold.Id.Protein>
6NUR|6NUR_protein|mol2

> <Gold.PLP.Fitness>
43.3767

> <Gold.PLP.PLP>
-44.1476

> <Gold.PLP.part.hbond>
-1.0000

> <Gold.PLP.part.metal>
0.0000

> <Gold.PLP.part.buried>
-4.8347

> <Gold.PLP.part.nonpolar>
-38.1151

> <Gold.PLP.part.repulsive>
0.1901

> <Gold.PLP.ligand.clash>
0.0000

> <Gold.PLP.ligand.torsion>
0.6346

> <Gold.PLP.Chemscore.Hbond>
0.0000

> <Gold.PLP.Chemscore.CHOScore>
0.0000

> <Gold.PLP.Chemscore.Metal>
0.0000

> <Gold.PLP.Chemscore.Internal.Correction>
0.4983

> <Gold.Rescore>
     Score         DG    S(hbond)    S(metal)    S(lipo)     H(rot)  DE(clash)    DE(int)     intcor
     14.99     -15.74       0.00        0.00     129.57       1.92       0.10       0.65       ----

> <Gold.Chemscore.Fitness>
14.9906

> <Gold.Chemscore.DG>
-15.7350

> <Gold.Chemscore.ZeroCoef>
-5.4800

> <Gold.Chemscore.Hbond>
0.0000

> <Gold.Chemscore.Metal>
0.0000

> <Gold.Chemscore.Lipo>
129.5707

> <Gold.Chemscore.Internal_Hbond>
0.0000

> <Gold.Chemscore.DEClash>
0.0957

> <Gold.Chemscore.DEInternal>
0.6487

> <Gold.Chemscore.Rot>
1.9159

> <Gold.Chemscore.Internal.Correction>
   9.000000E+99

> <Gold.Chemscore.Hbond.Weighted>
-0.0000

> <Gold.Chemscore.Metal.Weighted>
-0.0000

> <Gold.Chemscore.Lipo.Weighted>
-15.1598

> <Gold.Chemscore.Internal_Hbond.Weighted>
0.0000

> <Gold.Chemscore.DEClash.Weighted>
0.0957

> <Gold.Chemscore.DEInternal.Weighted>
0.6487

> <Gold.Chemscore.Rot.Weighted>
4.9047

> <Gold.Chemscore.Internal.Correction.Weighted>
   9.000000E+99

> <Gold.Protein.RotatedTorsions>
[ 6907 6896 6895 6894 ] final   -8.31 input  -60.11 | X-H torsion
[ 7974 7965 7964 7962 ] final -168.29 input  175.53 | X-H torsion
[ 8008 7997 7996 7995 ] final    1.68 input   59.86 | X-H torsion
[ 10167 10162 10161 10158 ] final  162.56 input  -65.29 | X-H torsion
[ 10718 10713 10712 10709 ] final  134.78 input   66.30 | X-H torsion
[ 10763 10752 10751 10750 ] final  -78.34 input  -60.55 | X-H torsion
[ 11005 11000 10999 10996 ] final  150.50 input  -57.11 | X-H torsion

> <Gold.Protein.ActiveResidues>
 VAL166  LYS551  ARG553  GLY616  TRP617  ASP618  TYR619  PRO620  LYS621  CYS622 
 ASP623  PHE694  ASN695  SER759  ASP760  ASP761  ALA762  ILE779  LEU786  VAL792 
 PHE793  MET794  SER795  GLU796  ALA797  LYS798  CYS799  TRP800  GLU811  SER814 

> <Gold.Protein.RotatedAtoms>
  151.4356  135.1014  159.9654 H   0  0  0  0  0  0  0  0  0  0  0  0  # atno 6907 bound_to 6896
  152.4941  133.8576  159.7244 H   0  0  0  0  0  0  0  0  0  0  0  0  # atno 6908 bound_to 6896
  150.9124  133.6922  159.2879 H   0  0  0  0  0  0  0  0  0  0  0  0  # atno 6909 bound_to 6896
  144.7206  140.2392  143.6294 H   0  0  0  0  0  0  0  0  0  0  0  0  # atno 7974 bound_to 7965
  154.6826  140.2636  155.6893 H   0  0  0  0  0  0  0  0  0  0  0  0  # atno 8008 bound_to 7997
  156.2702  140.2807  156.1298 H   0  0  0  0  0  0  0  0  0  0  0  0  # atno 8009 bound_to 7997
  155.1010  140.0374  157.2687 H   0  0  0  0  0  0  0  0  0  0  0  0  # atno 8010 bound_to 7997
  139.4862  144.4426  151.8933 H   0  0  0  0  0  0  0  0  0  0  0  0  # atno 10167 bound_to 10162
  157.4638  131.1075  150.9887 H   0  0  0  0  0  0  0  0  0  0  0  0  # atno 10718 bound_to 10713
  154.5246  135.5733  153.6709 H   0  0  0  0  0  0  0  0  0  0  0  0  # atno 10763 bound_to 10752
  152.9925  135.6190  154.2709 H   0  0  0  0  0  0  0  0  0  0  0  0  # atno 10764 bound_to 10752
  154.2632  135.2855  155.2749 H   0  0  0  0  0  0  0  0  0  0  0  0  # atno 10765 bound_to 10752
  140.1137  134.8908  157.1973 H   0  0  0  0  0  0  0  0  0  0  0  0  # atno 11005 bound_to 11000
  145.8336  139.2097  143.1868 LP  0  0  0  0  0  0  0  0  0  0  0  0  # atno 17320 bound_to 7965
  146.0409  140.8166  142.9829 LP  0  0  0  0  0  0  0  0  0  0  0  0  # atno 17321 bound_to 7965
  140.3878  144.2654  150.5902 LP  0  0  0  0  0  0  0  0  0  0  0  0  # atno 17342 bound_to 10162
  140.5174  143.2274  151.8442 LP  0  0  0  0  0  0  0  0  0  0  0  0  # atno 17343 bound_to 10162
  157.0675  130.5850  149.5396 LP  0  0  0  0  0  0  0  0  0  0  0  0  # atno 17370 bound_to 10713
  156.0041  130.5125  150.7767 LP  0  0  0  0  0  0  0  0  0  0  0  0  # atno 17371 bound_to 10713
  140.3057  134.3081  155.7279 LP  0  0  0  0  0  0  0  0  0  0  0  0  # atno 17394 bound_to 11000
  141.2136  133.7619  156.9704 LP  0  0  0  0  0  0  0  0  0  0  0  0  # atno 17395 bound_to 11000

$$$$
