AV-unprocessed.smi:1|AV-procd|sdf|21|dock4
  -GOLD-   2262015123D 1   1.00000     0.00000
 Structure written by MMmdl.
 56 61  0  0  0  0  0  0  0  0  2 V2000
  150.5744  141.2708  156.4915 O   0  0  0  0  0  0  0  0  0  0  0  0
  151.5377  141.2499  157.2607 C   0  0  0  0  0  0  0  0  0  0  0  0
  152.4794  140.2809  157.3897 N   0  5  0  0  0  0  0  0  0  0  0  0
  152.1349  139.0806  157.8811 C   0  0  0  0  0  0  0  0  0  0  0  0
  152.2789  138.8136  159.2041 N   0  0  0  0  0  0  0  0  0  0  0  0
  151.9429  137.6140  159.6919 C   0  0  0  0  0  0  0  0  0  0  0  0
  151.4508  136.5528  159.0458 N   0  0  0  0  0  0  0  0  0  0  0  0
  151.2880  136.8112  157.7156 C   0  0  0  0  0  0  0  0  0  0  0  0
  151.5994  138.0431  157.0692 C   0  0  0  0  0  0  0  0  0  0  0  0
  151.3113  137.9749  155.7145 N   0  0  0  0  0  0  0  0  0  0  0  0
  150.8534  136.7308  155.5998 C   0  0  0  0  0  0  0  0  0  0  0  0
  150.8142  135.9753  156.7156 N   0  0  0  0  0  0  0  0  0  0  0  0
  150.3433  134.5609  156.8259 C   0  0  2  0  0  0  0  0  0  0  0  0
  150.4671  133.9350  155.5830 O   0  0  0  0  0  0  0  0  0  0  0  0
  149.1883  133.5558  155.0811 C   0  0  1  0  0  0  0  0  0  0  0  0
  149.2896  132.2997  154.2090 C   0  0  0  0  0  0  0  0  0  0  0  0
  148.1927  132.2766  153.3108 O   0  0  0  0  0  0  0  0  0  0  0  0
  147.0757  131.5943  153.6247 C   0  0  0  0  0  0  0  0  0  0  0  0
  147.0049  130.7946  154.5601 O   0  0  0  0  0  0  0  0  0  0  0  0
  145.9317  131.9102  152.7215 C   0  0  0  0  0  0  0  0  0  0  0  0
  145.7823  133.2272  152.2271 C   0  0  0  0  0  0  0  0  0  0  0  0
  144.7117  133.5557  151.3728 C   0  0  0  0  0  0  0  0  0  0  0  0
  143.7778  132.5708  151.0014 C   0  0  0  0  0  0  0  0  0  0  0  0
  143.9150  131.2571  151.4865 C   0  0  0  0  0  0  0  0  0  0  0  0
  144.9845  130.9269  152.3417 C   0  0  0  0  0  0  0  0  0  0  0  0
  148.3298  133.3928  156.3337 C   0  0  1  0  0  0  0  0  0  0  0  0
  148.5523  132.1373  156.9551 O   0  0  0  0  0  0  0  0  0  0  0  0
  148.6695  132.3801  158.6038 S   0  0  0  0  0  0  0  0  0  0  0  0
  147.3933  131.9883  159.2208 O   0  0  0  0  0  0  0  0  0  0  0  0
  149.9652  131.8509  159.0559 O   0  0  0  0  0  0  0  0  0  0  0  0
  148.7558  134.0491  158.5992 O   0  0  0  0  0  0  0  0  0  0  0  0
  148.8707  134.4876  157.2570 C   0  0  1  0  0  0  0  0  0  0  0  0
  151.7843  142.4416  158.1462 C   0  0  0  0  0  0  0  0  0  0  0  0
  152.3822  142.2602  159.4141 C   0  0  0  0  0  0  0  0  0  0  0  0
  152.6478  143.3656  160.2457 C   0  0  0  0  0  0  0  0  0  0  0  0
  152.3271  144.6661  159.8137 C   0  0  0  0  0  0  0  0  0  0  0  0
  151.7440  144.8606  158.5477 C   0  0  0  0  0  0  0  0  0  0  0  0
  151.4775  143.7555  157.7158 C   0  0  0  0  0  0  0  0  0  0  0  0
  152.0931  137.4842  160.7533 H   0  0  0  0  0  0  0  0  0  0  0  0
  150.5325  136.3435  154.6439 H   0  0  0  0  0  0  0  0  0  0  0  0
  151.0268  134.0916  157.5350 H   0  0  0  0  0  0  0  0  0  0  0  0
  148.7808  134.3761  154.4908 H   0  0  0  0  0  0  0  0  0  0  0  0
  150.2357  132.2818  153.6662 H   0  0  0  0  0  0  0  0  0  0  0  0
  149.2506  131.4086  154.8369 H   0  0  0  0  0  0  0  0  0  0  0  0
  146.4879  133.9997  152.4977 H   0  0  0  0  0  0  0  0  0  0  0  0
  144.6080  134.5648  151.0018 H   0  0  0  0  0  0  0  0  0  0  0  0
  142.9574  132.8225  150.3454 H   0  0  0  0  0  0  0  0  0  0  0  0
  143.1987  130.4999  151.2028 H   0  0  0  0  0  0  0  0  0  0  0  0
  145.0598  129.9090  152.6960 H   0  0  0  0  0  0  0  0  0  0  0  0
  147.2649  133.5072  156.1288 H   0  0  0  0  0  0  0  0  0  0  0  0
  148.3610  135.4373  157.0920 H   0  0  0  0  0  0  0  0  0  0  0  0
  152.6373  141.2684  159.7588 H   0  0  0  0  0  0  0  0  0  0  0  0
  153.0997  143.2147  161.2149 H   0  0  0  0  0  0  0  0  0  0  0  0
  152.5323  145.5138  160.4505 H   0  0  0  0  0  0  0  0  0  0  0  0
  151.5038  145.8584  158.2115 H   0  0  0  0  0  0  0  0  0  0  0  0
  151.0400  143.9275  156.7428 H   0  0  0  0  0  0  0  0  0  0  0  0
  1  2  2  0  0  0  0
  2  3  1  0  0  0  0
  2 33  1  0  0  0  0
  3  4  1  0  0  0  0
  4  9  1  0  0  0  0
  4  5  2  0  0  0  0
  5  6  1  0  0  0  0
  6  7  2  0  0  0  0
  6 39  1  0  0  0  0
  7  8  1  0  0  0  0
  8 12  1  0  0  0  0
  8  9  2  0  0  0  0
  9 10  1  0  0  0  0
 10 11  2  0  0  0  0
 11 12  1  0  0  0  0
 11 40  1  0  0  0  0
 12 13  1  0  0  0  0
 13 32  1  0  0  0  0
 13 14  1  0  0  0  0
 13 41  1  0  0  0  0
 14 15  1  0  0  0  0
 15 16  1  0  0  0  0
 15 26  1  0  0  0  0
 15 42  1  0  0  0  0
 16 17  1  0  0  0  0
 16 43  1  0  0  0  0
 16 44  1  0  0  0  0
 17 18  1  0  0  0  0
 18 19  2  0  0  0  0
 18 20  1  0  0  0  0
 20 25  1  0  0  0  0
 20 21  2  0  0  0  0
 21 22  1  0  0  0  0
 21 45  1  0  0  0  0
 22 23  2  0  0  0  0
 22 46  1  0  0  0  0
 23 24  1  0  0  0  0
 23 47  1  0  0  0  0
 24 25  2  0  0  0  0
 24 48  1  0  0  0  0
 25 49  1  0  0  0  0
 26 32  1  0  0  0  0
 26 27  1  0  0  0  0
 26 50  1  0  0  0  0
 27 28  1  0  0  0  0
 28 29  2  0  0  0  0
 28 30  2  0  0  0  0
 28 31  1  0  0  0  0
 31 32  1  0  0  0  0
 32 51  1  0  0  0  0
 33 38  1  0  0  0  0
 33 34  2  0  0  0  0
 34 35  1  0  0  0  0
 34 52  1  0  0  0  0
 35 36  2  0  0  0  0
 35 53  1  0  0  0  0
 36 37  1  0  0  0  0
 36 54  1  0  0  0  0
 37 38  2  0  0  0  0
 37 55  1  0  0  0  0
 38 56  1  0  0  0  0
M  CHG  1   3  -1
M  END
> <s_m_source_file>
AV-unprocessed.smi

> <i_m_source_file_index>
1

> <i_lp_mmshare_version>
43012

> <i_f3d_flags>
0

> <s_epik_input>
W2NIXTFbY0hdW2NIXVtjSF1bY0hdYzFDKD1PKVtOSF1jKG5bY0hdbjIpYyhjMjMpbltjSF1uM1tDQEBIXShbQ0BIXShbQ0BIXTQ1KU9TKE81KSg9Tyk9TylPW0NASF00W0NIMl1PQyg9TyljNltjSF1bY0hdW2NIXVtjSF1bY0hdNg==

> <s_epik_cmdline>
J2VwaWtfcHl0aG9uJywgJy1waCcsICc3LjAnLCAnLXRuJywgJzgnLCAnLW1hJywgJzIwMCcsICctbWV0YWxfYmluZGluZycsICctaW1hZScsICc8aW5maWxlLm1hZT4nLCAnLW9tYWUnLCAnPG91dGZpbGUubWFlPic=

> <r_lp_tautomer_probability>
1

> <r_epik_Ionization_Penalty>
4.39121

> <r_epik_Ionization_Penalty_Charging>
3.39398

> <r_epik_Ionization_Penalty_Neutral>
0.997232

> <r_epik_State_Penalty>
3.39839

> <r_epik_Charging_Adjusted_Penalty>
6.79237

> <i_epik_Tot_Q>
-1

> <i_epik_Tot_abs_Q>
1

> <r_epik_Metal_State_Penalty>
0.497663

> <b_epik_Metal_Only>
1

> <s_epik_Chemistry_Notes>
This compound has an ester and may undergo hydrolysis at high or low pH. This compound contains an acetal/aminal-like group ( X-CH(R)-Y where X, Y are N, S, or O) that may be acid/base labile, releasing an aldehyde.

> <s_lp_Force_Field>
OPLS_2005

> <r_lp_Energy>
42.9256

> <b_lp_Chiralities_Consistent>
1

> <s_lp_Variant>
AV-unprocessed.smi:1-21

> <Gold.Version>
5.8.1

> <Gold.Id.Protein>
6NUR|6NUR_protein|mol2

> <Gold.PLP.Fitness>
61.4277

> <Gold.PLP.PLP>
-57.4637

> <Gold.PLP.part.hbond>
-3.2760

> <Gold.PLP.part.metal>
0.0000

> <Gold.PLP.part.buried>
-9.2907

> <Gold.PLP.part.nonpolar>
-44.8839

> <Gold.PLP.part.repulsive>
0.6299

> <Gold.PLP.ligand.clash>
0.0000

> <Gold.PLP.ligand.torsion>
3.6695

> <Gold.PLP.Chemscore.Hbond>
3.6880

> <Gold.PLP.Chemscore.CHOScore>
0.0000

> <Gold.PLP.Chemscore.Metal>
0.0000

> <Gold.Chemscore.Hbonds>
donor molecule, donor type, donor heavy atom, donor atom, acceptor molecule, acceptor atom, score
      P1  H  6896  6908       L1    30  0.82
      P1  H  6896  6909       L1     7  0.78
      P1  H  7997  8009       L1     3  1.93

> <Gold.PLP.Chemscore.Internal.Correction>
0.2391

> <Gold.Rescore>
     Score         DG    S(hbond)    S(metal)    S(lipo)     H(rot)  DE(clash)    DE(int)     intcor
     20.01     -23.77       2.15        0.00     141.31       2.11       0.27       3.49       ----

> <Gold.Chemscore.Fitness>
20.0101

> <Gold.Chemscore.DG>
-23.7711

> <Gold.Chemscore.ZeroCoef>
-5.4800

> <Gold.Chemscore.Hbond>
2.1462

> <Gold.Chemscore.Metal>
0.0000

> <Gold.Chemscore.Lipo>
141.3128

> <Gold.Chemscore.Internal_Hbond>
0.0000

> <Gold.Chemscore.DEClash>
0.2676

> <Gold.Chemscore.DEInternal>
3.4934

> <Gold.Chemscore.Rot>
2.1136

> <Gold.Chemscore.Internal.Correction>
   9.000000E+99

> <Gold.Chemscore.Hbonds>
donor molecule, donor type, donor heavy atom, donor atom, acceptor molecule, acceptor atom, score
      P1  H  6896  6908       L1    30  0.40
      P1  H  6896  6909       L1     7  0.77
      P1  H  7997  8009       L1     3  0.53

> <Gold.Chemscore.Hbond.Weighted>
-7.1683

> <Gold.Chemscore.Metal.Weighted>
-0.0000

> <Gold.Chemscore.Lipo.Weighted>
-16.5336

> <Gold.Chemscore.Internal_Hbond.Weighted>
0.0000

> <Gold.Chemscore.DEClash.Weighted>
0.2676

> <Gold.Chemscore.DEInternal.Weighted>
3.4934

> <Gold.Chemscore.Rot.Weighted>
5.4107

> <Gold.Chemscore.Internal.Correction.Weighted>
   9.000000E+99

> <Gold.Protein.RotatedTorsions>
[ 6907 6896 6895 6894 ] final   90.93 input  -60.11 | X-H torsion
[ 7974 7965 7964 7962 ] final   28.10 input  175.53 | X-H torsion
[ 8008 7997 7996 7995 ] final  177.16 input   59.86 | X-H torsion
[ 10167 10162 10161 10158 ] final  165.94 input  -65.29 | X-H torsion
[ 10718 10713 10712 10709 ] final -129.06 input   66.30 | X-H torsion
[ 10763 10752 10751 10750 ] final  120.87 input  -60.55 | X-H torsion
[ 11005 11000 10999 10996 ] final -136.85 input  -57.11 | X-H torsion

> <Gold.Protein.ActiveResidues>
 VAL166  LYS551  ARG553  GLY616  TRP617  ASP618  TYR619  PRO620  LYS621  CYS622 
 ASP623  PHE694  ASN695  SER759  ASP760  ASP761  ALA762  ILE779  LEU786  VAL792 
 PHE793  MET794  SER795  GLU796  ALA797  LYS798  CYS799  TRP800  GLU811  SER814 

> <Gold.Protein.RotatedAtoms>
  152.5447  134.1736  159.8606 H   0  0  0  0  0  0  0  0  0  0  0  0  # atno 6907 bound_to 6896
  151.1744  133.4757  159.2601 H   0  0  0  0  0  0  0  0  0  0  0  0  # atno 6908 bound_to 6896
  151.1242  135.0107  159.8608 H   0  0  0  0  0  0  0  0  0  0  0  0  # atno 6909 bound_to 6896
  146.1748  139.7102  142.8942 H   0  0  0  0  0  0  0  0  0  0  0  0  # atno 7974 bound_to 7965
  156.0687  140.1365  156.9855 H   0  0  0  0  0  0  0  0  0  0  0  0  # atno 8008 bound_to 7997
  154.4520  140.0976  156.6698 H   0  0  0  0  0  0  0  0  0  0  0  0  # atno 8009 bound_to 7997
  155.5262  140.3457  155.4419 H   0  0  0  0  0  0  0  0  0  0  0  0  # atno 8010 bound_to 7997
  139.4915  144.4080  151.9333 H   0  0  0  0  0  0  0  0  0  0  0  0  # atno 10167 bound_to 10162
  156.2011  130.6857  151.0540 H   0  0  0  0  0  0  0  0  0  0  0  0  # atno 10718 bound_to 10713
  153.6052  135.3440  155.2959 H   0  0  0  0  0  0  0  0  0  0  0  0  # atno 10763 bound_to 10752
  154.8629  135.4237  154.2369 H   0  0  0  0  0  0  0  0  0  0  0  0  # atno 10764 bound_to 10752
  153.3207  135.7038  153.7105 H   0  0  0  0  0  0  0  0  0  0  0  0  # atno 10765 bound_to 10752
  140.8766  134.1984  157.4618 H   0  0  0  0  0  0  0  0  0  0  0  0  # atno 11005 bound_to 11000
  145.4242  141.0409  143.2947 LP  0  0  0  0  0  0  0  0  0  0  0  0  # atno 17320 bound_to 7965
  144.8219  139.5777  143.6983 LP  0  0  0  0  0  0  0  0  0  0  0  0  # atno 17321 bound_to 7965
  140.3520  144.3077  150.5947 LP  0  0  0  0  0  0  0  0  0  0  0  0  # atno 17342 bound_to 10162
  140.5476  143.2212  151.7980 LP  0  0  0  0  0  0  0  0  0  0  0  0  # atno 17343 bound_to 10162
  157.6986  131.0785  150.6892 LP  0  0  0  0  0  0  0  0  0  0  0  0  # atno 17370 bound_to 10713
  156.6949  130.4606  149.5589 LP  0  0  0  0  0  0  0  0  0  0  0  0  # atno 17371 bound_to 10713
  139.8716  134.9798  156.5052 LP  0  0  0  0  0  0  0  0  0  0  0  0  # atno 17394 bound_to 11000
  140.8511  133.8131  155.9169 LP  0  0  0  0  0  0  0  0  0  0  0  0  # atno 17395 bound_to 11000

$$$$
