AV-unprocessed.smi:2656|AV-procd|sdf|10306|dock10
  -GOLD-   2272014323D 1   1.00000     0.00000
 Structure written by MMmdl.
 44 45  0  0  0  0  0  0  0  0  2 V2000
  151.2942  131.1064  156.3080 C   0  0  0  0  0  0  0  0  0  0  0  0
  151.9967  132.3506  156.6345 N   0  0  0  0  0  0  0  0  0  0  0  0
  153.2808  132.1379  157.3132 C   0  0  0  0  0  0  0  0  0  0  0  0
  151.5723  133.6203  156.3891 C   0  0  0  0  0  0  0  0  0  0  0  0
  152.2955  134.5732  156.6900 O   0  0  0  0  0  0  0  0  0  0  0  0
  150.1735  133.9304  155.7492 C   0  0  0  0  0  0  0  0  0  0  0  0
  149.9292  133.1842  154.3991 C   0  0  0  0  0  0  0  0  0  0  0  0
  148.9913  133.8721  153.5105 N   0  0  0  0  0  0  0  0  0  0  0  0
  147.7881  133.4136  153.1375 C   0  0  0  0  0  0  0  0  0  0  0  0
  147.3104  132.3520  153.5363 O   0  0  0  0  0  0  0  0  0  0  0  0
  147.1996  134.2485  152.2637 N   0  0  0  0  0  0  0  0  0  0  0  0
  145.9457  134.1003  151.6107 C   0  0  0  0  0  0  0  0  0  0  0  0
  145.3448  135.2618  151.0767 C   0  0  0  0  0  0  0  0  0  0  0  0
  144.0962  135.1641  150.4296 C   0  0  0  0  0  0  0  0  0  0  0  0
  143.4798  133.9665  150.3349 N   0  3  0  0  0  0  0  0  0  0  0  0
  144.0062  132.8320  150.8443 C   0  0  0  0  0  0  0  0  0  0  0  0
  145.2528  132.8674  151.5019 C   0  0  0  0  0  0  0  0  0  0  0  0
  149.0225  133.5649  156.7298 C   0  0  0  0  0  0  0  0  0  0  0  0
  148.8710  134.7260  157.7201 C   0  0  0  0  0  0  0  0  0  0  0  0
  149.4947  135.9403  157.0289 C   0  0  0  0  0  0  0  0  0  0  0  0
  149.9402  135.4561  155.6432 C   0  0  0  0  0  0  0  0  0  0  0  0
  150.6926  131.1656  155.4057 H   0  0  0  0  0  0  0  0  0  0  0  0
  150.6476  130.8151  157.1360 H   0  0  0  0  0  0  0  0  0  0  0  0
  151.9938  130.2877  156.1363 H   0  0  0  0  0  0  0  0  0  0  0  0
  154.1058  132.4519  156.6724 H   0  0  0  0  0  0  0  0  0  0  0  0
  153.4505  131.0945  157.5813 H   0  0  0  0  0  0  0  0  0  0  0  0
  153.3325  132.7109  158.2408 H   0  0  0  0  0  0  0  0  0  0  0  0
  150.8755  133.0261  153.8789 H   0  0  0  0  0  0  0  0  0  0  0  0
  149.5608  132.1742  154.5579 H   0  0  0  0  0  0  0  0  0  0  0  0
  149.2987  134.7559  153.1318 H   0  0  0  0  0  0  0  0  0  0  0  0
  147.7504  135.0424  151.9715 H   0  0  0  0  0  0  0  0  0  0  0  0
  145.8380  136.2203  151.1531 H   0  0  0  0  0  0  0  0  0  0  0  0
  143.5756  136.0019  149.9889 H   0  0  0  0  0  0  0  0  0  0  0  0
  143.4166  131.9359  150.7162 H   0  0  0  0  0  0  0  0  0  0  0  0
  145.6461  131.9527  151.9186 H   0  0  0  0  0  0  0  0  0  0  0  0
  148.0828  133.4724  156.1838 H   0  0  0  0  0  0  0  0  0  0  0  0
  149.1637  132.6099  157.2379 H   0  0  0  0  0  0  0  0  0  0  0  0
  147.8237  134.8947  157.9730 H   0  0  0  0  0  0  0  0  0  0  0  0
  149.3996  134.5115  158.6495 H   0  0  0  0  0  0  0  0  0  0  0  0
  148.7964  136.7746  156.9563 H   0  0  0  0  0  0  0  0  0  0  0  0
  150.3571  136.2853  157.6007 H   0  0  0  0  0  0  0  0  0  0  0  0
  150.8079  136.0230  155.3114 H   0  0  0  0  0  0  0  0  0  0  0  0
  149.1446  135.6546  154.9235 H   0  0  0  0  0  0  0  0  0  0  0  0
  142.5763  133.9172  149.8629 H   0  0  0  0  0  0  0  0  0  0  0  0
  1  2  1  0  0  0  0
  1 22  1  0  0  0  0
  1 23  1  0  0  0  0
  1 24  1  0  0  0  0
  2  3  1  0  0  0  0
  2  4  1  0  0  0  0
  3 25  1  0  0  0  0
  3 26  1  0  0  0  0
  3 27  1  0  0  0  0
  4  5  2  0  0  0  0
  4  6  1  0  0  0  0
  6 21  1  0  0  0  0
  6  7  1  0  0  0  0
  6 18  1  0  0  0  0
  7  8  1  0  0  0  0
  7 28  1  0  0  0  0
  7 29  1  0  0  0  0
  8  9  1  0  0  0  0
  8 30  1  0  0  0  0
  9 10  2  0  0  0  0
  9 11  1  0  0  0  0
 11 12  1  0  0  0  0
 11 31  1  0  0  0  0
 12 17  1  0  0  0  0
 12 13  2  0  0  0  0
 13 14  1  0  0  0  0
 13 32  1  0  0  0  0
 14 15  2  0  0  0  0
 14 33  1  0  0  0  0
 15 16  1  0  0  0  0
 15 44  1  0  0  0  0
 16 17  2  0  0  0  0
 16 34  1  0  0  0  0
 17 35  1  0  0  0  0
 18 19  1  0  0  0  0
 18 36  1  0  0  0  0
 18 37  1  0  0  0  0
 19 20  1  0  0  0  0
 19 38  1  0  0  0  0
 19 39  1  0  0  0  0
 20 21  1  0  0  0  0
 20 40  1  0  0  0  0
 20 41  1  0  0  0  0
 21 42  1  0  0  0  0
 21 43  1  0  0  0  0
M  CHG  1  15   1
M  END
> <s_m_source_file>
AV-unprocessed.smi

> <i_m_source_file_index>
2656

> <i_lp_mmshare_version>
43012

> <i_f3d_flags>
0

> <s_epik_input>
W0NIMl0xW0NIMl1bQ0gyXVtDSDJdQzEoQyg9TylOKFtDSDNdKVtDSDNdKVtDSDJdW05IXUMoPU8pW05IXWMyW2NIXVtjSF1uW2NIXVtjSF0y

> <s_epik_cmdline>
J2VwaWtfcHl0aG9uJywgJy1waCcsICc3LjAnLCAnLXRuJywgJzgnLCAnLW1hJywgJzIwMCcsICctbWV0YWxfYmluZGluZycsICctaW1hZScsICc8aW5maWxlLm1hZT4nLCAnLW9tYWUnLCAnPG91dGZpbGUubWFlPic=

> <r_epik_Ionization_Penalty>
1.05774

> <r_epik_Ionization_Penalty_Charging>
1.05772

> <r_epik_Ionization_Penalty_Neutral>
1.88023e-05

> <r_epik_State_Penalty>
1.11116

> <r_epik_Charging_Adjusted_Penalty>
2.16887

> <i_epik_Tot_Q>
1

> <i_epik_Tot_abs_Q>
1

> <r_epik_Metal_State_Penalty>
1.20442

> <b_epik_Metal_Only>
0

> <s_lp_Force_Field>
OPLS_2005

> <r_lp_Energy>
45.9804

> <b_lp_Chiralities_Consistent>
1

> <s_lp_Variant>
AV-unprocessed.smi:2656-2

> <Gold.Version>
5.8.1

> <Gold.Id.Protein>
6NUR|6NUR_protein|mol2

> <Gold.PLP.Fitness>
43.8180

> <Gold.PLP.PLP>
-32.2500

> <Gold.PLP.part.hbond>
-4.4031

> <Gold.PLP.part.metal>
0.0000

> <Gold.PLP.part.buried>
-3.6978

> <Gold.PLP.part.nonpolar>
-22.7670

> <Gold.PLP.part.repulsive>
0.1303

> <Gold.PLP.ligand.clash>
0.0000

> <Gold.PLP.ligand.torsion>
0.7084

> <Gold.PLP.Chemscore.Hbond>
4.2711

> <Gold.PLP.Chemscore.CHOScore>
0.0000

> <Gold.PLP.Chemscore.Metal>
0.0000

> <Gold.Chemscore.Hbonds>
donor molecule, donor type, donor heavy atom, donor atom, acceptor molecule, acceptor atom, score
      L1  H     8    30       P1  7948  0.38
      L1  H    11    31       P1  7948  1.00
      L1  H    15    44       P1 10186  2.00
      P1  H 10752 10765       L1     5  0.85

> <Gold.PLP.Chemscore.Internal.Correction>
0.1714

> <Gold.Rescore>
     Score         DG    S(hbond)    S(metal)    S(lipo)     H(rot)  DE(clash)    DE(int)     intcor
     16.00     -17.89       2.74        0.00      61.63       1.54       0.05       1.85       ----

> <Gold.Chemscore.Fitness>
15.9953

> <Gold.Chemscore.DG>
-17.8927

> <Gold.Chemscore.ZeroCoef>
-5.4800

> <Gold.Chemscore.Hbond>
2.7383

> <Gold.Chemscore.Metal>
0.0000

> <Gold.Chemscore.Lipo>
61.6310

> <Gold.Chemscore.Internal_Hbond>
0.0000

> <Gold.Chemscore.DEClash>
0.0516

> <Gold.Chemscore.DEInternal>
1.8458

> <Gold.Chemscore.Rot>
1.5406

> <Gold.Chemscore.Internal.Correction>
   9.000000E+99

> <Gold.Chemscore.Hbonds>
donor molecule, donor type, donor heavy atom, donor atom, acceptor molecule, acceptor atom, score
      L1  H     8    30       P1  7948  0.01
      L1  H    11    31       P1  7948  0.78
      L1  H    15    44       P1 10186  0.97
      P1  H 10752 10765       L1     5  0.76

> <Gold.Chemscore.Hbond.Weighted>
-9.1458

> <Gold.Chemscore.Metal.Weighted>
-0.0000

> <Gold.Chemscore.Lipo.Weighted>
-7.2108

> <Gold.Chemscore.Internal_Hbond.Weighted>
0.0000

> <Gold.Chemscore.DEClash.Weighted>
0.0516

> <Gold.Chemscore.DEInternal.Weighted>
1.8458

> <Gold.Chemscore.Rot.Weighted>
3.9440

> <Gold.Chemscore.Internal.Correction.Weighted>
   9.000000E+99

> <Gold.Protein.RotatedTorsions>
[ 6907 6896 6895 6894 ] final  -77.00 input  -60.11 | X-H torsion
[ 7974 7965 7964 7962 ] final  -42.47 input  175.53 | X-H torsion
[ 8008 7997 7996 7995 ] final  155.15 input   59.86 | X-H torsion
[ 10167 10162 10161 10158 ] final   13.88 input  -65.29 | X-H torsion
[ 10718 10713 10712 10709 ] final  -28.83 input   66.30 | X-H torsion
[ 10763 10752 10751 10750 ] final -134.51 input  -60.55 | X-H torsion
[ 11005 11000 10999 10996 ] final  -62.88 input  -57.11 | X-H torsion

> <Gold.Protein.ActiveResidues>
 VAL166  LYS551  ARG553  GLY616  TRP617  ASP618  TYR619  PRO620  LYS621  CYS622 
 ASP623  PHE694  ASN695  SER759  ASP760  ASP761  ALA762  ILE779  LEU786  VAL792 
 PHE793  MET794  SER795  GLU796  ALA797  LYS798  CYS799  TRP800  GLU811  SER814 

> <Gold.Protein.RotatedAtoms>
  150.7011  134.4488  159.5326 H   0  0  0  0  0  0  0  0  0  0  0  0  # atno 6907 bound_to 6896
  152.2184  134.8433  160.0498 H   0  0  0  0  0  0  0  0  0  0  0  0  # atno 6908 bound_to 6896
  151.9293  133.3571  159.3962 H   0  0  0  0  0  0  0  0  0  0  0  0  # atno 6909 bound_to 6896
  146.0113  140.6961  142.9223 H   0  0  0  0  0  0  0  0  0  0  0  0  # atno 7974 bound_to 7965
  156.2493  140.1947  156.6757 H   0  0  0  0  0  0  0  0  0  0  0  0  # atno 8008 bound_to 7997
  154.6359  140.0590  156.9814 H   0  0  0  0  0  0  0  0  0  0  0  0  # atno 8009 bound_to 7997
  155.1638  140.3262  155.4409 H   0  0  0  0  0  0  0  0  0  0  0  0  # atno 8010 bound_to 7997
  140.5973  143.8676  150.6930 H   0  0  0  0  0  0  0  0  0  0  0  0  # atno 10167 bound_to 10162
  156.4202  130.4425  149.7189 H   0  0  0  0  0  0  0  0  0  0  0  0  # atno 10718 bound_to 10713
  154.8718  135.3732  154.4748 H   0  0  0  0  0  0  0  0  0  0  0  0  # atno 10763 bound_to 10752
  153.5405  135.7026  153.5644 H   0  0  0  0  0  0  0  0  0  0  0  0  # atno 10764 bound_to 10752
  153.3807  135.3997  155.1819 H   0  0  0  0  0  0  0  0  0  0  0  0  # atno 10765 bound_to 10752
  141.1374  133.6645  156.5595 H   0  0  0  0  0  0  0  0  0  0  0  0  # atno 11005 bound_to 11000
  144.6954  140.3403  143.7200 LP  0  0  0  0  0  0  0  0  0  0  0  0  # atno 17320 bound_to 7965
  145.7338  139.1744  143.2415 LP  0  0  0  0  0  0  0  0  0  0  0  0  # atno 17321 bound_to 7965
  140.2214  143.3806  152.1640 LP  0  0  0  0  0  0  0  0  0  0  0  0  # atno 17342 bound_to 10162
  139.5267  144.7110  151.5205 LP  0  0  0  0  0  0  0  0  0  0  0  0  # atno 17343 bound_to 10162
  156.4133  130.7733  151.2747 LP  0  0  0  0  0  0  0  0  0  0  0  0  # atno 17370 bound_to 10713
  157.7508  131.0205  150.3710 LP  0  0  0  0  0  0  0  0  0  0  0  0  # atno 17371 bound_to 10713
  140.4000  134.7365  157.4774 LP  0  0  0  0  0  0  0  0  0  0  0  0  # atno 17394 bound_to 11000
  140.0503  134.6140  155.8870 LP  0  0  0  0  0  0  0  0  0  0  0  0  # atno 17395 bound_to 11000

$$$$
