#       Name:                AV-unprocessed.smi:370
#       Creating user name   scv26
#       Creation time:       Thu Mar 26 22:37:51 2020


#       File generated by GOLD software.
#

@<TRIPOS>MOLECULE
AV-unprocessed.smi:370
    50    51     1
SMALL
NO_CHARGES


@<TRIPOS>ATOM
      1 ****        -5.9737   3.9041  -1.3230 C.3            1 S1                 0.0000
      2 ****        -4.6618   3.2535  -1.6002 C.2            1 S1                 0.0000
      3 ****        -3.7028   2.7175  -0.7884 C.2            1 S1                 0.0000
      4 ****        -2.7192   2.2581  -1.7065 C.2            1 S1                 0.0000
      5 ****        -1.5638   1.6537  -1.3894 N.pl3          1 S1                -1.0000
      6 ****        -1.5298   0.3159  -1.1885 C.2            1 S1                 0.0000
      7 ****        -2.4886  -0.4574  -1.2490 O.2            1 S1                 0.0000
      8 ****        -0.3109  -0.1581  -0.8999 N.am           1 S1                 0.0000
      9 ****         0.0077  -1.5597  -0.6418 C.3            1 S1                 0.0000
     10 ****         1.5117  -1.7752  -0.3083 C.3            1 S1                 0.0000
     11 ****         1.7023  -3.2837  -0.0181 C.3            1 S1                 0.0000
     12 ****         2.2952  -1.4525  -1.6063 C.3            1 S1                 0.0000
     13 ****         1.9592  -0.9050   0.8154 N.3            1 S1                 0.0000
     14 ****         3.3912  -0.9828   1.1259 C.3            1 S1                 0.0000
     15 ****         3.8041   0.0276   2.2095 C.3            1 S1                 0.0000
     16 ****         3.0258  -0.1806   3.3818 O.3            1 S1                 0.0000
     17 ****         1.6312  -0.0503   3.1346 C.3            1 S1                 0.0000
     18 ****         1.1987  -1.0627   2.0606 C.3            1 S1                 0.0000
     19 ****        -3.0436   2.5117  -2.9635 N.2            1 S1                 0.0000
     20 ****        -4.2916   3.1431  -2.9045 O.3            1 S1                 0.0000
     21 ****        -5.8455   4.7661  -0.6684 H              1 S1                 0.0000
     22 ****        -6.6535   3.2058  -0.8346 H              1 S1                 0.0000
     23 ****        -6.4461   4.2467  -2.2440 H              1 S1                 0.0000
     24 ****        -3.7059   2.6568   0.2896 H              1 S1                 0.0000
     25 ****         0.4523   0.5012  -0.8542 H              1 S1                 0.0000
     26 ****        -0.6315  -1.9343   0.1584 H              1 S1                 0.0000
     27 ****        -0.2679  -2.1411  -1.5235 H              1 S1                 0.0000
     28 ****         1.3675  -3.8887  -0.8616 H              1 S1                 0.0000
     29 ****         1.1293  -3.6109   0.8491 H              1 S1                 0.0000
     30 ****         2.7464  -3.5423   0.1567 H              1 S1                 0.0000
     31 ****         1.8619  -1.9567  -2.4709 H              1 S1                 0.0000
     32 ****         3.3339  -1.7779  -1.5550 H              1 S1                 0.0000
     33 ****         2.2949  -0.3831  -1.8212 H              1 S1                 0.0000
     34 ****         3.6499  -1.9856   1.4655 H              1 S1                 0.0000
     35 ****         3.9923  -0.7823   0.2408 H              1 S1                 0.0000
     36 ****         4.8591  -0.0923   2.4565 H              1 S1                 0.0000
     37 ****         3.6729   1.0505   1.8532 H              1 S1                 0.0000
     38 ****         1.0868  -0.2266   4.0624 H              1 S1                 0.0000
     39 ****         1.4031   0.9688   2.8183 H              1 S1                 0.0000
     40 ****         0.1336  -0.9222   1.8865 H              1 S1                 0.0000
     41 ****         1.3258  -2.0706   2.4555 H              1 S1                 0.0000
     42 ****        -0.7263   2.1930  -1.3014 LP             1 S1                 0.0000
     43 ****        -3.4003  -0.1075  -1.4645 LP             1 S1                 0.0000
     44 ****        -2.3544  -1.4342  -1.0825 LP             1 S1                 0.0000
     45 ****         1.7673   0.0028   0.4424 LP             1 S1                 0.0000
     46 ****         3.2946   0.4932   4.0701 LP             1 S1                 0.0000
     47 ****         3.2063  -1.1011   3.7282 LP             1 S1                 0.0000
     48 ****        -2.5106   2.2978  -3.7821 LP             1 S1                 0.0000
     49 ****        -4.2285   4.0529  -3.3148 LP             1 S1                 0.0000
     50 ****        -4.9679   2.5995  -3.4016 LP             1 S1                 0.0000
@<TRIPOS>BOND
    1    1    2 1     
    2    1   21 1     
    3    1   22 1     
    4    1   23 1     
    5    2   20 1     
    6    2    3 2     
    7    3    4 1     
    8    3   24 1     
    9    4    5 1     
   10    4   19 2     
   11    5    6 1     
   12    6    7 2     
   13    6    8 am    
   14    8    9 1     
   15    8   25 1     
   16    9   10 1     
   17    9   26 1     
   18    9   27 1     
   19   10   11 1     
   20   10   12 1     
   21   10   13 1     
   22   11   28 1     
   23   11   29 1     
   24   11   30 1     
   25   12   31 1     
   26   12   32 1     
   27   12   33 1     
   28   13   18 1     
   29   13   14 1     
   30   14   15 1     
   31   14   34 1     
   32   14   35 1     
   33   15   16 1     
   34   15   36 1     
   35   15   37 1     
   36   16   17 1     
   37   17   18 1     
   38   17   38 1     
   39   17   39 1     
   40   18   40 1     
   41   18   41 1     
   42   19   20 1     
   43    5   42 1     
   44    7   43 1     
   45    7   44 1     
   46   13   45 1     
   47   16   46 1     
   48   16   47 1     
   49   19   48 1     
   50   20   49 1     
   51   20   50 1     
@<TRIPOS>SUBSTRUCTURE
      1 S1             1
@<TRIPOS>SET
LONE_PAIRS      STATIC     ATOMS    <user>   **** ""
9 42 43 44 45 46 47 48 49 50
DONOR_HYDROGENS      STATIC     ATOMS    <user>   **** ""
1 25
ATOM$BLUE        STATIC     ATOMS    COLORGROUP SYSTEM
9 42 43 44 45 46 47 48 49 50
ATOM$RED        STATIC     ATOMS    COLORGROUP SYSTEM
1 25
