#       Name:                AV-unprocessed.smi:2239
#       Creating user name   scv26
#       Creation time:       Fri Mar 27 12:26:20 2020


#       File generated by GOLD software.
#

@<TRIPOS>MOLECULE
AV-unprocessed.smi:2239
    36    37     1
SMALL
NO_CHARGES


@<TRIPOS>ATOM
      1 ****        -2.3358   4.2693  -0.1292 C.3            1 S1                 0.0000
      2 ****        -2.6370   2.8316  -0.4970 C.ar           1 S1                 0.0000
      3 ****        -3.9615   2.3959  -0.6966 C.ar           1 S1                 0.0000
      4 ****        -4.1714   1.0464  -1.0322 C.ar           1 S1                 0.0000
      5 ****        -3.0566   0.1943  -1.1534 C.ar           1 S1                 0.0000
      6 ****        -1.7596   0.7116  -0.9366 C.ar           1 S1                 0.0000
      7 ****        -0.7039  -0.2279  -1.0787 N.am           1 S1                 0.0000
      8 ****         0.6180  -0.0169  -0.9506 C.2            1 S1                 0.0000
      9 ****         1.1464   1.0675  -0.7026 O.2            1 S1                 0.0000
     10 ****         1.3102  -1.1519  -1.1262 N.am           1 S1                 0.0000
     11 ****         2.7624  -1.2697  -1.0380 C.3            1 S1                 0.0000
     12 ****         3.2679  -1.2790   0.4164 C.3            1 S1                 0.0000
     13 ****         2.7269  -2.4369   1.2356 C.3            1 S1                 0.0000
     14 ****         1.4236  -2.3242   1.9924 C.3            1 S1                 0.0000
     15 ****         2.7326  -2.3806   2.7447 C.3            1 S1                 0.0000
     16 ****        -1.5680   2.0148  -0.6129 N.ar           1 S1                 0.0000
     17 ****        -3.2268   4.8927  -0.2097 H              1 S1                 0.0000
     18 ****        -1.5728   4.6809  -0.7907 H              1 S1                 0.0000
     19 ****        -1.9699   4.3272   0.8962 H              1 S1                 0.0000
     20 ****        -4.7957   3.0745  -0.5951 H              1 S1                 0.0000
     21 ****        -5.1706   0.6698  -1.1937 H              1 S1                 0.0000
     22 ****        -3.2009  -0.8450  -1.4106 H              1 S1                 0.0000
     23 ****        -0.9890  -1.1713  -1.2954 H              1 S1                 0.0000
     24 ****         0.7969  -1.9974  -1.3280 H              1 S1                 0.0000
     25 ****         3.0596  -2.1916  -1.5382 H              1 S1                 0.0000
     26 ****         3.2323  -0.4557  -1.5923 H              1 S1                 0.0000
     27 ****         4.3564  -1.3415   0.4179 H              1 S1                 0.0000
     28 ****         3.0160  -0.3390   0.9091 H              1 S1                 0.0000
     29 ****         2.9420  -3.4121   0.8029 H              1 S1                 0.0000
     30 ****         0.9012  -1.3698   1.9665 H              1 S1                 0.0000
     31 ****         0.7852  -3.2046   2.0252 H              1 S1                 0.0000
     32 ****         2.9660  -3.2984   3.2808 H              1 S1                 0.0000
     33 ****         3.0765  -1.4635   3.2189 H              1 S1                 0.0000
     34 ****         0.5806   1.8828  -0.5792 LP             1 S1                 0.0000
     35 ****         2.1412   1.1328  -0.6246 LP             1 S1                 0.0000
     36 ****        -0.6444   2.3671  -0.4616 LP             1 S1                 0.0000
@<TRIPOS>BOND
    1    1    2 1     
    2    1   17 1     
    3    1   18 1     
    4    1   19 1     
    5    2   16 ar    
    6    2    3 ar    
    7    3    4 ar    
    8    3   20 1     
    9    4    5 ar    
   10    4   21 1     
   11    5    6 ar    
   12    5   22 1     
   13    6    7 1     
   14    6   16 ar    
   15    7    8 am    
   16    7   23 1     
   17    8    9 2     
   18    8   10 am    
   19   10   11 1     
   20   10   24 1     
   21   11   12 1     
   22   11   25 1     
   23   11   26 1     
   24   12   13 1     
   25   12   27 1     
   26   12   28 1     
   27   13   15 1     
   28   13   14 1     
   29   13   29 1     
   30   14   15 1     
   31   14   30 1     
   32   14   31 1     
   33   15   32 1     
   34   15   33 1     
   35    9   34 1     
   36    9   35 1     
   37   16   36 1     
@<TRIPOS>SUBSTRUCTURE
      1 S1             1
@<TRIPOS>SET
LONE_PAIRS      STATIC     ATOMS    <user>   **** ""
3 34 35 36
DONOR_HYDROGENS      STATIC     ATOMS    <user>   **** ""
2 23 24
ATOM$BLUE        STATIC     ATOMS    COLORGROUP SYSTEM
3 34 35 36
ATOM$RED        STATIC     ATOMS    COLORGROUP SYSTEM
2 23 24
