#       Name:                AV-unprocessed.smi:113
#       Creating user name   scv26
#       Creation time:       Thu Mar 26 18:20:22 2020


#       File generated by GOLD software.
#

@<TRIPOS>MOLECULE
AV-unprocessed.smi:113
    63    66     1
SMALL
NO_CHARGES


@<TRIPOS>ATOM
      1 ****        -2.0577  -0.8011   4.2063 C.3            1 S1                 0.0000
      2 ****        -2.4911  -1.4529   2.9097 C.ar           1 S1                 0.0000
      3 ****        -1.9811  -1.0082   1.6771 C.ar           1 S1                 0.0000
      4 ****        -2.4113  -1.6409   0.4883 C.ar           1 S1                 0.0000
      5 ****        -1.8856  -1.1956  -0.8807 C.3            1 S1                 0.0000
      6 ****        -0.9701  -0.0634  -0.8957 N.am           1 S1                 0.0000
      7 ****        -1.5271   1.2348  -1.0007 C.2            1 S1                 0.0000
      8 ****        -2.7455   1.4108  -1.0684 O.2            1 S1                 0.0000
      9 ****        -0.5548   2.3304  -1.0080 C.2            1 S1                 0.0000
     10 ****        -1.0757   3.7505  -1.1632 C.3            1 S1                 0.0000
     11 ****         0.7658   2.0581  -0.8793 C.2            1 S1                 0.0000
     12 ****         1.2792   0.7806  -0.7331 N.am           1 S1                 0.0000
     13 ****         2.7649   0.5503  -0.5756 C.3            1 S1                 0.0000
     14 ****         3.4607   0.5451  -1.9378 C.3            1 S1                 0.0000
     15 ****         4.7571   1.2591  -1.6179 C.3            1 S1                 0.0000
     16 ****         5.2993   1.8589  -2.7766 O.3            1 S1                 0.0000
     17 ****         4.3011   2.2865  -0.5775 C.3            1 S1                 0.0000
     18 ****         5.4072   2.7883   0.3636 C.3            1 S1                 0.0000
     19 ****         6.2893   3.6493  -0.3243 O.3            1 S1                 0.0000
     20 ****         3.3137   1.5906   0.1809 O.3            1 S1                 0.0000
     21 ****         0.4108  -0.3299  -0.7556 C.2            1 S1                 0.0000
     22 ****         0.8444  -1.4796  -0.6490 O.2            1 S1                 0.0000
     23 ****        -3.3469  -2.7046   0.6016 C.ar           1 S1                 0.0000
     24 ****        -3.8260  -3.3932  -0.5392 C.2            1 S1                 0.0000
     25 ****        -4.7539  -4.4414  -0.4057 C.2            1 S1                 0.0000
     26 ****        -5.2129  -4.8124   0.8688 C.2            1 S1                 0.0000
     27 ****        -4.7411  -4.1342   2.0071 C.2            1 S1                 0.0000
     28 ****        -3.8089  -3.0801   1.8976 C.ar           1 S1                 0.0000
     29 ****        -3.3815  -2.4581   3.0185 N.ar           1 S1                 0.0000
     30 ****        -1.1118  -0.2728   4.0816 H              1 S1                 0.0000
     31 ****        -1.9258  -1.5469   4.9911 H              1 S1                 0.0000
     32 ****        -2.8097  -0.0839   4.5357 H              1 S1                 0.0000
     33 ****        -1.2727  -0.1936   1.6606 H              1 S1                 0.0000
     34 ****        -1.3854  -2.0270  -1.3798 H              1 S1                 0.0000
     35 ****        -2.7175  -0.9472  -1.5413 H              1 S1                 0.0000
     36 ****        -0.2654   4.4792  -1.1981 H              1 S1                 0.0000
     37 ****        -1.7241   4.0113  -0.3260 H              1 S1                 0.0000
     38 ****        -1.6503   3.8483  -2.0851 H              1 S1                 0.0000
     39 ****         1.4533   2.8901  -0.8956 H              1 S1                 0.0000
     40 ****         2.9013  -0.3735  -0.0119 H              1 S1                 0.0000
     41 ****         3.5928  -0.4704  -2.3122 H              1 S1                 0.0000
     42 ****         2.8680   1.1165  -2.6548 H              1 S1                 0.0000
     43 ****         5.4726   0.5585  -1.1845 H              1 S1                 0.0000
     44 ****         4.6604   2.4570  -3.1336 H              1 S1                 0.0000
     45 ****         3.8088   3.1281  -1.0680 H              1 S1                 0.0000
     46 ****         4.9680   3.3456   1.1913 H              1 S1                 0.0000
     47 ****         5.9644   1.9563   0.7951 H              1 S1                 0.0000
     48 ****         6.6841   3.1687  -1.0362 H              1 S1                 0.0000
     49 ****        -3.4939  -3.1335  -1.5327 H              1 S1                 0.0000
     50 ****        -5.1129  -4.9604  -1.2823 H              1 S1                 0.0000
     51 ****        -5.9261  -5.6166   0.9744 H              1 S1                 0.0000
     52 ****        -5.1012  -4.4291   2.9820 H              1 S1                 0.0000
     53 ****        -3.3657   0.6266  -1.0497 LP             1 S1                 0.0000
     54 ****        -3.1135   2.3377  -1.1420 LP             1 S1                 0.0000
     55 ****         5.5146   1.1534  -3.4519 LP             1 S1                 0.0000
     56 ****         6.1325   2.3582  -2.5391 LP             1 S1                 0.0000
     57 ****         7.0007   3.9721   0.3000 LP             1 S1                 0.0000
     58 ****         5.7829   4.4320  -0.6859 LP             1 S1                 0.0000
     59 ****         3.7364   1.2122   1.0044 LP             1 S1                 0.0000
     60 ****         2.5881   2.2276   0.4412 LP             1 S1                 0.0000
     61 ****         0.2132  -2.2551  -0.6604 LP             1 S1                 0.0000
     62 ****         1.8272  -1.6363  -0.5512 LP             1 S1                 0.0000
     63 ****        -3.7212  -2.7399   3.9158 LP             1 S1                 0.0000
@<TRIPOS>BOND
    1    1    2 1     
    2    1   30 1     
    3    1   31 1     
    4    1   32 1     
    5    2   29 ar    
    6    2    3 ar    
    7    3    4 ar    
    8    3   33 1     
    9    4    5 1     
   10    4   23 ar    
   11    5    6 1     
   12    5   34 1     
   13    5   35 1     
   14    6   21 am    
   15    6    7 am    
   16    7    8 2     
   17    7    9 1     
   18    9   10 1     
   19    9   11 2     
   20   10   36 1     
   21   10   37 1     
   22   10   38 1     
   23   11   12 1     
   24   11   39 1     
   25   12   13 1     
   26   12   21 am    
   27   13   20 1     
   28   13   14 1     
   29   13   40 1     
   30   14   15 1     
   31   14   41 1     
   32   14   42 1     
   33   15   16 1     
   34   15   17 1     
   35   15   43 1     
   36   16   44 1     
   37   17   18 1     
   38   17   20 1     
   39   17   45 1     
   40   18   19 1     
   41   18   46 1     
   42   18   47 1     
   43   19   48 1     
   44   21   22 2     
   45   23   28 ar    
   46   23   24 1     
   47   24   25 2     
   48   24   49 1     
   49   25   26 1     
   50   25   50 1     
   51   26   27 2     
   52   26   51 1     
   53   27   28 1     
   54   27   52 1     
   55   28   29 ar    
   56    8   53 1     
   57    8   54 1     
   58   16   55 1     
   59   16   56 1     
   60   19   57 1     
   61   19   58 1     
   62   20   59 1     
   63   20   60 1     
   64   22   61 1     
   65   22   62 1     
   66   29   63 1     
@<TRIPOS>SUBSTRUCTURE
      1 S1             1
@<TRIPOS>SET
LONE_PAIRS      STATIC     ATOMS    <user>   **** ""
11 53 54 55 56 57 58 59 60 61 62 63
DONOR_HYDROGENS      STATIC     ATOMS    <user>   **** ""
2 44 48
ATOM$BLUE        STATIC     ATOMS    COLORGROUP SYSTEM
11 53 54 55 56 57 58 59 60 61 62 63
ATOM$RED        STATIC     ATOMS    COLORGROUP SYSTEM
2 44 48
