AV-unprocessed.smi:3308|AV-procd|sdf|12712|dock9
  -GOLD-   2272019 43D 1   1.00000     0.00000
 Structure written by MMmdl.
 40 41  0  0  0  0  0  0  0  0  1 V2000
  147.2182  141.9091  156.1496 C   0  0  0  0  0  0  0  0  0  0  0  0
  148.5724  141.1744  156.0531 C   0  0  2  0  0  0  0  0  0  0  0  0
  149.6561  141.9991  156.5808 N   0  0  0  0  0  0  0  0  0  0  0  0
  149.5799  142.2165  158.0309 C   0  0  0  0  0  0  0  0  0  0  0  0
  150.7505  143.0732  158.5243 C   0  0  0  0  0  0  0  0  0  0  0  0
  150.7274  144.2846  158.3067 O   0  0  0  0  0  0  0  0  0  0  0  0
  151.7708  142.4768  159.1770 N   0  0  0  0  0  0  0  0  0  0  0  0
  151.8878  141.0475  159.4670 C   0  0  0  0  0  0  0  0  0  0  0  0
  153.3105  140.8465  159.9896 C   0  0  0  0  0  0  0  0  0  0  0  0
  153.6927  142.2039  160.5622 C   0  0  0  0  0  0  0  0  0  0  0  0
  152.9298  143.2032  159.6927 C   0  0  0  0  0  0  0  0  0  0  0  0
  148.9489  140.7228  154.6159 C   0  0  2  0  0  0  0  0  0  0  0  0
  147.7548  140.2181  153.7776 C   0  0  0  0  0  0  0  0  0  0  0  0
  150.0329  139.7452  154.6332 N   0  0  0  0  0  0  0  0  0  0  0  0
  150.0470  138.4383  154.1820 C   0  0  0  0  0  0  0  0  0  0  0  0
  151.2810  137.9223  154.4546 C   0  0  0  0  0  0  0  0  0  0  0  0
  151.9611  138.9947  155.0944 C   0  0  0  0  0  0  0  0  0  0  0  0
  151.2108  140.0782  155.2070 N   0  0  0  0  0  0  0  0  0  0  0  0
  146.4109  141.3135  155.7248 H   0  0  0  0  0  0  0  0  0  0  0  0
  147.2382  142.8643  155.6251 H   0  0  0  0  0  0  0  0  0  0  0  0
  146.9394  142.1083  157.1838 H   0  0  0  0  0  0  0  0  0  0  0  0
  148.5124  140.2712  156.6628 H   0  0  0  0  0  0  0  0  0  0  0  0
  149.6979  142.8714  156.0733 H   0  0  0  0  0  0  0  0  0  0  0  0
  148.6503  142.7270  158.2817 H   0  0  0  0  0  0  0  0  0  0  0  0
  149.5659  141.2636  158.5609 H   0  0  0  0  0  0  0  0  0  0  0  0
  151.1600  140.7788  160.2337 H   0  0  0  0  0  0  0  0  0  0  0  0
  151.7040  140.4270  158.5889 H   0  0  0  0  0  0  0  0  0  0  0  0
  153.3827  140.0423  160.7221 H   0  0  0  0  0  0  0  0  0  0  0  0
  153.9734  140.6023  159.1588 H   0  0  0  0  0  0  0  0  0  0  0  0
  153.3436  142.2757  161.5933 H   0  0  0  0  0  0  0  0  0  0  0  0
  154.7693  142.3767  160.5610 H   0  0  0  0  0  0  0  0  0  0  0  0
  153.5453  143.5291  158.8529 H   0  0  0  0  0  0  0  0  0  0  0  0
  152.6411  144.0863  160.2647 H   0  0  0  0  0  0  0  0  0  0  0  0
  149.3383  141.5990  154.0932 H   0  0  0  0  0  0  0  0  0  0  0  0
  147.0036  140.9967  153.6453 H   0  0  0  0  0  0  0  0  0  0  0  0
  147.2623  139.3615  154.2369 H   0  0  0  0  0  0  0  0  0  0  0  0
  148.0797  139.9166  152.7813 H   0  0  0  0  0  0  0  0  0  0  0  0
  149.1885  137.9834  153.7108 H   0  0  0  0  0  0  0  0  0  0  0  0
  151.6409  136.9281  154.2354 H   0  0  0  0  0  0  0  0  0  0  0  0
  152.9689  139.0164  155.4819 H   0  0  0  0  0  0  0  0  0  0  0  0
  1  2  1  0  0  0  0
  1 19  1  0  0  0  0
  1 20  1  0  0  0  0
  1 21  1  0  0  0  0
  2  3  1  0  0  0  0
  2 12  1  0  0  0  0
  2 22  1  0  0  0  0
  3  4  1  0  0  0  0
  3 23  1  0  0  0  0
  4  5  1  0  0  0  0
  4 24  1  0  0  0  0
  4 25  1  0  0  0  0
  5  6  2  0  0  0  0
  5  7  1  0  0  0  0
  7 11  1  0  0  0  0
  7  8  1  0  0  0  0
  8  9  1  0  0  0  0
  8 26  1  0  0  0  0
  8 27  1  0  0  0  0
  9 10  1  0  0  0  0
  9 28  1  0  0  0  0
  9 29  1  0  0  0  0
 10 11  1  0  0  0  0
 10 30  1  0  0  0  0
 10 31  1  0  0  0  0
 11 32  1  0  0  0  0
 11 33  1  0  0  0  0
 12 13  1  0  0  0  0
 12 14  1  0  0  0  0
 12 34  1  0  0  0  0
 13 35  1  0  0  0  0
 13 36  1  0  0  0  0
 13 37  1  0  0  0  0
 14 18  1  0  0  0  0
 14 15  1  0  0  0  0
 15 16  2  0  0  0  0
 15 38  1  0  0  0  0
 16 17  1  0  0  0  0
 16 39  1  0  0  0  0
 17 18  2  0  0  0  0
 17 40  1  0  0  0  0
M  END
> <s_m_source_file>
AV-unprocessed.smi

> <i_m_source_file_index>
3308

> <i_lp_mmshare_version>
43012

> <i_f3d_flags>
0

> <s_epik_input>
bjFbY0hdW2NIXVtjSF1uMVtDQEBIXShbQ0gzXSlbQ0BIXShbQ0gzXSlbTkhdW0NIMl1DKD1PKU4yW0NIMl1bQ0gyXVtDSDJdW0NIMl0y

> <s_epik_cmdline>
J2VwaWtfcHl0aG9uJywgJy1waCcsICc3LjAnLCAnLXRuJywgJzgnLCAnLW1hJywgJzIwMCcsICctbWV0YWxfYmluZGluZycsICctaW1hZScsICc8aW5maWxlLm1hZT4nLCAnLW9tYWUnLCAnPG91dGZpbGUubWFlPic=

> <r_lp_tautomer_probability>
1

> <r_epik_Ionization_Penalty>
0.918676

> <r_epik_Ionization_Penalty_Charging>
0

> <r_epik_Ionization_Penalty_Neutral>
0.918676

> <r_epik_State_Penalty>
0.958258

> <r_epik_Charging_Adjusted_Penalty>
0.958258

> <i_epik_Tot_Q>
0

> <i_epik_Tot_abs_Q>
0

> <r_epik_Metal_State_Penalty>
0.956879

> <b_epik_Metal_Only>
0

> <s_lp_Force_Field>
OPLS_2005

> <r_lp_Energy>
37.0374

> <b_lp_Chiralities_Consistent>
1

> <s_lp_Variant>
AV-unprocessed.smi:3308-5

> <Gold.Version>
5.8.1

> <Gold.Id.Protein>
6NUR|6NUR_protein|mol2

> <Gold.PLP.Fitness>
44.6093

> <Gold.PLP.PLP>
-38.9772

> <Gold.PLP.part.hbond>
-2.0000

> <Gold.PLP.part.metal>
0.0000

> <Gold.PLP.part.buried>
-4.8559

> <Gold.PLP.part.nonpolar>
-33.1802

> <Gold.PLP.part.repulsive>
0.2151

> <Gold.PLP.ligand.clash>
0.0000

> <Gold.PLP.ligand.torsion>
0.6077

> <Gold.PLP.Chemscore.Hbond>
1.2250

> <Gold.PLP.Chemscore.CHOScore>
0.9991

> <Gold.PLP.Chemscore.Metal>
0.0000

> <Gold.Chemscore.Hbonds>
donor molecule, donor type, donor heavy atom, donor atom, acceptor molecule, acceptor atom, score
      L1  H     3    23       P1  8028  0.92
      P1  H  7989  7998       L1    18  0.27
      L1  C    15    38       P1  7948  0.99

> <Gold.PLP.Chemscore.Internal.Correction>
0.1751

> <Gold.Rescore>
     Score         DG    S(hbond)    S(metal)    S(lipo)     H(rot)  DE(clash)    DE(int)     intcor
     12.99     -14.94       0.96        0.00      90.99       1.72       0.04       1.91       ----

> <Gold.Chemscore.Fitness>
12.9916

> <Gold.Chemscore.DG>
-14.9422

> <Gold.Chemscore.ZeroCoef>
-5.4800

> <Gold.Chemscore.Hbond>
0.9638

> <Gold.Chemscore.Metal>
0.0000

> <Gold.Chemscore.Lipo>
90.9927

> <Gold.Chemscore.Internal_Hbond>
0.0000

> <Gold.Chemscore.DEClash>
0.0395

> <Gold.Chemscore.DEInternal>
1.9111

> <Gold.Chemscore.Rot>
1.7200

> <Gold.Chemscore.Internal.Correction>
   9.000000E+99

> <Gold.Chemscore.Hbonds>
donor molecule, donor type, donor heavy atom, donor atom, acceptor molecule, acceptor atom, score
      L1  H     3    23       P1  8028  0.83

> <Gold.Chemscore.Hbond.Weighted>
-3.2191

> <Gold.Chemscore.Metal.Weighted>
-0.0000

> <Gold.Chemscore.Lipo.Weighted>
-10.6461

> <Gold.Chemscore.Internal_Hbond.Weighted>
0.0000

> <Gold.Chemscore.DEClash.Weighted>
0.0395

> <Gold.Chemscore.DEInternal.Weighted>
1.9111

> <Gold.Chemscore.Rot.Weighted>
4.4031

> <Gold.Chemscore.Internal.Correction.Weighted>
   9.000000E+99

> <Gold.Protein.RotatedTorsions>
[ 6907 6896 6895 6894 ] final -116.94 input  -60.11 | X-H torsion
[ 7974 7965 7964 7962 ] final -175.92 input  175.53 | X-H torsion
[ 8008 7997 7996 7995 ] final   48.77 input   59.86 | X-H torsion
[ 10167 10162 10161 10158 ] final  116.78 input  -65.29 | X-H torsion
[ 10718 10713 10712 10709 ] final  -52.58 input   66.30 | X-H torsion
[ 10763 10752 10751 10750 ] final  121.24 input  -60.55 | X-H torsion
[ 11005 11000 10999 10996 ] final  -39.52 input  -57.11 | X-H torsion

> <Gold.Protein.ActiveResidues>
 VAL166  LYS551  ARG553  GLY616  TRP617  ASP618  TYR619  PRO620  LYS621  CYS622 
 ASP623  PHE694  ASN695  SER759  ASP760  ASP761  ALA762  ILE779  LEU786  VAL792 
 PHE793  MET794  SER795  GLU796  ALA797  LYS798  CYS799  TRP800  GLU811  SER814 

> <Gold.Protein.RotatedAtoms>
  150.8096  133.8446  159.3188 H   0  0  0  0  0  0  0  0  0  0  0  0  # atno 6907 bound_to 6896
  151.6235  135.1028  160.0116 H   0  0  0  0  0  0  0  0  0  0  0  0  # atno 6908 bound_to 6896
  152.4188  133.7042  159.6498 H   0  0  0  0  0  0  0  0  0  0  0  0  # atno 6909 bound_to 6896
  144.7127  140.1249  143.6403 H   0  0  0  0  0  0  0  0  0  0  0  0  # atno 7974 bound_to 7965
  155.3912  140.3433  155.4251 H   0  0  0  0  0  0  0  0  0  0  0  0  # atno 8008 bound_to 7997
  156.1556  140.1584  156.8730 H   0  0  0  0  0  0  0  0  0  0  0  0  # atno 8009 bound_to 7997
  154.5092  140.0794  156.7937 H   0  0  0  0  0  0  0  0  0  0  0  0  # atno 8010 bound_to 7997
  139.6224  144.7103  151.2606 H   0  0  0  0  0  0  0  0  0  0  0  0  # atno 10167 bound_to 10162
  156.1609  130.4149  149.9794 H   0  0  0  0  0  0  0  0  0  0  0  0  # atno 10718 bound_to 10713
  153.6110  135.3430  155.2978 H   0  0  0  0  0  0  0  0  0  0  0  0  # atno 10763 bound_to 10752
  154.8618  135.4250  154.2310 H   0  0  0  0  0  0  0  0  0  0  0  0  # atno 10764 bound_to 10752
  153.3160  135.7035  153.7145 H   0  0  0  0  0  0  0  0  0  0  0  0  # atno 10765 bound_to 10752
  141.0107  133.6909  156.2197 H   0  0  0  0  0  0  0  0  0  0  0  0  # atno 11005 bound_to 11000
  145.9338  139.2624  143.1309 LP  0  0  0  0  0  0  0  0  0  0  0  0  # atno 17320 bound_to 7965
  145.9495  140.8919  143.0266 LP  0  0  0  0  0  0  0  0  0  0  0  0  # atno 17321 bound_to 7965
  140.7390  143.6631  150.8147 LP  0  0  0  0  0  0  0  0  0  0  0  0  # atno 17342 bound_to 10162
  140.0244  143.5509  152.2787 LP  0  0  0  0  0  0  0  0  0  0  0  0  # atno 17343 bound_to 10162
  156.7624  130.9156  151.3642 LP  0  0  0  0  0  0  0  0  0  0  0  0  # atno 17370 bound_to 10713
  157.6732  130.9070  150.0088 LP  0  0  0  0  0  0  0  0  0  0  0  0  # atno 17371 bound_to 10713
  140.6737  134.4840  157.5588 LP  0  0  0  0  0  0  0  0  0  0  0  0  # atno 17394 bound_to 11000
  139.9088  134.8389  156.1603 LP  0  0  0  0  0  0  0  0  0  0  0  0  # atno 17395 bound_to 11000

$$$$
