AV-unprocessed.smi:105|AV-procd|sdf|1009|dock9
  -GOLD-   2262018 03D 1   1.00000     0.00000
 Structure written by MMmdl.
 42 45  0  0  0  0  0  0  0  0  1 V2000
  149.9310  131.4255  154.3471 C   0  0  0  0  0  0  0  0  0  0  0  0
  150.6389  131.9242  155.4578 C   0  0  0  0  0  0  0  0  0  0  0  0
  150.5369  133.2852  155.8058 C   0  0  0  0  0  0  0  0  0  0  0  0
  149.7288  134.1541  155.0430 C   0  0  0  0  0  0  0  0  0  0  0  0
  149.6179  135.6210  155.4280 C   0  0  0  0  0  0  0  0  0  0  0  0
  150.1228  136.5606  154.4321 N   0  0  0  0  0  0  0  0  0  0  0  0
  151.0623  137.4740  154.7625 C   0  0  0  0  0  0  0  0  0  0  0  0
  152.2418  137.5420  154.0909 N   0  0  0  0  0  0  0  0  0  0  0  0
  153.1606  138.4467  154.4428 C   0  0  0  0  0  0  0  0  0  0  0  0
  153.1060  139.3565  155.4181 N   0  0  0  0  0  0  0  0  0  0  0  0
  151.9227  139.2898  156.0946 C   0  0  0  0  0  0  0  0  0  0  0  0
  150.8571  138.3835  155.8321 C   0  0  0  0  0  0  0  0  0  0  0  0
  149.8134  138.6018  156.7215 N   0  0  0  0  0  0  0  0  0  0  0  0
  150.2392  139.5809  157.4726 C   0  0  0  0  0  0  0  0  0  0  0  0
  151.4938  140.0594  157.1647 N   0  0  0  0  0  0  0  0  0  0  0  0
  152.2004  141.1275  157.8525 C   0  0  2  0  0  0  0  0  0  0  0  0
  152.4958  140.7792  159.3261 C   0  0  0  0  0  0  0  0  0  0  0  0
  153.2297  141.9651  159.9636 C   0  0  0  0  0  0  0  0  0  0  0  0
  152.3846  143.2327  159.8007 C   0  0  0  0  0  0  0  0  0  0  0  0
  152.0337  143.4383  158.3178 C   0  0  0  0  0  0  0  0  0  0  0  0
  151.3979  142.2710  157.8033 O   0  0  0  0  0  0  0  0  0  0  0  0
  149.0180  133.6494  153.9325 C   0  0  0  0  0  0  0  0  0  0  0  0
  149.1202  132.2885  153.5848 C   0  0  0  0  0  0  0  0  0  0  0  0
  150.0091  130.3819  154.0805 H   0  0  0  0  0  0  0  0  0  0  0  0
  151.2602  131.2625  156.0431 H   0  0  0  0  0  0  0  0  0  0  0  0
  151.0836  133.6603  156.6587 H   0  0  0  0  0  0  0  0  0  0  0  0
  148.5650  135.8457  155.5985 H   0  0  0  0  0  0  0  0  0  0  0  0
  150.1233  135.7957  156.3788 H   0  0  0  0  0  0  0  0  0  0  0  0
  149.8552  136.3734  153.4765 H   0  0  0  0  0  0  0  0  0  0  0  0
  154.0702  138.4391  153.8606 H   0  0  0  0  0  0  0  0  0  0  0  0
  149.6427  139.9828  158.2789 H   0  0  0  0  0  0  0  0  0  0  0  0
  153.1239  141.3198  157.3027 H   0  0  0  0  0  0  0  0  0  0  0  0
  151.5621  140.5775  159.8518 H   0  0  0  0  0  0  0  0  0  0  0  0
  153.1051  139.8760  159.3672 H   0  0  0  0  0  0  0  0  0  0  0  0
  153.4178  141.7694  161.0196 H   0  0  0  0  0  0  0  0  0  0  0  0
  154.2031  142.1010  159.4906 H   0  0  0  0  0  0  0  0  0  0  0  0
  151.4677  143.1416  160.3842 H   0  0  0  0  0  0  0  0  0  0  0  0
  152.9199  144.1001  160.1879 H   0  0  0  0  0  0  0  0  0  0  0  0
  151.3582  144.2865  158.2060 H   0  0  0  0  0  0  0  0  0  0  0  0
  152.9274  143.6649  157.7341 H   0  0  0  0  0  0  0  0  0  0  0  0
  148.3926  134.3042  153.3434 H   0  0  0  0  0  0  0  0  0  0  0  0
  148.5758  131.9065  152.7338 H   0  0  0  0  0  0  0  0  0  0  0  0
  1 23  1  0  0  0  0
  1  2  2  0  0  0  0
  1 24  1  0  0  0  0
  2  3  1  0  0  0  0
  2 25  1  0  0  0  0
  3  4  2  0  0  0  0
  3 26  1  0  0  0  0
  4  5  1  0  0  0  0
  4 22  1  0  0  0  0
  5  6  1  0  0  0  0
  5 27  1  0  0  0  0
  5 28  1  0  0  0  0
  6  7  1  0  0  0  0
  6 29  1  0  0  0  0
  7 12  1  0  0  0  0
  7  8  2  0  0  0  0
  8  9  1  0  0  0  0
  9 10  2  0  0  0  0
  9 30  1  0  0  0  0
 10 11  1  0  0  0  0
 11 15  1  0  0  0  0
 11 12  2  0  0  0  0
 12 13  1  0  0  0  0
 13 14  2  0  0  0  0
 14 15  1  0  0  0  0
 14 31  1  0  0  0  0
 15 16  1  0  0  0  0
 16 21  1  0  0  0  0
 16 17  1  0  0  0  0
 16 32  1  0  0  0  0
 17 18  1  0  0  0  0
 17 33  1  0  0  0  0
 17 34  1  0  0  0  0
 18 19  1  0  0  0  0
 18 35  1  0  0  0  0
 18 36  1  0  0  0  0
 19 20  1  0  0  0  0
 19 37  1  0  0  0  0
 19 38  1  0  0  0  0
 20 21  1  0  0  0  0
 20 39  1  0  0  0  0
 20 40  1  0  0  0  0
 22 23  2  0  0  0  0
 22 41  1  0  0  0  0
 23 42  1  0  0  0  0
M  END
> <s_m_source_file>
AV-unprocessed.smi

> <i_m_source_file_index>
105

> <i_lp_mmshare_version>
43012

> <i_f3d_flags>
0

> <s_epik_input>
W2NIXTFbY0hdW2NIXVtjSF1bY0hdYzFbQ0gyXVtOSF1jKG5bY0hdbjIpYyhjMjMpbltjSF1uM1tDQEBIXTRbQ0gyXVtDSDJdW0NIMl1bQ0gyXU80

> <s_epik_cmdline>
J2VwaWtfcHl0aG9uJywgJy1waCcsICc3LjAnLCAnLXRuJywgJzgnLCAnLW1hJywgJzIwMCcsICctbWV0YWxfYmluZGluZycsICctaW1hZScsICc8aW5maWxlLm1hZT4nLCAnLW9tYWUnLCAnPG91dGZpbGUubWFlPic=

> <r_lp_tautomer_probability>
1

> <r_epik_Ionization_Penalty>
0.000653933

> <r_epik_Ionization_Penalty_Charging>
0

> <r_epik_Ionization_Penalty_Neutral>
0.000653933

> <r_epik_State_Penalty>
-0

> <r_epik_Charging_Adjusted_Penalty>
0

> <i_epik_Tot_Q>
0

> <i_epik_Tot_abs_Q>
0

> <r_epik_Metal_State_Penalty>
-0

> <b_epik_Metal_Only>
0

> <s_epik_Chemistry_Notes>
This compound contains an acetal/aminal-like group ( X-CH(R)-Y where X, Y are N, S, or O) that may be acid/base labile, releasing an aldehyde.

> <s_lp_Force_Field>
OPLS_2005

> <r_lp_Energy>
24.2362

> <b_lp_Chiralities_Consistent>
1

> <s_lp_Variant>
AV-unprocessed.smi:105-1

> <Gold.Version>
5.8.1

> <Gold.Id.Protein>
6NUR|6NUR_protein|mol2

> <Gold.PLP.Fitness>
52.7521

> <Gold.PLP.PLP>
-45.3635

> <Gold.PLP.part.hbond>
-3.4569

> <Gold.PLP.part.metal>
0.0000

> <Gold.PLP.part.buried>
-6.3308

> <Gold.PLP.part.nonpolar>
-35.7144

> <Gold.PLP.part.repulsive>
0.2580

> <Gold.PLP.ligand.clash>
0.0000

> <Gold.PLP.ligand.torsion>
0.5620

> <Gold.PLP.Chemscore.Hbond>
2.8320

> <Gold.PLP.Chemscore.CHOScore>
0.0000

> <Gold.PLP.Chemscore.Metal>
0.0000

> <Gold.Chemscore.Hbonds>
donor molecule, donor type, donor heavy atom, donor atom, acceptor molecule, acceptor atom, score
      L1  H     6    29       P1  7948  0.90
      P1  H  7997  8009       L1    10  1.00
      P1  H 10752 10764       L1     8  0.80

> <Gold.PLP.Chemscore.Internal.Correction>
0.0165

> <Gold.Rescore>
     Score         DG    S(hbond)    S(metal)    S(lipo)     H(rot)  DE(clash)    DE(int)     intcor
     17.52     -18.13       2.07        0.00      83.08       1.55       0.00       0.61       ----

> <Gold.Chemscore.Fitness>
17.5157

> <Gold.Chemscore.DG>
-18.1308

> <Gold.Chemscore.ZeroCoef>
-5.4800

> <Gold.Chemscore.Hbond>
2.0691

> <Gold.Chemscore.Metal>
0.0000

> <Gold.Chemscore.Lipo>
83.0764

> <Gold.Chemscore.Internal_Hbond>
0.0000

> <Gold.Chemscore.DEClash>
0.0021

> <Gold.Chemscore.DEInternal>
0.6130

> <Gold.Chemscore.Rot>
1.5547

> <Gold.Chemscore.Internal.Correction>
   9.000000E+99

> <Gold.Chemscore.Hbonds>
donor molecule, donor type, donor heavy atom, donor atom, acceptor molecule, acceptor atom, score
      L1  H     6    29       P1  7948  0.18
      P1  H  7997  8009       L1    10  0.97
      P1  H 10752 10764       L1     8  0.34

> <Gold.Chemscore.Hbond.Weighted>
-6.9108

> <Gold.Chemscore.Metal.Weighted>
-0.0000

> <Gold.Chemscore.Lipo.Weighted>
-9.7199

> <Gold.Chemscore.Internal_Hbond.Weighted>
0.0000

> <Gold.Chemscore.DEClash.Weighted>
0.0021

> <Gold.Chemscore.DEInternal.Weighted>
0.6130

> <Gold.Chemscore.Rot.Weighted>
3.9800

> <Gold.Chemscore.Internal.Correction.Weighted>
   9.000000E+99

> <Gold.Protein.RotatedTorsions>
[ 6907 6896 6895 6894 ] final   16.86 input  -60.11 | X-H torsion
[ 7974 7965 7964 7962 ] final -171.66 input  175.53 | X-H torsion
[ 8008 7997 7996 7995 ] final -133.51 input   59.86 | X-H torsion
[ 10167 10162 10161 10158 ] final  -50.01 input  -65.29 | X-H torsion
[ 10718 10713 10712 10709 ] final -150.88 input   66.30 | X-H torsion
[ 10763 10752 10751 10750 ] final  -86.66 input  -60.55 | X-H torsion
[ 11005 11000 10999 10996 ] final -131.52 input  -57.11 | X-H torsion

> <Gold.Protein.ActiveResidues>
 VAL166  LYS551  ARG553  GLY616  TRP617  ASP618  TYR619  PRO620  LYS621  CYS622 
 ASP623  PHE694  ASN695  SER759  ASP760  ASP761  ALA762  ILE779  LEU786  VAL792 
 PHE793  MET794  SER795  GLU796  ALA797  LYS798  CYS799  TRP800  GLU811  SER814 

> <Gold.Protein.RotatedAtoms>
  151.8405  135.0591  160.0447 H   0  0  0  0  0  0  0  0  0  0  0  0  # atno 6907 bound_to 6896
  152.2812  133.5468  159.5507 H   0  0  0  0  0  0  0  0  0  0  0  0  # atno 6908 bound_to 6896
  150.7190  134.0477  159.3830 H   0  0  0  0  0  0  0  0  0  0  0  0  # atno 6909 bound_to 6896
  144.7154  140.1888  143.6350 H   0  0  0  0  0  0  0  0  0  0  0  0  # atno 7974 bound_to 7965
  155.3467  140.0475  157.3045 H   0  0  0  0  0  0  0  0  0  0  0  0  # atno 8008 bound_to 7997
  154.5249  140.2237  155.8873 H   0  0  0  0  0  0  0  0  0  0  0  0  # atno 8009 bound_to 7997
  156.1728  140.3092  155.9011 H   0  0  0  0  0  0  0  0  0  0  0  0  # atno 8010 bound_to 7997
  140.6658  143.2675  151.4297 H   0  0  0  0  0  0  0  0  0  0  0  0  # atno 10167 bound_to 10162
  156.4519  130.8172  151.2403 H   0  0  0  0  0  0  0  0  0  0  0  0  # atno 10718 bound_to 10713
  154.6250  135.5441  153.7617 H   0  0  0  0  0  0  0  0  0  0  0  0  # atno 10763 bound_to 10752
  153.0256  135.6422  154.1385 H   0  0  0  0  0  0  0  0  0  0  0  0  # atno 10764 bound_to 10752
  154.1318  135.2914  155.3163 H   0  0  0  0  0  0  0  0  0  0  0  0  # atno 10765 bound_to 10752
  140.9251  134.1393  157.4282 H   0  0  0  0  0  0  0  0  0  0  0  0  # atno 11005 bound_to 11000
  145.8787  139.2311  143.1618 LP  0  0  0  0  0  0  0  0  0  0  0  0  # atno 17320 bound_to 7965
  146.0015  140.8516  143.0016 LP  0  0  0  0  0  0  0  0  0  0  0  0  # atno 17321 bound_to 7965
  139.5906  144.1506  152.2084 LP  0  0  0  0  0  0  0  0  0  0  0  0  # atno 17342 bound_to 10162
  140.0860  144.5661  150.7088 LP  0  0  0  0  0  0  0  0  0  0  0  0  # atno 17343 bound_to 10162
  157.7502  131.0135  150.3426 LP  0  0  0  0  0  0  0  0  0  0  0  0  # atno 17370 bound_to 10713
  156.3807  130.3880  149.7104 LP  0  0  0  0  0  0  0  0  0  0  0  0  # atno 17371 bound_to 10713
  139.8784  134.9985  156.5905 LP  0  0  0  0  0  0  0  0  0  0  0  0  # atno 17394 bound_to 11000
  140.7937  133.8562  155.8667 LP  0  0  0  0  0  0  0  0  0  0  0  0  # atno 17395 bound_to 11000

$$$$
