AV-unprocessed.smi:1645|AV-procd|sdf|6605|dock3
  -GOLD-   22720 7303D 1   1.00000     0.00000
 Structure written by MMmdl.
 55 58  0  0  0  0  0  0  0  0  2 V2000
  146.2831  137.5437  155.1502 O   0  0  0  0  0  0  0  0  0  0  0  0
  147.0365  137.3150  154.2038 C   0  0  0  0  0  0  0  0  0  0  0  0
  148.2623  137.8420  154.0447 N   0  0  0  0  0  0  0  0  0  0  0  0
  148.9616  138.7101  154.9256 C   0  0  0  0  0  0  0  0  0  0  0  0
  148.6250  138.8946  156.2865 C   0  0  0  0  0  0  0  0  0  0  0  0
  149.4042  139.7674  157.0691 C   0  0  0  0  0  0  0  0  0  0  0  0
  150.5046  140.4308  156.4784 C   0  0  0  0  0  0  0  0  0  0  0  0
  151.2940  141.3094  157.2499 N   0  0  0  0  0  0  0  0  0  0  0  0
  150.7689  142.6705  157.3722 C   0  0  0  0  0  0  0  0  0  0  0  0
  151.8550  143.6428  157.8637 C   0  0  0  0  0  0  0  0  0  0  0  0
  152.5038  143.1379  159.1610 C   0  0  0  0  0  0  0  0  0  0  0  0
  153.0374  141.7117  158.9622 C   0  0  0  0  0  0  0  0  0  0  0  0
  151.9282  140.7737  158.4566 C   0  0  0  0  0  0  0  0  0  0  0  0
  150.8313  140.2439  155.1762 N   0  0  0  0  0  0  0  0  0  0  0  0
  150.0844  139.4028  154.4306 C   0  0  0  0  0  0  0  0  0  0  0  0
  146.7136  136.5084  153.1825 N   0  0  0  0  0  0  0  0  0  0  0  0
  145.4414  135.8039  153.0432 C   0  0  1  0  0  0  0  0  0  0  0  0
  144.2434  136.6235  153.5424 C   0  0  0  0  0  0  0  0  0  0  0  0
  143.0824  136.2698  152.5909 C   0  0  0  0  0  0  0  0  0  0  0  0
  143.6075  135.2748  151.6269 N   0  3  2  0  0  0  0  0  0  0  0  0
  143.2285  133.8833  152.0004 C   0  0  0  0  0  0  0  0  0  0  0  0
  143.9616  132.8330  151.1554 C   0  0  0  0  0  0  0  0  0  0  0  0
  145.4764  133.0116  151.2846 C   0  0  0  0  0  0  0  0  0  0  0  0
  145.8576  134.4256  150.8370 C   0  0  0  0  0  0  0  0  0  0  0  0
  145.0684  135.5272  151.5803 C   0  0  2  0  0  0  0  0  0  0  0  0
  148.7256  137.6466  153.1692 H   0  0  0  0  0  0  0  0  0  0  0  0
  147.7967  138.3782  156.7462 H   0  0  0  0  0  0  0  0  0  0  0  0
  149.1459  139.9264  158.1054 H   0  0  0  0  0  0  0  0  0  0  0  0
  150.3698  143.0339  156.4260 H   0  0  0  0  0  0  0  0  0  0  0  0
  149.9364  142.6582  158.0766 H   0  0  0  0  0  0  0  0  0  0  0  0
  152.6189  143.7547  157.0929 H   0  0  0  0  0  0  0  0  0  0  0  0
  151.4253  144.6322  158.0204 H   0  0  0  0  0  0  0  0  0  0  0  0
  153.3114  143.8049  159.4635 H   0  0  0  0  0  0  0  0  0  0  0  0
  151.7699  143.1469  159.9678 H   0  0  0  0  0  0  0  0  0  0  0  0
  153.8581  141.7260  158.2439 H   0  0  0  0  0  0  0  0  0  0  0  0
  153.4504  141.3316  159.8966 H   0  0  0  0  0  0  0  0  0  0  0  0
  151.1709  140.6417  159.2304 H   0  0  0  0  0  0  0  0  0  0  0  0
  152.3562  139.7916  158.2517 H   0  0  0  0  0  0  0  0  0  0  0  0
  150.3913  139.2860  153.4015 H   0  0  0  0  0  0  0  0  0  0  0  0
  147.3907  136.3817  152.4444 H   0  0  0  0  0  0  0  0  0  0  0  0
  145.4674  134.8672  153.6030 H   0  0  0  0  0  0  0  0  0  0  0  0
  144.0068  136.3843  154.5797 H   0  0  0  0  0  0  0  0  0  0  0  0
  144.4456  137.6944  153.4913 H   0  0  0  0  0  0  0  0  0  0  0  0
  142.2040  135.9069  153.1266 H   0  0  0  0  0  0  0  0  0  0  0  0
  142.7764  137.1586  152.0377 H   0  0  0  0  0  0  0  0  0  0  0  0
  143.4442  133.7091  153.0559 H   0  0  0  0  0  0  0  0  0  0  0  0
  142.1509  133.7656  151.8817 H   0  0  0  0  0  0  0  0  0  0  0  0
  143.6767  131.8314  151.4788 H   0  0  0  0  0  0  0  0  0  0  0  0
  143.6627  132.9197  150.1100 H   0  0  0  0  0  0  0  0  0  0  0  0
  145.7907  132.8431  152.3153 H   0  0  0  0  0  0  0  0  0  0  0  0
  145.9966  132.2723  150.6751 H   0  0  0  0  0  0  0  0  0  0  0  0
  146.9306  134.5805  150.9449 H   0  0  0  0  0  0  0  0  0  0  0  0
  145.6548  134.5143  149.7689 H   0  0  0  0  0  0  0  0  0  0  0  0
  145.2066  136.4560  151.0229 H   0  0  0  0  0  0  0  0  0  0  0  0
  143.2188  135.4557  150.7125 H   0  0  0  0  0  0  0  0  0  0  0  0
  1  2  2  0  0  0  0
  2  3  1  0  0  0  0
  2 16  1  0  0  0  0
  3  4  1  0  0  0  0
  3 26  1  0  0  0  0
  4 15  1  0  0  0  0
  4  5  2  0  0  0  0
  5  6  1  0  0  0  0
  5 27  1  0  0  0  0
  6  7  2  0  0  0  0
  6 28  1  0  0  0  0
  7  8  1  0  0  0  0
  7 14  1  0  0  0  0
  8 13  1  0  0  0  0
  8  9  1  0  0  0  0
  9 10  1  0  0  0  0
  9 29  1  0  0  0  0
  9 30  1  0  0  0  0
 10 11  1  0  0  0  0
 10 31  1  0  0  0  0
 10 32  1  0  0  0  0
 11 12  1  0  0  0  0
 11 33  1  0  0  0  0
 11 34  1  0  0  0  0
 12 13  1  0  0  0  0
 12 35  1  0  0  0  0
 12 36  1  0  0  0  0
 13 37  1  0  0  0  0
 13 38  1  0  0  0  0
 14 15  2  0  0  0  0
 15 39  1  0  0  0  0
 16 17  1  0  0  0  0
 16 40  1  0  0  0  0
 17 25  1  0  0  0  0
 17 18  1  0  0  0  0
 17 41  1  0  0  0  0
 18 19  1  0  0  0  0
 18 42  1  0  0  0  0
 18 43  1  0  0  0  0
 19 20  1  0  0  0  0
 19 44  1  0  0  0  0
 19 45  1  0  0  0  0
 20 25  1  0  0  0  0
 20 21  1  0  0  0  0
 20 55  1  0  0  0  0
 21 22  1  0  0  0  0
 21 46  1  0  0  0  0
 21 47  1  0  0  0  0
 22 23  1  0  0  0  0
 22 48  1  0  0  0  0
 22 49  1  0  0  0  0
 23 24  1  0  0  0  0
 23 50  1  0  0  0  0
 23 51  1  0  0  0  0
 24 25  1  0  0  0  0
 24 52  1  0  0  0  0
 24 53  1  0  0  0  0
 25 54  1  0  0  0  0
M  CHG  1  20   1
M  END
> <s_m_source_file>
AV-unprocessed.smi

> <i_m_source_file_index>
1645

> <i_lp_mmshare_version>
43012

> <i_f3d_flags>
0

> <s_epik_input>
W0NIMl0xW0NIMl1bQ0gyXVtDSDJdW0NASF0oTjEyKVtDQEBIXShbQ0gyXVtDSDJdMilbTkhdQyg9TylbTkhdYzNbY0hdW2NIXWMobltjSF0zKU40W0NIMl1bQ0gyXVtDSDJdW0NIMl1bQ0gyXTQ=

> <s_epik_cmdline>
J2VwaWtfcHl0aG9uJywgJy1waCcsICc3LjAnLCAnLXRuJywgJzgnLCAnLW1hJywgJzIwMCcsICctbWV0YWxfYmluZGluZycsICctaW1hZScsICc8aW5maWxlLm1hZT4nLCAnLW9tYWUnLCAnPG91dGZpbGUubWFlPic=

> <r_lp_tautomer_probability>
1

> <r_epik_Ionization_Penalty>
0.0808019

> <r_epik_Ionization_Penalty_Charging>
0.000974069

> <r_epik_Ionization_Penalty_Neutral>
0.0798278

> <r_epik_State_Penalty>
0.0653665

> <r_epik_Charging_Adjusted_Penalty>
0.0663406

> <i_epik_Tot_Q>
1

> <i_epik_Tot_abs_Q>
1

> <r_epik_Metal_State_Penalty>
0.0585673

> <b_epik_Metal_Only>
0

> <s_lp_Force_Field>
OPLS_2005

> <r_lp_Energy>
54.666

> <b_lp_Chiralities_Consistent>
1

> <s_lp_Variant>
AV-unprocessed.smi:1645-6

> <Gold.Version>
5.8.1

> <Gold.Id.Protein>
6NUR|6NUR_protein|mol2

> <Gold.PLP.Fitness>
47.7102

> <Gold.PLP.PLP>
-39.0310

> <Gold.PLP.part.hbond>
-3.0000

> <Gold.PLP.part.metal>
0.0000

> <Gold.PLP.part.buried>
-6.2994

> <Gold.PLP.part.nonpolar>
-29.8015

> <Gold.PLP.part.repulsive>
0.1259

> <Gold.PLP.ligand.clash>
0.0000

> <Gold.PLP.ligand.torsion>
0.7459

> <Gold.PLP.Chemscore.Hbond>
2.2480

> <Gold.PLP.Chemscore.CHOScore>
1.0000

> <Gold.PLP.Chemscore.Metal>
0.0000

> <Gold.Chemscore.Hbonds>
donor molecule, donor type, donor heavy atom, donor atom, acceptor molecule, acceptor atom, score
      L1  H     3    26       P1  7948  0.85
      L1  H    16    40       P1  7948  1.00
      P1  H  7989  7998       L1    14  0.40
      L1  C    15    39       P1  7957  1.00

> <Gold.PLP.Chemscore.Internal.Correction>
0.4269

> <Gold.Rescore>
     Score         DG    S(hbond)    S(metal)    S(lipo)     H(rot)  DE(clash)    DE(int)     intcor
     17.64     -20.81       1.92        0.00     102.05       1.17       0.01       3.16       ----

> <Gold.Chemscore.Fitness>
17.6375

> <Gold.Chemscore.DG>
-20.8139

> <Gold.Chemscore.ZeroCoef>
-5.4800

> <Gold.Chemscore.Hbond>
1.9155

> <Gold.Chemscore.Metal>
0.0000

> <Gold.Chemscore.Lipo>
102.0463

> <Gold.Chemscore.Internal_Hbond>
0.0000

> <Gold.Chemscore.DEClash>
0.0137

> <Gold.Chemscore.DEInternal>
3.1626

> <Gold.Chemscore.Rot>
1.1731

> <Gold.Chemscore.Internal.Correction>
   9.000000E+99

> <Gold.Chemscore.Hbonds>
donor molecule, donor type, donor heavy atom, donor atom, acceptor molecule, acceptor atom, score
      L1  H     3    26       P1  7948  0.83
      L1  H    16    40       P1  7948  0.97
      P1  H  7989  7998       L1    14  0.01

> <Gold.Chemscore.Hbond.Weighted>
-6.3977

> <Gold.Chemscore.Metal.Weighted>
-0.0000

> <Gold.Chemscore.Lipo.Weighted>
-11.9394

> <Gold.Chemscore.Internal_Hbond.Weighted>
0.0000

> <Gold.Chemscore.DEClash.Weighted>
0.0137

> <Gold.Chemscore.DEInternal.Weighted>
3.1626

> <Gold.Chemscore.Rot.Weighted>
3.0032

> <Gold.Chemscore.Internal.Correction.Weighted>
   9.000000E+99

> <Gold.Protein.RotatedTorsions>
[ 6907 6896 6895 6894 ] final  -27.02 input  -60.11 | X-H torsion
[ 7974 7965 7964 7962 ] final  130.37 input  175.53 | X-H torsion
[ 8008 7997 7996 7995 ] final  115.50 input   59.86 | X-H torsion
[ 10167 10162 10161 10158 ] final  156.71 input  -65.29 | X-H torsion
[ 10718 10713 10712 10709 ] final   97.53 input   66.30 | X-H torsion
[ 10763 10752 10751 10750 ] final -119.43 input  -60.55 | X-H torsion
[ 11005 11000 10999 10996 ] final   -0.70 input  -57.11 | X-H torsion

> <Gold.Protein.ActiveResidues>
 VAL166  LYS551  ARG553  GLY616  TRP617  ASP618  TYR619  PRO620  LYS621  CYS622 
 ASP623  PHE694  ASN695  SER759  ASP760  ASP761  ALA762  ILE779  LEU786  VAL792 
 PHE793  MET794  SER795  GLU796  ALA797  LYS798  CYS799  TRP800  GLU811  SER814 

> <Gold.Protein.RotatedAtoms>
  151.1528  135.0235  159.8675 H   0  0  0  0  0  0  0  0  0  0  0  0  # atno 6907 bound_to 6896
  152.5452  134.1369  159.8473 H   0  0  0  0  0  0  0  0  0  0  0  0  # atno 6908 bound_to 6896
  151.1456  133.4896  159.2628 H   0  0  0  0  0  0  0  0  0  0  0  0  # atno 6909 bound_to 6896
  145.0187  139.4152  143.5208 H   0  0  0  0  0  0  0  0  0  0  0  0  # atno 7974 bound_to 7965
  156.2385  140.2937  156.0379 H   0  0  0  0  0  0  0  0  0  0  0  0  # atno 8008 bound_to 7997
  155.2021  140.0410  157.2936 H   0  0  0  0  0  0  0  0  0  0  0  0  # atno 8009 bound_to 7997
  154.6124  140.2455  155.7660 H   0  0  0  0  0  0  0  0  0  0  0  0  # atno 8010 bound_to 7997
  139.4821  144.4983  151.8206 H   0  0  0  0  0  0  0  0  0  0  0  0  # atno 10167 bound_to 10162
  157.6911  131.0612  150.4657 H   0  0  0  0  0  0  0  0  0  0  0  0  # atno 10718 bound_to 10713
  154.8617  135.4239  154.2297 H   0  0  0  0  0  0  0  0  0  0  0  0  # atno 10763 bound_to 10752
  153.3285  135.6986  153.6974 H   0  0  0  0  0  0  0  0  0  0  0  0  # atno 10764 bound_to 10752
  153.6001  135.3538  155.2915 H   0  0  0  0  0  0  0  0  0  0  0  0  # atno 10765 bound_to 10752
  140.6391  133.9505  155.8316 H   0  0  0  0  0  0  0  0  0  0  0  0  # atno 11005 bound_to 11000
  146.3482  139.9672  142.8710 LP  0  0  0  0  0  0  0  0  0  0  0  0  # atno 17320 bound_to 7965
  145.1925  140.9818  143.4202 LP  0  0  0  0  0  0  0  0  0  0  0  0  # atno 17321 bound_to 7965
  140.4474  144.1902  150.5895 LP  0  0  0  0  0  0  0  0  0  0  0  0  # atno 17342 bound_to 10162
  140.4620  143.2445  151.9207 LP  0  0  0  0  0  0  0  0  0  0  0  0  # atno 17343 bound_to 10162
  156.4999  130.4114  149.6359 LP  0  0  0  0  0  0  0  0  0  0  0  0  # atno 17370 bound_to 10713
  156.3338  130.7346  151.2280 LP  0  0  0  0  0  0  0  0  0  0  0  0  # atno 17371 bound_to 10713
  141.0619  134.0333  157.3646 LP  0  0  0  0  0  0  0  0  0  0  0  0  # atno 17394 bound_to 11000
  139.9087  135.0185  156.7597 LP  0  0  0  0  0  0  0  0  0  0  0  0  # atno 17395 bound_to 11000

$$$$
