AV-unprocessed.smi:2096|AV-procd|sdf|8562|dock2
  -GOLD-   2272011283D 1   1.00000     0.00000
 Structure written by MMmdl.
 35 36  0  0  0  0  0  0  0  0  1 V2000
  150.9862  137.2147  154.4566 C   0  0  0  0  0  0  0  0  0  0  0  0
  151.3741  138.2327  155.4105 N   0  0  0  0  0  0  0  0  0  0  0  0
  150.9838  139.5758  155.1875 C   0  0  0  0  0  0  0  0  0  0  0  0
  150.3167  139.9217  154.2121 O   0  0  0  0  0  0  0  0  0  0  0  0
  151.4365  140.5120  156.2097 C   0  0  0  0  0  0  0  0  0  0  0  0
  152.1631  140.0887  157.2671 C   0  0  0  0  0  0  0  0  0  0  0  0
  152.5280  138.7691  157.4622 N   0  0  0  0  0  0  0  0  0  0  0  0
  153.3297  138.4002  158.6358 C   0  0  0  0  0  0  0  0  0  0  0  0
  153.9146  139.6169  159.3651 C   0  0  0  0  0  0  0  0  0  0  0  0
  155.0983  139.9267  159.2224 O   0  0  0  0  0  0  0  0  0  0  0  0
  153.0621  140.3132  160.1294 N   0  0  0  0  0  0  0  0  0  0  0  0
  153.4236  141.4963  160.8973 C   0  0  0  0  0  0  0  0  0  0  0  0
  152.5061  142.6609  160.5459 C   0  0  0  0  0  0  0  0  0  0  0  0
  152.9338  143.6620  159.4625 C   0  0  0  0  0  0  0  0  0  0  0  0
  152.2471  144.7645  160.2731 C   0  0  0  0  0  0  0  0  0  0  0  0
  152.3923  143.8603  161.4999 C   0  0  0  0  0  0  0  0  0  0  0  0
  152.1341  137.7970  156.5179 C   0  0  0  0  0  0  0  0  0  0  0  0
  152.4480  136.6127  156.6639 O   0  0  0  0  0  0  0  0  0  0  0  0
  150.4151  137.6387  153.6314 H   0  0  0  0  0  0  0  0  0  0  0  0
  150.3762  136.4855  154.9930 H   0  0  0  0  0  0  0  0  0  0  0  0
  151.9038  136.7626  154.0757 H   0  0  0  0  0  0  0  0  0  0  0  0
  151.1870  141.5589  156.1183 H   0  0  0  0  0  0  0  0  0  0  0  0
  152.4775  140.8226  157.9949 H   0  0  0  0  0  0  0  0  0  0  0  0
  152.7162  137.8423  159.3443 H   0  0  0  0  0  0  0  0  0  0  0  0
  154.1323  137.7202  158.3431 H   0  0  0  0  0  0  0  0  0  0  0  0
  152.1051  139.9977  160.1923 H   0  0  0  0  0  0  0  0  0  0  0  0
  153.3609  141.2705  161.9631 H   0  0  0  0  0  0  0  0  0  0  0  0
  154.4626  141.7546  160.6884 H   0  0  0  0  0  0  0  0  0  0  0  0
  151.5011  142.3045  160.3094 H   0  0  0  0  0  0  0  0  0  0  0  0
  154.0161  143.7924  159.4086 H   0  0  0  0  0  0  0  0  0  0  0  0
  152.5014  143.4807  158.4780 H   0  0  0  0  0  0  0  0  0  0  0  0
  152.7990  145.7032  160.3288 H   0  0  0  0  0  0  0  0  0  0  0  0
  151.2073  144.9198  159.9814 H   0  0  0  0  0  0  0  0  0  0  0  0
  151.5230  143.8391  162.1577 H   0  0  0  0  0  0  0  0  0  0  0  0
  153.3124  144.0493  162.0556 H   0  0  0  0  0  0  0  0  0  0  0  0
  1  2  1  0  0  0  0
  1 19  1  0  0  0  0
  1 20  1  0  0  0  0
  1 21  1  0  0  0  0
  2 17  1  0  0  0  0
  2  3  1  0  0  0  0
  3  4  2  0  0  0  0
  3  5  1  0  0  0  0
  5  6  2  0  0  0  0
  5 22  1  0  0  0  0
  6  7  1  0  0  0  0
  6 23  1  0  0  0  0
  7  8  1  0  0  0  0
  7 17  1  0  0  0  0
  8  9  1  0  0  0  0
  8 24  1  0  0  0  0
  8 25  1  0  0  0  0
  9 10  2  0  0  0  0
  9 11  1  0  0  0  0
 11 12  1  0  0  0  0
 11 26  1  0  0  0  0
 12 13  1  0  0  0  0
 12 27  1  0  0  0  0
 12 28  1  0  0  0  0
 13 16  1  0  0  0  0
 13 14  1  0  0  0  0
 13 29  1  0  0  0  0
 14 15  1  0  0  0  0
 14 30  1  0  0  0  0
 14 31  1  0  0  0  0
 15 16  1  0  0  0  0
 15 32  1  0  0  0  0
 15 33  1  0  0  0  0
 16 34  1  0  0  0  0
 16 35  1  0  0  0  0
 17 18  2  0  0  0  0
M  END
> <s_m_source_file>
AV-unprocessed.smi

> <i_m_source_file_index>
2096

> <i_lp_mmshare_version>
43012

> <i_f3d_flags>
0

> <s_epik_input>
W0NIM11uMWMoPU8pW2NIXVtjSF1uKGMxPU8pW0NIMl1DKD1PKVtOSF1bQ0gyXVtDSF0yW0NIMl1bQ0gyXVtDSDJdMg==

> <s_epik_cmdline>
J2VwaWtfcHl0aG9uJywgJy1waCcsICc3LjAnLCAnLXRuJywgJzgnLCAnLW1hJywgJzIwMCcsICctbWV0YWxfYmluZGluZycsICctaW1hZScsICc8aW5maWxlLm1hZT4nLCAnLW9tYWUnLCAnPG91dGZpbGUubWFlPic=

> <r_lp_tautomer_probability>
1

> <r_epik_Ionization_Penalty>
3.11585e-08

> <r_epik_Ionization_Penalty_Charging>
1.18568e-08

> <r_epik_Ionization_Penalty_Neutral>
1.93017e-08

> <r_epik_State_Penalty>
-0

> <r_epik_Charging_Adjusted_Penalty>
1.18568e-08

> <i_epik_Tot_Q>
0

> <i_epik_Tot_abs_Q>
0

> <r_epik_Metal_State_Penalty>
-0

> <b_epik_Metal_Only>
0

> <s_lp_Force_Field>
OPLS_2005

> <r_lp_Energy>
20.363

> <b_lp_Chiralities_Consistent>
1

> <s_lp_Variant>
AV-unprocessed.smi:2096-1

> <Gold.Version>
5.8.1

> <Gold.Id.Protein>
6NUR|6NUR_protein|mol2

> <Gold.PLP.Fitness>
44.2359

> <Gold.PLP.PLP>
-37.2771

> <Gold.PLP.part.hbond>
-3.0000

> <Gold.PLP.part.metal>
0.0000

> <Gold.PLP.part.buried>
-2.0441

> <Gold.PLP.part.nonpolar>
-31.8188

> <Gold.PLP.part.repulsive>
0.3158

> <Gold.PLP.ligand.clash>
0.0000

> <Gold.PLP.ligand.torsion>
0.6877

> <Gold.PLP.Chemscore.Hbond>
2.7500

> <Gold.PLP.Chemscore.CHOScore>
0.0000

> <Gold.PLP.Chemscore.Metal>
0.0000

> <Gold.Chemscore.Hbonds>
donor molecule, donor type, donor heavy atom, donor atom, acceptor molecule, acceptor atom, score
      P1  H  7989  7998       L1     4  0.75
      P1  H  7997  8008       L1    10  1.00
      P1  H 10752 10764       L1    18  0.91

> <Gold.PLP.Chemscore.Internal.Correction>
0.0842

> <Gold.Rescore>
     Score         DG    S(hbond)    S(metal)    S(lipo)     H(rot)  DE(clash)    DE(int)     intcor
     16.08     -16.90       2.00        0.00      79.55       1.78       0.10       0.72       ----

> <Gold.Chemscore.Fitness>
16.0809

> <Gold.Chemscore.DG>
-16.9040

> <Gold.Chemscore.ZeroCoef>
-5.4800

> <Gold.Chemscore.Hbond>
2.0001

> <Gold.Chemscore.Metal>
0.0000

> <Gold.Chemscore.Lipo>
79.5502

> <Gold.Chemscore.Internal_Hbond>
0.0000

> <Gold.Chemscore.DEClash>
0.1039

> <Gold.Chemscore.DEInternal>
0.7192

> <Gold.Chemscore.Rot>
1.7827

> <Gold.Chemscore.Internal.Correction>
   9.000000E+99

> <Gold.Chemscore.Hbonds>
donor molecule, donor type, donor heavy atom, donor atom, acceptor molecule, acceptor atom, score
      P1  H  7989  7998       L1     4  0.09
      P1  H  7997  8008       L1    10  0.34
      P1  H 10752 10764       L1    18  0.88

> <Gold.Chemscore.Hbond.Weighted>
-6.6802

> <Gold.Chemscore.Metal.Weighted>
-0.0000

> <Gold.Chemscore.Lipo.Weighted>
-9.3074

> <Gold.Chemscore.Internal_Hbond.Weighted>
0.0000

> <Gold.Chemscore.DEClash.Weighted>
0.1039

> <Gold.Chemscore.DEInternal.Weighted>
0.7192

> <Gold.Chemscore.Rot.Weighted>
4.5636

> <Gold.Chemscore.Internal.Correction.Weighted>
   9.000000E+99

> <Gold.Protein.RotatedTorsions>
[ 6907 6896 6895 6894 ] final   13.23 input  -60.11 | X-H torsion
[ 7974 7965 7964 7962 ] final   91.81 input  175.53 | X-H torsion
[ 8008 7997 7996 7995 ] final -128.24 input   59.86 | X-H torsion
[ 10167 10162 10161 10158 ] final  117.22 input  -65.29 | X-H torsion
[ 10718 10713 10712 10709 ] final  125.69 input   66.30 | X-H torsion
[ 10763 10752 10751 10750 ] final  -12.49 input  -60.55 | X-H torsion
[ 11005 11000 10999 10996 ] final   53.89 input  -57.11 | X-H torsion

> <Gold.Protein.ActiveResidues>
 VAL166  LYS551  ARG553  GLY616  TRP617  ASP618  TYR619  PRO620  LYS621  CYS622 
 ASP623  PHE694  ASN695  SER759  ASP760  ASP761  ALA762  ILE779  LEU786  VAL792 
 PHE793  MET794  SER795  GLU796  ALA797  LYS798  CYS799  TRP800  GLU811  SER814 

> <Gold.Protein.RotatedAtoms>
  151.7830  135.0756  160.0376 H   0  0  0  0  0  0  0  0  0  0  0  0  # atno 6907 bound_to 6896
  152.3210  133.5849  159.5753 H   0  0  0  0  0  0  0  0  0  0  0  0  # atno 6908 bound_to 6896
  150.7369  133.9927  159.3654 H   0  0  0  0  0  0  0  0  0  0  0  0  # atno 6909 bound_to 6896
  145.5007  139.2276  143.2779 H   0  0  0  0  0  0  0  0  0  0  0  0  # atno 7974 bound_to 7965
  155.2594  140.0435  157.2995 H   0  0  0  0  0  0  0  0  0  0  0  0  # atno 8008 bound_to 7997
  154.5720  140.2376  155.8147 H   0  0  0  0  0  0  0  0  0  0  0  0  # atno 8009 bound_to 7997
  156.2129  140.2993  155.9782 H   0  0  0  0  0  0  0  0  0  0  0  0  # atno 8010 bound_to 7997
  139.6194  144.7098  151.2668 H   0  0  0  0  0  0  0  0  0  0  0  0  # atno 10167 bound_to 10162
  157.5482  131.1095  150.8746 H   0  0  0  0  0  0  0  0  0  0  0  0  # atno 10718 bound_to 10713
  153.4993  135.7017  153.5840 H   0  0  0  0  0  0  0  0  0  0  0  0  # atno 10763 bound_to 10752
  153.3979  135.3879  155.1967 H   0  0  0  0  0  0  0  0  0  0  0  0  # atno 10764 bound_to 10752
  154.8712  135.3874  154.4462 H   0  0  0  0  0  0  0  0  0  0  0  0  # atno 10765 bound_to 10752
  140.0730  134.5443  155.9026 H   0  0  0  0  0  0  0  0  0  0  0  0  # atno 11005 bound_to 11000
  146.2228  140.5807  142.9010 LP  0  0  0  0  0  0  0  0  0  0  0  0  # atno 17320 bound_to 7965
  144.7782  140.5784  143.6624 LP  0  0  0  0  0  0  0  0  0  0  0  0  # atno 17321 bound_to 7965
  140.7372  143.6685  150.8102 LP  0  0  0  0  0  0  0  0  0  0  0  0  # atno 17342 bound_to 10162
  140.0293  143.5460  152.2767 LP  0  0  0  0  0  0  0  0  0  0  0  0  # atno 17343 bound_to 10162
  156.9279  130.5339  149.5279 LP  0  0  0  0  0  0  0  0  0  0  0  0  # atno 17370 bound_to 10713
  156.0554  130.5616  150.9079 LP  0  0  0  0  0  0  0  0  0  0  0  0  # atno 17371 bound_to 10713
  141.2019  133.6621  156.5976 LP  0  0  0  0  0  0  0  0  0  0  0  0  # atno 17394 bound_to 11000
  140.3599  134.7697  157.4526 LP  0  0  0  0  0  0  0  0  0  0  0  0  # atno 17395 bound_to 11000

$$$$
