AV-unprocessed.smi:2200|AV-procd|sdf|8925|dock10
  -GOLD-   2272012143D 1   1.00000     0.00000
 Structure written by MMmdl.
 31 31  0  0  0  0  0  0  0  0  1 V2000
  153.4993  141.9081  161.2157 C   0  0  0  0  0  0  0  0  0  0  0  0
  152.9374  142.4721  159.9028 C   0  0  0  0  0  0  0  0  0  0  0  0
  152.2990  143.8535  160.1323 C   0  0  0  0  0  0  0  0  0  0  0  0
  151.9589  141.4700  159.2521 C   0  0  0  0  0  0  0  0  0  0  0  0
  151.4506  141.9374  157.9668 N   0  0  0  0  0  0  0  0  0  0  0  0
  150.5039  141.3231  157.2417 C   0  0  0  0  0  0  0  0  0  0  0  0
  149.9236  140.3031  157.6159 O   0  0  0  0  0  0  0  0  0  0  0  0
  150.1516  141.9718  155.8960 C   0  0  0  0  0  0  0  0  0  0  0  0
  149.2246  141.1542  155.1004 N   0  0  0  0  0  0  0  0  0  0  0  0
  147.8809  141.4919  155.0205 C   0  0  0  0  0  0  0  0  0  0  0  0
  146.9727  140.7750  154.3168 C   0  0  0  0  0  0  0  0  0  0  0  0
  147.3798  139.5777  153.5893 C   0  0  0  0  0  0  0  0  0  0  0  0
  146.6327  138.8642  152.9235 O   0  0  0  0  0  0  0  0  0  0  0  0
  148.7386  139.2697  153.6961 N   0  0  0  0  0  0  0  0  0  0  0  0
  149.6798  140.0033  154.4201 C   0  0  0  0  0  0  0  0  0  0  0  0
  150.8555  139.6413  154.4514 O   0  0  0  0  0  0  0  0  0  0  0  0
  149.0666  138.4471  153.2112 H   0  0  0  0  0  0  0  0  0  0  0  0
  152.7090  141.7524  161.9509 H   0  0  0  0  0  0  0  0  0  0  0  0
  154.2327  142.5865  161.6527 H   0  0  0  0  0  0  0  0  0  0  0  0
  153.9956  140.9511  161.0516 H   0  0  0  0  0  0  0  0  0  0  0  0
  153.7822  142.6099  159.2270 H   0  0  0  0  0  0  0  0  0  0  0  0
  151.4277  143.7838  160.7846 H   0  0  0  0  0  0  0  0  0  0  0  0
  151.9789  144.3098  159.1951 H   0  0  0  0  0  0  0  0  0  0  0  0
  153.0077  144.5389  160.5974 H   0  0  0  0  0  0  0  0  0  0  0  0
  152.4388  140.4983  159.1225 H   0  0  0  0  0  0  0  0  0  0  0  0
  151.1056  141.3035  159.9104 H   0  0  0  0  0  0  0  0  0  0  0  0
  151.8687  142.7754  157.5888 H   0  0  0  0  0  0  0  0  0  0  0  0
  149.7196  142.9531  156.0970 H   0  0  0  0  0  0  0  0  0  0  0  0
  151.0602  142.1688  155.3227 H   0  0  0  0  0  0  0  0  0  0  0  0
  147.5325  142.3686  155.5477 H   0  0  0  0  0  0  0  0  0  0  0  0
  145.9388  141.0881  154.2932 H   0  0  0  0  0  0  0  0  0  0  0  0
  1  2  1  0  0  0  0
  1 18  1  0  0  0  0
  1 19  1  0  0  0  0
  1 20  1  0  0  0  0
  2  3  1  0  0  0  0
  2  4  1  0  0  0  0
  2 21  1  0  0  0  0
  3 22  1  0  0  0  0
  3 23  1  0  0  0  0
  3 24  1  0  0  0  0
  4  5  1  0  0  0  0
  4 25  1  0  0  0  0
  4 26  1  0  0  0  0
  5  6  1  0  0  0  0
  5 27  1  0  0  0  0
  6  7  2  0  0  0  0
  6  8  1  0  0  0  0
  8  9  1  0  0  0  0
  8 28  1  0  0  0  0
  8 29  1  0  0  0  0
  9 15  1  0  0  0  0
  9 10  1  0  0  0  0
 10 11  2  0  0  0  0
 10 30  1  0  0  0  0
 11 12  1  0  0  0  0
 11 31  1  0  0  0  0
 12 13  2  0  0  0  0
 12 14  1  0  0  0  0
 14 17  1  0  0  0  0
 14 15  1  0  0  0  0
 15 16  2  0  0  0  0
M  END
> <s_m_source_file>
AV-unprocessed.smi

> <i_m_source_file_index>
2200

> <i_lp_mmshare_version>
43012

> <i_f3d_flags>
0

> <s_epik_input>
W0NIM11bQ0hdKFtDSDNdKVtDSDJdW05IXUMoPU8pW0NIMl1uMVtjSF1bY0hdYyg9TylbbkhdYzE9Tw==

> <s_epik_cmdline>
J2VwaWtfcHl0aG9uJywgJy1waCcsICc3LjAnLCAnLXRuJywgJzgnLCAnLW1hJywgJzIwMCcsICctbWV0YWxfYmluZGluZycsICctaW1hZScsICc8aW5maWxlLm1hZT4nLCAnLW9tYWUnLCAnPG91dGZpbGUubWFlPic=

> <r_lp_tautomer_probability>
0.999537

> <r_epik_Ionization_Penalty>
0.00328917

> <r_epik_Ionization_Penalty_Charging>
0.00328916

> <r_epik_Ionization_Penalty_Neutral>
1.93017e-08

> <r_epik_State_Penalty>
0.00232387

> <r_epik_Charging_Adjusted_Penalty>
0.00561303

> <i_epik_Tot_Q>
0

> <i_epik_Tot_abs_Q>
0

> <r_epik_Metal_State_Penalty>
0.365274

> <b_epik_Metal_Only>
0

> <s_lp_Force_Field>
OPLS_2005

> <r_lp_Energy>
3.18145

> <b_lp_Chiralities_Consistent>
1

> <s_lp_Variant>
AV-unprocessed.smi:2200-1

> <Gold.Version>
5.8.1

> <Gold.Id.Protein>
6NUR|6NUR_protein|mol2

> <Gold.PLP.Fitness>
37.3708

> <Gold.PLP.PLP>
-32.3860

> <Gold.PLP.part.hbond>
-2.0000

> <Gold.PLP.part.metal>
0.0000

> <Gold.PLP.part.buried>
-2.5542

> <Gold.PLP.part.nonpolar>
-27.6338

> <Gold.PLP.part.repulsive>
0.5479

> <Gold.PLP.ligand.clash>
0.0000

> <Gold.PLP.ligand.torsion>
0.2865

> <Gold.PLP.Chemscore.Hbond>
0.8500

> <Gold.PLP.Chemscore.CHOScore>
1.0000

> <Gold.PLP.Chemscore.Metal>
0.0000

> <Gold.Chemscore.Hbonds>
donor molecule, donor type, donor heavy atom, donor atom, acceptor molecule, acceptor atom, score
      P1  H  7989  7998       L1    16  1.00
      L1  C    10    30       P1  8028  0.54

> <Gold.PLP.Chemscore.Internal.Correction>
0.0079

> <Gold.Rescore>
     Score         DG    S(hbond)    S(metal)    S(lipo)     H(rot)  DE(clash)    DE(int)     intcor
     11.34     -11.96       1.26        0.00      63.60       2.01       0.33       0.29       ----

> <Gold.Chemscore.Fitness>
11.3383

> <Gold.Chemscore.DG>
-11.9562

> <Gold.Chemscore.ZeroCoef>
-5.4800

> <Gold.Chemscore.Hbond>
1.2555

> <Gold.Chemscore.Metal>
0.0000

> <Gold.Chemscore.Lipo>
63.5991

> <Gold.Chemscore.Internal_Hbond>
0.0000

> <Gold.Chemscore.DEClash>
0.3306

> <Gold.Chemscore.DEInternal>
0.2872

> <Gold.Chemscore.Rot>
2.0150

> <Gold.Chemscore.Internal.Correction>
   9.000000E+99

> <Gold.Chemscore.Hbonds>
donor molecule, donor type, donor heavy atom, donor atom, acceptor molecule, acceptor atom, score
      P1  H  7989  7998       L1    16  0.35

> <Gold.Chemscore.Hbond.Weighted>
-4.1934

> <Gold.Chemscore.Metal.Weighted>
-0.0000

> <Gold.Chemscore.Lipo.Weighted>
-7.4411

> <Gold.Chemscore.Internal_Hbond.Weighted>
0.0000

> <Gold.Chemscore.DEClash.Weighted>
0.3306

> <Gold.Chemscore.DEInternal.Weighted>
0.2872

> <Gold.Chemscore.Rot.Weighted>
5.1583

> <Gold.Chemscore.Internal.Correction.Weighted>
   9.000000E+99

> <Gold.Protein.RotatedTorsions>
[ 6907 6896 6895 6894 ] final  -90.63 input  -60.11 | X-H torsion
[ 7974 7965 7964 7962 ] final   64.08 input  175.53 | X-H torsion
[ 8008 7997 7996 7995 ] final  -60.29 input   59.86 | X-H torsion
[ 10167 10162 10161 10158 ] final  -67.52 input  -65.29 | X-H torsion
[ 10718 10713 10712 10709 ] final  128.07 input   66.30 | X-H torsion
[ 10763 10752 10751 10750 ] final  123.34 input  -60.55 | X-H torsion
[ 11005 11000 10999 10996 ] final -108.44 input  -57.11 | X-H torsion

> <Gold.Protein.ActiveResidues>
 VAL166  LYS551  ARG553  GLY616  TRP617  ASP618  TYR619  PRO620  LYS621  CYS622 
 ASP623  PHE694  ASN695  SER759  ASP760  ASP761  ALA762  ILE779  LEU786  VAL792 
 PHE793  MET794  SER795  GLU796  ALA797  LYS798  CYS799  TRP800  GLU811  SER814 

> <Gold.Protein.RotatedAtoms>
  150.6884  134.2402  159.4469 H   0  0  0  0  0  0  0  0  0  0  0  0  # atno 6907 bound_to 6896
  152.0346  134.9745  160.0582 H   0  0  0  0  0  0  0  0  0  0  0  0  # atno 6908 bound_to 6896
  152.1270  133.4351  159.4740 H   0  0  0  0  0  0  0  0  0  0  0  0  # atno 6909 bound_to 6896
  145.8544  139.3274  143.0856 H   0  0  0  0  0  0  0  0  0  0  0  0  # atno 7974 bound_to 7965
  154.4391  140.1043  156.6250 H   0  0  0  0  0  0  0  0  0  0  0  0  # atno 8008 bound_to 7997
  155.5667  140.3488  155.4486 H   0  0  0  0  0  0  0  0  0  0  0  0  # atno 8009 bound_to 7997
  156.0420  140.1284  157.0134 H   0  0  0  0  0  0  0  0  0  0  0  0  # atno 8010 bound_to 7997
  140.5577  143.2312  151.6789 H   0  0  0  0  0  0  0  0  0  0  0  0  # atno 10167 bound_to 10162
  157.5277  131.1098  150.9057 H   0  0  0  0  0  0  0  0  0  0  0  0  # atno 10718 bound_to 10713
  153.6441  135.3374  155.3080 H   0  0  0  0  0  0  0  0  0  0  0  0  # atno 10763 bound_to 10752
  154.8553  135.4325  154.1974 H   0  0  0  0  0  0  0  0  0  0  0  0  # atno 10764 bound_to 10752
  153.2900  135.7016  153.7376 H   0  0  0  0  0  0  0  0  0  0  0  0  # atno 10765 bound_to 10752
  141.0901  133.9069  157.2095 H   0  0  0  0  0  0  0  0  0  0  0  0  # atno 11005 bound_to 11000
  145.9321  140.9041  143.0351 LP  0  0  0  0  0  0  0  0  0  0  0  0  # atno 17320 bound_to 7965
  144.6728  140.1432  143.7435 LP  0  0  0  0  0  0  0  0  0  0  0  0  # atno 17321 bound_to 7965
  139.5055  144.3714  152.0466 LP  0  0  0  0  0  0  0  0  0  0  0  0  # atno 17342 bound_to 10162
  140.2837  144.3831  150.6110 LP  0  0  0  0  0  0  0  0  0  0  0  0  # atno 17343 bound_to 10162
  156.9648  130.5468  149.5287 LP  0  0  0  0  0  0  0  0  0  0  0  0  # atno 17370 bound_to 10713
  156.0399  130.5483  150.8746 LP  0  0  0  0  0  0  0  0  0  0  0  0  # atno 17371 bound_to 10713
  139.9726  135.0124  156.9550 LP  0  0  0  0  0  0  0  0  0  0  0  0  # atno 17394 bound_to 11000
  140.5271  134.0850  155.7306 LP  0  0  0  0  0  0  0  0  0  0  0  0  # atno 17395 bound_to 11000

$$$$
