AV-unprocessed.smi:2261|AV-procd|sdf|9137|dock4
  -GOLD-   2272012343D 1   1.00000     0.00000
 Structure written by MMmdl.
 41 42  0  0  0  0  0  0  0  0  1 V2000
  148.3987  125.2446  149.5728 C   0  0  0  0  0  0  0  0  0  0  0  0
  149.3529  126.3247  150.1108 C   0  0  0  0  0  0  0  0  0  0  0  0
  150.7549  126.1753  149.5004 C   0  0  0  0  0  0  0  0  0  0  0  0
  148.7840  127.7368  149.9218 C   0  0  0  0  0  0  0  0  0  0  0  0
  148.0139  127.9696  151.2058 C   0  0  2  0  0  0  0  0  0  0  0  0
  147.8579  129.3929  151.4922 N   0  0  0  0  0  0  0  0  0  0  0  0
  147.3615  129.9054  152.6281 C   0  0  0  0  0  0  0  0  0  0  0  0
  146.8996  129.2213  153.5407 O   0  0  0  0  0  0  0  0  0  0  0  0
  147.4200  131.4262  152.7652 C   0  0  0  0  0  0  0  0  0  0  0  0
  146.1866  132.0475  152.1345 C   0  0  0  0  0  0  0  0  0  0  0  0
  145.1204  131.2413  151.6845 C   0  0  0  0  0  0  0  0  0  0  0  0
  143.9882  131.8643  151.1254 C   0  0  0  0  0  0  0  0  0  0  0  0
  143.9701  133.2708  151.0402 C   0  0  0  0  0  0  0  0  0  0  0  0
  144.9852  134.0528  151.4664 N   0  0  0  0  0  0  0  0  0  0  0  0
  146.0682  133.4475  151.9987 C   0  0  0  0  0  0  0  0  0  0  0  0
  148.8738  127.2227  152.2479 C   0  0  0  0  0  0  0  0  0  0  0  0
  150.0493  128.0486  152.8141 C   0  0  0  0  0  0  0  0  0  0  0  0
  148.0277  126.6371  153.3891 C   0  0  0  0  0  0  0  0  0  0  0  0
  149.4504  126.1378  151.5225 O   0  0  0  0  0  0  0  0  0  0  0  0
  148.2645  125.3379  148.4949 H   0  0  0  0  0  0  0  0  0  0  0  0
  147.4147  125.3133  150.0371 H   0  0  0  0  0  0  0  0  0  0  0  0
  148.7846  124.2447  149.7735 H   0  0  0  0  0  0  0  0  0  0  0  0
  150.7346  126.3368  148.4223 H   0  0  0  0  0  0  0  0  0  0  0  0
  151.1586  125.1787  149.6808 H   0  0  0  0  0  0  0  0  0  0  0  0
  151.4523  126.8938  149.9322 H   0  0  0  0  0  0  0  0  0  0  0  0
  149.5937  128.4634  149.8354 H   0  0  0  0  0  0  0  0  0  0  0  0
  148.1623  127.8346  149.0310 H   0  0  0  0  0  0  0  0  0  0  0  0
  147.0388  127.4882  151.1074 H   0  0  0  0  0  0  0  0  0  0  0  0
  148.2133  130.0360  150.8000 H   0  0  0  0  0  0  0  0  0  0  0  0
  147.4848  131.7040  153.8183 H   0  0  0  0  0  0  0  0  0  0  0  0
  148.3183  131.8097  152.2793 H   0  0  0  0  0  0  0  0  0  0  0  0
  145.1662  130.1654  151.7716 H   0  0  0  0  0  0  0  0  0  0  0  0
  143.1522  131.2785  150.7729 H   0  0  0  0  0  0  0  0  0  0  0  0
  143.1171  133.7815  150.6185 H   0  0  0  0  0  0  0  0  0  0  0  0
  146.8585  134.1011  152.3377 H   0  0  0  0  0  0  0  0  0  0  0  0
  149.6990  128.8744  153.4339 H   0  0  0  0  0  0  0  0  0  0  0  0
  150.6691  128.4674  152.0212 H   0  0  0  0  0  0  0  0  0  0  0  0
  150.6950  127.4295  153.4374 H   0  0  0  0  0  0  0  0  0  0  0  0
  147.5610  127.4261  153.9795 H   0  0  0  0  0  0  0  0  0  0  0  0
  148.6386  126.0364  154.0633 H   0  0  0  0  0  0  0  0  0  0  0  0
  147.2344  125.9952  153.0052 H   0  0  0  0  0  0  0  0  0  0  0  0
  1  2  1  0  0  0  0
  1 20  1  0  0  0  0
  1 21  1  0  0  0  0
  1 22  1  0  0  0  0
  2 19  1  0  0  0  0
  2  3  1  0  0  0  0
  2  4  1  0  0  0  0
  3 23  1  0  0  0  0
  3 24  1  0  0  0  0
  3 25  1  0  0  0  0
  4  5  1  0  0  0  0
  4 26  1  0  0  0  0
  4 27  1  0  0  0  0
  5  6  1  0  0  0  0
  5 16  1  0  0  0  0
  5 28  1  0  0  0  0
  6  7  1  0  0  0  0
  6 29  1  0  0  0  0
  7  8  2  0  0  0  0
  7  9  1  0  0  0  0
  9 10  1  0  0  0  0
  9 30  1  0  0  0  0
  9 31  1  0  0  0  0
 10 15  1  0  0  0  0
 10 11  2  0  0  0  0
 11 12  1  0  0  0  0
 11 32  1  0  0  0  0
 12 13  2  0  0  0  0
 12 33  1  0  0  0  0
 13 14  1  0  0  0  0
 13 34  1  0  0  0  0
 14 15  2  0  0  0  0
 15 35  1  0  0  0  0
 16 17  1  0  0  0  0
 16 18  1  0  0  0  0
 16 19  1  0  0  0  0
 17 36  1  0  0  0  0
 17 37  1  0  0  0  0
 17 38  1  0  0  0  0
 18 39  1  0  0  0  0
 18 40  1  0  0  0  0
 18 41  1  0  0  0  0
M  END
> <s_m_source_file>
AV-unprocessed.smi

> <i_m_source_file_index>
2261

> <i_lp_mmshare_version>
43012

> <i_f3d_flags>
0

> <s_epik_input>
W0NIM11DMShbQ0gzXSlbQ0gyXVtDQEhdKEMoTzEpKFtDSDNdKVtDSDNdKVtOSF1DKD1PKVtDSDJdYzJbY0hdW2NIXVtjSF1uW2NIXTI=

> <s_epik_cmdline>
J2VwaWtfcHl0aG9uJywgJy1waCcsICc3LjAnLCAnLXRuJywgJzgnLCAnLW1hJywgJzIwMCcsICctbWV0YWxfYmluZGluZycsICctaW1hZScsICc8aW5maWxlLm1hZT4nLCAnLW9tYWUnLCAnPG91dGZpbGUubWFlPic=

> <r_epik_Ionization_Penalty>
0.00420617

> <r_epik_Ionization_Penalty_Charging>
0

> <r_epik_Ionization_Penalty_Neutral>
0.00420617

> <r_epik_State_Penalty>
0.0030219

> <r_epik_Charging_Adjusted_Penalty>
0.0030219

> <i_epik_Tot_Q>
0

> <i_epik_Tot_abs_Q>
0

> <r_epik_Metal_State_Penalty>
-0

> <b_epik_Metal_Only>
0

> <s_lp_Force_Field>
OPLS_2005

> <r_lp_Energy>
16.2034

> <b_lp_Chiralities_Consistent>
1

> <s_lp_Variant>
AV-unprocessed.smi:2261-2

> <Gold.Version>
5.8.1

> <Gold.Id.Protein>
6NUR|6NUR_protein|mol2

> <Gold.PLP.Fitness>
40.3803

> <Gold.PLP.PLP>
-34.6373

> <Gold.PLP.part.hbond>
-0.9961

> <Gold.PLP.part.metal>
0.0000

> <Gold.PLP.part.buried>
-0.2438

> <Gold.PLP.part.nonpolar>
-32.0706

> <Gold.PLP.part.repulsive>
0.4215

> <Gold.PLP.ligand.clash>
0.0000

> <Gold.PLP.ligand.torsion>
0.4500

> <Gold.PLP.Chemscore.Hbond>
1.0000

> <Gold.PLP.Chemscore.CHOScore>
1.2096

> <Gold.PLP.Chemscore.Metal>
0.0000

> <Gold.Chemscore.Hbonds>
donor molecule, donor type, donor heavy atom, donor atom, acceptor molecule, acceptor atom, score
      L1  H     6    29       P1 10747  0.18
      L1  C    13    34       P1 10186  1.00

> <Gold.PLP.Chemscore.Internal.Correction>
0.0140

> <Gold.Rescore>
     Score         DG    S(hbond)    S(metal)    S(lipo)     H(rot)  DE(clash)    DE(int)     intcor
     13.44     -16.77       0.96        0.00      97.28       1.28       0.20       3.13       ----

> <Gold.Chemscore.Fitness>
13.4388

> <Gold.Chemscore.DG>
-16.7744

> <Gold.Chemscore.ZeroCoef>
-5.4800

> <Gold.Chemscore.Hbond>
0.9581

> <Gold.Chemscore.Metal>
0.0000

> <Gold.Chemscore.Lipo>
97.2811

> <Gold.Chemscore.Internal_Hbond>
0.0000

> <Gold.Chemscore.DEClash>
0.2014

> <Gold.Chemscore.DEInternal>
3.1342

> <Gold.Chemscore.Rot>
1.2842

> <Gold.Chemscore.Internal.Correction>
   9.000000E+99

> <Gold.Chemscore.Hbonds>
donor molecule, donor type, donor heavy atom, donor atom, acceptor molecule, acceptor atom, score
      L1  H     6    29       P1 10747  0.18

> <Gold.Chemscore.Hbond.Weighted>
-3.2000

> <Gold.Chemscore.Metal.Weighted>
-0.0000

> <Gold.Chemscore.Lipo.Weighted>
-11.3819

> <Gold.Chemscore.Internal_Hbond.Weighted>
0.0000

> <Gold.Chemscore.DEClash.Weighted>
0.2014

> <Gold.Chemscore.DEInternal.Weighted>
3.1342

> <Gold.Chemscore.Rot.Weighted>
3.2875

> <Gold.Chemscore.Internal.Correction.Weighted>
   9.000000E+99

> <Gold.Protein.RotatedTorsions>
[ 6907 6896 6895 6894 ] final  -73.83 input  -60.11 | X-H torsion
[ 7974 7965 7964 7962 ] final  136.12 input  175.53 | X-H torsion
[ 8008 7997 7996 7995 ] final  113.19 input   59.86 | X-H torsion
[ 10167 10162 10161 10158 ] final  -25.43 input  -65.29 | X-H torsion
[ 10718 10713 10712 10709 ] final -160.63 input   66.30 | X-H torsion
[ 10763 10752 10751 10750 ] final -175.08 input  -60.55 | X-H torsion
[ 11005 11000 10999 10996 ] final -145.24 input  -57.11 | X-H torsion

> <Gold.Protein.ActiveResidues>
 VAL166  LYS551  ARG553  GLY616  TRP617  ASP618  TYR619  PRO620  LYS621  CYS622 
 ASP623  PHE694  ASN695  SER759  ASP760  ASP761  ALA762  ILE779  LEU786  VAL792 
 PHE793  MET794  SER795  GLU796  ALA797  LYS798  CYS799  TRP800  GLU811  SER814 

> <Gold.Protein.RotatedAtoms>
  150.7115  134.4958  159.5537 H   0  0  0  0  0  0  0  0  0  0  0  0  # atno 6907 bound_to 6896
  152.2566  134.8075  160.0446 H   0  0  0  0  0  0  0  0  0  0  0  0  # atno 6908 bound_to 6896
  151.8803  133.3459  159.3801 H   0  0  0  0  0  0  0  0  0  0  0  0  # atno 6909 bound_to 6896
  144.9596  139.4725  143.5486 H   0  0  0  0  0  0  0  0  0  0  0  0  # atno 7974 bound_to 7965
  156.2242  140.2984  156.0025 H   0  0  0  0  0  0  0  0  0  0  0  0  # atno 8008 bound_to 7997
  155.2402  140.0422  157.2991 H   0  0  0  0  0  0  0  0  0  0  0  0  # atno 8009 bound_to 7997
  154.5888  140.2395  155.7958 H   0  0  0  0  0  0  0  0  0  0  0  0  # atno 8010 bound_to 7997
  140.7286  143.4265  151.0868 H   0  0  0  0  0  0  0  0  0  0  0  0  # atno 10167 bound_to 10162
  156.5848  130.8745  151.2874 H   0  0  0  0  0  0  0  0  0  0  0  0  # atno 10718 bound_to 10713
  154.5887  135.2843  155.0658 H   0  0  0  0  0  0  0  0  0  0  0  0  # atno 10763 bound_to 10752
  154.1967  135.6431  153.5079 H   0  0  0  0  0  0  0  0  0  0  0  0  # atno 10764 bound_to 10752
  153.0113  135.5459  154.6565 H   0  0  0  0  0  0  0  0  0  0  0  0  # atno 10765 bound_to 10752
  140.7942  134.2932  157.5002 H   0  0  0  0  0  0  0  0  0  0  0  0  # atno 11005 bound_to 11000
  146.3349  139.8737  142.8836 LP  0  0  0  0  0  0  0  0  0  0  0  0  # atno 17320 bound_to 7965
  145.2720  141.0111  143.3766 LP  0  0  0  0  0  0  0  0  0  0  0  0  # atno 17321 bound_to 7965
  139.7917  143.8209  152.3152 LP  0  0  0  0  0  0  0  0  0  0  0  0  # atno 17342 bound_to 10162
  139.8195  144.7302  150.9591 LP  0  0  0  0  0  0  0  0  0  0  0  0  # atno 17343 bound_to 10162
  157.7318  130.9705  150.1897 LP  0  0  0  0  0  0  0  0  0  0  0  0  # atno 17370 bound_to 10713
  156.2600  130.3710  149.8140 LP  0  0  0  0  0  0  0  0  0  0  0  0  # atno 17371 bound_to 10713
  139.8728  134.9392  156.3736 LP  0  0  0  0  0  0  0  0  0  0  0  0  # atno 17394 bound_to 11000
  140.9359  133.7547  156.0084 LP  0  0  0  0  0  0  0  0  0  0  0  0  # atno 17395 bound_to 11000

$$$$
