AV-unprocessed.smi:1451|AV-procd|sdf|5902|dock4
  -GOLD-   22720 5583D 1   1.00000     0.00000
 Structure written by MMmdl.
 47 48  0  0  0  0  0  0  0  0  2 V2000
  145.9015  132.5421  151.5113 C   0  0  0  0  0  0  0  0  0  0  0  0
  146.3193  133.9784  151.8570 C   0  0  1  0  0  0  0  0  0  0  0  0
  145.1864  134.9775  151.5689 C   0  0  0  0  0  0  0  0  0  0  0  0
  145.6214  136.3983  151.9490 C   0  0  0  0  0  0  0  0  0  0  0  0
  146.0948  136.4568  153.4099 C   0  0  0  0  0  0  0  0  0  0  0  0
  147.1926  135.4863  153.6563 N   0  3  1  0  0  0  0  0  0  0  0  0
  147.7617  135.6191  155.0216 C   0  0  0  0  0  0  0  0  0  0  0  0
  146.8390  135.0319  156.1025 C   0  0  0  0  0  0  0  0  0  0  0  0
  147.1693  135.5840  157.4099 N   0  0  0  0  0  0  0  0  0  0  0  0
  148.4127  135.6889  157.9004 C   0  0  0  0  0  0  0  0  0  0  0  0
  149.4149  135.3464  157.2722 O   0  0  0  0  0  0  0  0  0  0  0  0
  148.5383  136.2900  159.3074 C   0  0  0  0  0  0  0  0  0  0  0  0
  147.8585  135.4858  160.3366 N   0  0  0  0  0  0  0  0  0  0  0  0
  147.7013  134.1095  160.0797 C   0  0  0  0  0  0  0  0  0  0  0  0
  147.0803  133.2714  160.9316 C   0  0  0  0  0  0  0  0  0  0  0  0
  146.9727  131.7807  160.6505 C   0  0  0  0  0  0  0  0  0  0  0  0
  146.3153  131.1538  161.6265 F   0  0  0  0  0  0  0  0  0  0  0  0
  146.3126  131.5809  159.5106 F   0  0  0  0  0  0  0  0  0  0  0  0
  148.1794  131.2247  160.5341 F   0  0  0  0  0  0  0  0  0  0  0  0
  146.5970  133.8508  162.1696 C   0  0  0  0  0  0  0  0  0  0  0  0
  146.7454  135.1636  162.4340 C   0  0  0  0  0  0  0  0  0  0  0  0
  147.4023  136.0667  161.4868 C   0  0  0  0  0  0  0  0  0  0  0  0
  147.5344  137.2703  161.7120 O   0  0  0  0  0  0  0  0  0  0  0  0
  146.7747  134.0967  153.3257 C   0  0  0  0  0  0  0  0  0  0  0  0
  145.0486  132.2214  152.1103 H   0  0  0  0  0  0  0  0  0  0  0  0
  146.7171  131.8411  151.6911 H   0  0  0  0  0  0  0  0  0  0  0  0
  145.6211  132.4571  150.4610 H   0  0  0  0  0  0  0  0  0  0  0  0
  147.1675  134.2347  151.2200 H   0  0  0  0  0  0  0  0  0  0  0  0
  144.9096  134.9439  150.5147 H   0  0  0  0  0  0  0  0  0  0  0  0
  144.2946  134.7036  152.1345 H   0  0  0  0  0  0  0  0  0  0  0  0
  146.4265  136.7248  151.2891 H   0  0  0  0  0  0  0  0  0  0  0  0
  144.7954  137.0936  151.7964 H   0  0  0  0  0  0  0  0  0  0  0  0
  146.4372  137.4683  153.6317 H   0  0  0  0  0  0  0  0  0  0  0  0
  145.2636  136.2473  154.0854 H   0  0  0  0  0  0  0  0  0  0  0  0
  148.7133  135.0872  155.0679 H   0  0  0  0  0  0  0  0  0  0  0  0
  147.9850  136.6673  155.2275 H   0  0  0  0  0  0  0  0  0  0  0  0
  145.7949  135.2457  155.8730 H   0  0  0  0  0  0  0  0  0  0  0  0
  146.9441  133.9468  156.1417 H   0  0  0  0  0  0  0  0  0  0  0  0
  146.4028  135.9015  157.9853 H   0  0  0  0  0  0  0  0  0  0  0  0
  149.5994  136.3946  159.5374 H   0  0  0  0  0  0  0  0  0  0  0  0
  148.1450  137.3086  159.3107 H   0  0  0  0  0  0  0  0  0  0  0  0
  148.1160  133.7770  159.1390 H   0  0  0  0  0  0  0  0  0  0  0  0
  146.1016  133.2234  162.8956 H   0  0  0  0  0  0  0  0  0  0  0  0
  146.3695  135.5615  163.3652 H   0  0  0  0  0  0  0  0  0  0  0  0
  145.9698  133.7905  153.9964 H   0  0  0  0  0  0  0  0  0  0  0  0
  147.6003  133.4062  153.4932 H   0  0  0  0  0  0  0  0  0  0  0  0
  147.9325  135.7326  153.0141 H   0  0  0  0  0  0  0  0  0  0  0  0
  1  2  1  0  0  0  0
  1 25  1  0  0  0  0
  1 26  1  0  0  0  0
  1 27  1  0  0  0  0
  2 24  1  0  0  0  0
  2  3  1  0  0  0  0
  2 28  1  0  0  0  0
  3  4  1  0  0  0  0
  3 29  1  0  0  0  0
  3 30  1  0  0  0  0
  4  5  1  0  0  0  0
  4 31  1  0  0  0  0
  4 32  1  0  0  0  0
  5  6  1  0  0  0  0
  5 33  1  0  0  0  0
  5 34  1  0  0  0  0
  6  7  1  0  0  0  0
  6 24  1  0  0  0  0
  6 47  1  0  0  0  0
  7  8  1  0  0  0  0
  7 35  1  0  0  0  0
  7 36  1  0  0  0  0
  8  9  1  0  0  0  0
  8 37  1  0  0  0  0
  8 38  1  0  0  0  0
  9 10  1  0  0  0  0
  9 39  1  0  0  0  0
 10 11  2  0  0  0  0
 10 12  1  0  0  0  0
 12 13  1  0  0  0  0
 12 40  1  0  0  0  0
 12 41  1  0  0  0  0
 13 22  1  0  0  0  0
 13 14  1  0  0  0  0
 14 15  2  0  0  0  0
 14 42  1  0  0  0  0
 15 16  1  0  0  0  0
 15 20  1  0  0  0  0
 16 17  1  0  0  0  0
 16 18  1  0  0  0  0
 16 19  1  0  0  0  0
 20 21  2  0  0  0  0
 20 43  1  0  0  0  0
 21 22  1  0  0  0  0
 21 44  1  0  0  0  0
 22 23  2  0  0  0  0
 24 45  1  0  0  0  0
 24 46  1  0  0  0  0
M  CHG  1   6   1
M  END
> <s_m_source_file>
AV-unprocessed.smi

> <i_m_source_file_index>
1451

> <i_lp_mmshare_version>
43012

> <i_f3d_flags>
0

> <s_epik_input>
W0NIM11bQ0BASF0xW0NIMl1bQ0gyXVtDSDJdTihbQ0gyXTEpW0NIMl1bQ0gyXVtOSF1DKD1PKVtDSDJdbjJbY0hdYyhDKEYpKEYpRilbY0hdW2NIXWMyPU8=

> <s_epik_cmdline>
J2VwaWtfcHl0aG9uJywgJy1waCcsICc3LjAnLCAnLXRuJywgJzgnLCAnLW1hJywgJzIwMCcsICctbWV0YWxfYmluZGluZycsICctaW1hZScsICc8aW5maWxlLm1hZT4nLCAnLW9tYWUnLCAnPG91dGZpbGUubWFlPic=

> <r_lp_tautomer_probability>
1

> <r_epik_Ionization_Penalty>
0.00192452

> <r_epik_Ionization_Penalty_Charging>
0.00192444

> <r_epik_Ionization_Penalty_Neutral>
8.16761e-08

> <r_epik_State_Penalty>
0.00131115

> <r_epik_Charging_Adjusted_Penalty>
0.00323559

> <i_epik_Tot_Q>
1

> <i_epik_Tot_abs_Q>
1

> <r_epik_Metal_State_Penalty>
-0

> <b_epik_Metal_Only>
0

> <s_lp_Force_Field>
OPLS_2005

> <r_lp_Energy>
29.222

> <b_lp_Chiralities_Consistent>
1

> <s_lp_Variant>
AV-unprocessed.smi:1451-4

> <Gold.Version>
5.8.1

> <Gold.Id.Protein>
6NUR|6NUR_protein|mol2

> <Gold.PLP.Fitness>
45.8074

> <Gold.PLP.PLP>
-35.7565

> <Gold.PLP.part.hbond>
-3.0000

> <Gold.PLP.part.metal>
0.0000

> <Gold.PLP.part.buried>
-3.6278

> <Gold.PLP.part.nonpolar>
-28.7068

> <Gold.PLP.part.repulsive>
0.0000

> <Gold.PLP.ligand.clash>
0.0000

> <Gold.PLP.ligand.torsion>
0.6277

> <Gold.PLP.Chemscore.Hbond>
3.7280

> <Gold.PLP.Chemscore.CHOScore>
0.0000

> <Gold.PLP.Chemscore.Metal>
0.0000

> <Gold.Chemscore.Hbonds>
donor molecule, donor type, donor heavy atom, donor atom, acceptor molecule, acceptor atom, score
      L1  H     6    47       P1  7948  2.00
      P1  H  6931  6943       L1    23  0.93
      P1  H  6934  6947       L1    23  0.75

> <Gold.PLP.Chemscore.Internal.Correction>
0.1224

> <Gold.Rescore>
     Score         DG    S(hbond)    S(metal)    S(lipo)     H(rot)  DE(clash)    DE(int)     intcor
     15.44     -17.46       2.79        0.00      68.14       2.08       0.00       2.01       ----

> <Gold.Chemscore.Fitness>
15.4427

> <Gold.Chemscore.DG>
-17.4564

> <Gold.Chemscore.ZeroCoef>
-5.4800

> <Gold.Chemscore.Hbond>
2.7901

> <Gold.Chemscore.Metal>
0.0000

> <Gold.Chemscore.Lipo>
68.1410

> <Gold.Chemscore.Internal_Hbond>
0.0000

> <Gold.Chemscore.DEClash>
0.0038

> <Gold.Chemscore.DEInternal>
2.0100

> <Gold.Chemscore.Rot>
2.0762

> <Gold.Chemscore.Internal.Correction>
   9.000000E+99

> <Gold.Chemscore.Hbonds>
donor molecule, donor type, donor heavy atom, donor atom, acceptor molecule, acceptor atom, score
      L1  H     6    47       P1  7948  0.99
      P1  H  6931  6943       L1    23  0.90
      P1  H  6934  6947       L1    23  0.75

> <Gold.Chemscore.Hbond.Weighted>
-9.3189

> <Gold.Chemscore.Metal.Weighted>
-0.0000

> <Gold.Chemscore.Lipo.Weighted>
-7.9725

> <Gold.Chemscore.Internal_Hbond.Weighted>
0.0000

> <Gold.Chemscore.DEClash.Weighted>
0.0038

> <Gold.Chemscore.DEInternal.Weighted>
2.0100

> <Gold.Chemscore.Rot.Weighted>
5.3150

> <Gold.Chemscore.Internal.Correction.Weighted>
   9.000000E+99

> <Gold.Protein.RotatedTorsions>
[ 6907 6896 6895 6894 ] final  150.03 input  -60.11 | X-H torsion
[ 7974 7965 7964 7962 ] final  -93.27 input  175.53 | X-H torsion
[ 8008 7997 7996 7995 ] final -114.48 input   59.86 | X-H torsion
[ 10167 10162 10161 10158 ] final  143.48 input  -65.29 | X-H torsion
[ 10718 10713 10712 10709 ] final  159.85 input   66.30 | X-H torsion
[ 10763 10752 10751 10750 ] final -124.53 input  -60.55 | X-H torsion
[ 11005 11000 10999 10996 ] final   -0.64 input  -57.11 | X-H torsion

> <Gold.Protein.ActiveResidues>
 VAL166  LYS551  ARG553  GLY616  TRP617  ASP618  TYR619  PRO620  LYS621  CYS622 
 ASP623  PHE694  ASN695  SER759  ASP760  ASP761  ALA762  ILE779  LEU786  VAL792 
 PHE793  MET794  SER795  GLU796  ALA797  LYS798  CYS799  TRP800  GLU811  SER814 

> <Gold.Protein.RotatedAtoms>
  152.1200  133.4348  159.4670 H   0  0  0  0  0  0  0  0  0  0  0  0  # atno 6907 bound_to 6896
  150.6871  134.2546  159.4534 H   0  0  0  0  0  0  0  0  0  0  0  0  # atno 6908 bound_to 6896
  152.0422  134.9704  160.0624 H   0  0  0  0  0  0  0  0  0  0  0  0  # atno 6909 bound_to 6896
  145.3887  140.9526  143.2352 H   0  0  0  0  0  0  0  0  0  0  0  0  # atno 7974 bound_to 7965
  155.0370  140.0392  157.2495 H   0  0  0  0  0  0  0  0  0  0  0  0  # atno 8008 bound_to 7997
  154.7248  140.2719  155.6485 H   0  0  0  0  0  0  0  0  0  0  0  0  # atno 8009 bound_to 7997
  156.2826  140.2695  156.1931 H   0  0  0  0  0  0  0  0  0  0  0  0  # atno 8010 bound_to 7997
  139.4969  144.6037  151.6425 H   0  0  0  0  0  0  0  0  0  0  0  0  # atno 10167 bound_to 10162
  157.1585  131.0581  151.2244 H   0  0  0  0  0  0  0  0  0  0  0  0  # atno 10718 bound_to 10713
  154.8724  135.4061  154.3120 H   0  0  0  0  0  0  0  0  0  0  0  0  # atno 10763 bound_to 10752
  153.3962  135.7016  153.6464 H   0  0  0  0  0  0  0  0  0  0  0  0  # atno 10764 bound_to 10752
  153.5226  135.3684  155.2610 H   0  0  0  0  0  0  0  0  0  0  0  0  # atno 10765 bound_to 10752
  140.6385  133.9510  155.8313 H   0  0  0  0  0  0  0  0  0  0  0  0  # atno 11005 bound_to 11000
  144.8455  139.5403  143.6880 LP  0  0  0  0  0  0  0  0  0  0  0  0  # atno 17320 bound_to 7965
  146.2808  139.6871  142.9231 LP  0  0  0  0  0  0  0  0  0  0  0  0  # atno 17321 bound_to 7965
  140.5694  144.0135  150.6209 LP  0  0  0  0  0  0  0  0  0  0  0  0  # atno 17342 bound_to 10162
  140.3248  143.3115  152.0748 LP  0  0  0  0  0  0  0  0  0  0  0  0  # atno 17343 bound_to 10162
  157.4154  130.7408  149.6871 LP  0  0  0  0  0  0  0  0  0  0  0  0  # atno 17370 bound_to 10713
  155.9758  130.4084  150.3825 LP  0  0  0  0  0  0  0  0  0  0  0  0  # atno 17371 bound_to 10713
  141.0624  134.0327  157.3641 LP  0  0  0  0  0  0  0  0  0  0  0  0  # atno 17394 bound_to 11000
  139.9089  135.0186  156.7606 LP  0  0  0  0  0  0  0  0  0  0  0  0  # atno 17395 bound_to 11000

$$$$
