AV-unprocessed.smi:2547|AV-procd|sdf|10006|dock2
  -GOLD-   2272014 53D 1   1.00000     0.00000
 Structure written by MMmdl.
 44 45  0  0  0  0  0  0  0  0  2 V2000
  144.1840  141.5611  155.6848 C   0  0  0  0  0  0  0  0  0  0  0  0
  145.3512  141.2825  154.8206 N   0  3  2  0  0  0  0  0  0  0  0  0
  146.3541  140.4159  155.4882 C   0  0  0  0  0  0  0  0  0  0  0  0
  147.4914  140.0381  154.5213 C   0  0  0  0  0  0  0  0  0  0  0  0
  148.1571  141.2793  153.9006 C   0  0  2  0  0  0  0  0  0  0  0  0
  148.9333  142.0044  154.9074 N   0  0  0  0  0  0  0  0  0  0  0  0
  150.0843  141.6085  155.4716 C   0  0  0  0  0  0  0  0  0  0  0  0
  150.6176  140.5362  155.1721 O   0  0  0  0  0  0  0  0  0  0  0  0
  150.5106  142.5707  156.3805 N   0  0  0  0  0  0  0  0  0  0  0  0
  151.2407  142.2858  157.4201 C   0  0  0  0  0  0  0  0  0  0  0  0
  151.6491  143.3451  158.3273 C   0  0  0  0  0  0  0  0  0  0  0  0
  152.4055  143.0791  159.4118 C   0  0  0  0  0  0  0  0  0  0  0  0
  152.8364  141.7290  159.7092 C   0  0  0  0  0  0  0  0  0  0  0  0
  152.4773  140.7216  158.8913 C   0  0  0  0  0  0  0  0  0  0  0  0
  152.8908  139.4351  159.1792 N   0  0  0  0  0  0  0  0  0  0  0  0
  152.5279  138.3164  158.3257 C   0  0  0  0  0  0  0  0  0  0  0  0
  153.9336  139.1781  160.1579 C   0  0  0  0  0  0  0  0  0  0  0  0
  151.6956  141.0006  157.7716 N   0  0  0  0  0  0  0  0  0  0  0  0
  147.0870  142.1946  153.2797 C   0  0  0  0  0  0  0  0  0  0  0  0
  145.9591  142.5219  154.2756 C   0  0  0  0  0  0  0  0  0  0  0  0
  144.4783  142.1263  156.5704 H   0  0  0  0  0  0  0  0  0  0  0  0
  143.7159  140.6319  156.0110 H   0  0  0  0  0  0  0  0  0  0  0  0
  143.4333  142.1383  155.1437 H   0  0  0  0  0  0  0  0  0  0  0  0
  146.7548  140.9274  156.3648 H   0  0  0  0  0  0  0  0  0  0  0  0
  145.8693  139.5078  155.8483 H   0  0  0  0  0  0  0  0  0  0  0  0
  148.2352  139.4279  155.0356 H   0  0  0  0  0  0  0  0  0  0  0  0
  147.0869  139.4135  153.7234 H   0  0  0  0  0  0  0  0  0  0  0  0
  148.8153  140.9411  153.0989 H   0  0  0  0  0  0  0  0  0  0  0  0
  148.5619  142.8943  155.2064 H   0  0  0  0  0  0  0  0  0  0  0  0
  151.3587  144.3719  158.1580 H   0  0  0  0  0  0  0  0  0  0  0  0
  152.6951  143.8850  160.0699 H   0  0  0  0  0  0  0  0  0  0  0  0
  153.4421  141.5386  160.5836 H   0  0  0  0  0  0  0  0  0  0  0  0
  151.5952  138.5187  157.7981 H   0  0  0  0  0  0  0  0  0  0  0  0
  152.3931  137.4077  158.9131 H   0  0  0  0  0  0  0  0  0  0  0  0
  153.3078  138.1374  157.5853 H   0  0  0  0  0  0  0  0  0  0  0  0
  153.9746  139.9775  160.8987 H   0  0  0  0  0  0  0  0  0  0  0  0
  154.9053  139.1167  159.6675 H   0  0  0  0  0  0  0  0  0  0  0  0
  153.7509  138.2404  160.6830 H   0  0  0  0  0  0  0  0  0  0  0  0
  147.5437  143.1150  152.9131 H   0  0  0  0  0  0  0  0  0  0  0  0
  146.6580  141.7009  152.4067 H   0  0  0  0  0  0  0  0  0  0  0  0
  145.1931  143.1132  153.7726 H   0  0  0  0  0  0  0  0  0  0  0  0
  146.3410  143.1335  155.0948 H   0  0  0  0  0  0  0  0  0  0  0  0
  145.0019  140.7613  154.0289 H   0  0  0  0  0  0  0  0  0  0  0  0
  151.4600  140.2032  157.1984 H   0  0  0  0  0  0  0  0  0  0  0  0
  1  2  1  0  0  0  0
  1 21  1  0  0  0  0
  1 22  1  0  0  0  0
  1 23  1  0  0  0  0
  2 20  1  0  0  0  0
  2  3  1  0  0  0  0
  2 43  1  0  0  0  0
  3  4  1  0  0  0  0
  3 24  1  0  0  0  0
  3 25  1  0  0  0  0
  4  5  1  0  0  0  0
  4 26  1  0  0  0  0
  4 27  1  0  0  0  0
  5  6  1  0  0  0  0
  5 19  1  0  0  0  0
  5 28  1  0  0  0  0
  6  7  1  0  0  0  0
  6 29  1  0  0  0  0
  7  8  2  0  0  0  0
  7  9  1  0  0  0  0
  9 10  2  0  0  0  0
 10 18  1  0  0  0  0
 10 11  1  0  0  0  0
 11 12  2  0  0  0  0
 11 30  1  0  0  0  0
 12 13  1  0  0  0  0
 12 31  1  0  0  0  0
 13 14  2  0  0  0  0
 13 32  1  0  0  0  0
 14 15  1  0  0  0  0
 14 18  1  0  0  0  0
 15 16  1  0  0  0  0
 15 17  1  0  0  0  0
 16 33  1  0  0  0  0
 16 34  1  0  0  0  0
 16 35  1  0  0  0  0
 17 36  1  0  0  0  0
 17 37  1  0  0  0  0
 17 38  1  0  0  0  0
 18 44  1  0  0  0  0
 19 20  1  0  0  0  0
 19 39  1  0  0  0  0
 19 40  1  0  0  0  0
 20 41  1  0  0  0  0
 20 42  1  0  0  0  0
M  CHG  1   2   1
M  END
> <s_m_source_file>
AV-unprocessed.smi

> <i_m_source_file_index>
2547

> <i_lp_mmshare_version>
43012

> <i_f3d_flags>
0

> <s_epik_input>
W0NIM11OMVtDSDJdW0NIMl1bQ0hdKFtDSDJdW0NIMl0xKVtOSF1DKD1PKVtOSF1jMltjSF1bY0hdW2NIXWMobjIpTihbQ0gzXSlbQ0gzXQ==

> <s_epik_cmdline>
J2VwaWtfcHl0aG9uJywgJy1waCcsICc3LjAnLCAnLXRuJywgJzgnLCAnLW1hJywgJzIwMCcsICctbWV0YWxfYmluZGluZycsICctaW1hZScsICc8aW5maWxlLm1hZT4nLCAnLW9tYWUnLCAnPG91dGZpbGUubWFlPic=

> <r_lp_tautomer_probability>
0.999994

> <r_epik_Ionization_Penalty>
1.33208

> <r_epik_Ionization_Penalty_Charging>
1.33208

> <r_epik_Ionization_Penalty_Neutral>
6.0327e-08

> <r_epik_State_Penalty>
3.49719

> <r_epik_Charging_Adjusted_Penalty>
4.82927

> <i_epik_Tot_Q>
1

> <i_epik_Tot_abs_Q>
1

> <r_epik_Metal_State_Penalty>
3.51567

> <b_epik_Metal_Only>
1

> <s_lp_Force_Field>
OPLS_2005

> <r_lp_Energy>
40.5886

> <b_lp_Chiralities_Consistent>
1

> <s_lp_Variant>
AV-unprocessed.smi:2547-6

> <Gold.Version>
5.8.1

> <Gold.Id.Protein>
6NUR|6NUR_protein|mol2

> <Gold.PLP.Fitness>
44.0304

> <Gold.PLP.PLP>
-32.6124

> <Gold.PLP.part.hbond>
-3.0000

> <Gold.PLP.part.metal>
0.0000

> <Gold.PLP.part.buried>
-6.8025

> <Gold.PLP.part.nonpolar>
-24.9103

> <Gold.PLP.part.repulsive>
2.4764

> <Gold.PLP.ligand.clash>
0.0000

> <Gold.PLP.ligand.torsion>
0.3347

> <Gold.PLP.Chemscore.Hbond>
4.0000

> <Gold.PLP.Chemscore.CHOScore>
0.0000

> <Gold.PLP.Chemscore.Metal>
0.0000

> <Gold.Chemscore.Hbonds>
donor molecule, donor type, donor heavy atom, donor atom, acceptor molecule, acceptor atom, score
      L1  H     2    43       P1 10175  1.92
      L1  H     6    29       P1  8028  0.98
      P1  H  7989  7998       L1     8  0.98

> <Gold.PLP.Chemscore.Internal.Correction>
0.0873

> <Gold.Rescore>
     Score         DG    S(hbond)    S(metal)    S(lipo)     H(rot)  DE(clash)    DE(int)     intcor
     16.73     -19.76       2.50        0.00      72.59       1.00       2.75       0.27       ----

> <Gold.Chemscore.Fitness>
16.7324

> <Gold.Chemscore.DG>
-19.7559

> <Gold.Chemscore.ZeroCoef>
-5.4800

> <Gold.Chemscore.Hbond>
2.4980

> <Gold.Chemscore.Metal>
0.0000

> <Gold.Chemscore.Lipo>
72.5863

> <Gold.Chemscore.Internal_Hbond>
0.0000

> <Gold.Chemscore.DEClash>
2.7534

> <Gold.Chemscore.DEInternal>
0.2701

> <Gold.Chemscore.Rot>
1.0000

> <Gold.Chemscore.Internal.Correction>
   9.000000E+99

> <Gold.Chemscore.Hbonds>
donor molecule, donor type, donor heavy atom, donor atom, acceptor molecule, acceptor atom, score
      L1  H     2    43       P1 10175  0.85
      L1  H     6    29       P1  8028  0.93
      P1  H  7989  7998       L1     8  0.50

> <Gold.Chemscore.Hbond.Weighted>
-8.3433

> <Gold.Chemscore.Metal.Weighted>
-0.0000

> <Gold.Chemscore.Lipo.Weighted>
-8.4926

> <Gold.Chemscore.Internal_Hbond.Weighted>
0.0000

> <Gold.Chemscore.DEClash.Weighted>
2.7534

> <Gold.Chemscore.DEInternal.Weighted>
0.2701

> <Gold.Chemscore.Rot.Weighted>
2.5600

> <Gold.Chemscore.Internal.Correction.Weighted>
   9.000000E+99

> <Gold.Protein.RotatedTorsions>
[ 6907 6896 6895 6894 ] final  -75.75 input  -60.11 | X-H torsion
[ 7974 7965 7964 7962 ] final  -60.19 input  175.53 | X-H torsion
[ 8008 7997 7996 7995 ] final   54.58 input   59.86 | X-H torsion
[ 10167 10162 10161 10158 ] final  162.27 input  -65.29 | X-H torsion
[ 10718 10713 10712 10709 ] final  -59.75 input   66.30 | X-H torsion
[ 10763 10752 10751 10750 ] final  -31.97 input  -60.55 | X-H torsion
[ 11005 11000 10999 10996 ] final  161.31 input  -57.11 | X-H torsion

> <Gold.Protein.ActiveResidues>
 VAL166  LYS551  ARG553  GLY616  TRP617  ASP618  TYR619  PRO620  LYS621  CYS622 
 ASP623  PHE694  ASN695  SER759  ASP760  ASP761  ALA762  ILE779  LEU786  VAL792 
 PHE793  MET794  SER795  GLU796  ALA797  LYS798  CYS799  TRP800  GLU811  SER814 

> <Gold.Protein.RotatedAtoms>
  150.7049  134.4675  159.5409 H   0  0  0  0  0  0  0  0  0  0  0  0  # atno 6907 bound_to 6896
  152.2338  134.8293  160.0479 H   0  0  0  0  0  0  0  0  0  0  0  0  # atno 6908 bound_to 6896
  151.9100  133.3524  159.3897 H   0  0  0  0  0  0  0  0  0  0  0  0  # atno 6909 bound_to 6896
  145.8184  140.8555  143.0145 H   0  0  0  0  0  0  0  0  0  0  0  0  # atno 7974 bound_to 7965
  155.4870  140.3470  155.4349 H   0  0  0  0  0  0  0  0  0  0  0  0  # atno 8008 bound_to 7997
  156.1002  140.1433  156.9506 H   0  0  0  0  0  0  0  0  0  0  0  0  # atno 8009 bound_to 7997
  154.4689  140.0908  156.7070 H   0  0  0  0  0  0  0  0  0  0  0  0  # atno 8010 bound_to 7997
  139.4858  144.4454  151.8898 H   0  0  0  0  0  0  0  0  0  0  0  0  # atno 10167 bound_to 10162
  156.1039  130.4183  150.0758 H   0  0  0  0  0  0  0  0  0  0  0  0  # atno 10718 bound_to 10713
  153.8060  135.6886  153.4848 H   0  0  0  0  0  0  0  0  0  0  0  0  # atno 10763 bound_to 10752
  153.1658  135.4562  154.9833 H   0  0  0  0  0  0  0  0  0  0  0  0  # atno 10764 bound_to 10752
  154.7987  135.3329  154.7545 H   0  0  0  0  0  0  0  0  0  0  0  0  # atno 10765 bound_to 10752
  140.2145  134.8242  157.3156 H   0  0  0  0  0  0  0  0  0  0  0  0  # atno 11005 bound_to 11000
  144.6750  140.0498  143.7479 LP  0  0  0  0  0  0  0  0  0  0  0  0  # atno 17320 bound_to 7965
  145.9701  139.2863  143.1104 LP  0  0  0  0  0  0  0  0  0  0  0  0  # atno 17321 bound_to 7965
  140.3908  144.2618  150.5900 LP  0  0  0  0  0  0  0  0  0  0  0  0  # atno 17342 bound_to 10162
  140.5148  143.2281  151.8480 LP  0  0  0  0  0  0  0  0  0  0  0  0  # atno 17343 bound_to 10162
  156.8738  130.9533  151.3606 LP  0  0  0  0  0  0  0  0  0  0  0  0  # atno 17370 bound_to 10713
  157.6214  130.8658  149.9114 LP  0  0  0  0  0  0  0  0  0  0  0  0  # atno 17371 bound_to 10713
  140.1915  134.4366  155.7713 LP  0  0  0  0  0  0  0  0  0  0  0  0  # atno 17394 bound_to 11000
  141.2225  133.7029  156.8034 LP  0  0  0  0  0  0  0  0  0  0  0  0  # atno 17395 bound_to 11000

$$$$
