AV-unprocessed.smi:508|AV-procd|sdf|2759|dock7
  -GOLD-   2262023223D 1   1.00000     0.00000
 Structure written by MMmdl.
 48 50  0  0  0  0  0  0  0  0  2 V2000
  150.4485  138.9661  154.0573 C   0  0  0  0  0  0  0  0  0  0  0  0
  151.6316  138.9301  155.0274 C   0  0  0  0  0  0  0  0  0  0  0  0
  151.1776  139.2938  156.3199 O   0  0  0  0  0  0  0  0  0  0  0  0
  151.8333  140.4439  156.8273 C   0  0  0  0  0  0  0  0  0  0  0  0
  151.3372  140.6962  158.2583 C   0  0  0  0  0  0  0  0  0  0  0  0
  152.3261  140.3455  159.2731 N   0  0  0  0  0  0  0  0  0  0  0  0
  153.0574  141.1800  160.0615 C   0  0  0  0  0  0  0  0  0  0  0  0
  152.8922  142.5668  160.0328 N   0  0  0  0  0  0  0  0  0  0  0  0
  152.4989  143.3678  161.1896 C   0  0  0  0  0  0  0  0  0  0  0  0
  151.3002  144.3081  160.9534 C   0  0  0  0  0  0  0  0  0  0  0  0
  151.6608  145.5417  160.1124 C   0  0  0  0  0  0  0  0  0  0  0  0
  151.6578  145.3142  158.5900 C   0  0  0  0  0  0  0  0  0  0  0  0
  152.2220  143.9684  158.0982 C   0  0  0  0  0  0  0  0  0  0  0  0
  153.3785  143.3962  158.9334 C   0  0  0  0  0  0  0  0  0  0  0  0
  153.9521  140.5674  160.8406 N   0  0  0  0  0  0  0  0  0  0  0  0
  153.7529  139.2279  160.5453 C   0  0  0  0  0  0  0  0  0  0  0  0
  152.7822  139.0668  159.6078 C   0  0  0  0  0  0  0  0  0  0  0  0
  152.3622  137.7518  159.0782 C   0  0  0  0  0  0  0  0  0  0  0  0
  151.4885  137.6632  158.2179 O   0  0  0  0  0  0  0  0  0  0  0  0
  153.0511  136.7182  159.6582 N   0  5  0  0  0  0  0  0  0  0  0  0
  154.0384  136.8354  160.6139 C   0  0  0  0  0  0  0  0  0  0  0  0
  154.6021  135.8458  161.0816 O   0  0  0  0  0  0  0  0  0  0  0  0
  154.4079  138.0788  161.0613 N   0  0  0  0  0  0  0  0  0  0  0  0
  155.4545  138.2892  162.0663 C   0  0  0  0  0  0  0  0  0  0  0  0
  150.7617  138.6905  153.0502 H   0  0  0  0  0  0  0  0  0  0  0  0
  150.0112  139.9638  154.0110 H   0  0  0  0  0  0  0  0  0  0  0  0
  149.6678  138.2714  154.3671 H   0  0  0  0  0  0  0  0  0  0  0  0
  152.0635  137.9286  155.0488 H   0  0  0  0  0  0  0  0  0  0  0  0
  152.4084  139.6196  154.6933 H   0  0  0  0  0  0  0  0  0  0  0  0
  152.9107  140.2871  156.8124 H   0  0  0  0  0  0  0  0  0  0  0  0
  151.6252  141.3044  156.1910 H   0  0  0  0  0  0  0  0  0  0  0  0
  151.0657  141.7440  158.3835 H   0  0  0  0  0  0  0  0  0  0  0  0
  150.4189  140.1452  158.4474 H   0  0  0  0  0  0  0  0  0  0  0  0
  152.2697  142.6928  162.0116 H   0  0  0  0  0  0  0  0  0  0  0  0
  153.3607  143.9433  161.5293 H   0  0  0  0  0  0  0  0  0  0  0  0
  150.4459  143.7842  160.5275 H   0  0  0  0  0  0  0  0  0  0  0  0
  150.9695  144.6600  161.9309 H   0  0  0  0  0  0  0  0  0  0  0  0
  150.9575  146.3445  160.3361 H   0  0  0  0  0  0  0  0  0  0  0  0
  152.6358  145.9167  160.4259 H   0  0  0  0  0  0  0  0  0  0  0  0
  150.6389  145.4129  158.2139 H   0  0  0  0  0  0  0  0  0  0  0  0
  152.2187  146.1270  158.1274 H   0  0  0  0  0  0  0  0  0  0  0  0
  151.4200  143.2305  158.0379 H   0  0  0  0  0  0  0  0  0  0  0  0
  152.5624  144.1047  157.0714 H   0  0  0  0  0  0  0  0  0  0  0  0
  154.0351  144.1880  159.2963 H   0  0  0  0  0  0  0  0  0  0  0  0
  153.9955  142.7722  158.2860 H   0  0  0  0  0  0  0  0  0  0  0  0
  155.9700  137.3802  162.3771 H   0  0  0  0  0  0  0  0  0  0  0  0
  155.0241  138.7428  162.9593 H   0  0  0  0  0  0  0  0  0  0  0  0
  156.2119  138.9701  161.6766 H   0  0  0  0  0  0  0  0  0  0  0  0
  1  2  1  0  0  0  0
  1 25  1  0  0  0  0
  1 26  1  0  0  0  0
  1 27  1  0  0  0  0
  2  3  1  0  0  0  0
  2 28  1  0  0  0  0
  2 29  1  0  0  0  0
  3  4  1  0  0  0  0
  4  5  1  0  0  0  0
  4 30  1  0  0  0  0
  4 31  1  0  0  0  0
  5  6  1  0  0  0  0
  5 32  1  0  0  0  0
  5 33  1  0  0  0  0
  6 17  1  0  0  0  0
  6  7  1  0  0  0  0
  7  8  1  0  0  0  0
  7 15  2  0  0  0  0
  8 14  1  0  0  0  0
  8  9  1  0  0  0  0
  9 10  1  0  0  0  0
  9 34  1  0  0  0  0
  9 35  1  0  0  0  0
 10 11  1  0  0  0  0
 10 36  1  0  0  0  0
 10 37  1  0  0  0  0
 11 12  1  0  0  0  0
 11 38  1  0  0  0  0
 11 39  1  0  0  0  0
 12 13  1  0  0  0  0
 12 40  1  0  0  0  0
 12 41  1  0  0  0  0
 13 14  1  0  0  0  0
 13 42  1  0  0  0  0
 13 43  1  0  0  0  0
 14 44  1  0  0  0  0
 14 45  1  0  0  0  0
 15 16  1  0  0  0  0
 16 23  1  0  0  0  0
 16 17  2  0  0  0  0
 17 18  1  0  0  0  0
 18 19  2  0  0  0  0
 18 20  1  0  0  0  0
 20 21  1  0  0  0  0
 21 22  2  0  0  0  0
 21 23  1  0  0  0  0
 23 24  1  0  0  0  0
 24 46  1  0  0  0  0
 24 47  1  0  0  0  0
 24 48  1  0  0  0  0
M  CHG  1  20  -1
M  END
> <s_m_source_file>
AV-unprocessed.smi

> <i_m_source_file_index>
508

> <i_lp_mmshare_version>
43012

> <i_f3d_flags>
0

> <s_epik_input>
W0NIM11uMWMoPU8pW25IXWMoPU8pYyhjMTIpbihbQ0gyXVtDSDJdT1tDSDJdW0NIM10pYyhuMilOM1tDSDJdW0NIMl1bQ0gyXVtDSDJdW0NIMl1bQ0gyXTM=

> <s_epik_cmdline>
J2VwaWtfcHl0aG9uJywgJy1waCcsICc3LjAnLCAnLXRuJywgJzgnLCAnLW1hJywgJzIwMCcsICctbWV0YWxfYmluZGluZycsICctaW1hZScsICc8aW5maWxlLm1hZT4nLCAnLW9tYWUnLCAnPG91dGZpbGUubWFlPic=

> <r_lp_tautomer_probability>
1

> <r_epik_Ionization_Penalty>
6.1764

> <r_epik_Ionization_Penalty_Charging>
0.0751667

> <r_epik_Ionization_Penalty_Neutral>
6.10123

> <r_epik_State_Penalty>
6.09793

> <r_epik_Charging_Adjusted_Penalty>
6.17309

> <i_epik_Tot_Q>
-1

> <i_epik_Tot_abs_Q>
1

> <r_epik_Metal_State_Penalty>
2.04406

> <b_epik_Metal_Only>
1

> <s_lp_Force_Field>
OPLS_2005

> <r_lp_Energy>
49.0985

> <b_lp_Chiralities_Consistent>
1

> <s_lp_Variant>
AV-unprocessed.smi:508-2

> <Gold.Version>
5.8.1

> <Gold.Id.Protein>
6NUR|6NUR_protein|mol2

> <Gold.PLP.Fitness>
54.5105

> <Gold.PLP.PLP>
-51.8907

> <Gold.PLP.part.hbond>
-1.0000

> <Gold.PLP.part.metal>
0.0000

> <Gold.PLP.part.buried>
-6.3702

> <Gold.PLP.part.nonpolar>
-43.2247

> <Gold.PLP.part.repulsive>
0.0000

> <Gold.PLP.ligand.clash>
0.0000

> <Gold.PLP.ligand.torsion>
2.0664

> <Gold.PLP.Chemscore.Hbond>
2.0000

> <Gold.PLP.Chemscore.CHOScore>
0.0000

> <Gold.PLP.Chemscore.Metal>
0.0000

> <Gold.Chemscore.Hbonds>
donor molecule, donor type, donor heavy atom, donor atom, acceptor molecule, acceptor atom, score
      P1  H  6896  6909       L1    20  1.95

> <Gold.PLP.Chemscore.Internal.Correction>
0.7526

> <Gold.Rescore>
     Score         DG    S(hbond)    S(metal)    S(lipo)     H(rot)  DE(clash)    DE(int)     intcor
     13.59     -17.21       0.82        0.00     110.79       1.55       0.07       3.55       ----

> <Gold.Chemscore.Fitness>
13.5885

> <Gold.Chemscore.DG>
-17.2066

> <Gold.Chemscore.ZeroCoef>
-5.4800

> <Gold.Chemscore.Hbond>
0.8207

> <Gold.Chemscore.Metal>
0.0000

> <Gold.Chemscore.Lipo>
110.7894

> <Gold.Chemscore.Internal_Hbond>
0.0000

> <Gold.Chemscore.DEClash>
0.0679

> <Gold.Chemscore.DEInternal>
3.5502

> <Gold.Chemscore.Rot>
1.5534

> <Gold.Chemscore.Internal.Correction>
   9.000000E+99

> <Gold.Chemscore.Hbonds>
donor molecule, donor type, donor heavy atom, donor atom, acceptor molecule, acceptor atom, score
      P1  H  6896  6909       L1    20  0.57

> <Gold.Chemscore.Hbond.Weighted>
-2.7411

> <Gold.Chemscore.Metal.Weighted>
-0.0000

> <Gold.Chemscore.Lipo.Weighted>
-12.9624

> <Gold.Chemscore.Internal_Hbond.Weighted>
0.0000

> <Gold.Chemscore.DEClash.Weighted>
0.0679

> <Gold.Chemscore.DEInternal.Weighted>
3.5502

> <Gold.Chemscore.Rot.Weighted>
3.9768

> <Gold.Chemscore.Internal.Correction.Weighted>
   9.000000E+99

> <Gold.Protein.RotatedTorsions>
[ 6907 6896 6895 6894 ] final  133.19 input  -60.11 | X-H torsion
[ 7974 7965 7964 7962 ] final  -86.16 input  175.53 | X-H torsion
[ 8008 7997 7996 7995 ] final  -78.57 input   59.86 | X-H torsion
[ 10167 10162 10161 10158 ] final   13.34 input  -65.29 | X-H torsion
[ 10718 10713 10712 10709 ] final  128.02 input   66.30 | X-H torsion
[ 10763 10752 10751 10750 ] final -154.82 input  -60.55 | X-H torsion
[ 11005 11000 10999 10996 ] final  124.50 input  -57.11 | X-H torsion

> <Gold.Protein.ActiveResidues>
 VAL166  LYS551  ARG553  GLY616  TRP617  ASP618  TYR619  PRO620  LYS621  CYS622 
 ASP623  PHE694  ASN695  SER759  ASP760  ASP761  ALA762  ILE779  LEU786  VAL792 
 PHE793  MET794  SER795  GLU796  ALA797  LYS798  CYS799  TRP800  GLU811  SER814 

> <Gold.Protein.RotatedAtoms>
  152.3246  133.5891  159.5767 H   0  0  0  0  0  0  0  0  0  0  0  0  # atno 6907 bound_to 6896
  150.7389  133.9960  159.3631 H   0  0  0  0  0  0  0  0  0  0  0  0  # atno 6908 bound_to 6896
  151.7841  135.0754  160.0429 H   0  0  0  0  0  0  0  0  0  0  0  0  # atno 6909 bound_to 6896
  145.4836  140.9556  143.1851 H   0  0  0  0  0  0  0  0  0  0  0  0  # atno 7974 bound_to 7965
  154.5702  140.0692  156.8952 H   0  0  0  0  0  0  0  0  0  0  0  0  # atno 8008 bound_to 7997
  155.2649  140.3361  155.4252 H   0  0  0  0  0  0  0  0  0  0  0  0  # atno 8009 bound_to 7997
  156.2112  140.1760  156.7676 H   0  0  0  0  0  0  0  0  0  0  0  0  # atno 8010 bound_to 7997
  140.6009  143.8606  150.6964 H   0  0  0  0  0  0  0  0  0  0  0  0  # atno 10167 bound_to 10162
  157.5281  131.1098  150.9051 H   0  0  0  0  0  0  0  0  0  0  0  0  # atno 10718 bound_to 10713
  154.7832  135.3181  154.7945 H   0  0  0  0  0  0  0  0  0  0  0  0  # atno 10763 bound_to 10752
  153.8651  135.6849  153.4783 H   0  0  0  0  0  0  0  0  0  0  0  0  # atno 10764 bound_to 10752
  153.1474  135.4713  154.9525 H   0  0  0  0  0  0  0  0  0  0  0  0  # atno 10765 bound_to 10752
  139.9361  134.9639  156.8418 H   0  0  0  0  0  0  0  0  0  0  0  0  # atno 11005 bound_to 11000
  144.7875  139.6397  143.7128 LP  0  0  0  0  0  0  0  0  0  0  0  0  # atno 17320 bound_to 7965
  146.2326  139.5844  142.9545 LP  0  0  0  0  0  0  0  0  0  0  0  0  # atno 17321 bound_to 7965
  140.2152  143.3852  152.1687 LP  0  0  0  0  0  0  0  0  0  0  0  0  # atno 17342 bound_to 10162
  139.5290  144.7137  151.5123 LP  0  0  0  0  0  0  0  0  0  0  0  0  # atno 17343 bound_to 10162
  156.9641  130.5466  149.5287 LP  0  0  0  0  0  0  0  0  0  0  0  0  # atno 17370 bound_to 10713
  156.0402  130.5485  150.8752 LP  0  0  0  0  0  0  0  0  0  0  0  0  # atno 17371 bound_to 10713
  140.6071  134.0117  155.7561 LP  0  0  0  0  0  0  0  0  0  0  0  0  # atno 17394 bound_to 11000
  141.0976  133.9819  157.3134 LP  0  0  0  0  0  0  0  0  0  0  0  0  # atno 17395 bound_to 11000

$$$$
