AV-unprocessed.smi:2372|AV-procd|sdf|9438|dock3
  -GOLD-   2272013 63D 1   1.00000     0.00000
 Structure written by MMmdl.
 34 35  0  0  0  0  0  0  0  0  1 V2000
  144.5939  136.8018  152.3164 O   0  0  0  0  0  0  0  0  0  0  0  0
  145.8063  136.6350  152.1869 C   0  0  0  0  0  0  0  0  0  0  0  0
  146.7155  137.5707  152.4952 N   0  0  0  0  0  0  0  0  0  0  0  0
  146.4040  138.8902  153.0310 C   0  0  0  0  0  0  0  0  0  0  0  0
  147.6806  139.6737  153.3856 C   0  0  0  0  0  0  0  0  0  0  0  0
  148.8381  138.7917  153.4685 N   0  0  0  0  0  0  0  0  0  0  0  0
  150.0202  139.1224  154.0103 C   0  0  0  0  0  0  0  0  0  0  0  0
  150.2519  140.2337  154.4889 O   0  0  0  0  0  0  0  0  0  0  0  0
  151.0274  138.0194  153.9880 C   0  0  0  0  0  0  0  0  0  0  0  0
  151.5554  137.5271  155.3202 C   0  0  0  0  0  0  0  0  0  0  0  0
  152.4426  138.3475  154.4184 C   0  0  0  0  0  0  0  0  0  0  0  0
  146.3938  135.5245  151.7092 N   0  0  0  0  0  0  0  0  0  0  0  0
  145.7881  134.3140  151.2734 C   0  0  0  0  0  0  0  0  0  0  0  0
  144.4887  134.2308  150.7166 C   0  0  0  0  0  0  0  0  0  0  0  0
  143.9963  132.9656  150.3385 C   0  0  0  0  0  0  0  0  0  0  0  0
  144.6950  131.8203  150.4865 N   0  0  0  0  0  0  0  0  0  0  0  0
  145.9275  131.9014  151.0309 C   0  0  0  0  0  0  0  0  0  0  0  0
  146.5135  133.1155  151.4419 C   0  0  0  0  0  0  0  0  0  0  0  0
  147.7550  133.1259  151.9853 F   0  0  0  0  0  0  0  0  0  0  0  0
  147.6915  137.3551  152.3528 H   0  0  0  0  0  0  0  0  0  0  0  0
  145.7934  139.4454  152.3165 H   0  0  0  0  0  0  0  0  0  0  0  0
  145.7913  138.7558  153.9229 H   0  0  0  0  0  0  0  0  0  0  0  0
  147.8815  140.4234  152.6199 H   0  0  0  0  0  0  0  0  0  0  0  0
  147.5579  140.2153  154.3252 H   0  0  0  0  0  0  0  0  0  0  0  0
  148.7304  137.8597  153.0955 H   0  0  0  0  0  0  0  0  0  0  0  0
  150.9162  137.2744  153.2015 H   0  0  0  0  0  0  0  0  0  0  0  0
  151.1934  138.0011  156.2312 H   0  0  0  0  0  0  0  0  0  0  0  0
  151.7591  136.4618  155.4071 H   0  0  0  0  0  0  0  0  0  0  0  0
  153.2487  137.8379  153.8948 H   0  0  0  0  0  0  0  0  0  0  0  0
  152.6693  139.3656  154.7307 H   0  0  0  0  0  0  0  0  0  0  0  0
  147.3948  135.5698  151.5879 H   0  0  0  0  0  0  0  0  0  0  0  0
  143.8605  135.0977  150.5832 H   0  0  0  0  0  0  0  0  0  0  0  0
  143.0091  132.8713  149.9107 H   0  0  0  0  0  0  0  0  0  0  0  0
  146.4626  130.9703  151.1441 H   0  0  0  0  0  0  0  0  0  0  0  0
  1  2  2  0  0  0  0
  2  3  1  0  0  0  0
  2 12  1  0  0  0  0
  3  4  1  0  0  0  0
  3 20  1  0  0  0  0
  4  5  1  0  0  0  0
  4 21  1  0  0  0  0
  4 22  1  0  0  0  0
  5  6  1  0  0  0  0
  5 23  1  0  0  0  0
  5 24  1  0  0  0  0
  6  7  1  0  0  0  0
  6 25  1  0  0  0  0
  7  8  2  0  0  0  0
  7  9  1  0  0  0  0
  9 11  1  0  0  0  0
  9 10  1  0  0  0  0
  9 26  1  0  0  0  0
 10 11  1  0  0  0  0
 10 27  1  0  0  0  0
 10 28  1  0  0  0  0
 11 29  1  0  0  0  0
 11 30  1  0  0  0  0
 12 13  1  0  0  0  0
 12 31  1  0  0  0  0
 13 18  1  0  0  0  0
 13 14  2  0  0  0  0
 14 15  1  0  0  0  0
 14 32  1  0  0  0  0
 15 16  2  0  0  0  0
 15 33  1  0  0  0  0
 16 17  1  0  0  0  0
 17 18  2  0  0  0  0
 17 34  1  0  0  0  0
 18 19  1  0  0  0  0
M  END
> <s_m_source_file>
AV-unprocessed.smi

> <i_m_source_file_index>
2372

> <i_lp_mmshare_version>
43012

> <i_f3d_flags>
0

> <s_epik_input>
RmMxW2NIXW5bY0hdW2NIXWMxW05IXUMoPU8pW05IXVtDSDJdW0NIMl1bTkhdQyg9TylbQ0hdMltDSDJdW0NIMl0y

> <s_epik_cmdline>
J2VwaWtfcHl0aG9uJywgJy1waCcsICc3LjAnLCAnLXRuJywgJzgnLCAnLW1hJywgJzIwMCcsICctbWV0YWxfYmluZGluZycsICctaW1hZScsICc8aW5maWxlLm1hZT4nLCAnLW9tYWUnLCAnPG91dGZpbGUubWFlPic=

> <r_epik_Ionization_Penalty>
0.00312497

> <r_epik_Ionization_Penalty_Charging>
0

> <r_epik_Ionization_Penalty_Neutral>
0.00312497

> <r_epik_State_Penalty>
0.00217604

> <r_epik_Charging_Adjusted_Penalty>
0.00217604

> <i_epik_Tot_Q>
0

> <i_epik_Tot_abs_Q>
0

> <r_epik_Metal_State_Penalty>
-0

> <b_epik_Metal_Only>
0

> <s_lp_Force_Field>
OPLS_2005

> <r_lp_Energy>
8.30989

> <b_lp_Chiralities_Consistent>
1

> <s_lp_Variant>
AV-unprocessed.smi:2372-1

> <Gold.Version>
5.8.1

> <Gold.Id.Protein>
6NUR|6NUR_protein|mol2

> <Gold.PLP.Fitness>
50.2223

> <Gold.PLP.PLP>
-35.1509

> <Gold.PLP.part.hbond>
-5.0000

> <Gold.PLP.part.metal>
0.0000

> <Gold.PLP.part.buried>
-1.8910

> <Gold.PLP.part.nonpolar>
-29.0757

> <Gold.PLP.part.repulsive>
0.9662

> <Gold.PLP.ligand.clash>
0.0000

> <Gold.PLP.ligand.torsion>
0.6473

> <Gold.PLP.Chemscore.Hbond>
3.9588

> <Gold.PLP.Chemscore.CHOScore>
1.4644

> <Gold.PLP.Chemscore.Metal>
0.0000

> <Gold.Chemscore.Hbonds>
donor molecule, donor type, donor heavy atom, donor atom, acceptor molecule, acceptor atom, score
      L1  H     3    20       P1  7948  1.00
      L1  H     6    25       P1  7948  0.99
      L1  H    12    31       P1  7948  1.00
      P1  H  7989  7998       L1     8  1.00
      L1  C    15    33       P1 10186  0.94
      L1  C    17    34       P1 10747  0.52

> <Gold.PLP.Chemscore.Internal.Correction>
0.0968

> <Gold.Rescore>
     Score         DG    S(hbond)    S(metal)    S(lipo)     H(rot)  DE(clash)    DE(int)     intcor
     19.02     -20.08       3.48        0.00      68.31       1.96       0.36       0.71       ----

> <Gold.Chemscore.Fitness>
19.0151

> <Gold.Chemscore.DG>
-20.0835

> <Gold.Chemscore.ZeroCoef>
-5.4800

> <Gold.Chemscore.Hbond>
3.4842

> <Gold.Chemscore.Metal>
0.0000

> <Gold.Chemscore.Lipo>
68.3064

> <Gold.Chemscore.Internal_Hbond>
0.0000

> <Gold.Chemscore.DEClash>
0.3622

> <Gold.Chemscore.DEInternal>
0.7062

> <Gold.Chemscore.Rot>
1.9632

> <Gold.Chemscore.Internal.Correction>
   9.000000E+99

> <Gold.Chemscore.Hbonds>
donor molecule, donor type, donor heavy atom, donor atom, acceptor molecule, acceptor atom, score
      L1  H     3    20       P1  7948  0.95
      L1  H     6    25       P1  7948  0.92
      L1  H    12    31       P1  7948  0.97
      P1  H  7989  7998       L1     8  0.43

> <Gold.Chemscore.Hbond.Weighted>
-11.6373

> <Gold.Chemscore.Metal.Weighted>
-0.0000

> <Gold.Chemscore.Lipo.Weighted>
-7.9919

> <Gold.Chemscore.Internal_Hbond.Weighted>
0.0000

> <Gold.Chemscore.DEClash.Weighted>
0.3622

> <Gold.Chemscore.DEInternal.Weighted>
0.7062

> <Gold.Chemscore.Rot.Weighted>
5.0257

> <Gold.Chemscore.Internal.Correction.Weighted>
   9.000000E+99

> <Gold.Protein.RotatedTorsions>
[ 6907 6896 6895 6894 ] final   44.49 input  -60.11 | X-H torsion
[ 7974 7965 7964 7962 ] final  142.80 input  175.53 | X-H torsion
[ 8008 7997 7996 7995 ] final   97.97 input   59.86 | X-H torsion
[ 10167 10162 10161 10158 ] final    4.51 input  -65.29 | X-H torsion
[ 10718 10713 10712 10709 ] final  -36.49 input   66.30 | X-H torsion
[ 10763 10752 10751 10750 ] final  142.14 input  -60.55 | X-H torsion
[ 11005 11000 10999 10996 ] final   21.99 input  -57.11 | X-H torsion

> <Gold.Protein.ActiveResidues>
 VAL166  LYS551  ARG553  GLY616  TRP617  ASP618  TYR619  PRO620  LYS621  CYS622 
 ASP623  PHE694  ASN695  SER759  ASP760  ASP761  ALA762  ILE779  LEU786  VAL792 
 PHE793  MET794  SER795  GLU796  ALA797  LYS798  CYS799  TRP800  GLU811  SER814 

> <Gold.Protein.RotatedAtoms>
  152.2331  134.8303  160.0470 H   0  0  0  0  0  0  0  0  0  0  0  0  # atno 6907 bound_to 6896
  151.9044  133.3541  159.3850 H   0  0  0  0  0  0  0  0  0  0  0  0  # atno 6908 bound_to 6896
  150.7031  134.4721  159.5474 H   0  0  0  0  0  0  0  0  0  0  0  0  # atno 6909 bound_to 6896
  144.8976  139.5468  143.5769 H   0  0  0  0  0  0  0  0  0  0  0  0  # atno 7974 bound_to 7965
  156.0957  140.3250  155.7874 H   0  0  0  0  0  0  0  0  0  0  0  0  # atno 8008 bound_to 7997
  155.4922  140.0562  157.2969 H   0  0  0  0  0  0  0  0  0  0  0  0  # atno 8009 bound_to 7997
  154.4665  140.1991  156.0121 H   0  0  0  0  0  0  0  0  0  0  0  0  # atno 8010 bound_to 7997
  140.6531  143.7495  150.7608 H   0  0  0  0  0  0  0  0  0  0  0  0  # atno 10167 bound_to 10162
  156.3262  130.4272  149.7914 H   0  0  0  0  0  0  0  0  0  0  0  0  # atno 10718 bound_to 10713
  153.9509  135.2970  155.3438 H   0  0  0  0  0  0  0  0  0  0  0  0  # atno 10763 bound_to 10752
  154.7427  135.5017  153.9153 H   0  0  0  0  0  0  0  0  0  0  0  0  # atno 10764 bound_to 10752
  153.0994  135.6730  153.9809 H   0  0  0  0  0  0  0  0  0  0  0  0  # atno 10765 bound_to 10752
  140.3855  134.1875  155.7663 H   0  0  0  0  0  0  0  0  0  0  0  0  # atno 11005 bound_to 11000
  146.3090  139.7680  142.9034 LP  0  0  0  0  0  0  0  0  0  0  0  0  # atno 17320 bound_to 7965
  145.3672  141.0336  143.3251 LP  0  0  0  0  0  0  0  0  0  0  0  0  # atno 17321 bound_to 7965
  140.1150  143.4664  152.2347 LP  0  0  0  0  0  0  0  0  0  0  0  0  # atno 17342 bound_to 10162
  139.5749  144.7482  151.3792 LP  0  0  0  0  0  0  0  0  0  0  0  0  # atno 17343 bound_to 10162
  156.5204  130.8212  151.3201 LP  0  0  0  0  0  0  0  0  0  0  0  0  # atno 17370 bound_to 10713
  157.7421  130.9884  150.2496 LP  0  0  0  0  0  0  0  0  0  0  0  0  # atno 17371 bound_to 10713
  141.1909  133.8207  157.0901 LP  0  0  0  0  0  0  0  0  0  0  0  0  # atno 17394 bound_to 11000
  140.0446  134.9837  157.1025 LP  0  0  0  0  0  0  0  0  0  0  0  0  # atno 17395 bound_to 11000

$$$$
