AV-unprocessed.smi:168|AV-procd|sdf|1397|dock2
  -GOLD-   2262019143D 1   1.00000     0.00000
 Structure written by MMmdl.
 62 66  0  0  0  0  0  0  0  0  1 V2000
  149.0220  137.9276  158.2837 C   0  0  0  0  0  0  0  0  0  0  0  0
  147.7220  138.2763  157.5451 C   0  0  0  0  0  0  0  0  0  0  0  0
  146.6979  137.1339  157.7272 C   0  0  0  0  0  0  0  0  0  0  0  0
  148.0024  138.7233  156.0850 C   0  0  1  0  0  0  0  0  0  0  0  0
  146.7650  139.0758  155.3842 N   0  0  0  0  0  0  0  0  0  0  0  0
  146.5616  138.4912  154.0903 C   0  0  0  0  0  0  0  0  0  0  0  0
  146.9362  139.1937  152.9863 N   0  0  0  0  0  0  0  0  0  0  0  0
  146.7558  138.7125  151.7540 C   0  0  0  0  0  0  0  0  0  0  0  0
  146.2076  137.5561  151.3855 N   0  0  0  0  0  0  0  0  0  0  0  0
  145.8010  136.8429  152.4723 C   0  0  0  0  0  0  0  0  0  0  0  0
  145.9288  137.2353  153.8378 C   0  0  0  0  0  0  0  0  0  0  0  0
  145.3661  136.2577  154.6500 N   0  0  0  0  0  0  0  0  0  0  0  0
  144.9365  135.3477  153.8211 C   0  0  0  0  0  0  0  0  0  0  0  0
  145.1841  135.6036  152.4930 N   0  0  0  0  0  0  0  0  0  0  0  0
  144.7810  134.7986  151.3766 C   0  0  0  0  0  0  0  0  0  0  0  0
  144.2011  133.3957  151.5832 C   0  0  0  0  0  0  0  0  0  0  0  0
  144.9171  132.8969  150.3083 C   0  0  0  0  0  0  0  0  0  0  0  0
  145.6627  131.5617  150.4569 C   0  0  0  0  0  0  0  0  0  0  0  0
  146.5829  131.6008  151.5290 O   0  0  0  0  0  0  0  0  0  0  0  0
  144.0757  132.8054  149.0154 C   0  0  0  0  0  0  0  0  0  0  0  0
  142.8598  132.1066  149.1876 O   0  0  0  0  0  0  0  0  0  0  0  0
  145.8145  134.1467  150.4527 C   0  0  0  0  0  0  0  0  0  0  0  0
  147.0836  140.5024  155.4116 C   0  0  0  0  0  0  0  0  0  0  0  0
  148.5427  140.1296  155.7078 C   0  0  0  0  0  0  0  0  0  0  0  0
  149.4698  140.1784  154.4728 C   0  0  0  0  0  0  0  0  0  0  0  0
  150.8837  139.6422  154.7510 C   0  0  0  0  0  0  0  0  0  0  0  0
  151.5560  140.4270  155.8823 C   0  0  0  0  0  0  0  0  0  0  0  0
  150.6669  140.4580  157.1302 C   0  0  0  0  0  0  0  0  0  0  0  0
  149.2509  140.9624  156.7966 C   0  0  0  0  0  0  0  0  0  0  0  0
  149.4972  137.0465  157.8517 H   0  0  0  0  0  0  0  0  0  0  0  0
  148.8326  137.7180  159.3368 H   0  0  0  0  0  0  0  0  0  0  0  0
  149.7346  138.7513  158.2390 H   0  0  0  0  0  0  0  0  0  0  0  0
  147.3139  139.1350  158.0764 H   0  0  0  0  0  0  0  0  0  0  0  0
  147.0550  136.2006  157.2911 H   0  0  0  0  0  0  0  0  0  0  0  0
  145.7310  137.3579  157.2830 H   0  0  0  0  0  0  0  0  0  0  0  0
  146.5204  136.9435  158.7859 H   0  0  0  0  0  0  0  0  0  0  0  0
  148.5943  137.9796  155.5534 H   0  0  0  0  0  0  0  0  0  0  0  0
  147.0996  139.3453  150.9493 H   0  0  0  0  0  0  0  0  0  0  0  0
  144.4262  134.4581  154.1611 H   0  0  0  0  0  0  0  0  0  0  0  0
  144.0908  135.4177  150.8024 H   0  0  0  0  0  0  0  0  0  0  0  0
  144.5779  132.9195  152.4900 H   0  0  0  0  0  0  0  0  0  0  0  0
  143.1123  133.3501  151.5441 H   0  0  0  0  0  0  0  0  0  0  0  0
  144.9678  130.7369  150.6179 H   0  0  0  0  0  0  0  0  0  0  0  0
  146.2197  131.3223  149.5506 H   0  0  0  0  0  0  0  0  0  0  0  0
  147.4176  131.2840  151.2196 H   0  0  0  0  0  0  0  0  0  0  0  0
  143.8345  133.8010  148.6419 H   0  0  0  0  0  0  0  0  0  0  0  0
  144.6286  132.3018  148.2222 H   0  0  0  0  0  0  0  0  0  0  0  0
  142.1665  132.7370  149.3104 H   0  0  0  0  0  0  0  0  0  0  0  0
  145.9936  134.6932  149.5260 H   0  0  0  0  0  0  0  0  0  0  0  0
  146.7547  133.9403  150.9668 H   0  0  0  0  0  0  0  0  0  0  0  0
  146.9523  141.0632  154.4863 H   0  0  0  0  0  0  0  0  0  0  0  0
  146.5894  141.0071  156.2413 H   0  0  0  0  0  0  0  0  0  0  0  0
  149.0430  139.6090  153.6474 H   0  0  0  0  0  0  0  0  0  0  0  0
  149.5437  141.2026  154.1049 H   0  0  0  0  0  0  0  0  0  0  0  0
  150.8324  138.5856  155.0163 H   0  0  0  0  0  0  0  0  0  0  0  0
  151.4895  139.7041  153.8468 H   0  0  0  0  0  0  0  0  0  0  0  0
  152.5256  139.9892  156.1208 H   0  0  0  0  0  0  0  0  0  0  0  0
  151.7494  141.4477  155.5500 H   0  0  0  0  0  0  0  0  0  0  0  0
  150.6161  139.4589  157.5621 H   0  0  0  0  0  0  0  0  0  0  0  0
  151.1191  141.0972  157.8890 H   0  0  0  0  0  0  0  0  0  0  0  0
  149.3168  142.0026  156.4749 H   0  0  0  0  0  0  0  0  0  0  0  0
  148.6683  140.9911  157.7141 H   0  0  0  0  0  0  0  0  0  0  0  0
  1  2  1  0  0  0  0
  1 30  1  0  0  0  0
  1 31  1  0  0  0  0
  1 32  1  0  0  0  0
  2  3  1  0  0  0  0
  2  4  1  0  0  0  0
  2 33  1  0  0  0  0
  3 34  1  0  0  0  0
  3 35  1  0  0  0  0
  3 36  1  0  0  0  0
  4 24  1  0  0  0  0
  4  5  1  0  0  0  0
  4 37  1  0  0  0  0
  5  6  1  0  0  0  0
  5 23  1  0  0  0  0
  6 11  1  0  0  0  0
  6  7  2  0  0  0  0
  7  8  1  0  0  0  0
  8  9  2  0  0  0  0
  8 38  1  0  0  0  0
  9 10  1  0  0  0  0
 10 14  1  0  0  0  0
 10 11  2  0  0  0  0
 11 12  1  0  0  0  0
 12 13  2  0  0  0  0
 13 14  1  0  0  0  0
 13 39  1  0  0  0  0
 14 15  1  0  0  0  0
 15 22  1  0  0  0  0
 15 16  1  0  0  0  0
 15 40  1  0  0  0  0
 16 17  1  0  0  0  0
 16 41  1  0  0  0  0
 16 42  1  0  0  0  0
 17 18  1  0  0  0  0
 17 20  1  0  0  0  0
 17 22  1  0  0  0  0
 18 19  1  0  0  0  0
 18 43  1  0  0  0  0
 18 44  1  0  0  0  0
 19 45  1  0  0  0  0
 20 21  1  0  0  0  0
 20 46  1  0  0  0  0
 20 47  1  0  0  0  0
 21 48  1  0  0  0  0
 22 49  1  0  0  0  0
 22 50  1  0  0  0  0
 23 24  1  0  0  0  0
 23 51  1  0  0  0  0
 23 52  1  0  0  0  0
 24 29  1  0  0  0  0
 24 25  1  0  0  0  0
 25 26  1  0  0  0  0
 25 53  1  0  0  0  0
 25 54  1  0  0  0  0
 26 27  1  0  0  0  0
 26 55  1  0  0  0  0
 26 56  1  0  0  0  0
 27 28  1  0  0  0  0
 27 57  1  0  0  0  0
 27 58  1  0  0  0  0
 28 29  1  0  0  0  0
 28 59  1  0  0  0  0
 28 60  1  0  0  0  0
 29 61  1  0  0  0  0
 29 62  1  0  0  0  0
M  END
> <s_m_source_file>
AV-unprocessed.smi

> <i_m_source_file_index>
168

> <i_lp_mmshare_version>
43012

> <i_f3d_flags>
0

> <s_epik_input>
W0NIMl0xW0NIMl1bQ0gyXVtDSDJdW0NIMl1DMTJbQ0BIXShbQ0hdKFtDSDNdKVtDSDNdKU4oW0NIMl0yKWMobltjSF1uMyljKGMzNCluW2NIXW40W0NIXShbQ0gyXTUpW0NIMl1DNShbQ0gyXVtPSF0pW0NIMl1bT0hd

> <s_epik_cmdline>
J2VwaWtfcHl0aG9uJywgJy1waCcsICc3LjAnLCAnLXRuJywgJzgnLCAnLW1hJywgJzIwMCcsICctbWV0YWxfYmluZGluZycsICctaW1hZScsICc8aW5maWxlLm1hZT4nLCAnLW9tYWUnLCAnPG91dGZpbGUubWFlPic=

> <r_lp_tautomer_probability>
1

> <r_epik_Ionization_Penalty>
0.00324652

> <r_epik_Ionization_Penalty_Charging>
0

> <r_epik_Ionization_Penalty_Neutral>
0.00324652

> <r_epik_State_Penalty>
0.00223464

> <r_epik_Charging_Adjusted_Penalty>
0.00223464

> <i_epik_Tot_Q>
0

> <i_epik_Tot_abs_Q>
0

> <r_epik_Metal_State_Penalty>
-0

> <b_epik_Metal_Only>
0

> <s_lp_Force_Field>
OPLS_2005

> <r_lp_Energy>
69.202

> <b_lp_Chiralities_Consistent>
1

> <s_lp_Variant>
AV-unprocessed.smi:168-2

> <Gold.Version>
5.8.1

> <Gold.Id.Protein>
6NUR|6NUR_protein|mol2

> <Gold.PLP.Fitness>
49.5868

> <Gold.PLP.PLP>
-40.1382

> <Gold.PLP.part.hbond>
-4.0000

> <Gold.PLP.part.metal>
0.0000

> <Gold.PLP.part.buried>
-4.6472

> <Gold.PLP.part.nonpolar>
-32.9576

> <Gold.PLP.part.repulsive>
1.9832

> <Gold.PLP.ligand.clash>
0.0000

> <Gold.PLP.ligand.torsion>
1.2545

> <Gold.PLP.Chemscore.Hbond>
2.9825

> <Gold.PLP.Chemscore.CHOScore>
0.7406

> <Gold.PLP.Chemscore.Metal>
0.0000

> <Gold.Chemscore.Hbonds>
donor molecule, donor type, donor heavy atom, donor atom, acceptor molecule, acceptor atom, score
      L1  H    19    45       P1 10747  1.00
      L1  H    21    48       P1 10186  0.96
      P1  H 10785 10796       L1    21  0.98
      L1  C     8    38       P1  7957  0.66

> <Gold.PLP.Chemscore.Internal.Correction>
0.7883

> <Gold.Rescore>
     Score         DG    S(hbond)    S(metal)    S(lipo)     H(rot)  DE(clash)    DE(int)     intcor
     13.92     -16.03       2.56        0.00      85.30       3.12       0.93       1.17       ----

> <Gold.Chemscore.Fitness>
13.9239

> <Gold.Chemscore.DG>
-16.0265

> <Gold.Chemscore.ZeroCoef>
-5.4800

> <Gold.Chemscore.Hbond>
2.5593

> <Gold.Chemscore.Metal>
0.0000

> <Gold.Chemscore.Lipo>
85.3043

> <Gold.Chemscore.Internal_Hbond>
0.0000

> <Gold.Chemscore.DEClash>
0.9300

> <Gold.Chemscore.DEInternal>
1.1726

> <Gold.Chemscore.Rot>
3.1181

> <Gold.Chemscore.Internal.Correction>
   9.000000E+99

> <Gold.Chemscore.Hbonds>
donor molecule, donor type, donor heavy atom, donor atom, acceptor molecule, acceptor atom, score
      L1  H    19    45       P1 10747  1.00
      L1  H    21    48       P1 10186  0.91
      P1  H 10785 10796       L1    21  0.59

> <Gold.Chemscore.Hbond.Weighted>
-8.5482

> <Gold.Chemscore.Metal.Weighted>
-0.0000

> <Gold.Chemscore.Lipo.Weighted>
-9.9806

> <Gold.Chemscore.Internal_Hbond.Weighted>
0.0000

> <Gold.Chemscore.DEClash.Weighted>
0.9300

> <Gold.Chemscore.DEInternal.Weighted>
1.1726

> <Gold.Chemscore.Rot.Weighted>
7.9823

> <Gold.Chemscore.Internal.Correction.Weighted>
   9.000000E+99

> <Gold.Protein.RotatedTorsions>
[ 6907 6896 6895 6894 ] final  -27.34 input  -60.11 | X-H torsion
[ 7974 7965 7964 7962 ] final    9.50 input  175.53 | X-H torsion
[ 8008 7997 7996 7995 ] final  -26.24 input   59.86 | X-H torsion
[ 10167 10162 10161 10158 ] final   65.55 input  -65.29 | X-H torsion
[ 10718 10713 10712 10709 ] final  -48.40 input   66.30 | X-H torsion
[ 10763 10752 10751 10750 ] final   68.01 input  -60.55 | X-H torsion
[ 11005 11000 10999 10996 ] final   37.36 input  -57.11 | X-H torsion

> <Gold.Protein.ActiveResidues>
 VAL166  LYS551  ARG553  GLY616  TRP617  ASP618  TYR619  PRO620  LYS621  CYS622 
 ASP623  PHE694  ASN695  SER759  ASP760  ASP761  ALA762  ILE779  LEU786  VAL792 
 PHE793  MET794  SER795  GLU796  ALA797  LYS798  CYS799  TRP800  GLU811  SER814 

> <Gold.Protein.RotatedAtoms>
  151.1483  135.0214  159.8656 H   0  0  0  0  0  0  0  0  0  0  0  0  # atno 6907 bound_to 6896
  152.5453  134.1418  159.8492 H   0  0  0  0  0  0  0  0  0  0  0  0  # atno 6908 bound_to 6896
  151.1501  133.4867  159.2628 H   0  0  0  0  0  0  0  0  0  0  0  0  # atno 6909 bound_to 6896
  146.2402  139.9774  142.8440 H   0  0  0  0  0  0  0  0  0  0  0  0  # atno 7974 bound_to 7965
  154.4435  140.1905  156.0744 H   0  0  0  0  0  0  0  0  0  0  0  0  # atno 8008 bound_to 7997
  156.0486  140.3311  155.7299 H   0  0  0  0  0  0  0  0  0  0  0  0  # atno 8009 bound_to 7997
  155.5591  140.0602  157.2824 H   0  0  0  0  0  0  0  0  0  0  0  0  # atno 8010 bound_to 7997
  140.1101  144.4826  150.6983 H   0  0  0  0  0  0  0  0  0  0  0  0  # atno 10167 bound_to 10162
  156.1991  130.4155  149.9265 H   0  0  0  0  0  0  0  0  0  0  0  0  # atno 10718 bound_to 10713
  153.0214  135.5263  154.7068 H   0  0  0  0  0  0  0  0  0  0  0  0  # atno 10763 bound_to 10752
  154.6162  135.2884  155.0380 H   0  0  0  0  0  0  0  0  0  0  0  0  # atno 10764 bound_to 10752
  154.1383  135.6582  153.4989 H   0  0  0  0  0  0  0  0  0  0  0  0  # atno 10765 bound_to 10752
  140.2233  134.3614  155.7995 H   0  0  0  0  0  0  0  0  0  0  0  0  # atno 11005 bound_to 11000
  145.1624  140.9679  143.4369 LP  0  0  0  0  0  0  0  0  0  0  0  0  # atno 17320 bound_to 7965
  145.0104  139.3515  143.6123 LP  0  0  0  0  0  0  0  0  0  0  0  0  # atno 17321 bound_to 7965
  140.6930  143.2387  151.5077 LP  0  0  0  0  0  0  0  0  0  0  0  0  # atno 17342 bound_to 10162
  139.5624  144.2124  152.1712 LP  0  0  0  0  0  0  0  0  0  0  0  0  # atno 17343 bound_to 10162
  156.6980  130.8922  151.3596 LP  0  0  0  0  0  0  0  0  0  0  0  0  # atno 17370 bound_to 10713
  157.6975  130.9297  150.0688 LP  0  0  0  0  0  0  0  0  0  0  0  0  # atno 17371 bound_to 10713
  141.2222  133.7205  156.8612 LP  0  0  0  0  0  0  0  0  0  0  0  0  # atno 17394 bound_to 11000
  140.1826  134.9022  157.2967 LP  0  0  0  0  0  0  0  0  0  0  0  0  # atno 17395 bound_to 11000

$$$$
