AV-unprocessed.smi:1151|AV-procd|sdf|4896|dock8
  -GOLD-   22720 3473D 1   1.00000     0.00000
 Structure written by MMmdl.
 35 36  0  0  0  0  0  0  0  0  1 V2000
  152.9731  142.7350  161.0000 C   0  0  0  0  0  0  0  0  0  0  0  0
  152.2869  143.1572  159.7462 C   0  0  0  0  0  0  0  0  0  0  0  0
  151.8763  142.3022  158.8059 N   0  0  0  0  0  0  0  0  0  0  0  0
  151.2608  142.9443  157.7269 C   0  0  0  0  0  0  0  0  0  0  0  0
  150.7470  142.1408  156.5671 C   0  0  0  0  0  0  0  0  0  0  0  0
  150.4736  140.6630  156.9148 C   0  0  0  0  0  0  0  0  0  0  0  0
  149.4988  140.0407  156.0235 N   0  0  0  0  0  0  0  0  0  0  0  0
  149.7822  139.4809  154.8377 C   0  0  0  0  0  0  0  0  0  0  0  0
  150.9113  139.4771  154.3464 O   0  0  0  0  0  0  0  0  0  0  0  0
  148.6138  138.8082  154.1054 C   0  0  1  0  0  0  0  0  0  0  0  0
  148.0554  137.6225  154.9098 C   0  0  0  0  0  0  0  0  0  0  0  0
  146.9198  136.9233  154.1453 C   0  0  0  0  0  0  0  0  0  0  0  0
  145.8955  137.8987  153.5462 C   0  0  0  0  0  0  0  0  0  0  0  0
  144.7943  137.4795  153.1976 O   0  0  0  0  0  0  0  0  0  0  0  0
  146.2403  139.1879  153.3819 N   0  0  0  0  0  0  0  0  0  0  0  0
  147.4808  139.8194  153.8319 C   0  0  0  0  0  0  0  0  0  0  0  0
  151.2119  144.3093  157.8657 C   0  0  0  0  0  0  0  0  0  0  0  0
  151.9443  144.8380  159.3546 S   0  0  0  0  0  0  0  0  0  0  0  0
  152.7531  141.6905  161.2232 H   0  0  0  0  0  0  0  0  0  0  0  0
  152.6360  143.3477  161.8361 H   0  0  0  0  0  0  0  0  0  0  0  0
  154.0514  142.8515  160.8915 H   0  0  0  0  0  0  0  0  0  0  0  0
  149.8331  142.5902  156.1775 H   0  0  0  0  0  0  0  0  0  0  0  0
  151.4637  142.1873  155.7464 H   0  0  0  0  0  0  0  0  0  0  0  0
  151.3997  140.0945  156.8257 H   0  0  0  0  0  0  0  0  0  0  0  0
  150.1516  140.5677  157.9530 H   0  0  0  0  0  0  0  0  0  0  0  0
  148.5447  140.0000  156.3513 H   0  0  0  0  0  0  0  0  0  0  0  0
  148.9754  138.4275  153.1481 H   0  0  0  0  0  0  0  0  0  0  0  0
  148.8469  136.9025  155.1226 H   0  0  0  0  0  0  0  0  0  0  0  0
  147.6813  137.9637  155.8768 H   0  0  0  0  0  0  0  0  0  0  0  0
  147.3389  136.3407  153.3243 H   0  0  0  0  0  0  0  0  0  0  0  0
  146.4095  136.2162  154.8002 H   0  0  0  0  0  0  0  0  0  0  0  0
  145.5578  139.7968  152.9539 H   0  0  0  0  0  0  0  0  0  0  0  0
  147.2478  140.3915  154.7314 H   0  0  0  0  0  0  0  0  0  0  0  0
  147.7966  140.5410  153.0777 H   0  0  0  0  0  0  0  0  0  0  0  0
  150.7980  145.0330  157.1791 H   0  0  0  0  0  0  0  0  0  0  0  0
  1  2  1  0  0  0  0
  1 19  1  0  0  0  0
  1 20  1  0  0  0  0
  1 21  1  0  0  0  0
  2 18  1  0  0  0  0
  2  3  2  0  0  0  0
  3  4  1  0  0  0  0
  4  5  1  0  0  0  0
  4 17  2  0  0  0  0
  5  6  1  0  0  0  0
  5 22  1  0  0  0  0
  5 23  1  0  0  0  0
  6  7  1  0  0  0  0
  6 24  1  0  0  0  0
  6 25  1  0  0  0  0
  7  8  1  0  0  0  0
  7 26  1  0  0  0  0
  8  9  2  0  0  0  0
  8 10  1  0  0  0  0
 10 16  1  0  0  0  0
 10 11  1  0  0  0  0
 10 27  1  0  0  0  0
 11 12  1  0  0  0  0
 11 28  1  0  0  0  0
 11 29  1  0  0  0  0
 12 13  1  0  0  0  0
 12 30  1  0  0  0  0
 12 31  1  0  0  0  0
 13 14  2  0  0  0  0
 13 15  1  0  0  0  0
 15 16  1  0  0  0  0
 15 32  1  0  0  0  0
 16 33  1  0  0  0  0
 16 34  1  0  0  0  0
 17 18  1  0  0  0  0
 17 35  1  0  0  0  0
M  END
> <s_m_source_file>
AV-unprocessed.smi

> <i_m_source_file_index>
1151

> <i_lp_mmshare_version>
43012

> <i_f3d_flags>
0

> <s_epik_input>
W0NIM11jMW5jKFtjSF1zMSlbQ0gyXVtDSDJdW05IXUMoPU8pW0NAQEhdMltDSDJdW0NIMl1DKD1PKVtOSF1bQ0gyXTI=

> <s_epik_cmdline>
J2VwaWtfcHl0aG9uJywgJy1waCcsICc3LjAnLCAnLXRuJywgJzgnLCAnLW1hJywgJzIwMCcsICctbWV0YWxfYmluZGluZycsICctaW1hZScsICc8aW5maWxlLm1hZT4nLCAnLW9tYWUnLCAnPG91dGZpbGUubWFlPic=

> <r_epik_Ionization_Penalty>
0.00105008

> <r_epik_Ionization_Penalty_Charging>
0

> <r_epik_Ionization_Penalty_Neutral>
0.00105008

> <r_epik_State_Penalty>
0.000686749

> <r_epik_Charging_Adjusted_Penalty>
0.000686749

> <i_epik_Tot_Q>
0

> <i_epik_Tot_abs_Q>
0

> <r_epik_Metal_State_Penalty>
-0

> <b_epik_Metal_Only>
0

> <s_lp_Force_Field>
OPLS_2005

> <r_lp_Energy>
7.51238

> <b_lp_Chiralities_Consistent>
1

> <s_lp_Variant>
AV-unprocessed.smi:1151-2

> <Gold.Version>
5.8.1

> <Gold.Id.Protein>
6NUR|6NUR_protein|mol2

> <Gold.PLP.Fitness>
40.1234

> <Gold.PLP.PLP>
-32.6945

> <Gold.PLP.part.hbond>
-2.0000

> <Gold.PLP.part.metal>
0.0000

> <Gold.PLP.part.buried>
-4.5563

> <Gold.PLP.part.nonpolar>
-28.0534

> <Gold.PLP.part.repulsive>
0.7469

> <Gold.PLP.ligand.clash>
0.0000

> <Gold.PLP.ligand.torsion>
0.6269

> <Gold.PLP.Chemscore.Hbond>
1.9913

> <Gold.PLP.Chemscore.CHOScore>
0.9003

> <Gold.PLP.Chemscore.Metal>
0.0000

> <Gold.Chemscore.Hbonds>
donor molecule, donor type, donor heavy atom, donor atom, acceptor molecule, acceptor atom, score
      L1  H    15    32       P1 10175  0.94
      P1  H  7989  7998       L1     9  1.00
      L1  C    17    35       P1  8028  0.97

> <Gold.PLP.Chemscore.Internal.Correction>
0.0081

> <Gold.Rescore>
     Score         DG    S(hbond)    S(metal)    S(lipo)     H(rot)  DE(clash)    DE(int)     intcor
     17.51     -18.31       1.98        0.00      90.42       1.70       0.17       0.64       ----

> <Gold.Chemscore.Fitness>
17.5054

> <Gold.Chemscore.DG>
-18.3122

> <Gold.Chemscore.ZeroCoef>
-5.4800

> <Gold.Chemscore.Hbond>
1.9758

> <Gold.Chemscore.Metal>
0.0000

> <Gold.Chemscore.Lipo>
90.4210

> <Gold.Chemscore.Internal_Hbond>
0.0000

> <Gold.Chemscore.DEClash>
0.1705

> <Gold.Chemscore.DEInternal>
0.6364

> <Gold.Chemscore.Rot>
1.6978

> <Gold.Chemscore.Internal.Correction>
   9.000000E+99

> <Gold.Chemscore.Hbonds>
donor molecule, donor type, donor heavy atom, donor atom, acceptor molecule, acceptor atom, score
      L1  H    15    32       P1 10175  0.89
      P1  H  7989  7998       L1     9  1.00

> <Gold.Chemscore.Hbond.Weighted>
-6.5993

> <Gold.Chemscore.Metal.Weighted>
-0.0000

> <Gold.Chemscore.Lipo.Weighted>
-10.5793

> <Gold.Chemscore.Internal_Hbond.Weighted>
0.0000

> <Gold.Chemscore.DEClash.Weighted>
0.1705

> <Gold.Chemscore.DEInternal.Weighted>
0.6364

> <Gold.Chemscore.Rot.Weighted>
4.3463

> <Gold.Chemscore.Internal.Correction.Weighted>
   9.000000E+99

> <Gold.Protein.RotatedTorsions>
[ 6907 6896 6895 6894 ] final -130.39 input  -60.11 | X-H torsion
[ 7974 7965 7964 7962 ] final -134.71 input  175.53 | X-H torsion
[ 8008 7997 7996 7995 ] final   94.63 input   59.86 | X-H torsion
[ 10167 10162 10161 10158 ] final   43.41 input  -65.29 | X-H torsion
[ 10718 10713 10712 10709 ] final   72.35 input   66.30 | X-H torsion
[ 10763 10752 10751 10750 ] final    1.62 input  -60.55 | X-H torsion
[ 11005 11000 10999 10996 ] final  113.92 input  -57.11 | X-H torsion

> <Gold.Protein.ActiveResidues>
 VAL166  LYS551  ARG553  GLY616  TRP617  ASP618  TYR619  PRO620  LYS621  CYS622 
 ASP623  PHE694  ASN695  SER759  ASP760  ASP761  ALA762  ILE779  LEU786  VAL792 
 PHE793  MET794  SER795  GLU796  ALA797  LYS798  CYS799  TRP800  GLU811  SER814 

> <Gold.Protein.RotatedAtoms>
  150.9392  133.6676  159.2794 H   0  0  0  0  0  0  0  0  0  0  0  0  # atno 6907 bound_to 6896
  151.4071  135.0978  159.9583 H   0  0  0  0  0  0  0  0  0  0  0  0  # atno 6908 bound_to 6896
  152.5062  133.8873  159.7431 H   0  0  0  0  0  0  0  0  0  0  0  0  # atno 6909 bound_to 6896
  144.9079  140.6856  143.5044 H   0  0  0  0  0  0  0  0  0  0  0  0  # atno 7974 bound_to 7965
  156.0601  140.3297  155.7451 H   0  0  0  0  0  0  0  0  0  0  0  0  # atno 8008 bound_to 7997
  155.5469  140.0606  157.2876 H   0  0  0  0  0  0  0  0  0  0  0  0  # atno 8009 bound_to 7997
  154.4477  140.1901  156.0635 H   0  0  0  0  0  0  0  0  0  0  0  0  # atno 8010 bound_to 7997
  140.3446  144.2427  150.6152 H   0  0  0  0  0  0  0  0  0  0  0  0  # atno 10167 bound_to 10162
  157.6497  130.9574  150.0917 H   0  0  0  0  0  0  0  0  0  0  0  0  # atno 10718 bound_to 10713
  153.3057  135.6959  153.7161 H   0  0  0  0  0  0  0  0  0  0  0  0  # atno 10763 bound_to 10752
  153.6058  135.3453  155.2962 H   0  0  0  0  0  0  0  0  0  0  0  0  # atno 10764 bound_to 10752
  154.8562  135.4351  154.2181 H   0  0  0  0  0  0  0  0  0  0  0  0  # atno 10765 bound_to 10752
  139.8966  134.9559  156.6813 H   0  0  0  0  0  0  0  0  0  0  0  0  # atno 11005 bound_to 11000
  145.3505  139.1707  143.4437 LP  0  0  0  0  0  0  0  0  0  0  0  0  # atno 17320 bound_to 7965
  146.3143  140.3556  142.8660 LP  0  0  0  0  0  0  0  0  0  0  0  0  # atno 17321 bound_to 7965
  140.5276  143.2250  151.8289 LP  0  0  0  0  0  0  0  0  0  0  0  0  # atno 17342 bound_to 10162
  139.4835  144.4760  151.9367 LP  0  0  0  0  0  0  0  0  0  0  0  0  # atno 17343 bound_to 10162
  156.1864  130.3652  149.8967 LP  0  0  0  0  0  0  0  0  0  0  0  0  # atno 17370 bound_to 10713
  156.6906  130.8894  151.3588 LP  0  0  0  0  0  0  0  0  0  0  0  0  # atno 17371 bound_to 10713
  140.7297  133.9070  155.8203 LP  0  0  0  0  0  0  0  0  0  0  0  0  # atno 17394 bound_to 11000
  141.0163  134.0951  157.4168 LP  0  0  0  0  0  0  0  0  0  0  0  0  # atno 17395 bound_to 11000

$$$$
