AV-unprocessed.smi:673|AV-procd|sdf|3297|dock2
  -GOLD-   22720 0253D 1   1.00000     0.00000
 Structure written by MMmdl.
 45 46  0  0  0  0  0  0  0  0  1 V2000
  149.8656  144.3810  158.1703 C   0  0  0  0  0  0  0  0  0  0  0  0
  150.1394  142.8699  158.2348 C   0  0  2  0  0  0  0  0  0  0  0  0
  151.6065  142.5797  158.6054 C   0  0  0  0  0  0  0  0  0  0  0  0
  151.9246  142.9905  159.9615 N   0  0  0  0  0  0  0  0  0  0  0  0
  152.4348  142.2980  160.9809 C   0  0  0  0  0  0  0  0  0  0  0  0
  152.6041  143.0150  162.0832 N   0  0  0  0  0  0  0  0  0  0  0  0
  152.1457  144.2242  161.6420 C   0  0  0  0  0  0  0  0  0  0  0  0
  151.7259  144.2638  160.3775 N   0  0  0  0  0  0  0  0  0  0  0  0
  149.8187  142.2441  156.9549 N   0  0  0  0  0  0  0  0  0  0  0  0
  149.6617  140.9274  156.7367 C   0  0  0  0  0  0  0  0  0  0  0  0
  149.7184  140.0975  157.6454 O   0  0  0  0  0  0  0  0  0  0  0  0
  149.4029  140.6014  155.4449 N   0  0  0  0  0  0  0  0  0  0  0  0
  149.2554  141.5624  154.3433 C   0  0  0  0  0  0  0  0  0  0  0  0
  147.8127  142.0934  154.2257 C   0  0  0  0  0  0  0  0  0  0  0  0
  146.6806  141.1912  154.7778 C   0  0  0  0  0  0  0  0  0  0  0  0
  146.6573  139.6918  154.3604 C   0  0  0  0  0  0  0  0  0  0  0  0
  145.2545  139.1443  154.6996 C   0  0  0  0  0  0  0  0  0  0  0  0
  146.8599  139.5184  152.8399 C   0  0  0  0  0  0  0  0  0  0  0  0
  147.6775  138.8411  155.1729 C   0  0  0  0  0  0  0  0  0  0  0  0
  149.1663  139.2132  155.0343 C   0  0  0  0  0  0  0  0  0  0  0  0
  150.1007  144.8620  159.1199 H   0  0  0  0  0  0  0  0  0  0  0  0
  148.8172  144.5859  157.9520 H   0  0  0  0  0  0  0  0  0  0  0  0
  150.4662  144.8606  157.3966 H   0  0  0  0  0  0  0  0  0  0  0  0
  149.5027  142.4385  159.0096 H   0  0  0  0  0  0  0  0  0  0  0  0
  151.8287  141.5169  158.4931 H   0  0  0  0  0  0  0  0  0  0  0  0
  152.2768  143.1108  157.9284 H   0  0  0  0  0  0  0  0  0  0  0  0
  152.6922  141.2510  160.9136 H   0  0  0  0  0  0  0  0  0  0  0  0
  152.1210  145.1019  162.2711 H   0  0  0  0  0  0  0  0  0  0  0  0
  149.7399  142.8607  156.1589 H   0  0  0  0  0  0  0  0  0  0  0  0
  149.9559  142.3937  154.4400 H   0  0  0  0  0  0  0  0  0  0  0  0
  149.5425  141.0973  153.4005 H   0  0  0  0  0  0  0  0  0  0  0  0
  147.7549  143.0475  154.7508 H   0  0  0  0  0  0  0  0  0  0  0  0
  147.6135  142.3309  153.1803 H   0  0  0  0  0  0  0  0  0  0  0  0
  146.6814  141.2514  155.8672 H   0  0  0  0  0  0  0  0  0  0  0  0
  145.7414  141.6569  154.4764 H   0  0  0  0  0  0  0  0  0  0  0  0
  145.1679  138.0848  154.4552 H   0  0  0  0  0  0  0  0  0  0  0  0
  144.4743  139.6678  154.1456 H   0  0  0  0  0  0  0  0  0  0  0  0
  145.0291  139.2541  155.7612 H   0  0  0  0  0  0  0  0  0  0  0  0
  146.7609  138.4728  152.5464 H   0  0  0  0  0  0  0  0  0  0  0  0
  147.8412  139.8503  152.5070 H   0  0  0  0  0  0  0  0  0  0  0  0
  146.1190  140.0868  152.2770 H   0  0  0  0  0  0  0  0  0  0  0  0
  147.4140  138.8842  156.2308 H   0  0  0  0  0  0  0  0  0  0  0  0
  147.5680  137.7923  154.8940 H   0  0  0  0  0  0  0  0  0  0  0  0
  149.5026  139.0375  154.0125 H   0  0  0  0  0  0  0  0  0  0  0  0
  149.7668  138.5289  155.6359 H   0  0  0  0  0  0  0  0  0  0  0  0
  1  2  1  0  0  0  0
  1 21  1  0  0  0  0
  1 22  1  0  0  0  0
  1 23  1  0  0  0  0
  2  3  1  0  0  0  0
  2  9  1  0  0  0  0
  2 24  1  0  0  0  0
  3  4  1  0  0  0  0
  3 25  1  0  0  0  0
  3 26  1  0  0  0  0
  4  8  1  0  0  0  0
  4  5  1  0  0  0  0
  5  6  2  0  0  0  0
  5 27  1  0  0  0  0
  6  7  1  0  0  0  0
  7  8  2  0  0  0  0
  7 28  1  0  0  0  0
  9 10  1  0  0  0  0
  9 29  1  0  0  0  0
 10 11  2  0  0  0  0
 10 12  1  0  0  0  0
 12 20  1  0  0  0  0
 12 13  1  0  0  0  0
 13 14  1  0  0  0  0
 13 30  1  0  0  0  0
 13 31  1  0  0  0  0
 14 15  1  0  0  0  0
 14 32  1  0  0  0  0
 14 33  1  0  0  0  0
 15 16  1  0  0  0  0
 15 34  1  0  0  0  0
 15 35  1  0  0  0  0
 16 17  1  0  0  0  0
 16 18  1  0  0  0  0
 16 19  1  0  0  0  0
 17 36  1  0  0  0  0
 17 37  1  0  0  0  0
 17 38  1  0  0  0  0
 18 39  1  0  0  0  0
 18 40  1  0  0  0  0
 18 41  1  0  0  0  0
 19 20  1  0  0  0  0
 19 42  1  0  0  0  0
 19 43  1  0  0  0  0
 20 44  1  0  0  0  0
 20 45  1  0  0  0  0
M  END
> <s_m_source_file>
AV-unprocessed.smi

> <i_m_source_file_index>
673

> <i_lp_mmshare_version>
43012

> <i_f3d_flags>
0

> <s_epik_input>
bjFbY0hdbltjSF1uMVtDSDJdW0NAQEhdKFtDSDNdKVtOSF1DKD1PKU4oW0NIMl1bQ0gyXTIpW0NIMl1bQ0gyXVtDSDJdQzIoW0NIM10pW0NIM10=

> <s_epik_cmdline>
J2VwaWtfcHl0aG9uJywgJy1waCcsICc3LjAnLCAnLXRuJywgJzgnLCAnLW1hJywgJzIwMCcsICctbWV0YWxfYmluZGluZycsICctaW1hZScsICc8aW5maWxlLm1hZT4nLCAnLW9tYWUnLCAnPG91dGZpbGUubWFlPic=

> <r_lp_tautomer_probability>
1

> <r_epik_Ionization_Penalty>
0.000118908

> <r_epik_Ionization_Penalty_Charging>
0

> <r_epik_Ionization_Penalty_Neutral>
0.000118908

> <r_epik_State_Penalty>
-0

> <r_epik_Charging_Adjusted_Penalty>
0

> <i_epik_Tot_Q>
0

> <i_epik_Tot_abs_Q>
0

> <r_epik_Metal_State_Penalty>
-0

> <b_epik_Metal_Only>
0

> <s_lp_Force_Field>
OPLS_2005

> <r_lp_Energy>
35.7371

> <b_lp_Chiralities_Consistent>
1

> <s_lp_Variant>
AV-unprocessed.smi:673-1

> <Gold.Version>
5.8.1

> <Gold.Id.Protein>
6NUR|6NUR_protein|mol2

> <Gold.PLP.Fitness>
35.2859

> <Gold.PLP.PLP>
-32.8698

> <Gold.PLP.part.hbond>
-1.0000

> <Gold.PLP.part.metal>
0.0000

> <Gold.PLP.part.buried>
4.6193

> <Gold.PLP.part.nonpolar>
-35.4870

> <Gold.PLP.part.repulsive>
0.1169

> <Gold.PLP.ligand.clash>
0.0000

> <Gold.PLP.ligand.torsion>
0.2166

> <Gold.PLP.Chemscore.Hbond>
0.9425

> <Gold.PLP.Chemscore.CHOScore>
0.0000

> <Gold.PLP.Chemscore.Metal>
0.0000

> <Gold.Chemscore.Hbonds>
donor molecule, donor type, donor heavy atom, donor atom, acceptor molecule, acceptor atom, score
      L1  H     9    29       P1  8028  0.64

> <Gold.PLP.Chemscore.Internal.Correction>
0.0218

> <Gold.Rescore>
     Score         DG    S(hbond)    S(metal)    S(lipo)     H(rot)  DE(clash)    DE(int)     intcor
      8.60     -10.21       0.69        0.00      61.60       1.86       0.43       1.19       ----

> <Gold.Chemscore.Fitness>
8.5959

> <Gold.Chemscore.DG>
-10.2135

> <Gold.Chemscore.ZeroCoef>
-5.4800

> <Gold.Chemscore.Hbond>
0.6863

> <Gold.Chemscore.Metal>
0.0000

> <Gold.Chemscore.Lipo>
61.5961

> <Gold.Chemscore.Internal_Hbond>
0.0000

> <Gold.Chemscore.DEClash>
0.4284

> <Gold.Chemscore.DEInternal>
1.1893

> <Gold.Chemscore.Rot>
1.8614

> <Gold.Chemscore.Internal.Correction>
   9.000000E+99

> <Gold.Chemscore.Hbonds>
donor molecule, donor type, donor heavy atom, donor atom, acceptor molecule, acceptor atom, score
      L1  H     9    29       P1  8028  0.62

> <Gold.Chemscore.Hbond.Weighted>
-2.2921

> <Gold.Chemscore.Metal.Weighted>
-0.0000

> <Gold.Chemscore.Lipo.Weighted>
-7.2067

> <Gold.Chemscore.Internal_Hbond.Weighted>
0.0000

> <Gold.Chemscore.DEClash.Weighted>
0.4284

> <Gold.Chemscore.DEInternal.Weighted>
1.1893

> <Gold.Chemscore.Rot.Weighted>
4.7653

> <Gold.Chemscore.Internal.Correction.Weighted>
   9.000000E+99

> <Gold.Protein.RotatedTorsions>
[ 6907 6896 6895 6894 ] final -104.95 input  -60.11 | X-H torsion
[ 7974 7965 7964 7962 ] final -168.73 input  175.53 | X-H torsion
[ 8008 7997 7996 7995 ] final -167.21 input   59.86 | X-H torsion
[ 10167 10162 10161 10158 ] final   82.70 input  -65.29 | X-H torsion
[ 10718 10713 10712 10709 ] final  -91.05 input   66.30 | X-H torsion
[ 10763 10752 10751 10750 ] final -128.62 input  -60.55 | X-H torsion
[ 11005 11000 10999 10996 ] final -149.70 input  -57.11 | X-H torsion

> <Gold.Protein.ActiveResidues>
 VAL166  LYS551  ARG553  GLY616  TRP617  ASP618  TYR619  PRO620  LYS621  CYS622 
 ASP623  PHE694  ASN695  SER759  ASP760  ASP761  ALA762  ILE779  LEU786  VAL792 
 PHE793  MET794  SER795  GLU796  ALA797  LYS798  CYS799  TRP800  GLU811  SER814 

> <Gold.Protein.RotatedAtoms>
  150.7312  134.0200  159.3697 H   0  0  0  0  0  0  0  0  0  0  0  0  # atno 6907 bound_to 6896
  151.8164  135.0663  160.0429 H   0  0  0  0  0  0  0  0  0  0  0  0  # atno 6908 bound_to 6896
  152.3035  133.5643  159.5670 H   0  0  0  0  0  0  0  0  0  0  0  0  # atno 6909 bound_to 6896
  144.7198  140.2327  143.6302 H   0  0  0  0  0  0  0  0  0  0  0  0  # atno 7974 bound_to 7965
  155.8745  140.0999  157.1527 H   0  0  0  0  0  0  0  0  0  0  0  0  # atno 8008 bound_to 7997
  154.4000  140.1340  156.4183 H   0  0  0  0  0  0  0  0  0  0  0  0  # atno 8009 bound_to 7997
  155.7713  140.3461  155.5250 H   0  0  0  0  0  0  0  0  0  0  0  0  # atno 8010 bound_to 7997
  139.9261  144.6182  150.8391 H   0  0  0  0  0  0  0  0  0  0  0  0  # atno 10167 bound_to 10162
  155.9991  130.4933  150.5415 H   0  0  0  0  0  0  0  0  0  0  0  0  # atno 10718 bound_to 10713
  154.8756  135.3922  154.3786 H   0  0  0  0  0  0  0  0  0  0  0  0  # atno 10763 bound_to 10752
  153.4537  135.7028  153.6098 H   0  0  0  0  0  0  0  0  0  0  0  0  # atno 10764 bound_to 10752
  153.4627  135.3808  155.2316 H   0  0  0  0  0  0  0  0  0  0  0  0  # atno 10765 bound_to 10752
  140.7480  134.3439  157.5132 H   0  0  0  0  0  0  0  0  0  0  0  0  # atno 11005 bound_to 11000
  145.8395  139.2123  143.1835 LP  0  0  0  0  0  0  0  0  0  0  0  0  # atno 17320 bound_to 7965
  146.0359  140.8213  142.9853 LP  0  0  0  0  0  0  0  0  0  0  0  0  # atno 17321 bound_to 7965
  140.7650  143.3263  151.2509 LP  0  0  0  0  0  0  0  0  0  0  0  0  # atno 17342 bound_to 10162
  139.6821  143.9837  152.2814 LP  0  0  0  0  0  0  0  0  0  0  0  0  # atno 17343 bound_to 10162
  157.3351  131.0706  151.1831 LP  0  0  0  0  0  0  0  0  0  0  0  0  # atno 17370 bound_to 10713
  157.2699  130.6699  149.6014 LP  0  0  0  0  0  0  0  0  0  0  0  0  # atno 17371 bound_to 10713
  139.8793  134.9124  156.3058 LP  0  0  0  0  0  0  0  0  0  0  0  0  # atno 17394 bound_to 11000
  140.9777  133.7287  156.0626 LP  0  0  0  0  0  0  0  0  0  0  0  0  # atno 17395 bound_to 11000

$$$$
