AV-unprocessed.smi:766|AV-procd|sdf|3653|dock5
  -GOLD-   22720 1 63D 1   1.00000     0.00000
 Structure written by MMmdl.
 48 50  0  0  0  0  0  0  0  0  3 V2000
  153.2267  143.1728  161.2873 C   0  0  0  0  0  0  0  0  0  0  0  0
  152.5594  142.6449  160.0285 C   0  0  0  0  0  0  0  0  0  0  0  0
  152.5836  141.2532  159.7855 C   0  0  0  0  0  0  0  0  0  0  0  0
  151.9623  140.8005  158.6279 C   0  0  0  0  0  0  0  0  0  0  0  0
  151.8180  139.5104  158.1139 N   0  3  0  0  0  0  0  0  0  0  0  0
  151.1251  139.5624  156.9430 C   0  0  0  0  0  0  0  0  0  0  0  0
  150.8266  140.8678  156.6992 N   0  0  0  0  0  0  0  0  0  0  0  0
  150.0854  141.4656  155.5786 C   0  0  0  0  0  0  0  0  0  0  0  0
  149.2963  140.4265  154.7584 C   0  0  2  0  0  0  0  0  0  0  0  0
  150.1715  139.7573  153.8714 O   0  0  0  0  0  0  0  0  0  0  0  0
  148.1710  141.0784  153.9380 C   0  0  0  0  0  0  0  0  0  0  0  0
  147.7478  140.2076  152.8237 N   0  3  0  0  0  0  0  0  0  0  0  0
  146.7807  139.1601  153.2084 C   0  0  0  0  0  0  0  0  0  0  0  0
  146.3492  138.3155  151.9954 C   0  0  0  0  0  0  0  0  0  0  0  0
  145.3230  137.3328  152.3074 N   0  0  0  0  0  0  0  0  0  0  0  0
  145.3733  135.9654  152.1321 C   0  0  0  0  0  0  0  0  0  0  0  0
  144.1963  135.4506  152.5947 C   0  0  0  0  0  0  0  0  0  0  0  0
  143.4857  136.5932  153.0562 C   0  0  0  0  0  0  0  0  0  0  0  0
  144.1660  137.7162  152.8915 N   0  0  0  0  0  0  0  0  0  0  0  0
  151.3299  141.6780  157.7252 C   0  0  0  0  0  0  0  0  0  0  0  0
  151.3002  143.0528  157.9485 C   0  0  0  0  0  0  0  0  0  0  0  0
  151.9268  143.5334  159.1207 C   0  0  0  0  0  0  0  0  0  0  0  0
  151.9102  145.0285  159.3906 C   0  0  0  0  0  0  0  0  0  0  0  0
  153.6744  142.3669  161.8696 H   0  0  0  0  0  0  0  0  0  0  0  0
  152.4991  143.6781  161.9227 H   0  0  0  0  0  0  0  0  0  0  0  0
  154.0175  143.8797  161.0352 H   0  0  0  0  0  0  0  0  0  0  0  0
  153.0645  140.5713  160.4716 H   0  0  0  0  0  0  0  0  0  0  0  0
  150.8584  138.7188  156.3227 H   0  0  0  0  0  0  0  0  0  0  0  0
  149.3981  142.1960  156.0076 H   0  0  0  0  0  0  0  0  0  0  0  0
  150.7734  142.0311  154.9496 H   0  0  0  0  0  0  0  0  0  0  0  0
  148.8694  139.6889  155.4396 H   0  0  0  0  0  0  0  0  0  0  0  0
  149.7884  139.7653  153.0071 H   0  0  0  0  0  0  0  0  0  0  0  0
  147.3058  141.2614  154.5767 H   0  0  0  0  0  0  0  0  0  0  0  0
  148.4929  142.0468  153.5513 H   0  0  0  0  0  0  0  0  0  0  0  0
  147.3170  140.7884  152.1176 H   0  0  0  0  0  0  0  0  0  0  0  0
  147.2373  138.5126  153.9579 H   0  0  0  0  0  0  0  0  0  0  0  0
  145.9119  139.6209  153.6800 H   0  0  0  0  0  0  0  0  0  0  0  0
  145.9763  138.9656  151.2027 H   0  0  0  0  0  0  0  0  0  0  0  0
  147.2099  137.7855  151.5859 H   0  0  0  0  0  0  0  0  0  0  0  0
  146.2322  135.4765  151.6963 H   0  0  0  0  0  0  0  0  0  0  0  0
  143.8922  134.4144  152.6083 H   0  0  0  0  0  0  0  0  0  0  0  0
  142.5052  136.6391  153.5064 H   0  0  0  0  0  0  0  0  0  0  0  0
  150.8233  143.7323  157.2576 H   0  0  0  0  0  0  0  0  0  0  0  0
  151.3862  145.5708  158.6029 H   0  0  0  0  0  0  0  0  0  0  0  0
  152.9265  145.4194  159.4442 H   0  0  0  0  0  0  0  0  0  0  0  0
  151.4061  145.2418  160.3333 H   0  0  0  0  0  0  0  0  0  0  0  0
  148.5650  139.7678  152.4258 H   0  0  0  0  0  0  0  0  0  0  0  0
  152.1634  138.6554  158.5316 H   0  0  0  0  0  0  0  0  0  0  0  0
  1  2  1  0  0  0  0
  1 24  1  0  0  0  0
  1 25  1  0  0  0  0
  1 26  1  0  0  0  0
  2 22  1  0  0  0  0
  2  3  2  0  0  0  0
  3  4  1  0  0  0  0
  3 27  1  0  0  0  0
  4 20  2  0  0  0  0
  4  5  1  0  0  0  0
  5  6  2  0  0  0  0
  5 48  1  0  0  0  0
  6  7  1  0  0  0  0
  6 28  1  0  0  0  0
  7  8  1  0  0  0  0
  7 20  1  0  0  0  0
  8  9  1  0  0  0  0
  8 29  1  0  0  0  0
  8 30  1  0  0  0  0
  9 10  1  0  0  0  0
  9 11  1  0  0  0  0
  9 31  1  0  0  0  0
 10 32  1  0  0  0  0
 11 12  1  0  0  0  0
 11 33  1  0  0  0  0
 11 34  1  0  0  0  0
 12 13  1  0  0  0  0
 12 35  1  0  0  0  0
 12 47  1  0  0  0  0
 13 14  1  0  0  0  0
 13 36  1  0  0  0  0
 13 37  1  0  0  0  0
 14 15  1  0  0  0  0
 14 38  1  0  0  0  0
 14 39  1  0  0  0  0
 15 19  1  0  0  0  0
 15 16  1  0  0  0  0
 16 17  2  0  0  0  0
 16 40  1  0  0  0  0
 17 18  1  0  0  0  0
 17 41  1  0  0  0  0
 18 19  2  0  0  0  0
 18 42  1  0  0  0  0
 20 21  1  0  0  0  0
 21 22  2  0  0  0  0
 21 43  1  0  0  0  0
 22 23  1  0  0  0  0
 23 44  1  0  0  0  0
 23 45  1  0  0  0  0
 23 46  1  0  0  0  0
M  CHG  1   5   1
M  CHG  1  12   1
M  END
> <s_m_source_file>
AV-unprocessed.smi

> <i_m_source_file_index>
766

> <i_lp_mmshare_version>
43012

> <i_f3d_flags>
0

> <s_epik_input>
W0NIM11jKFtjSF0xKWMoW0NIM10pW2NIXWMoYzEyKW4oW2NIXW4yKVtDSDJdW0NASF0oW09IXSlbQ0gyXVtOSF1bQ0gyXVtDSDJdbjNbY0hdW2NIXVtjSF1uMw==

> <s_epik_cmdline>
J2VwaWtfcHl0aG9uJywgJy1waCcsICc3LjAnLCAnLXRuJywgJzgnLCAnLW1hJywgJzIwMCcsICctbWV0YWxfYmluZGluZycsICctaW1hZScsICc8aW5maWxlLm1hZT4nLCAnLW9tYWUnLCAnPG91dGZpbGUubWFlPic=

> <r_lp_tautomer_probability>
1

> <r_epik_Ionization_Penalty>
1.25103

> <r_epik_Ionization_Penalty_Charging>
1.25102

> <r_epik_Ionization_Penalty_Neutral>
6.05394e-06

> <r_epik_State_Penalty>
1.2613

> <r_epik_Charging_Adjusted_Penalty>
2.51232

> <i_epik_Tot_Q>
2

> <i_epik_Tot_abs_Q>
2

> <r_epik_Metal_State_Penalty>
1.33164

> <b_epik_Metal_Only>
0

> <s_lp_Force_Field>
OPLS_2005

> <r_lp_Energy>
19.7351

> <b_lp_Chiralities_Consistent>
1

> <s_lp_Variant>
AV-unprocessed.smi:766-3

> <Gold.Version>
5.8.1

> <Gold.Id.Protein>
6NUR|6NUR_protein|mol2

> <Gold.PLP.Fitness>
60.7411

> <Gold.PLP.PLP>
-50.7964

> <Gold.PLP.part.hbond>
-2.7821

> <Gold.PLP.part.metal>
0.0000

> <Gold.PLP.part.buried>
-4.4675

> <Gold.PLP.part.nonpolar>
-45.2253

> <Gold.PLP.part.repulsive>
1.3998

> <Gold.PLP.ligand.clash>
0.0000

> <Gold.PLP.ligand.torsion>
0.7136

> <Gold.PLP.Chemscore.Hbond>
2.8320

> <Gold.PLP.Chemscore.CHOScore>
0.8932

> <Gold.PLP.Chemscore.Metal>
0.0000

> <Gold.Chemscore.Hbonds>
donor molecule, donor type, donor heavy atom, donor atom, acceptor molecule, acceptor atom, score
      L1  H    10    32       P1  7957  1.00
      L1  H    12    47       P1  7957  0.74
      P1  H  7989  7998       L1    10  0.77
      L1  C    16    40       P1  7948  0.34

> <Gold.PLP.Chemscore.Internal.Correction>
0.1964

> <Gold.Rescore>
     Score         DG    S(hbond)    S(metal)    S(lipo)     H(rot)  DE(clash)    DE(int)     intcor
     19.55     -20.33       2.42        0.00     124.01       3.02       0.09       0.69       ----

> <Gold.Chemscore.Fitness>
19.5510

> <Gold.Chemscore.DG>
-20.3324

> <Gold.Chemscore.ZeroCoef>
-5.4800

> <Gold.Chemscore.Hbond>
2.4198

> <Gold.Chemscore.Metal>
0.0000

> <Gold.Chemscore.Lipo>
124.0076

> <Gold.Chemscore.Internal_Hbond>
0.0000

> <Gold.Chemscore.DEClash>
0.0901

> <Gold.Chemscore.DEInternal>
0.6913

> <Gold.Chemscore.Rot>
3.0229

> <Gold.Chemscore.Internal.Correction>
   9.000000E+99

> <Gold.Chemscore.Hbonds>
donor molecule, donor type, donor heavy atom, donor atom, acceptor molecule, acceptor atom, score
      L1  H    10    32       P1  7957  1.00
      L1  H    12    47       P1  7957  0.74
      P1  H  7989  7998       L1    10  0.08

> <Gold.Chemscore.Hbond.Weighted>
-8.0821

> <Gold.Chemscore.Metal.Weighted>
-0.0000

> <Gold.Chemscore.Lipo.Weighted>
-14.5089

> <Gold.Chemscore.Internal_Hbond.Weighted>
0.0000

> <Gold.Chemscore.DEClash.Weighted>
0.0901

> <Gold.Chemscore.DEInternal.Weighted>
0.6913

> <Gold.Chemscore.Rot.Weighted>
7.7386

> <Gold.Chemscore.Internal.Correction.Weighted>
   9.000000E+99

> <Gold.Protein.RotatedTorsions>
[ 6907 6896 6895 6894 ] final   -6.39 input  -60.11 | X-H torsion
[ 7974 7965 7964 7962 ] final -129.10 input  175.53 | X-H torsion
[ 8008 7997 7996 7995 ] final  -82.63 input   59.86 | X-H torsion
[ 10167 10162 10161 10158 ] final  134.12 input  -65.29 | X-H torsion
[ 10718 10713 10712 10709 ] final  127.76 input   66.30 | X-H torsion
[ 10763 10752 10751 10750 ] final  -31.14 input  -60.55 | X-H torsion
[ 11005 11000 10999 10996 ] final -164.79 input  -57.11 | X-H torsion

> <Gold.Protein.ActiveResidues>
 VAL166  LYS551  ARG553  GLY616  TRP617  ASP618  TYR619  PRO620  LYS621  CYS622 
 ASP623  PHE694  ASN695  SER759  ASP760  ASP761  ALA762  ILE779  LEU786  VAL792 
 PHE793  MET794  SER795  GLU796  ALA797  LYS798  CYS799  TRP800  GLU811  SER814 

> <Gold.Protein.RotatedAtoms>
  151.4663  135.1042  159.9738 H   0  0  0  0  0  0  0  0  0  0  0  0  # atno 6907 bound_to 6896
  152.4833  133.8306  159.7111 H   0  0  0  0  0  0  0  0  0  0  0  0  # atno 6908 bound_to 6896
  150.8923  133.7167  159.2928 H   0  0  0  0  0  0  0  0  0  0  0  0  # atno 6909 bound_to 6896
  144.9605  140.7442  143.4732 H   0  0  0  0  0  0  0  0  0  0  0  0  # atno 7974 bound_to 7965
  154.6107  140.0630  156.9489 H   0  0  0  0  0  0  0  0  0  0  0  0  # atno 8008 bound_to 7997
  155.1979  140.3312  155.4329 H   0  0  0  0  0  0  0  0  0  0  0  0  # atno 8009 bound_to 7997
  156.2374  140.1870  156.7064 H   0  0  0  0  0  0  0  0  0  0  0  0  # atno 8010 bound_to 7997
  139.5269  144.6583  151.5094 H   0  0  0  0  0  0  0  0  0  0  0  0  # atno 10167 bound_to 10162
  157.5305  131.1098  150.9017 H   0  0  0  0  0  0  0  0  0  0  0  0  # atno 10718 bound_to 10713
  153.7925  135.6896  153.4869 H   0  0  0  0  0  0  0  0  0  0  0  0  # atno 10763 bound_to 10752
  153.1740  135.4531  154.9939 H   0  0  0  0  0  0  0  0  0  0  0  0  # atno 10764 bound_to 10752
  154.8039  135.3349  154.7420 H   0  0  0  0  0  0  0  0  0  0  0  0  # atno 10765 bound_to 10752
  140.5830  134.5122  157.5181 H   0  0  0  0  0  0  0  0  0  0  0  0  # atno 11005 bound_to 11000
  145.2707  139.1956  143.4843 LP  0  0  0  0  0  0  0  0  0  0  0  0  # atno 17320 bound_to 7965
  146.3351  140.2653  142.8603 LP  0  0  0  0  0  0  0  0  0  0  0  0  # atno 17321 bound_to 7965
  140.6419  143.8872  150.6700 LP  0  0  0  0  0  0  0  0  0  0  0  0  # atno 17342 bound_to 10162
  140.2209  143.3809  152.1643 LP  0  0  0  0  0  0  0  0  0  0  0  0  # atno 17343 bound_to 10162
  156.9600  130.5451  149.5285 LP  0  0  0  0  0  0  0  0  0  0  0  0  # atno 17370 bound_to 10713
  156.0419  130.5500  150.8790 LP  0  0  0  0  0  0  0  0  0  0  0  0  # atno 17371 bound_to 10713
  139.9309  134.7966  156.0935 LP  0  0  0  0  0  0  0  0  0  0  0  0  # atno 17394 bound_to 11000
  141.0984  133.6686  156.2698 LP  0  0  0  0  0  0  0  0  0  0  0  0  # atno 17395 bound_to 11000

$$$$
