AV-unprocessed.smi:1815|AV-procd|sdf|7359|dock7
  -GOLD-   22720 9 23D 1   1.00000     0.00000
 Structure written by MMmdl.
 38 39  0  0  0  0  0  0  0  0  2 V2000
  152.1799  139.3091  156.3833 C   0  0  0  0  0  0  0  0  0  0  0  0
  151.8501  138.9937  154.9141 C   0  0  1  0  0  0  0  0  0  0  0  0
  151.4549  137.5230  154.6876 C   0  0  0  0  0  0  0  0  0  0  0  0
  150.1252  137.2140  155.2125 N   0  0  0  0  0  0  0  0  0  0  0  0
  149.7674  135.8041  155.0384 C   0  0  0  0  0  0  0  0  0  0  0  0
  148.2573  135.5205  154.8949 C   0  0  0  0  0  0  0  0  0  0  0  0
  147.9065  134.8295  153.6574 N   0  0  0  0  0  0  0  0  0  0  0  0
  146.9579  133.8901  153.5223 C   0  0  0  0  0  0  0  0  0  0  0  0
  146.2711  133.5607  154.4926 O   0  0  0  0  0  0  0  0  0  0  0  0
  146.8814  133.3690  152.2766 N   0  5  0  0  0  0  0  0  0  0  0  0
  145.6947  132.9660  151.7943 C   0  0  0  0  0  0  0  0  0  0  0  0
  144.5636  133.6575  151.9760 N   0  0  0  0  0  0  0  0  0  0  0  0
  143.4471  133.0600  151.3887 C   0  0  0  0  0  0  0  0  0  0  0  0
  143.7335  131.8819  150.7517 C   0  0  0  0  0  0  0  0  0  0  0  0
  145.4241  131.4848  150.8725 S   0  0  0  0  0  0  0  0  0  0  0  0
  149.1700  138.1063  154.5698 C   0  0  0  0  0  0  0  0  0  0  0  0
  149.5115  139.5850  154.8355 C   0  0  2  0  0  0  0  0  0  0  0  0
  148.5590  140.5383  154.1065 C   0  0  0  0  0  0  0  0  0  0  0  0
  150.8397  139.8593  154.3912 O   0  0  0  0  0  0  0  0  0  0  0  0
  153.0163  138.7009  156.7300 H   0  0  0  0  0  0  0  0  0  0  0  0
  151.3382  139.1064  157.0455 H   0  0  0  0  0  0  0  0  0  0  0  0
  152.4585  140.3557  156.5045 H   0  0  0  0  0  0  0  0  0  0  0  0
  152.7529  139.1910  154.3357 H   0  0  0  0  0  0  0  0  0  0  0  0
  151.4767  137.3153  153.6169 H   0  0  0  0  0  0  0  0  0  0  0  0
  152.2150  136.8836  155.1264 H   0  0  0  0  0  0  0  0  0  0  0  0
  150.2272  135.4364  154.1202 H   0  0  0  0  0  0  0  0  0  0  0  0
  150.1990  135.1990  155.8372 H   0  0  0  0  0  0  0  0  0  0  0  0
  147.8909  134.9864  155.7729 H   0  0  0  0  0  0  0  0  0  0  0  0
  147.7234  136.4707  154.8859 H   0  0  0  0  0  0  0  0  0  0  0  0
  148.4454  135.0632  152.8366 H   0  0  0  0  0  0  0  0  0  0  0  0
  142.4857  133.5442  151.4740 H   0  0  0  0  0  0  0  0  0  0  0  0
  143.0584  131.2265  150.2228 H   0  0  0  0  0  0  0  0  0  0  0  0
  149.1492  137.9161  153.4955 H   0  0  0  0  0  0  0  0  0  0  0  0
  148.1657  137.9023  154.9430 H   0  0  0  0  0  0  0  0  0  0  0  0
  149.4441  139.7853  155.9053 H   0  0  0  0  0  0  0  0  0  0  0  0
  147.5278  140.3806  154.4232 H   0  0  0  0  0  0  0  0  0  0  0  0
  148.6047  140.3930  153.0269 H   0  0  0  0  0  0  0  0  0  0  0  0
  148.8148  141.5774  154.3147 H   0  0  0  0  0  0  0  0  0  0  0  0
  1  2  1  0  0  0  0
  1 20  1  0  0  0  0
  1 21  1  0  0  0  0
  1 22  1  0  0  0  0
  2 19  1  0  0  0  0
  2  3  1  0  0  0  0
  2 23  1  0  0  0  0
  3  4  1  0  0  0  0
  3 24  1  0  0  0  0
  3 25  1  0  0  0  0
  4  5  1  0  0  0  0
  4 16  1  0  0  0  0
  5  6  1  0  0  0  0
  5 26  1  0  0  0  0
  5 27  1  0  0  0  0
  6  7  1  0  0  0  0
  6 28  1  0  0  0  0
  6 29  1  0  0  0  0
  7  8  1  0  0  0  0
  7 30  1  0  0  0  0
  8  9  2  0  0  0  0
  8 10  1  0  0  0  0
 10 11  1  0  0  0  0
 11 15  1  0  0  0  0
 11 12  2  0  0  0  0
 12 13  1  0  0  0  0
 13 14  2  0  0  0  0
 13 31  1  0  0  0  0
 14 15  1  0  0  0  0
 14 32  1  0  0  0  0
 16 17  1  0  0  0  0
 16 33  1  0  0  0  0
 16 34  1  0  0  0  0
 17 18  1  0  0  0  0
 17 19  1  0  0  0  0
 17 35  1  0  0  0  0
 18 36  1  0  0  0  0
 18 37  1  0  0  0  0
 18 38  1  0  0  0  0
M  CHG  1  10  -1
M  END
> <s_m_source_file>
AV-unprocessed.smi

> <i_m_source_file_index>
1815

> <i_lp_mmshare_version>
43012

> <i_f3d_flags>
0

> <s_epik_input>
W0NIM11bQ0BASF0xW0NIMl1OKFtDSDJdW0NASF0oTzEpW0NIM10pW0NIMl1bQ0gyXVtOSF1DKD1PKVtOSF1jMm5bY0hdW2NIXXMy

> <s_epik_cmdline>
J2VwaWtfcHl0aG9uJywgJy1waCcsICc3LjAnLCAnLXRuJywgJzgnLCAnLW1hJywgJzIwMCcsICctbWV0YWxfYmluZGluZycsICctaW1hZScsICc8aW5maWxlLm1hZT4nLCAnLW9tYWUnLCAnPG91dGZpbGUubWFlPic=

> <r_lp_tautomer_probability>
0.999

> <r_epik_Ionization_Penalty>
7.22374

> <r_epik_Ionization_Penalty_Charging>
5.82415

> <r_epik_Ionization_Penalty_Neutral>
1.39959

> <r_epik_State_Penalty>
6.03347

> <r_epik_Charging_Adjusted_Penalty>
11.8576

> <i_epik_Tot_Q>
-1

> <i_epik_Tot_abs_Q>
1

> <r_epik_Metal_State_Penalty>
2.01024

> <b_epik_Metal_Only>
1

> <s_lp_Force_Field>
OPLS_2005

> <r_lp_Energy>
24.221

> <b_lp_Chiralities_Consistent>
1

> <s_lp_Variant>
AV-unprocessed.smi:1815-10

> <Gold.Version>
5.8.1

> <Gold.Id.Protein>
6NUR|6NUR_protein|mol2

> <Gold.PLP.Fitness>
39.1145

> <Gold.PLP.PLP>
-30.1102

> <Gold.PLP.part.hbond>
-1.7070

> <Gold.PLP.part.metal>
0.0000

> <Gold.PLP.part.buried>
-2.8760

> <Gold.PLP.part.nonpolar>
-25.9158

> <Gold.PLP.part.repulsive>
0.5541

> <Gold.PLP.ligand.clash>
0.0000

> <Gold.PLP.ligand.torsion>
1.4634

> <Gold.PLP.Chemscore.Hbond>
1.9600

> <Gold.PLP.Chemscore.CHOScore>
1.9972

> <Gold.PLP.Chemscore.Metal>
0.0000

> <Gold.Chemscore.Hbonds>
donor molecule, donor type, donor heavy atom, donor atom, acceptor molecule, acceptor atom, score
      L1  H     7    30       P1  7948  0.98
      P1  H  7989  7998       L1    19  1.00
      L1  C    13    31       P1 10186  0.87
      L1  C    14    32       P1 10952  1.00

> <Gold.PLP.Chemscore.Internal.Correction>
0.0595

> <Gold.Rescore>
     Score         DG    S(hbond)    S(metal)    S(lipo)     H(rot)  DE(clash)    DE(int)     intcor
     14.86     -16.31       1.88        0.00      73.08       1.57       0.07       1.38       ----

> <Gold.Chemscore.Fitness>
14.8610

> <Gold.Chemscore.DG>
-16.3113

> <Gold.Chemscore.ZeroCoef>
-5.4800

> <Gold.Chemscore.Hbond>
1.8846

> <Gold.Chemscore.Metal>
0.0000

> <Gold.Chemscore.Lipo>
73.0759

> <Gold.Chemscore.Internal_Hbond>
0.0000

> <Gold.Chemscore.DEClash>
0.0695

> <Gold.Chemscore.DEInternal>
1.3808

> <Gold.Chemscore.Rot>
1.5676

> <Gold.Chemscore.Internal.Correction>
   9.000000E+99

> <Gold.Chemscore.Hbonds>
donor molecule, donor type, donor heavy atom, donor atom, acceptor molecule, acceptor atom, score
      L1  H     7    30       P1  7948  0.62
      P1  H  7989  7998       L1    19  0.43

> <Gold.Chemscore.Hbond.Weighted>
-6.2945

> <Gold.Chemscore.Metal.Weighted>
-0.0000

> <Gold.Chemscore.Lipo.Weighted>
-8.5499

> <Gold.Chemscore.Internal_Hbond.Weighted>
0.0000

> <Gold.Chemscore.DEClash.Weighted>
0.0695

> <Gold.Chemscore.DEInternal.Weighted>
1.3808

> <Gold.Chemscore.Rot.Weighted>
4.0130

> <Gold.Chemscore.Internal.Correction.Weighted>
   9.000000E+99

> <Gold.Protein.RotatedTorsions>
[ 6907 6896 6895 6894 ] final  151.73 input  -60.11 | X-H torsion
[ 7974 7965 7964 7962 ] final -169.65 input  175.53 | X-H torsion
[ 8008 7997 7996 7995 ] final  -59.50 input   59.86 | X-H torsion
[ 10167 10162 10161 10158 ] final -155.43 input  -65.29 | X-H torsion
[ 10718 10713 10712 10709 ] final   68.40 input   66.30 | X-H torsion
[ 10763 10752 10751 10750 ] final   20.43 input  -60.55 | X-H torsion
[ 11005 11000 10999 10996 ] final -131.70 input  -57.11 | X-H torsion

> <Gold.Protein.ActiveResidues>
 VAL166  LYS551  ARG553  GLY616  TRP617  ASP618  TYR619  PRO620  LYS621  CYS622 
 ASP623  PHE694  ASN695  SER759  ASP760  ASP761  ALA762  ILE779  LEU786  VAL792 
 PHE793  MET794  SER795  GLU796  ALA797  LYS798  CYS799  TRP800  GLU811  SER814 

> <Gold.Protein.RotatedAtoms>
  152.0966  133.4228  159.4567 H   0  0  0  0  0  0  0  0  0  0  0  0  # atno 6907 bound_to 6896
  150.6863  134.2809  159.4636 H   0  0  0  0  0  0  0  0  0  0  0  0  # atno 6908 bound_to 6896
  152.0666  134.9560  160.0625 H   0  0  0  0  0  0  0  0  0  0  0  0  # atno 6909 bound_to 6896
  144.7182  140.2189  143.6318 H   0  0  0  0  0  0  0  0  0  0  0  0  # atno 7974 bound_to 7965
  154.4355  140.1060  156.6125 H   0  0  0  0  0  0  0  0  0  0  0  0  # atno 8008 bound_to 7997
  155.5794  140.3490  155.4517 H   0  0  0  0  0  0  0  0  0  0  0  0  # atno 8009 bound_to 7997
  156.0330  140.1265  157.0227 H   0  0  0  0  0  0  0  0  0  0  0  0  # atno 8010 bound_to 7997
  139.6932  143.9386  152.2395 H   0  0  0  0  0  0  0  0  0  0  0  0  # atno 10167 bound_to 10162
  157.6287  130.9371  150.0372 H   0  0  0  0  0  0  0  0  0  0  0  0  # atno 10718 bound_to 10713
  153.1078  135.6689  153.9554 H   0  0  0  0  0  0  0  0  0  0  0  0  # atno 10763 bound_to 10752
  153.9106  135.3025  155.3450 H   0  0  0  0  0  0  0  0  0  0  0  0  # atno 10764 bound_to 10752
  154.7499  135.5039  153.9347 H   0  0  0  0  0  0  0  0  0  0  0  0  # atno 10765 bound_to 10752
  140.9236  134.1412  157.4294 H   0  0  0  0  0  0  0  0  0  0  0  0  # atno 11005 bound_to 11000
  145.8520  139.2180  143.1766 LP  0  0  0  0  0  0  0  0  0  0  0  0  # atno 17320 bound_to 7965
  146.0252  140.8310  142.9903 LP  0  0  0  0  0  0  0  0  0  0  0  0  # atno 17321 bound_to 7965
  139.9208  144.6801  150.8464 LP  0  0  0  0  0  0  0  0  0  0  0  0  # atno 17342 bound_to 10162
  140.7688  143.3376  151.2275 LP  0  0  0  0  0  0  0  0  0  0  0  0  # atno 17343 bound_to 10162
  156.1475  130.3642  149.9487 LP  0  0  0  0  0  0  0  0  0  0  0  0  # atno 17370 bound_to 10713
  156.7515  130.9117  151.3637 LP  0  0  0  0  0  0  0  0  0  0  0  0  # atno 17371 bound_to 10713
  139.8780  134.9980  156.5877 LP  0  0  0  0  0  0  0  0  0  0  0  0  # atno 17394 bound_to 11000
  140.7956  133.8547  155.8682 LP  0  0  0  0  0  0  0  0  0  0  0  0  # atno 17395 bound_to 11000

$$$$
