AV-unprocessed.smi:346|AV-procd|sdf|2392|dock6
  -GOLD-   2262022323D 1   1.00000     0.00000
 Structure written by MMmdl.
 33 34  0  0  0  0  0  0  0  0  1 V2000
  154.0030  136.2570  158.4352 C   0  0  0  0  0  0  0  0  0  0  0  0
  153.4236  136.3608  159.7239 O   0  0  0  0  0  0  0  0  0  0  0  0
  152.5925  137.5011  159.8557 C   0  0  0  0  0  0  0  0  0  0  0  0
  153.4033  138.7476  159.4817 C   0  0  0  0  0  0  0  0  0  0  0  0
  152.5746  139.7538  158.8368 N   0  0  0  0  0  0  0  0  0  0  0  0
  151.7255  139.5896  157.7915 C   0  0  0  0  0  0  0  0  0  0  0  0
  151.5050  138.0074  157.0284 S   0  0  0  0  0  0  0  0  0  0  0  0
  150.0673  138.3501  155.9681 C   0  0  0  0  0  0  0  0  0  0  0  0
  150.4461  139.0964  154.6910 C   0  0  0  0  0  0  0  0  0  0  0  0
  150.0214  138.5811  153.5340 N   0  0  0  0  0  0  0  0  0  0  0  0
  151.1062  140.1315  154.7460 O   0  0  0  0  0  0  0  0  0  0  0  0
  151.0844  140.6926  157.3994 N   0  0  0  0  0  0  0  0  0  0  0  0
  151.5573  141.6537  158.2702 C   0  0  0  0  0  0  0  0  0  0  0  0
  151.2567  143.0309  158.3696 C   0  0  0  0  0  0  0  0  0  0  0  0
  151.8722  143.8263  159.3586 C   0  0  0  0  0  0  0  0  0  0  0  0
  151.4948  145.5063  159.4647 Cl  0  0  0  0  0  0  0  0  0  0  0  0
  152.7941  143.2556  160.2606 C   0  0  0  0  0  0  0  0  0  0  0  0
  153.1076  141.8852  160.1780 C   0  0  0  0  0  0  0  0  0  0  0  0
  152.4917  141.0974  159.1871 C   0  0  0  0  0  0  0  0  0  0  0  0
  154.6326  135.3685  158.3876 H   0  0  0  0  0  0  0  0  0  0  0  0
  154.6264  137.1235  158.2113 H   0  0  0  0  0  0  0  0  0  0  0  0
  153.2366  136.1686  157.6641 H   0  0  0  0  0  0  0  0  0  0  0  0
  151.7222  137.4066  159.2045 H   0  0  0  0  0  0  0  0  0  0  0  0
  152.2299  137.5830  160.8817 H   0  0  0  0  0  0  0  0  0  0  0  0
  153.8503  139.1841  160.3752 H   0  0  0  0  0  0  0  0  0  0  0  0
  154.2321  138.4853  158.8236 H   0  0  0  0  0  0  0  0  0  0  0  0
  149.5825  137.4113  155.6974 H   0  0  0  0  0  0  0  0  0  0  0  0
  149.3411  138.9419  156.5272 H   0  0  0  0  0  0  0  0  0  0  0  0
  150.2416  139.0442  152.6643 H   0  0  0  0  0  0  0  0  0  0  0  0
  149.4744  137.7324  153.5348 H   0  0  0  0  0  0  0  0  0  0  0  0
  150.5512  143.4754  157.6832 H   0  0  0  0  0  0  0  0  0  0  0  0
  153.2620  143.8697  161.0164 H   0  0  0  0  0  0  0  0  0  0  0  0
  153.8124  141.4462  160.8681 H   0  0  0  0  0  0  0  0  0  0  0  0
  1  2  1  0  0  0  0
  1 20  1  0  0  0  0
  1 21  1  0  0  0  0
  1 22  1  0  0  0  0
  2  3  1  0  0  0  0
  3  4  1  0  0  0  0
  3 23  1  0  0  0  0
  3 24  1  0  0  0  0
  4  5  1  0  0  0  0
  4 25  1  0  0  0  0
  4 26  1  0  0  0  0
  5 19  1  0  0  0  0
  5  6  1  0  0  0  0
  6  7  1  0  0  0  0
  6 12  2  0  0  0  0
  7  8  1  0  0  0  0
  8  9  1  0  0  0  0
  8 27  1  0  0  0  0
  8 28  1  0  0  0  0
  9 10  1  0  0  0  0
  9 11  2  0  0  0  0
 10 29  1  0  0  0  0
 10 30  1  0  0  0  0
 12 13  1  0  0  0  0
 13 19  2  0  0  0  0
 13 14  1  0  0  0  0
 14 15  2  0  0  0  0
 14 31  1  0  0  0  0
 15 16  1  0  0  0  0
 15 17  1  0  0  0  0
 17 18  2  0  0  0  0
 17 32  1  0  0  0  0
 18 19  1  0  0  0  0
 18 33  1  0  0  0  0
M  END
> <s_m_source_file>
AV-unprocessed.smi

> <i_m_source_file_index>
346

> <i_lp_mmshare_version>
43012

> <i_f3d_flags>
0

> <s_epik_input>
W2NIXTFjKENsKVtjSF1bY0hdYyhjMTIpbihbQ0gyXVtDSDJdT1tDSDNdKWMobjIpU1tDSDJdQyg9TylbTkgyXQ==

> <s_epik_cmdline>
J2VwaWtfcHl0aG9uJywgJy1waCcsICc3LjAnLCAnLXRuJywgJzgnLCAnLW1hJywgJzIwMCcsICctbWV0YWxfYmluZGluZycsICctaW1hZScsICc8aW5maWxlLm1hZT4nLCAnLW9tYWUnLCAnPG91dGZpbGUubWFlPic=

> <r_epik_Ionization_Penalty>
0.00801462

> <r_epik_Ionization_Penalty_Charging>
0

> <r_epik_Ionization_Penalty_Neutral>
0.00801462

> <r_epik_State_Penalty>
0.00601782

> <r_epik_Charging_Adjusted_Penalty>
0.00601782

> <i_epik_Tot_Q>
0

> <i_epik_Tot_abs_Q>
0

> <r_epik_Metal_State_Penalty>
0.00593415

> <b_epik_Metal_Only>
0

> <s_lp_Force_Field>
OPLS_2005

> <r_lp_Energy>
4.29965

> <b_lp_Chiralities_Consistent>
1

> <s_lp_Variant>
AV-unprocessed.smi:346-1

> <Gold.Version>
5.8.1

> <Gold.Id.Protein>
6NUR|6NUR_protein|mol2

> <Gold.PLP.Fitness>
46.3789

> <Gold.PLP.PLP>
-37.8393

> <Gold.PLP.part.hbond>
-3.9941

> <Gold.PLP.part.metal>
0.0000

> <Gold.PLP.part.buried>
-5.3791

> <Gold.PLP.part.nonpolar>
-28.5339

> <Gold.PLP.part.repulsive>
0.1641

> <Gold.PLP.ligand.clash>
0.0000

> <Gold.PLP.ligand.torsion>
0.5624

> <Gold.PLP.Chemscore.Hbond>
3.2131

> <Gold.PLP.Chemscore.CHOScore>
0.0000

> <Gold.PLP.Chemscore.Metal>
0.0000

> <Gold.Chemscore.Hbonds>
donor molecule, donor type, donor heavy atom, donor atom, acceptor molecule, acceptor atom, score
      L1  H    10    29       P1  7957  0.98
      L1  H    10    30       P1  7948  0.24
      P1  H  6896  6909       L1     2  1.00
      P1  H  7989  7998       L1    11  1.00

> <Gold.PLP.Chemscore.Internal.Correction>
0.0250

> <Gold.Rescore>
     Score         DG    S(hbond)    S(metal)    S(lipo)     H(rot)  DE(clash)    DE(int)     intcor
     16.39     -18.60       2.71        0.00      93.50       2.68       0.00       2.22       ----

> <Gold.Chemscore.Fitness>
16.3895

> <Gold.Chemscore.DG>
-18.6048

> <Gold.Chemscore.ZeroCoef>
-5.4800

> <Gold.Chemscore.Hbond>
2.7096

> <Gold.Chemscore.Metal>
0.0000

> <Gold.Chemscore.Lipo>
93.4969

> <Gold.Chemscore.Internal_Hbond>
0.0000

> <Gold.Chemscore.DEClash>
0.0000

> <Gold.Chemscore.DEInternal>
2.2152

> <Gold.Chemscore.Rot>
2.6814

> <Gold.Chemscore.Internal.Correction>
   9.000000E+99

> <Gold.Chemscore.Hbonds>
donor molecule, donor type, donor heavy atom, donor atom, acceptor molecule, acceptor atom, score
      L1  H    10    29       P1  7957  0.47
      L1  H    10    30       P1  7948  0.23
      P1  H  6896  6909       L1     2  0.42
      P1  H  7989  7998       L1    11  0.94

> <Gold.Chemscore.Hbond.Weighted>
-9.0500

> <Gold.Chemscore.Metal.Weighted>
-0.0000

> <Gold.Chemscore.Lipo.Weighted>
-10.9391

> <Gold.Chemscore.Internal_Hbond.Weighted>
0.0000

> <Gold.Chemscore.DEClash.Weighted>
0.0000

> <Gold.Chemscore.DEInternal.Weighted>
2.2152

> <Gold.Chemscore.Rot.Weighted>
6.8644

> <Gold.Chemscore.Internal.Correction.Weighted>
   9.000000E+99

> <Gold.Protein.RotatedTorsions>
[ 6907 6896 6895 6894 ] final  169.66 input  -60.11 | X-H torsion
[ 7974 7965 7964 7962 ] final  129.42 input  175.53 | X-H torsion
[ 8008 7997 7996 7995 ] final -168.64 input   59.86 | X-H torsion
[ 10167 10162 10161 10158 ] final  -85.60 input  -65.29 | X-H torsion
[ 10718 10713 10712 10709 ] final  103.70 input   66.30 | X-H torsion
[ 10763 10752 10751 10750 ] final   65.15 input  -60.55 | X-H torsion
[ 11005 11000 10999 10996 ] final   77.27 input  -57.11 | X-H torsion

> <Gold.Protein.ActiveResidues>
 VAL166  LYS551  ARG553  GLY616  TRP617  ASP618  TYR619  PRO620  LYS621  CYS622 
 ASP623  PHE694  ASN695  SER759  ASP760  ASP761  ALA762  ILE779  LEU786  VAL792 
 PHE793  MET794  SER795  GLU796  ALA797  LYS798  CYS799  TRP800  GLU811  SER814 

> <Gold.Protein.RotatedAtoms>
  151.8284  133.3405  159.3605 H   0  0  0  0  0  0  0  0  0  0  0  0  # atno 6907 bound_to 6896
  150.7272  134.5507  159.5802 H   0  0  0  0  0  0  0  0  0  0  0  0  # atno 6908 bound_to 6896
  152.2954  134.7674  160.0420 H   0  0  0  0  0  0  0  0  0  0  0  0  # atno 6909 bound_to 6896
  145.0288  139.4065  143.5160 H   0  0  0  0  0  0  0  0  0  0  0  0  # atno 7974 bound_to 7965
  155.8941  140.1030  157.1397 H   0  0  0  0  0  0  0  0  0  0  0  0  # atno 8008 bound_to 7997
  154.4018  140.1305  156.4417 H   0  0  0  0  0  0  0  0  0  0  0  0  # atno 8009 bound_to 7997
  155.7499  140.3465  155.5148 H   0  0  0  0  0  0  0  0  0  0  0  0  # atno 8010 bound_to 7997
  140.4022  143.2658  151.9128 H   0  0  0  0  0  0  0  0  0  0  0  0  # atno 10167 bound_to 10162
  157.6764  131.0785  150.5594 H   0  0  0  0  0  0  0  0  0  0  0  0  # atno 10718 bound_to 10713
  153.0084  135.5367  154.6622 H   0  0  0  0  0  0  0  0  0  0  0  0  # atno 10763 bound_to 10752
  154.5827  135.2851  155.0718 H   0  0  0  0  0  0  0  0  0  0  0  0  # atno 10764 bound_to 10752
  154.1841  135.6511  153.5094 H   0  0  0  0  0  0  0  0  0  0  0  0  # atno 10765 bound_to 10752
  139.9262  134.7669  156.1500 H   0  0  0  0  0  0  0  0  0  0  0  0  # atno 11005 bound_to 11000
  146.3496  139.9827  142.8694 LP  0  0  0  0  0  0  0  0  0  0  0  0  # atno 17320 bound_to 7965
  145.1798  140.9761  143.4273 LP  0  0  0  0  0  0  0  0  0  0  0  0  # atno 17321 bound_to 7965
  139.4784  144.5622  151.8221 LP  0  0  0  0  0  0  0  0  0  0  0  0  # atno 17342 bound_to 10162
  140.4728  144.1562  150.5920 LP  0  0  0  0  0  0  0  0  0  0  0  0  # atno 17343 bound_to 10162
  156.5898  130.4326  149.5941 LP  0  0  0  0  0  0  0  0  0  0  0  0  # atno 17370 bound_to 10713
  156.2593  130.6953  151.1716 LP  0  0  0  0  0  0  0  0  0  0  0  0  # atno 17371 bound_to 10713
  141.0821  133.6750  156.2357 LP  0  0  0  0  0  0  0  0  0  0  0  0  # atno 17394 bound_to 11000
  140.6330  134.5244  157.5561 LP  0  0  0  0  0  0  0  0  0  0  0  0  # atno 17395 bound_to 11000

$$$$
