AV-unprocessed.smi:2279|AV-procd|sdf|9186|dock2
  -GOLD-   2272012403D 1   1.00000     0.00000
 Structure written by MMmdl.
 58 60  0  0  0  0  0  0  0  0  3 V2000
  145.2928  131.1896  151.3194 C   0  0  0  0  0  0  0  0  0  0  0  0
  146.4587  131.3570  152.2711 C   0  0  0  0  0  0  0  0  0  0  0  0
  147.0084  130.2482  152.9425 C   0  0  0  0  0  0  0  0  0  0  0  0
  148.0926  130.4694  153.8143 C   0  0  0  0  0  0  0  0  0  0  0  0
  148.7284  129.3238  154.5735 C   0  0  0  0  0  0  0  0  0  0  0  0
  148.6285  131.6900  154.0283 N   0  0  0  0  0  0  0  0  0  0  0  0
  148.1088  132.7652  153.3858 C   0  0  0  0  0  0  0  0  0  0  0  0
  148.5951  134.0898  153.5500 N   0  0  0  0  0  0  0  0  0  0  0  0
  149.2482  134.6062  154.6061 C   0  0  0  0  0  0  0  0  0  0  0  0
  149.5819  133.9799  155.6124 O   0  0  0  0  0  0  0  0  0  0  0  0
  149.5154  135.9089  154.4275 N   0  0  0  0  0  0  0  0  0  0  0  0
  150.2336  136.7520  155.3795 C   0  0  2  0  0  0  0  0  0  0  0  0
  149.2609  137.3267  156.4230 C   0  0  0  0  0  0  0  0  0  0  0  0
  149.9944  138.2969  157.3680 C   0  0  0  0  0  0  0  0  0  0  0  0
  150.6283  139.4225  156.6227 N   0  3  2  0  0  0  0  0  0  0  0  0
  149.6874  140.4519  156.0568 C   0  0  2  0  0  0  0  0  0  0  0  0
  150.4207  141.7235  155.5651 C   0  0  0  0  0  0  0  0  0  0  0  0
  151.0097  142.5372  156.7329 C   0  0  0  0  0  0  0  0  0  0  0  0
  149.9555  142.9222  157.7045 N   0  3  2  0  0  0  0  0  0  0  0  0
  150.4799  143.7681  158.7984 C   0  0  0  0  0  0  0  0  0  0  0  0
  149.1986  141.7497  158.2103 C   0  0  0  0  0  0  0  0  0  0  0  0
  148.6001  140.9352  157.0482 C   0  0  0  0  0  0  0  0  0  0  0  0
  151.6152  138.8734  155.6469 C   0  0  0  0  0  0  0  0  0  0  0  0
  150.9674  137.8925  154.6488 C   0  0  0  0  0  0  0  0  0  0  0  0
  147.0161  132.6316  152.4996 C   0  0  0  0  0  0  0  0  0  0  0  0
  144.8878  130.1780  151.3633 H   0  0  0  0  0  0  0  0  0  0  0  0
  145.6107  131.3867  150.2954 H   0  0  0  0  0  0  0  0  0  0  0  0
  144.4936  131.8870  151.5719 H   0  0  0  0  0  0  0  0  0  0  0  0
  146.6095  129.2553  152.7942 H   0  0  0  0  0  0  0  0  0  0  0  0
  148.1391  128.4115  154.4784 H   0  0  0  0  0  0  0  0  0  0  0  0
  148.8077  129.5660  155.6339 H   0  0  0  0  0  0  0  0  0  0  0  0
  149.7296  129.1260  154.1897 H   0  0  0  0  0  0  0  0  0  0  0  0
  148.4250  134.7135  152.7749 H   0  0  0  0  0  0  0  0  0  0  0  0
  149.2061  136.3438  153.5702 H   0  0  0  0  0  0  0  0  0  0  0  0
  150.9709  136.1485  155.9127 H   0  0  0  0  0  0  0  0  0  0  0  0
  148.4317  137.8371  155.9315 H   0  0  0  0  0  0  0  0  0  0  0  0
  148.8204  136.5146  157.0029 H   0  0  0  0  0  0  0  0  0  0  0  0
  149.3402  138.6441  158.1650 H   0  0  0  0  0  0  0  0  0  0  0  0
  150.7839  137.7511  157.8872 H   0  0  0  0  0  0  0  0  0  0  0  0
  149.1722  140.0050  155.2070 H   0  0  0  0  0  0  0  0  0  0  0  0
  151.1931  141.5017  154.8317 H   0  0  0  0  0  0  0  0  0  0  0  0
  149.7085  142.3538  155.0302 H   0  0  0  0  0  0  0  0  0  0  0  0
  151.7878  141.9644  157.2399 H   0  0  0  0  0  0  0  0  0  0  0  0
  151.4852  143.4382  156.3430 H   0  0  0  0  0  0  0  0  0  0  0  0
  151.2098  143.2239  159.3995 H   0  0  0  0  0  0  0  0  0  0  0  0
  149.6722  144.0949  159.4542 H   0  0  0  0  0  0  0  0  0  0  0  0
  150.9633  144.6598  158.3981 H   0  0  0  0  0  0  0  0  0  0  0  0
  149.8531  141.1232  158.8180 H   0  0  0  0  0  0  0  0  0  0  0  0
  148.3960  142.0939  158.8636 H   0  0  0  0  0  0  0  0  0  0  0  0
  147.8982  141.5740  156.5097 H   0  0  0  0  0  0  0  0  0  0  0  0
  147.9845  140.1173  157.4192 H   0  0  0  0  0  0  0  0  0  0  0  0
  152.1494  139.6576  155.1155 H   0  0  0  0  0  0  0  0  0  0  0  0
  152.3848  138.3431  156.2097 H   0  0  0  0  0  0  0  0  0  0  0  0
  151.7375  137.4778  153.9969 H   0  0  0  0  0  0  0  0  0  0  0  0
  150.2769  138.4246  153.9939 H   0  0  0  0  0  0  0  0  0  0  0  0
  146.6097  133.4962  151.9946 H   0  0  0  0  0  0  0  0  0  0  0  0
  151.1745  139.9196  157.3117 H   0  0  0  0  0  0  0  0  0  0  0  0
  149.2935  143.4932  157.1979 H   0  0  0  0  0  0  0  0  0  0  0  0
  1  2  1  0  0  0  0
  1 26  1  0  0  0  0
  1 27  1  0  0  0  0
  1 28  1  0  0  0  0
  2 25  1  0  0  0  0
  2  3  2  0  0  0  0
  3  4  1  0  0  0  0
  3 29  1  0  0  0  0
  4  5  1  0  0  0  0
  4  6  2  0  0  0  0
  5 30  1  0  0  0  0
  5 31  1  0  0  0  0
  5 32  1  0  0  0  0
  6  7  1  0  0  0  0
  7  8  1  0  0  0  0
  7 25  2  0  0  0  0
  8  9  1  0  0  0  0
  8 33  1  0  0  0  0
  9 10  2  0  0  0  0
  9 11  1  0  0  0  0
 11 12  1  0  0  0  0
 11 34  1  0  0  0  0
 12 24  1  0  0  0  0
 12 13  1  0  0  0  0
 12 35  1  0  0  0  0
 13 14  1  0  0  0  0
 13 36  1  0  0  0  0
 13 37  1  0  0  0  0
 14 15  1  0  0  0  0
 14 38  1  0  0  0  0
 14 39  1  0  0  0  0
 15 16  1  0  0  0  0
 15 23  1  0  0  0  0
 15 57  1  0  0  0  0
 16 22  1  0  0  0  0
 16 17  1  0  0  0  0
 16 40  1  0  0  0  0
 17 18  1  0  0  0  0
 17 41  1  0  0  0  0
 17 42  1  0  0  0  0
 18 19  1  0  0  0  0
 18 43  1  0  0  0  0
 18 44  1  0  0  0  0
 19 20  1  0  0  0  0
 19 21  1  0  0  0  0
 19 58  1  0  0  0  0
 20 45  1  0  0  0  0
 20 46  1  0  0  0  0
 20 47  1  0  0  0  0
 21 22  1  0  0  0  0
 21 48  1  0  0  0  0
 21 49  1  0  0  0  0
 22 50  1  0  0  0  0
 22 51  1  0  0  0  0
 23 24  1  0  0  0  0
 23 52  1  0  0  0  0
 23 53  1  0  0  0  0
 24 54  1  0  0  0  0
 24 55  1  0  0  0  0
 25 56  1  0  0  0  0
M  CHG  1  15   1
M  CHG  1  19   1
M  END
> <s_m_source_file>
AV-unprocessed.smi

> <i_m_source_file_index>
2279

> <i_lp_mmshare_version>
43012

> <i_f3d_flags>
0

> <s_epik_input>
W0NIM11jMVtjSF1jKFtDSDNdKW5jKFtjSF0xKVtOSF1DKD1PKVtOSF1bQ0hdMltDSDJdW0NIMl1OKFtDSDJdW0NIMl0yKVtDSF0zW0NIMl1bQ0gyXU4oW0NIM10pW0NIMl1bQ0gyXTM=

> <s_epik_cmdline>
J2VwaWtfcHl0aG9uJywgJy1waCcsICc3LjAnLCAnLXRuJywgJzgnLCAnLW1hJywgJzIwMCcsICctbWV0YWxfYmluZGluZycsICctaW1hZScsICc8aW5maWxlLm1hZT4nLCAnLW9tYWUnLCAnPG91dGZpbGUubWFlPic=

> <r_epik_Ionization_Penalty>
0.180973

> <r_epik_Ionization_Penalty_Charging>
0.180787

> <r_epik_Ionization_Penalty_Neutral>
0.000186186

> <r_epik_State_Penalty>
0.153592

> <r_epik_Charging_Adjusted_Penalty>
0.334379

> <i_epik_Tot_Q>
2

> <i_epik_Tot_abs_Q>
2

> <r_epik_Metal_State_Penalty>
0.153604

> <b_epik_Metal_Only>
0

> <s_lp_Force_Field>
OPLS_2005

> <r_lp_Energy>
49.6144

> <b_lp_Chiralities_Consistent>
1

> <s_lp_Variant>
AV-unprocessed.smi:2279-4

> <Gold.Version>
5.8.1

> <Gold.Id.Protein>
6NUR|6NUR_protein|mol2

> <Gold.PLP.Fitness>
46.4587

> <Gold.PLP.PLP>
-35.6706

> <Gold.PLP.part.hbond>
-3.0000

> <Gold.PLP.part.metal>
0.0000

> <Gold.PLP.part.buried>
-4.3656

> <Gold.PLP.part.nonpolar>
-27.7592

> <Gold.PLP.part.repulsive>
0.1837

> <Gold.PLP.ligand.clash>
0.0000

> <Gold.PLP.ligand.torsion>
0.5934

> <Gold.PLP.Chemscore.Hbond>
3.9760

> <Gold.PLP.Chemscore.CHOScore>
0.0000

> <Gold.PLP.Chemscore.Metal>
0.0000

> <Gold.Chemscore.Hbonds>
donor molecule, donor type, donor heavy atom, donor atom, acceptor molecule, acceptor atom, score
      L1  H     8    33       P1  7948  0.94
      L1  H    11    34       P1  7948  0.96
      L1  H    19    58       P1  8028  2.00

> <Gold.PLP.Chemscore.Internal.Correction>
0.0469

> <Gold.Rescore>
     Score         DG    S(hbond)    S(metal)    S(lipo)     H(rot)  DE(clash)    DE(int)     intcor
     19.54     -21.44       2.70        0.00      85.76       1.21       0.15       1.75       ----

> <Gold.Chemscore.Fitness>
19.5361

> <Gold.Chemscore.DG>
-21.4351

> <Gold.Chemscore.ZeroCoef>
-5.4800

> <Gold.Chemscore.Hbond>
2.7000

> <Gold.Chemscore.Metal>
0.0000

> <Gold.Chemscore.Lipo>
85.7561

> <Gold.Chemscore.Internal_Hbond>
0.0000

> <Gold.Chemscore.DEClash>
0.1508

> <Gold.Chemscore.DEInternal>
1.7482

> <Gold.Chemscore.Rot>
1.2095

> <Gold.Chemscore.Internal.Correction>
   9.000000E+99

> <Gold.Chemscore.Hbonds>
donor molecule, donor type, donor heavy atom, donor atom, acceptor molecule, acceptor atom, score
      L1  H     8    33       P1  7948  0.32
      L1  H    11    34       P1  7948  0.87
      L1  H    19    58       P1  8028  0.68

> <Gold.Chemscore.Hbond.Weighted>
-9.0179

> <Gold.Chemscore.Metal.Weighted>
-0.0000

> <Gold.Chemscore.Lipo.Weighted>
-10.0335

> <Gold.Chemscore.Internal_Hbond.Weighted>
0.0000

> <Gold.Chemscore.DEClash.Weighted>
0.1508

> <Gold.Chemscore.DEInternal.Weighted>
1.7482

> <Gold.Chemscore.Rot.Weighted>
3.0963

> <Gold.Chemscore.Internal.Correction.Weighted>
   9.000000E+99

> <Gold.Protein.RotatedTorsions>
[ 6907 6896 6895 6894 ] final -146.49 input  -60.11 | X-H torsion
[ 7974 7965 7964 7962 ] final   -7.26 input  175.53 | X-H torsion
[ 8008 7997 7996 7995 ] final -127.84 input   59.86 | X-H torsion
[ 10167 10162 10161 10158 ] final  -62.84 input  -65.29 | X-H torsion
[ 10718 10713 10712 10709 ] final  150.62 input   66.30 | X-H torsion
[ 10763 10752 10751 10750 ] final  -34.47 input  -60.55 | X-H torsion
[ 11005 11000 10999 10996 ] final  -56.31 input  -57.11 | X-H torsion

> <Gold.Protein.ActiveResidues>
 VAL166  LYS551  ARG553  GLY616  TRP617  ASP618  TYR619  PRO620  LYS621  CYS622 
 ASP623  PHE694  ASN695  SER759  ASP760  ASP761  ALA762  ILE779  LEU786  VAL792 
 PHE793  MET794  SER795  GLU796  ALA797  LYS798  CYS799  TRP800  GLU811  SER814 

> <Gold.Protein.RotatedAtoms>
  151.1424  133.4962  159.2596 H   0  0  0  0  0  0  0  0  0  0  0  0  # atno 6907 bound_to 6896
  151.1641  135.0287  159.8733 H   0  0  0  0  0  0  0  0  0  0  0  0  # atno 6908 bound_to 6896
  152.5462  134.1294  159.8486 H   0  0  0  0  0  0  0  0  0  0  0  0  # atno 6909 bound_to 6896
  146.2311  140.2293  142.8339 H   0  0  0  0  0  0  0  0  0  0  0  0  # atno 7974 bound_to 7965
  155.2528  140.0433  157.2988 H   0  0  0  0  0  0  0  0  0  0  0  0  # atno 8008 bound_to 7997
  154.5758  140.2387  155.8094 H   0  0  0  0  0  0  0  0  0  0  0  0  # atno 8009 bound_to 7997
  156.2157  140.2985  155.9842 H   0  0  0  0  0  0  0  0  0  0  0  0  # atno 8010 bound_to 7997
  140.5911  143.2342  151.6136 H   0  0  0  0  0  0  0  0  0  0  0  0  # atno 10167 bound_to 10162
  157.2811  131.0835  151.1531 H   0  0  0  0  0  0  0  0  0  0  0  0  # atno 10718 bound_to 10713
  153.8473  135.6852  153.4796 H   0  0  0  0  0  0  0  0  0  0  0  0  # atno 10763 bound_to 10752
  153.1418  135.4654  154.9505 H   0  0  0  0  0  0  0  0  0  0  0  0  # atno 10764 bound_to 10752
  154.7818  135.3271  154.7920 H   0  0  0  0  0  0  0  0  0  0  0  0  # atno 10765 bound_to 10752
  141.1114  133.6610  156.4600 H   0  0  0  0  0  0  0  0  0  0  0  0  # atno 11005 bound_to 11000
  144.9570  140.8237  143.5537 LP  0  0  0  0  0  0  0  0  0  0  0  0  # atno 17320 bound_to 7965
  145.2260  139.2137  143.5068 LP  0  0  0  0  0  0  0  0  0  0  0  0  # atno 17321 bound_to 7965
  139.5228  144.3151  152.0959 LP  0  0  0  0  0  0  0  0  0  0  0  0  # atno 17342 bound_to 10162
  140.2316  144.4363  150.6298 LP  0  0  0  0  0  0  0  0  0  0  0  0  # atno 17343 bound_to 10162
  157.2965  130.6821  149.6141 LP  0  0  0  0  0  0  0  0  0  0  0  0  # atno 17370 bound_to 10713
  155.9664  130.4405  150.5302 LP  0  0  0  0  0  0  0  0  0  0  0  0  # atno 17371 bound_to 10713
  140.4765  134.6705  157.5152 LP  0  0  0  0  0  0  0  0  0  0  0  0  # atno 17394 bound_to 11000
  140.0010  134.6836  155.9530 LP  0  0  0  0  0  0  0  0  0  0  0  0  # atno 17395 bound_to 11000

$$$$
