AV-unprocessed.smi:1428|AV-procd|sdf|5817|dock7
  -GOLD-   22720 5473D 1   1.00000     0.00000
 Structure written by MMmdl.
 43 44  0  0  0  0  0  0  0  0  3 V2000
  153.7036  140.7422  161.0407 C   0  0  0  0  0  0  0  0  0  0  0  0
  152.9107  140.8150  159.8608 O   0  0  0  0  0  0  0  0  0  0  0  0
  152.2926  142.0126  159.5547 C   0  0  0  0  0  0  0  0  0  0  0  0
  152.3990  143.0378  160.4369 N   0  0  0  0  0  0  0  0  0  0  0  0
  151.7984  144.2078  160.1383 C   0  0  0  0  0  0  0  0  0  0  0  0
  151.0710  144.4194  158.9529 C   0  0  0  0  0  0  0  0  0  0  0  0
  150.9592  143.3581  158.0359 C   0  0  0  0  0  0  0  0  0  0  0  0
  151.5722  142.1186  158.3420 C   0  0  0  0  0  0  0  0  0  0  0  0
  151.5370  140.9867  157.4812 N   0  0  0  0  0  0  0  0  0  0  0  0
  151.0119  140.8869  156.2486 C   0  0  0  0  0  0  0  0  0  0  0  0
  150.4628  141.7988  155.6310 O   0  0  0  0  0  0  0  0  0  0  0  0
  151.1403  139.6418  155.7681 N   0  0  0  0  0  0  0  0  0  0  0  0
  150.6688  139.1863  154.4607 C   0  0  2  0  0  0  0  0  0  0  0  0
  149.1479  138.9331  154.4538 C   0  0  0  0  0  0  0  0  0  0  0  0
  148.7665  137.6936  155.2818 C   0  0  0  0  0  0  0  0  0  0  0  0
  149.4960  136.4897  154.8101 N   0  3  2  0  0  0  0  0  0  0  0  0
  149.0396  135.2521  155.4910 C   0  0  0  0  0  0  0  0  0  0  0  0
  149.5328  134.0139  154.7336 C   0  0  0  0  0  0  0  0  0  0  0  0
  148.9595  133.8897  153.5215 N   0  5  0  0  0  0  0  0  0  0  0  0
  150.3543  133.2658  155.2603 O   0  0  0  0  0  0  0  0  0  0  0  0
  150.9699  136.6835  154.8710 C   0  0  0  0  0  0  0  0  0  0  0  0
  151.4072  137.9037  154.0394 C   0  0  0  0  0  0  0  0  0  0  0  0
  154.1133  139.7370  161.1391 H   0  0  0  0  0  0  0  0  0  0  0  0
  153.1099  140.9454  161.9331 H   0  0  0  0  0  0  0  0  0  0  0  0
  154.5423  141.4388  161.0018 H   0  0  0  0  0  0  0  0  0  0  0  0
  151.9062  145.0010  160.8633 H   0  0  0  0  0  0  0  0  0  0  0  0
  150.6133  145.3762  158.7492 H   0  0  0  0  0  0  0  0  0  0  0  0
  150.4209  143.5211  157.1153 H   0  0  0  0  0  0  0  0  0  0  0  0
  151.8858  140.1301  157.8863 H   0  0  0  0  0  0  0  0  0  0  0  0
  151.6072  138.9587  156.3467 H   0  0  0  0  0  0  0  0  0  0  0  0
  150.9000  139.9654  153.7319 H   0  0  0  0  0  0  0  0  0  0  0  0
  148.6081  139.8074  154.8190 H   0  0  0  0  0  0  0  0  0  0  0  0
  148.8168  138.7865  153.4250 H   0  0  0  0  0  0  0  0  0  0  0  0
  148.9796  137.8601  156.3390 H   0  0  0  0  0  0  0  0  0  0  0  0
  147.6916  137.5285  155.1988 H   0  0  0  0  0  0  0  0  0  0  0  0
  149.3498  135.2608  156.5382 H   0  0  0  0  0  0  0  0  0  0  0  0
  147.9496  135.2067  155.4891 H   0  0  0  0  0  0  0  0  0  0  0  0
  148.8467  134.7261  152.9363 H   0  0  0  0  0  0  0  0  0  0  0  0
  151.2792  136.8024  155.9105 H   0  0  0  0  0  0  0  0  0  0  0  0
  151.4825  135.7981  154.4934 H   0  0  0  0  0  0  0  0  0  0  0  0
  151.2043  137.7045  152.9862 H   0  0  0  0  0  0  0  0  0  0  0  0
  152.4860  138.0443  154.1178 H   0  0  0  0  0  0  0  0  0  0  0  0
  149.2540  136.3718  153.8363 H   0  0  0  0  0  0  0  0  0  0  0  0
  1  2  1  0  0  0  0
  1 23  1  0  0  0  0
  1 24  1  0  0  0  0
  1 25  1  0  0  0  0
  2  3  1  0  0  0  0
  3  8  1  0  0  0  0
  3  4  2  0  0  0  0
  4  5  1  0  0  0  0
  5  6  2  0  0  0  0
  5 26  1  0  0  0  0
  6  7  1  0  0  0  0
  6 27  1  0  0  0  0
  7  8  2  0  0  0  0
  7 28  1  0  0  0  0
  8  9  1  0  0  0  0
  9 10  1  0  0  0  0
  9 29  1  0  0  0  0
 10 11  2  0  0  0  0
 10 12  1  0  0  0  0
 12 13  1  0  0  0  0
 12 30  1  0  0  0  0
 13 22  1  0  0  0  0
 13 14  1  0  0  0  0
 13 31  1  0  0  0  0
 14 15  1  0  0  0  0
 14 32  1  0  0  0  0
 14 33  1  0  0  0  0
 15 16  1  0  0  0  0
 15 34  1  0  0  0  0
 15 35  1  0  0  0  0
 16 17  1  0  0  0  0
 16 21  1  0  0  0  0
 16 43  1  0  0  0  0
 17 18  1  0  0  0  0
 17 36  1  0  0  0  0
 17 37  1  0  0  0  0
 18 19  1  0  0  0  0
 18 20  2  0  0  0  0
 19 38  1  0  0  0  0
 21 22  1  0  0  0  0
 21 39  1  0  0  0  0
 21 40  1  0  0  0  0
 22 41  1  0  0  0  0
 22 42  1  0  0  0  0
M  CHG  1  16   1
M  CHG  1  19  -1
M  END
> <s_m_source_file>
AV-unprocessed.smi

> <i_m_source_file_index>
1428

> <i_lp_mmshare_version>
43012

> <i_f3d_flags>
0

> <s_epik_input>
W0NIM11PYzFuW2NIXVtjSF1bY0hdYzFbTkhdQyg9TylbTkhdW0NIXTJbQ0gyXVtDSDJdTihbQ0gyXVtDSDJdMilbQ0gyXUMoPU8pW05IMl0=

> <s_epik_cmdline>
J2VwaWtfcHl0aG9uJywgJy1waCcsICc3LjAnLCAnLXRuJywgJzgnLCAnLW1hJywgJzIwMCcsICctbWV0YWxfYmluZGluZycsICctaW1hZScsICc8aW5maWxlLm1hZT4nLCAnLW9tYWUnLCAnPG91dGZpbGUubWFlPic=

> <r_lp_tautomer_probability>
1

> <r_epik_Ionization_Penalty>
5.72888

> <r_epik_Ionization_Penalty_Charging>
5.7288

> <r_epik_Ionization_Penalty_Neutral>
7.84403e-05

> <r_epik_State_Penalty>
6.54882

> <r_epik_Charging_Adjusted_Penalty>
12.2776

> <i_epik_Tot_Q>
0

> <i_epik_Tot_abs_Q>
2

> <r_epik_Metal_State_Penalty>
2.51301

> <b_epik_Metal_Only>
1

> <s_lp_Force_Field>
OPLS_2005

> <r_lp_Energy>
10.1368

> <b_lp_Chiralities_Consistent>
1

> <s_lp_Variant>
AV-unprocessed.smi:1428-5

> <Gold.Version>
5.8.1

> <Gold.Id.Protein>
6NUR|6NUR_protein|mol2

> <Gold.PLP.Fitness>
45.9212

> <Gold.PLP.PLP>
-37.6216

> <Gold.PLP.part.hbond>
-2.9920

> <Gold.PLP.part.metal>
0.0000

> <Gold.PLP.part.buried>
-2.2457

> <Gold.PLP.part.nonpolar>
-32.0427

> <Gold.PLP.part.repulsive>
0.3699

> <Gold.PLP.ligand.clash>
0.0000

> <Gold.PLP.ligand.torsion>
0.4042

> <Gold.PLP.Chemscore.Hbond>
3.0234

> <Gold.PLP.Chemscore.CHOScore>
0.0000

> <Gold.PLP.Chemscore.Metal>
0.0000

> <Gold.Chemscore.Hbonds>
donor molecule, donor type, donor heavy atom, donor atom, acceptor molecule, acceptor atom, score
      L1  H    16    43       P1  7948  2.00
      L1  H    19    38       P1  7948  0.75

> <Gold.PLP.Chemscore.Internal.Correction>
0.0377

> <Gold.Rescore>
     Score         DG    S(hbond)    S(metal)    S(lipo)     H(rot)  DE(clash)    DE(int)     intcor
     13.90     -15.98       1.90        0.00      85.71       2.29       0.58       1.50       ----

> <Gold.Chemscore.Fitness>
13.9035

> <Gold.Chemscore.DG>
-15.9836

> <Gold.Chemscore.ZeroCoef>
-5.4800

> <Gold.Chemscore.Hbond>
1.8970

> <Gold.Chemscore.Metal>
0.0000

> <Gold.Chemscore.Lipo>
85.7122

> <Gold.Chemscore.Internal_Hbond>
0.0000

> <Gold.Chemscore.DEClash>
0.5778

> <Gold.Chemscore.DEInternal>
1.5024

> <Gold.Chemscore.Rot>
2.2894

> <Gold.Chemscore.Internal.Correction>
   9.000000E+99

> <Gold.Chemscore.Hbonds>
donor molecule, donor type, donor heavy atom, donor atom, acceptor molecule, acceptor atom, score
      L1  H    16    43       P1  7948  0.91
      L1  H    19    38       P1  7948  0.09

> <Gold.Chemscore.Hbond.Weighted>
-6.3361

> <Gold.Chemscore.Metal.Weighted>
-0.0000

> <Gold.Chemscore.Lipo.Weighted>
-10.0283

> <Gold.Chemscore.Internal_Hbond.Weighted>
0.0000

> <Gold.Chemscore.DEClash.Weighted>
0.5778

> <Gold.Chemscore.DEInternal.Weighted>
1.5024

> <Gold.Chemscore.Rot.Weighted>
5.8608

> <Gold.Chemscore.Internal.Correction.Weighted>
   9.000000E+99

> <Gold.Protein.RotatedTorsions>
[ 6907 6896 6895 6894 ] final  114.18 input  -60.11 | X-H torsion
[ 7974 7965 7964 7962 ] final   88.12 input  175.53 | X-H torsion
[ 8008 7997 7996 7995 ] final   -5.25 input   59.86 | X-H torsion
[ 10167 10162 10161 10158 ] final  128.52 input  -65.29 | X-H torsion
[ 10718 10713 10712 10709 ] final  -76.90 input   66.30 | X-H torsion
[ 10763 10752 10751 10750 ] final -138.69 input  -60.55 | X-H torsion
[ 11005 11000 10999 10996 ] final -160.48 input  -57.11 | X-H torsion

> <Gold.Protein.ActiveResidues>
 VAL166  LYS551  ARG553  GLY616  TRP617  ASP618  TYR619  PRO620  LYS621  CYS622 
 ASP623  PHE694  ASN695  SER759  ASP760  ASP761  ALA762  ILE779  LEU786  VAL792 
 PHE793  MET794  SER795  GLU796  ALA797  LYS798  CYS799  TRP800  GLU811  SER814 

> <Gold.Protein.RotatedAtoms>
  152.4818  133.8273  159.7084 H   0  0  0  0  0  0  0  0  0  0  0  0  # atno 6907 bound_to 6896
  150.8873  133.7281  159.2921 H   0  0  0  0  0  0  0  0  0  0  0  0  # atno 6908 bound_to 6896
  151.4765  135.1053  159.9818 H   0  0  0  0  0  0  0  0  0  0  0  0  # atno 6909 bound_to 6896
  145.5500  139.2295  143.2518 H   0  0  0  0  0  0  0  0  0  0  0  0  # atno 7974 bound_to 7965
  154.6059  140.2463  155.7732 H   0  0  0  0  0  0  0  0  0  0  0  0  # atno 8008 bound_to 7997
  156.2340  140.2956  156.0215 H   0  0  0  0  0  0  0  0  0  0  0  0  # atno 8009 bound_to 7997
  155.2133  140.0398  157.2927 H   0  0  0  0  0  0  0  0  0  0  0  0  # atno 8010 bound_to 7997
  139.5523  144.6822  151.4287 H   0  0  0  0  0  0  0  0  0  0  0  0  # atno 10167 bound_to 10162
  156.0161  130.4477  150.3263 H   0  0  0  0  0  0  0  0  0  0  0  0  # atno 10718 bound_to 10713
  154.8630  135.3604  154.5425 H   0  0  0  0  0  0  0  0  0  0  0  0  # atno 10763 bound_to 10752
  153.6046  135.7011  153.5375 H   0  0  0  0  0  0  0  0  0  0  0  0  # atno 10764 bound_to 10752
  153.3261  135.4137  155.1418 H   0  0  0  0  0  0  0  0  0  0  0  0  # atno 10765 bound_to 10752
  140.6310  134.4651  157.5229 H   0  0  0  0  0  0  0  0  0  0  0  0  # atno 11005 bound_to 11000
  146.1923  140.6322  142.9140 LP  0  0  0  0  0  0  0  0  0  0  0  0  # atno 17320 bound_to 7965
  144.7534  140.5248  143.6786 LP  0  0  0  0  0  0  0  0  0  0  0  0  # atno 17321 bound_to 7965
  140.6788  143.8128  150.7094 LP  0  0  0  0  0  0  0  0  0  0  0  0  # atno 17342 bound_to 10162
  140.1575  143.4304  152.2089 LP  0  0  0  0  0  0  0  0  0  0  0  0  # atno 17343 bound_to 10162
  157.1362  131.0284  151.2948 LP  0  0  0  0  0  0  0  0  0  0  0  0  # atno 17370 bound_to 10713
  157.4510  130.7598  149.7151 LP  0  0  0  0  0  0  0  0  0  0  0  0  # atno 17371 bound_to 10713
  139.9116  134.8333  156.1509 LP  0  0  0  0  0  0  0  0  0  0  0  0  # atno 17394 bound_to 11000
  141.0675  133.6812  156.2074 LP  0  0  0  0  0  0  0  0  0  0  0  0  # atno 17395 bound_to 11000

$$$$
