AV-unprocessed.smi:1273|AV-procd|sdf|5338|dock3
  -GOLD-   22720 4473D 1   1.00000     0.00000
 Structure written by MMmdl.
 40 41  0  0  0  0  0  0  0  0  1 V2000
  151.3202  137.1233  155.5784 C   0  0  0  0  0  0  0  0  0  0  0  0
  151.0846  136.2775  156.8403 C   0  0  2  0  0  0  0  0  0  0  0  0
  150.6467  134.8475  156.4945 C   0  0  0  0  0  0  0  0  0  0  0  0
  150.8672  133.9311  157.2855 O   0  0  0  0  0  0  0  0  0  0  0  0
  150.0455  134.6950  155.2994 N   0  0  0  0  0  0  0  0  0  0  0  0
  149.5437  133.5075  154.7023 C   0  0  0  0  0  0  0  0  0  0  0  0
  150.1065  132.2798  155.1005 C   0  0  0  0  0  0  0  0  0  0  0  0
  149.6449  131.0867  154.5133 C   0  0  0  0  0  0  0  0  0  0  0  0
  148.6284  131.1495  153.5312 C   0  0  0  0  0  0  0  0  0  0  0  0
  148.1460  129.9666  152.9290 N   0  0  0  0  0  0  0  0  0  0  0  0
  146.7014  129.7408  152.9211 C   0  0  0  0  0  0  0  0  0  0  0  0
  146.3451  128.5758  151.9826 C   0  0  0  0  0  0  0  0  0  0  0  0
  147.0803  127.4160  152.3575 O   0  0  0  0  0  0  0  0  0  0  0  0
  148.4846  127.6230  152.2495 C   0  0  0  0  0  0  0  0  0  0  0  0
  148.9194  128.7558  153.1954 C   0  0  0  0  0  0  0  0  0  0  0  0
  148.1016  132.3337  153.1338 N   0  0  0  0  0  0  0  0  0  0  0  0
  148.5455  133.4756  153.7001 C   0  0  0  0  0  0  0  0  0  0  0  0
  149.8117  137.0904  157.9165 S   0  0  0  0  0  0  0  0  0  0  0  0
  150.5448  138.7465  158.2556 C   0  0  0  0  0  0  0  0  0  0  0  0
  148.5946  137.2835  157.1133 O   0  0  0  0  0  0  0  0  0  0  0  0
  149.7246  136.3609  159.1910 O   0  0  0  0  0  0  0  0  0  0  0  0
  152.0445  136.6516  154.9133 H   0  0  0  0  0  0  0  0  0  0  0  0
  151.7082  138.1080  155.8394 H   0  0  0  0  0  0  0  0  0  0  0  0
  150.3970  137.2729  155.0172 H   0  0  0  0  0  0  0  0  0  0  0  0
  152.0126  136.2427  157.4123 H   0  0  0  0  0  0  0  0  0  0  0  0
  149.9957  135.5214  154.7216 H   0  0  0  0  0  0  0  0  0  0  0  0
  150.8853  132.2477  155.8486 H   0  0  0  0  0  0  0  0  0  0  0  0
  150.0848  130.1465  154.8103 H   0  0  0  0  0  0  0  0  0  0  0  0
  146.3649  129.5198  153.9350 H   0  0  0  0  0  0  0  0  0  0  0  0
  146.1789  130.6401  152.5921 H   0  0  0  0  0  0  0  0  0  0  0  0
  145.2792  128.3564  152.0446 H   0  0  0  0  0  0  0  0  0  0  0  0
  146.5570  128.8346  150.9438 H   0  0  0  0  0  0  0  0  0  0  0  0
  149.0000  126.6985  152.5101 H   0  0  0  0  0  0  0  0  0  0  0  0
  148.7507  127.8553  151.2172 H   0  0  0  0  0  0  0  0  0  0  0  0
  149.9887  128.9229  153.0768 H   0  0  0  0  0  0  0  0  0  0  0  0
  148.7583  128.4575  154.2320 H   0  0  0  0  0  0  0  0  0  0  0  0
  148.0932  134.3742  153.3113 H   0  0  0  0  0  0  0  0  0  0  0  0
  149.8286  139.3475  158.8157 H   0  0  0  0  0  0  0  0  0  0  0  0
  150.7756  139.2453  157.3145 H   0  0  0  0  0  0  0  0  0  0  0  0
  151.4540  138.6374  158.8464 H   0  0  0  0  0  0  0  0  0  0  0  0
  1  2  1  0  0  0  0
  1 22  1  0  0  0  0
  1 23  1  0  0  0  0
  1 24  1  0  0  0  0
  2  3  1  0  0  0  0
  2 18  1  0  0  0  0
  2 25  1  0  0  0  0
  3  4  2  0  0  0  0
  3  5  1  0  0  0  0
  5  6  1  0  0  0  0
  5 26  1  0  0  0  0
  6 17  1  0  0  0  0
  6  7  2  0  0  0  0
  7  8  1  0  0  0  0
  7 27  1  0  0  0  0
  8  9  2  0  0  0  0
  8 28  1  0  0  0  0
  9 10  1  0  0  0  0
  9 16  1  0  0  0  0
 10 15  1  0  0  0  0
 10 11  1  0  0  0  0
 11 12  1  0  0  0  0
 11 29  1  0  0  0  0
 11 30  1  0  0  0  0
 12 13  1  0  0  0  0
 12 31  1  0  0  0  0
 12 32  1  0  0  0  0
 13 14  1  0  0  0  0
 14 15  1  0  0  0  0
 14 33  1  0  0  0  0
 14 34  1  0  0  0  0
 15 35  1  0  0  0  0
 15 36  1  0  0  0  0
 16 17  2  0  0  0  0
 17 37  1  0  0  0  0
 18 19  1  0  0  0  0
 18 20  2  0  0  0  0
 18 21  2  0  0  0  0
 19 38  1  0  0  0  0
 19 39  1  0  0  0  0
 19 40  1  0  0  0  0
M  END
> <s_m_source_file>
AV-unprocessed.smi

> <i_m_source_file_index>
1273

> <i_lp_mmshare_version>
43012

> <i_f3d_flags>
0

> <s_epik_input>
W0NIM11TKD1PKSg9TylbQ0BIXShbQ0gzXSlDKD1PKVtOSF1jMVtjSF1bY0hdYyhuW2NIXTEpTjJbQ0gyXVtDSDJdT1tDSDJdW0NIMl0y

> <s_epik_cmdline>
J2VwaWtfcHl0aG9uJywgJy1waCcsICc3LjAnLCAnLXRuJywgJzgnLCAnLW1hJywgJzIwMCcsICctbWV0YWxfYmluZGluZycsICctaW1hZScsICc8aW5maWxlLm1hZT4nLCAnLW9tYWUnLCAnPG91dGZpbGUubWFlPic=

> <r_lp_tautomer_probability>
1

> <r_epik_Ionization_Penalty>
0.000253983

> <r_epik_Ionization_Penalty_Charging>
0

> <r_epik_Ionization_Penalty_Neutral>
0.000253983

> <r_epik_State_Penalty>
-0

> <r_epik_Charging_Adjusted_Penalty>
0

> <i_epik_Tot_Q>
0

> <i_epik_Tot_abs_Q>
0

> <r_epik_Metal_State_Penalty>
-0

> <b_epik_Metal_Only>
0

> <s_lp_Force_Field>
OPLS_2005

> <r_lp_Energy>
19.002

> <b_lp_Chiralities_Consistent>
1

> <s_lp_Variant>
AV-unprocessed.smi:1273-1

> <Gold.Version>
5.8.1

> <Gold.Id.Protein>
6NUR|6NUR_protein|mol2

> <Gold.PLP.Fitness>
36.3865

> <Gold.PLP.PLP>
-30.3948

> <Gold.PLP.part.hbond>
-2.0000

> <Gold.PLP.part.metal>
0.0000

> <Gold.PLP.part.buried>
-5.7864

> <Gold.PLP.part.nonpolar>
-24.6277

> <Gold.PLP.part.repulsive>
1.9869

> <Gold.PLP.ligand.clash>
0.0000

> <Gold.PLP.ligand.torsion>
1.0466

> <Gold.PLP.Chemscore.Hbond>
1.5360

> <Gold.PLP.Chemscore.CHOScore>
0.9939

> <Gold.PLP.Chemscore.Metal>
0.0000

> <Gold.Chemscore.Hbonds>
donor molecule, donor type, donor heavy atom, donor atom, acceptor molecule, acceptor atom, score
      P1  H  6896  6907       L1     4  0.56
      P1  H  6896  6908       L1    21  0.98
      L1  C    17    37       P1  7948  1.00

> <Gold.PLP.Chemscore.Internal.Correction>
0.4952

> <Gold.Rescore>
     Score         DG    S(hbond)    S(metal)    S(lipo)     H(rot)  DE(clash)    DE(int)     intcor
     11.71     -14.20       1.59        0.00      63.18       1.56       0.25       2.23       ----

> <Gold.Chemscore.Fitness>
11.7124

> <Gold.Chemscore.DG>
-14.1953

> <Gold.Chemscore.ZeroCoef>
-5.4800

> <Gold.Chemscore.Hbond>
1.5937

> <Gold.Chemscore.Metal>
0.0000

> <Gold.Chemscore.Lipo>
63.1803

> <Gold.Chemscore.Internal_Hbond>
0.0000

> <Gold.Chemscore.DEClash>
0.2542

> <Gold.Chemscore.DEInternal>
2.2287

> <Gold.Chemscore.Rot>
1.5624

> <Gold.Chemscore.Internal.Correction>
   9.000000E+99

> <Gold.Chemscore.Hbonds>
donor molecule, donor type, donor heavy atom, donor atom, acceptor molecule, acceptor atom, score
      P1  H  6896  6907       L1     4  0.55
      P1  H  6896  6908       L1    21  0.86

> <Gold.Chemscore.Hbond.Weighted>
-5.3228

> <Gold.Chemscore.Metal.Weighted>
-0.0000

> <Gold.Chemscore.Lipo.Weighted>
-7.3921

> <Gold.Chemscore.Internal_Hbond.Weighted>
0.0000

> <Gold.Chemscore.DEClash.Weighted>
0.2542

> <Gold.Chemscore.DEInternal.Weighted>
2.2287

> <Gold.Chemscore.Rot.Weighted>
3.9996

> <Gold.Chemscore.Internal.Correction.Weighted>
   9.000000E+99

> <Gold.Protein.RotatedTorsions>
[ 6907 6896 6895 6894 ] final -143.88 input  -60.11 | X-H torsion
[ 7974 7965 7964 7962 ] final   -3.92 input  175.53 | X-H torsion
[ 8008 7997 7996 7995 ] final -179.54 input   59.86 | X-H torsion
[ 10167 10162 10161 10158 ] final -179.81 input  -65.29 | X-H torsion
[ 10718 10713 10712 10709 ] final   -1.47 input   66.30 | X-H torsion
[ 10763 10752 10751 10750 ] final   24.31 input  -60.55 | X-H torsion
[ 11005 11000 10999 10996 ] final   59.63 input  -57.11 | X-H torsion

> <Gold.Protein.ActiveResidues>
 VAL166  LYS551  ARG553  GLY616  TRP617  ASP618  TYR619  PRO620  LYS621  CYS622 
 ASP623  PHE694  ASN695  SER759  ASP760  ASP761  ALA762  ILE779  LEU786  VAL792 
 PHE793  MET794  SER795  GLU796  ALA797  LYS798  CYS799  TRP800  GLU811  SER814 

> <Gold.Protein.RotatedAtoms>
  151.1065  133.5204  159.2607 H   0  0  0  0  0  0  0  0  0  0  0  0  # atno 6907 bound_to 6896
  151.2015  135.0444  159.8884 H   0  0  0  0  0  0  0  0  0  0  0  0  # atno 6908 bound_to 6896
  152.5447  134.0893  159.8323 H   0  0  0  0  0  0  0  0  0  0  0  0  # atno 6909 bound_to 6896
  146.2381  140.1793  142.8332 H   0  0  0  0  0  0  0  0  0  0  0  0  # atno 7974 bound_to 7965
  156.0316  140.1283  157.0251 H   0  0  0  0  0  0  0  0  0  0  0  0  # atno 8008 bound_to 7997
  154.4352  140.1048  156.6179 H   0  0  0  0  0  0  0  0  0  0  0  0  # atno 8009 bound_to 7997
  155.5798  140.3468  155.4539 H   0  0  0  0  0  0  0  0  0  0  0  0  # atno 8010 bound_to 7997
  139.5369  144.2471  152.0814 H   0  0  0  0  0  0  0  0  0  0  0  0  # atno 10167 bound_to 10162
  156.8052  130.5406  149.5716 H   0  0  0  0  0  0  0  0  0  0  0  0  # atno 10718 bound_to 10713
  153.0773  135.6608  154.0118 H   0  0  0  0  0  0  0  0  0  0  0  0  # atno 10763 bound_to 10752
  153.9749  135.2961  155.3426 H   0  0  0  0  0  0  0  0  0  0  0  0  # atno 10764 bound_to 10752
  154.7164  135.5183  153.8816 H   0  0  0  0  0  0  0  0  0  0  0  0  # atno 10765 bound_to 10752
  140.0290  134.6040  155.9533 H   0  0  0  0  0  0  0  0  0  0  0  0  # atno 11005 bound_to 11000
  144.9947  140.8579  143.5318 LP  0  0  0  0  0  0  0  0  0  0  0  0  # atno 17320 bound_to 7965
  145.1804  139.2355  143.5295 LP  0  0  0  0  0  0  0  0  0  0  0  0  # atno 17321 bound_to 7965
  140.1943  144.4721  150.6463 LP  0  0  0  0  0  0  0  0  0  0  0  0  # atno 17342 bound_to 10162
  140.6581  143.2243  151.5922 LP  0  0  0  0  0  0  0  0  0  0  0  0  # atno 17343 bound_to 10162
  156.1077  130.6017  150.9998 LP  0  0  0  0  0  0  0  0  0  0  0  0  # atno 17370 bound_to 10713
  157.6534  131.0893  150.8001 LP  0  0  0  0  0  0  0  0  0  0  0  0  # atno 17371 bound_to 10713
  141.1820  133.6548  156.5059 LP  0  0  0  0  0  0  0  0  0  0  0  0  # atno 17394 bound_to 11000
  140.4257  134.7147  157.4914 LP  0  0  0  0  0  0  0  0  0  0  0  0  # atno 17395 bound_to 11000

$$$$
