AV-unprocessed.smi:1867|AV-procd|sdf|7565|dock2
  -GOLD-   22720 9283D 1   1.00000     0.00000
 Structure written by MMmdl.
 52 55  0  0  0  0  0  0  0  0  2 V2000
  149.1030  135.0667  155.9139 O   0  0  0  0  0  0  0  0  0  0  0  0
  149.1200  135.3798  154.7260 C   0  0  0  0  0  0  0  0  0  0  0  0
  149.5565  136.5624  154.2513 N   0  0  0  0  0  0  0  0  0  0  0  0
  150.0920  137.6627  154.9712 C   0  0  0  0  0  0  0  0  0  0  0  0
  150.1539  137.5679  156.3747 C   0  0  0  0  0  0  0  0  0  0  0  0
  150.6590  138.6520  157.1165 C   0  0  0  0  0  0  0  0  0  0  0  0
  151.0837  139.8145  156.4308 C   0  0  0  0  0  0  0  0  0  0  0  0
  151.5868  140.9269  157.1337 N   0  0  0  0  0  0  0  0  0  0  0  0
  152.0294  140.8273  158.5157 C   0  0  0  0  0  0  0  0  0  0  0  0
  152.3676  142.2623  158.9161 C   0  0  0  0  0  0  0  0  0  0  0  0
  151.3737  143.0920  158.1033 C   0  0  0  0  0  0  0  0  0  0  0  0
  151.1842  142.2888  156.8111 C   0  0  0  0  0  0  0  0  0  0  0  0
  151.0062  139.9137  155.0825 N   0  0  0  0  0  0  0  0  0  0  0  0
  150.5252  138.8703  154.3747 C   0  0  0  0  0  0  0  0  0  0  0  0
  148.6612  134.5389  153.7813 N   0  0  0  0  0  0  0  0  0  0  0  0
  148.1183  133.1879  153.9411 C   0  0  1  0  0  0  0  0  0  0  0  0
  147.0487  132.8566  152.9068 C   0  0  0  0  0  0  0  0  0  0  0  0
  147.0221  131.3278  152.9442 C   0  0  0  0  0  0  0  0  0  0  0  0
  148.4129  130.9036  153.2243 N   0  3  2  0  0  0  0  0  0  0  0  0
  148.5278  129.6891  154.0682 C   0  0  0  0  0  0  0  0  0  0  0  0
  150.0052  129.3135  154.2857 C   0  0  0  0  0  0  0  0  0  0  0  0
  150.8717  130.5053  154.7437 C   0  0  0  0  0  0  0  0  0  0  0  0
  150.0488  131.7876  154.9412 C   0  0  0  0  0  0  0  0  0  0  0  0
  149.1738  132.0929  153.7036 C   0  0  2  0  0  0  0  0  0  0  0  0
  149.4344  136.7139  153.2613 H   0  0  0  0  0  0  0  0  0  0  0  0
  149.8203  136.6740  156.8813 H   0  0  0  0  0  0  0  0  0  0  0  0
  150.7043  138.5817  158.1930 H   0  0  0  0  0  0  0  0  0  0  0  0
  151.2182  140.4364  159.1310 H   0  0  0  0  0  0  0  0  0  0  0  0
  152.8910  140.1666  158.6171 H   0  0  0  0  0  0  0  0  0  0  0  0
  152.2908  142.4324  159.9902 H   0  0  0  0  0  0  0  0  0  0  0  0
  153.3860  142.5015  158.6073 H   0  0  0  0  0  0  0  0  0  0  0  0
  150.4255  143.1494  158.6395 H   0  0  0  0  0  0  0  0  0  0  0  0
  151.7174  144.1106  157.9219 H   0  0  0  0  0  0  0  0  0  0  0  0
  151.8323  142.6692  156.0211 H   0  0  0  0  0  0  0  0  0  0  0  0
  150.1515  142.3436  156.4653 H   0  0  0  0  0  0  0  0  0  0  0  0
  150.4717  139.0337  153.3098 H   0  0  0  0  0  0  0  0  0  0  0  0
  148.6861  134.8873  152.8336 H   0  0  0  0  0  0  0  0  0  0  0  0
  147.6638  133.0597  154.9256 H   0  0  0  0  0  0  0  0  0  0  0  0
  146.0804  133.3018  153.1380 H   0  0  0  0  0  0  0  0  0  0  0  0
  147.3529  133.2000  151.9168 H   0  0  0  0  0  0  0  0  0  0  0  0
  146.3632  131.0002  153.7501 H   0  0  0  0  0  0  0  0  0  0  0  0
  146.6525  130.8930  152.0153 H   0  0  0  0  0  0  0  0  0  0  0  0
  148.0396  129.8614  155.0287 H   0  0  0  0  0  0  0  0  0  0  0  0
  147.9984  128.8632  153.5917 H   0  0  0  0  0  0  0  0  0  0  0  0
  150.0694  128.5055  155.0151 H   0  0  0  0  0  0  0  0  0  0  0  0
  150.4152  128.9115  153.3581 H   0  0  0  0  0  0  0  0  0  0  0  0
  151.3970  130.2561  155.6661 H   0  0  0  0  0  0  0  0  0  0  0  0
  151.6452  130.6912  153.9976 H   0  0  0  0  0  0  0  0  0  0  0  0
  149.4217  131.6794  155.8274 H   0  0  0  0  0  0  0  0  0  0  0  0
  150.7175  132.6243  155.1449 H   0  0  0  0  0  0  0  0  0  0  0  0
  149.8210  132.3877  152.8757 H   0  0  0  0  0  0  0  0  0  0  0  0
  148.8240  130.6655  152.3328 H   0  0  0  0  0  0  0  0  0  0  0  0
  1  2  2  0  0  0  0
  2  3  1  0  0  0  0
  2 15  1  0  0  0  0
  3  4  1  0  0  0  0
  3 25  1  0  0  0  0
  4 14  1  0  0  0  0
  4  5  2  0  0  0  0
  5  6  1  0  0  0  0
  5 26  1  0  0  0  0
  6  7  2  0  0  0  0
  6 27  1  0  0  0  0
  7  8  1  0  0  0  0
  7 13  1  0  0  0  0
  8 12  1  0  0  0  0
  8  9  1  0  0  0  0
  9 10  1  0  0  0  0
  9 28  1  0  0  0  0
  9 29  1  0  0  0  0
 10 11  1  0  0  0  0
 10 30  1  0  0  0  0
 10 31  1  0  0  0  0
 11 12  1  0  0  0  0
 11 32  1  0  0  0  0
 11 33  1  0  0  0  0
 12 34  1  0  0  0  0
 12 35  1  0  0  0  0
 13 14  2  0  0  0  0
 14 36  1  0  0  0  0
 15 16  1  0  0  0  0
 15 37  1  0  0  0  0
 16 24  1  0  0  0  0
 16 17  1  0  0  0  0
 16 38  1  0  0  0  0
 17 18  1  0  0  0  0
 17 39  1  0  0  0  0
 17 40  1  0  0  0  0
 18 19  1  0  0  0  0
 18 41  1  0  0  0  0
 18 42  1  0  0  0  0
 19 24  1  0  0  0  0
 19 20  1  0  0  0  0
 19 52  1  0  0  0  0
 20 21  1  0  0  0  0
 20 43  1  0  0  0  0
 20 44  1  0  0  0  0
 21 22  1  0  0  0  0
 21 45  1  0  0  0  0
 21 46  1  0  0  0  0
 22 23  1  0  0  0  0
 22 47  1  0  0  0  0
 22 48  1  0  0  0  0
 23 24  1  0  0  0  0
 23 49  1  0  0  0  0
 23 50  1  0  0  0  0
 24 51  1  0  0  0  0
M  CHG  1  19   1
M  END
> <s_m_source_file>
AV-unprocessed.smi

> <i_m_source_file_index>
1867

> <i_lp_mmshare_version>
43012

> <i_f3d_flags>
0

> <s_epik_input>
W0NIMl0xW0NIMl1bQ0gyXVtDSDJdW0NASF0oTjEyKVtDQEBIXShbQ0gyXVtDSDJdMilbTkhdQyg9TylbTkhdYzNbY0hdW2NIXWMobltjSF0zKU40W0NIMl1bQ0gyXVtDSDJdW0NIMl00

> <s_epik_cmdline>
J2VwaWtfcHl0aG9uJywgJy1waCcsICc3LjAnLCAnLXRuJywgJzgnLCAnLW1hJywgJzIwMCcsICctbWV0YWxfYmluZGluZycsICctaW1hZScsICc8aW5maWxlLm1hZT4nLCAnLW9tYWUnLCAnPG91dGZpbGUubWFlPic=

> <r_lp_tautomer_probability>
1

> <r_epik_Ionization_Penalty>
0.0751123

> <r_epik_Ionization_Penalty_Charging>
0.000974069

> <r_epik_Ionization_Penalty_Neutral>
0.0741382

> <r_epik_State_Penalty>
0.0647261

> <r_epik_Charging_Adjusted_Penalty>
0.0657002

> <i_epik_Tot_Q>
1

> <i_epik_Tot_abs_Q>
1

> <r_epik_Metal_State_Penalty>
0.0580571

> <b_epik_Metal_Only>
0

> <s_lp_Force_Field>
OPLS_2005

> <r_lp_Energy>
75.5013

> <b_lp_Chiralities_Consistent>
1

> <s_lp_Variant>
AV-unprocessed.smi:1867-6

> <Gold.Version>
5.8.1

> <Gold.Id.Protein>
6NUR|6NUR_protein|mol2

> <Gold.PLP.Fitness>
49.9137

> <Gold.PLP.PLP>
-37.3671

> <Gold.PLP.part.hbond>
-4.0816

> <Gold.PLP.part.metal>
0.0000

> <Gold.PLP.part.buried>
-2.9071

> <Gold.PLP.part.nonpolar>
-29.6725

> <Gold.PLP.part.repulsive>
0.1124

> <Gold.PLP.ligand.clash>
0.0000

> <Gold.PLP.ligand.torsion>
0.7706

> <Gold.PLP.Chemscore.Hbond>
3.6353

> <Gold.PLP.Chemscore.CHOScore>
1.0000

> <Gold.PLP.Chemscore.Metal>
0.0000

> <Gold.Chemscore.Hbonds>
donor molecule, donor type, donor heavy atom, donor atom, acceptor molecule, acceptor atom, score
      L1  H     3    25       P1  7948  0.99
      L1  H    15    37       P1  7948  0.93
      L1  H    19    52       P1 10747  0.98
      P1  H  7989  7998       L1    13  0.70
      L1  C    14    36       P1  7957  1.00

> <Gold.PLP.Chemscore.Internal.Correction>
0.1820

> <Gold.Rescore>
     Score         DG    S(hbond)    S(metal)    S(lipo)     H(rot)  DE(clash)    DE(int)     intcor
     20.48     -22.68       2.73        0.00      91.13       1.00       0.00       2.20       ----

> <Gold.Chemscore.Fitness>
20.4786

> <Gold.Chemscore.DG>
-22.6843

> <Gold.Chemscore.ZeroCoef>
-5.4800

> <Gold.Chemscore.Hbond>
2.7250

> <Gold.Chemscore.Metal>
0.0000

> <Gold.Chemscore.Lipo>
91.1346

> <Gold.Chemscore.Internal_Hbond>
0.0000

> <Gold.Chemscore.DEClash>
0.0013

> <Gold.Chemscore.DEInternal>
2.2044

> <Gold.Chemscore.Rot>
1.0000

> <Gold.Chemscore.Internal.Correction>
   9.000000E+99

> <Gold.Chemscore.Hbonds>
donor molecule, donor type, donor heavy atom, donor atom, acceptor molecule, acceptor atom, score
      L1  H     3    25       P1  7948  0.73
      L1  H    15    37       P1  7948  0.23
      L1  H    19    52       P1 10747  0.44
      P1  H  7989  7998       L1    13  0.07

> <Gold.Chemscore.Hbond.Weighted>
-9.1015

> <Gold.Chemscore.Metal.Weighted>
-0.0000

> <Gold.Chemscore.Lipo.Weighted>
-10.6627

> <Gold.Chemscore.Internal_Hbond.Weighted>
0.0000

> <Gold.Chemscore.DEClash.Weighted>
0.0013

> <Gold.Chemscore.DEInternal.Weighted>
2.2044

> <Gold.Chemscore.Rot.Weighted>
2.5600

> <Gold.Chemscore.Internal.Correction.Weighted>
   9.000000E+99

> <Gold.Protein.RotatedTorsions>
[ 6907 6896 6895 6894 ] final   23.75 input  -60.11 | X-H torsion
[ 7974 7965 7964 7962 ] final  -13.74 input  175.53 | X-H torsion
[ 8008 7997 7996 7995 ] final -135.54 input   59.86 | X-H torsion
[ 10167 10162 10161 10158 ] final  128.37 input  -65.29 | X-H torsion
[ 10718 10713 10712 10709 ] final  144.91 input   66.30 | X-H torsion
[ 10763 10752 10751 10750 ] final   75.58 input  -60.55 | X-H torsion
[ 11005 11000 10999 10996 ] final   18.49 input  -57.11 | X-H torsion

> <Gold.Protein.ActiveResidues>
 VAL166  LYS551  ARG553  GLY616  TRP617  ASP618  TYR619  PRO620  LYS621  CYS622 
 ASP623  PHE694  ASN695  SER759  ASP760  ASP761  ALA762  ILE779  LEU786  VAL792 
 PHE793  MET794  SER795  GLU796  ALA797  LYS798  CYS799  TRP800  GLU811  SER814 

> <Gold.Protein.RotatedAtoms>
  151.9471  135.0186  160.0539 H   0  0  0  0  0  0  0  0  0  0  0  0  # atno 6907 bound_to 6896
  152.1986  133.4820  159.5054 H   0  0  0  0  0  0  0  0  0  0  0  0  # atno 6908 bound_to 6896
  150.6950  134.1537  159.4193 H   0  0  0  0  0  0  0  0  0  0  0  0  # atno 6909 bound_to 6896
  146.2102  140.3248  142.8393 H   0  0  0  0  0  0  0  0  0  0  0  0  # atno 7974 bound_to 7965
  155.3803  140.0493  157.3044 H   0  0  0  0  0  0  0  0  0  0  0  0  # atno 8008 bound_to 7997
  154.5086  140.2183  155.9164 H   0  0  0  0  0  0  0  0  0  0  0  0  # atno 8009 bound_to 7997
  156.1555  140.3127  155.8724 H   0  0  0  0  0  0  0  0  0  0  0  0  # atno 8010 bound_to 7997
  139.5530  144.6828  151.4265 H   0  0  0  0  0  0  0  0  0  0  0  0  # atno 10167 bound_to 10162
  157.3515  131.0951  151.0995 H   0  0  0  0  0  0  0  0  0  0  0  0  # atno 10718 bound_to 10713
  153.0665  135.4983  154.8211 H   0  0  0  0  0  0  0  0  0  0  0  0  # atno 10763 bound_to 10752
  154.6961  135.2993  154.9412 H   0  0  0  0  0  0  0  0  0  0  0  0  # atno 10764 bound_to 10752
  154.0151  135.6749  153.4821 H   0  0  0  0  0  0  0  0  0  0  0  0  # atno 10765 bound_to 10752
  140.4242  134.1487  155.7675 H   0  0  0  0  0  0  0  0  0  0  0  0  # atno 11005 bound_to 11000
  144.8894  140.7504  143.5936 LP  0  0  0  0  0  0  0  0  0  0  0  0  # atno 17320 bound_to 7965
  145.3170  139.1800  143.4608 LP  0  0  0  0  0  0  0  0  0  0  0  0  # atno 17321 bound_to 7965
  140.6797  143.8109  150.7105 LP  0  0  0  0  0  0  0  0  0  0  0  0  # atno 17342 bound_to 10162
  140.1558  143.4318  152.2100 LP  0  0  0  0  0  0  0  0  0  0  0  0  # atno 17343 bound_to 10162
  157.2169  130.6463  149.5796 LP  0  0  0  0  0  0  0  0  0  0  0  0  # atno 17370 bound_to 10713
  155.9722  130.4642  150.6208 LP  0  0  0  0  0  0  0  0  0  0  0  0  # atno 17371 bound_to 10713
  141.1772  133.8490  157.1383 LP  0  0  0  0  0  0  0  0  0  0  0  0  # atno 17394 bound_to 11000
  140.0179  134.9959  157.0530 LP  0  0  0  0  0  0  0  0  0  0  0  0  # atno 17395 bound_to 11000

$$$$
