AV-unprocessed.smi:1413|AV-procd|sdf|5756|dock6
  -GOLD-   22720 5393D 1   1.00000     0.00000
 Structure written by MMmdl.
 53 55  0  0  0  0  0  0  0  0  1 V2000
  152.1708  144.3719  156.9301 C   0  0  0  0  0  0  0  0  0  0  0  0
  151.2477  143.7174  157.9731 C   0  0  1  0  0  0  0  0  0  0  0  0
  150.5486  142.4426  157.4609 C   0  0  0  0  0  0  0  0  0  0  0  0
  151.4746  141.3143  157.4225 N   0  0  0  0  0  0  0  0  0  0  0  0
  151.0193  140.1845  156.7099 C   0  0  0  0  0  0  0  0  0  0  0  0
  150.7090  138.9895  157.3989 C   0  0  0  0  0  0  0  0  0  0  0  0
  150.2625  137.8729  156.6676 C   0  0  0  0  0  0  0  0  0  0  0  0
  150.1317  137.9684  155.2685 C   0  0  0  0  0  0  0  0  0  0  0  0
  149.6875  136.8113  154.5697 N   0  0  0  0  0  0  0  0  0  0  0  0
  149.3975  135.5858  155.0408 C   0  0  0  0  0  0  0  0  0  0  0  0
  149.4859  135.2287  156.2145 O   0  0  0  0  0  0  0  0  0  0  0  0
  148.9972  134.7740  154.0519 N   0  0  0  0  0  0  0  0  0  0  0  0
  148.5953  133.3779  154.2123 C   0  0  2  0  0  0  0  0  0  0  0  0
  149.7746  132.5529  154.7540 C   0  0  0  0  0  0  0  0  0  0  0  0
  148.0758  132.8247  152.8712 C   0  0  2  0  0  0  0  0  0  0  0  0
  146.9114  133.6132  152.2646 C   0  0  0  0  0  0  0  0  0  0  0  0
  146.2269  132.5592  151.4261 C   0  0  0  0  0  0  0  0  0  0  0  0
  146.3552  131.3305  152.3193 C   0  0  0  0  0  0  0  0  0  0  0  0
  147.5743  131.4992  153.0375 O   0  0  0  0  0  0  0  0  0  0  0  0
  150.4643  139.2058  154.6659 C   0  0  0  0  0  0  0  0  0  0  0  0
  150.8905  140.2796  155.3643 N   0  0  0  0  0  0  0  0  0  0  0  0
  152.1627  141.0948  158.6916 C   0  0  0  0  0  0  0  0  0  0  0  0
  152.8701  142.3839  159.1463 C   0  0  2  0  0  0  0  0  0  0  0  0
  153.4987  142.2325  160.5353 C   0  0  0  0  0  0  0  0  0  0  0  0
  151.9259  143.4524  159.2031 O   0  0  0  0  0  0  0  0  0  0  0  0
  151.6017  144.6855  156.0550 H   0  0  0  0  0  0  0  0  0  0  0  0
  152.9495  143.6938  156.5819 H   0  0  0  0  0  0  0  0  0  0  0  0
  152.6556  145.2569  157.3424 H   0  0  0  0  0  0  0  0  0  0  0  0
  150.4721  144.4473  158.2062 H   0  0  0  0  0  0  0  0  0  0  0  0
  149.7277  142.1837  158.1308 H   0  0  0  0  0  0  0  0  0  0  0  0
  150.1035  142.6397  156.4866 H   0  0  0  0  0  0  0  0  0  0  0  0
  150.7963  138.9223  158.4731 H   0  0  0  0  0  0  0  0  0  0  0  0
  150.0219  136.9533  157.1810 H   0  0  0  0  0  0  0  0  0  0  0  0
  149.5889  136.9289  153.5720 H   0  0  0  0  0  0  0  0  0  0  0  0
  148.9585  135.1501  153.1159 H   0  0  0  0  0  0  0  0  0  0  0  0
  147.7769  133.3255  154.9328 H   0  0  0  0  0  0  0  0  0  0  0  0
  149.4908  131.5105  154.9001 H   0  0  0  0  0  0  0  0  0  0  0  0
  150.1146  132.9344  155.7172 H   0  0  0  0  0  0  0  0  0  0  0  0
  150.6224  132.5736  154.0686 H   0  0  0  0  0  0  0  0  0  0  0  0
  148.8875  132.7795  152.1428 H   0  0  0  0  0  0  0  0  0  0  0  0
  146.2346  133.9632  153.0454 H   0  0  0  0  0  0  0  0  0  0  0  0
  147.2371  134.4759  151.6829 H   0  0  0  0  0  0  0  0  0  0  0  0
  145.1931  132.8056  151.1835 H   0  0  0  0  0  0  0  0  0  0  0  0
  146.7729  132.4079  150.4939 H   0  0  0  0  0  0  0  0  0  0  0  0
  145.5344  131.2946  153.0366 H   0  0  0  0  0  0  0  0  0  0  0  0
  146.3511  130.3996  151.7519 H   0  0  0  0  0  0  0  0  0  0  0  0
  150.4082  139.3689  153.6021 H   0  0  0  0  0  0  0  0  0  0  0  0
  151.4379  140.7764  159.4423 H   0  0  0  0  0  0  0  0  0  0  0  0
  152.8984  140.2961  158.5887 H   0  0  0  0  0  0  0  0  0  0  0  0
  153.6649  142.6323  158.4428 H   0  0  0  0  0  0  0  0  0  0  0  0
  154.2353  141.4287  160.5473 H   0  0  0  0  0  0  0  0  0  0  0  0
  152.7432  142.0059  161.2881 H   0  0  0  0  0  0  0  0  0  0  0  0
  154.0040  143.1507  160.8360 H   0  0  0  0  0  0  0  0  0  0  0  0
  1  2  1  0  0  0  0
  1 26  1  0  0  0  0
  1 27  1  0  0  0  0
  1 28  1  0  0  0  0
  2 25  1  0  0  0  0
  2  3  1  0  0  0  0
  2 29  1  0  0  0  0
  3  4  1  0  0  0  0
  3 30  1  0  0  0  0
  3 31  1  0  0  0  0
  4  5  1  0  0  0  0
  4 22  1  0  0  0  0
  5 21  1  0  0  0  0
  5  6  2  0  0  0  0
  6  7  1  0  0  0  0
  6 32  1  0  0  0  0
  7  8  2  0  0  0  0
  7 33  1  0  0  0  0
  8  9  1  0  0  0  0
  8 20  1  0  0  0  0
  9 10  1  0  0  0  0
  9 34  1  0  0  0  0
 10 11  2  0  0  0  0
 10 12  1  0  0  0  0
 12 13  1  0  0  0  0
 12 35  1  0  0  0  0
 13 14  1  0  0  0  0
 13 15  1  0  0  0  0
 13 36  1  0  0  0  0
 14 37  1  0  0  0  0
 14 38  1  0  0  0  0
 14 39  1  0  0  0  0
 15 19  1  0  0  0  0
 15 16  1  0  0  0  0
 15 40  1  0  0  0  0
 16 17  1  0  0  0  0
 16 41  1  0  0  0  0
 16 42  1  0  0  0  0
 17 18  1  0  0  0  0
 17 43  1  0  0  0  0
 17 44  1  0  0  0  0
 18 19  1  0  0  0  0
 18 45  1  0  0  0  0
 18 46  1  0  0  0  0
 20 21  2  0  0  0  0
 20 47  1  0  0  0  0
 22 23  1  0  0  0  0
 22 48  1  0  0  0  0
 22 49  1  0  0  0  0
 23 24  1  0  0  0  0
 23 25  1  0  0  0  0
 23 50  1  0  0  0  0
 24 51  1  0  0  0  0
 24 52  1  0  0  0  0
 24 53  1  0  0  0  0
M  END
> <s_m_source_file>
AV-unprocessed.smi

> <i_m_source_file_index>
1413

> <i_lp_mmshare_version>
43012

> <i_f3d_flags>
0

> <s_epik_input>
W0NIM11bQ0BASF0xW0NIMl1OKFtDSDJdW0NASF0oTzEpW0NIM10pYzJbY0hdW2NIXWMoW2NIXW4yKVtOSF1DKD1PKVtOSF1bQ0BIXShbQ0gzXSlbQ0BASF0zW0NIMl1bQ0gyXVtDSDJdTzM=

> <s_epik_cmdline>
J2VwaWtfcHl0aG9uJywgJy1waCcsICc3LjAnLCAnLXRuJywgJzgnLCAnLW1hJywgJzIwMCcsICctbWV0YWxfYmluZGluZycsICctaW1hZScsICc8aW5maWxlLm1hZT4nLCAnLW9tYWUnLCAnPG91dGZpbGUubWFlPic=

> <r_lp_tautomer_probability>
1

> <r_epik_Ionization_Penalty>
0.00271172

> <r_epik_Ionization_Penalty_Charging>
0

> <r_epik_Ionization_Penalty_Neutral>
0.00271172

> <r_epik_State_Penalty>
0.00186503

> <r_epik_Charging_Adjusted_Penalty>
0.00186503

> <i_epik_Tot_Q>
0

> <i_epik_Tot_abs_Q>
0

> <r_epik_Metal_State_Penalty>
-0

> <b_epik_Metal_Only>
0

> <s_lp_Force_Field>
OPLS_2005

> <r_lp_Energy>
36.1099

> <b_lp_Chiralities_Consistent>
1

> <s_lp_Variant>
AV-unprocessed.smi:1413-9

> <Gold.Version>
5.8.1

> <Gold.Id.Protein>
6NUR|6NUR_protein|mol2

> <Gold.PLP.Fitness>
49.9560

> <Gold.PLP.PLP>
-41.8116

> <Gold.PLP.part.hbond>
-2.9466

> <Gold.PLP.part.metal>
0.0000

> <Gold.PLP.part.buried>
-6.3762

> <Gold.PLP.part.nonpolar>
-33.4756

> <Gold.PLP.part.repulsive>
0.4955

> <Gold.PLP.ligand.clash>
0.0000

> <Gold.PLP.ligand.torsion>
0.4618

> <Gold.PLP.Chemscore.Hbond>
2.1625

> <Gold.PLP.Chemscore.CHOScore>
0.7518

> <Gold.PLP.Chemscore.Metal>
0.0000

> <Gold.Chemscore.Hbonds>
donor molecule, donor type, donor heavy atom, donor atom, acceptor molecule, acceptor atom, score
      L1  H     9    34       P1  7948  0.99
      L1  H    12    35       P1  7948  1.00
      P1  H  7989  7998       L1    21  0.13
      L1  C    20    47       P1  7957  0.71

> <Gold.PLP.Chemscore.Internal.Correction>
0.3251

> <Gold.Rescore>
     Score         DG    S(hbond)    S(metal)    S(lipo)     H(rot)  DE(clash)    DE(int)     intcor
     17.84     -21.14       1.78        0.00     112.50       1.35       1.55       1.75       ----

> <Gold.Chemscore.Fitness>
17.8413

> <Gold.Chemscore.DG>
-21.1446

> <Gold.Chemscore.ZeroCoef>
-5.4800

> <Gold.Chemscore.Hbond>
1.7817

> <Gold.Chemscore.Metal>
0.0000

> <Gold.Chemscore.Lipo>
112.4967

> <Gold.Chemscore.Internal_Hbond>
0.0000

> <Gold.Chemscore.DEClash>
1.5517

> <Gold.Chemscore.DEInternal>
1.7516

> <Gold.Chemscore.Rot>
1.3471

> <Gold.Chemscore.Internal.Correction>
   9.000000E+99

> <Gold.Chemscore.Hbonds>
donor molecule, donor type, donor heavy atom, donor atom, acceptor molecule, acceptor atom, score
      L1  H     9    34       P1  7948  0.74
      L1  H    12    35       P1  7948  0.30

> <Gold.Chemscore.Hbond.Weighted>
-5.9510

> <Gold.Chemscore.Metal.Weighted>
-0.0000

> <Gold.Chemscore.Lipo.Weighted>
-13.1621

> <Gold.Chemscore.Internal_Hbond.Weighted>
0.0000

> <Gold.Chemscore.DEClash.Weighted>
1.5517

> <Gold.Chemscore.DEInternal.Weighted>
1.7516

> <Gold.Chemscore.Rot.Weighted>
3.4485

> <Gold.Chemscore.Internal.Correction.Weighted>
   9.000000E+99

> <Gold.Protein.RotatedTorsions>
[ 6907 6896 6895 6894 ] final  131.57 input  -60.11 | X-H torsion
[ 7974 7965 7964 7962 ] final   10.19 input  175.53 | X-H torsion
[ 8008 7997 7996 7995 ] final   53.26 input   59.86 | X-H torsion
[ 10167 10162 10161 10158 ] final  130.49 input  -65.29 | X-H torsion
[ 10718 10713 10712 10709 ] final  159.29 input   66.30 | X-H torsion
[ 10763 10752 10751 10750 ] final   41.93 input  -60.55 | X-H torsion
[ 11005 11000 10999 10996 ] final   -1.43 input  -57.11 | X-H torsion

> <Gold.Protein.ActiveResidues>
 VAL166  LYS551  ARG553  GLY616  TRP617  ASP618  TYR619  PRO620  LYS621  CYS622 
 ASP623  PHE694  ASN695  SER759  ASP760  ASP761  ALA762  ILE779  LEU786  VAL792 
 PHE793  MET794  SER795  GLU796  ALA797  LYS798  CYS799  TRP800  GLU811  SER814 

> <Gold.Protein.RotatedAtoms>
  152.3412  133.6070  159.5877 H   0  0  0  0  0  0  0  0  0  0  0  0  # atno 6907 bound_to 6896
  150.7480  133.9718  159.3557 H   0  0  0  0  0  0  0  0  0  0  0  0  # atno 6908 bound_to 6896
  151.7582  135.0817  160.0392 H   0  0  0  0  0  0  0  0  0  0  0  0  # atno 6909 bound_to 6896
  146.2392  139.9671  142.8451 H   0  0  0  0  0  0  0  0  0  0  0  0  # atno 7974 bound_to 7965
  155.4653  140.3463  155.4318 H   0  0  0  0  0  0  0  0  0  0  0  0  # atno 8008 bound_to 7997
  156.1135  140.1467  156.9334 H   0  0  0  0  0  0  0  0  0  0  0  0  # atno 8009 bound_to 7997
  154.4773  140.0881  156.7271 H   0  0  0  0  0  0  0  0  0  0  0  0  # atno 8010 bound_to 7997
  139.5428  144.6746  151.4570 H   0  0  0  0  0  0  0  0  0  0  0  0  # atno 10167 bound_to 10162
  157.1662  131.0599  151.2206 H   0  0  0  0  0  0  0  0  0  0  0  0  # atno 10718 bound_to 10713
  152.9895  135.6147  154.2867 H   0  0  0  0  0  0  0  0  0  0  0  0  # atno 10763 bound_to 10752
  154.2594  135.2783  155.2786 H   0  0  0  0  0  0  0  0  0  0  0  0  # atno 10764 bound_to 10752
  154.5219  135.5812  153.6745 H   0  0  0  0  0  0  0  0  0  0  0  0  # atno 10765 bound_to 10752
  140.6473  133.9436  155.8360 H   0  0  0  0  0  0  0  0  0  0  0  0  # atno 11005 bound_to 11000
  145.1716  140.9723  143.4318 LP  0  0  0  0  0  0  0  0  0  0  0  0  # atno 17320 bound_to 7965
  145.0023  139.3586  143.6161 LP  0  0  0  0  0  0  0  0  0  0  0  0  # atno 17321 bound_to 7965
  140.6664  143.8388  150.6947 LP  0  0  0  0  0  0  0  0  0  0  0  0  # atno 17342 bound_to 10162
  140.1799  143.4124  152.1941 LP  0  0  0  0  0  0  0  0  0  0  0  0  # atno 17343 bound_to 10162
  157.4086  130.7372  149.6821 LP  0  0  0  0  0  0  0  0  0  0  0  0  # atno 17370 bound_to 10713
  155.9745  130.4101  150.3915 LP  0  0  0  0  0  0  0  0  0  0  0  0  # atno 17371 bound_to 10713
  141.0563  134.0412  157.3718 LP  0  0  0  0  0  0  0  0  0  0  0  0  # atno 17394 bound_to 11000
  139.9058  135.0179  156.7480 LP  0  0  0  0  0  0  0  0  0  0  0  0  # atno 17395 bound_to 11000

$$$$
