#       Name:                AV-unprocessed.smi:1144
#       Creating user name   scv26
#       Creation time:       Fri Mar 27 03:45:11 2020


#       File generated by GOLD software.
#

@<TRIPOS>MOLECULE
AV-unprocessed.smi:1144
    39    40     1
SMALL
NO_CHARGES


@<TRIPOS>ATOM
      1 ****        -3.9171   2.8005   0.2723 C.3            1 S1                 0.0000
      2 ****        -2.4472   2.6746   0.1774 N.4            1 S1                 1.0000
      3 ****        -1.8937   3.3447  -1.0212 C.3            1 S1                 0.0000
      4 ****        -0.3630   3.2059  -1.0500 C.3            1 S1                 0.0000
      5 ****        -0.0119   1.8284  -1.0020 O.3            1 S1                 0.0000
      6 ****        -0.4492   1.1968   0.1981 C.3            1 S1                 0.0000
      7 ****         0.0489  -0.2548   0.1866 C.3            1 S1                 0.0000
      8 ****         1.4982  -0.3265   0.2957 N.pl3          1 S1                 0.0000
      9 ****         2.2163  -1.5066   0.2672 C.ar           1 S1                 0.0000
     10 ****         3.5436  -1.3702   0.2439 N.ar           1 S1                 0.0000
     11 ****         4.2763  -2.5044   0.2089 C.ar           1 S1                 0.0000
     12 ****         3.6739  -3.7779   0.1995 C.ar           1 S1                 0.0000
     13 ****         2.2615  -3.8029   0.2288 C.ar           1 S1                 0.0000
     14 ****         1.4742  -5.1046   0.2266 C.3            1 S1                 0.0000
     15 ****         2.2814  -6.1656   0.1900 F              1 S1                 0.0000
     16 ****         0.7274  -5.1787   1.3283 F              1 S1                 0.0000
     17 ****         0.6739  -5.1441  -0.8390 F              1 S1                 0.0000
     18 ****         1.5382  -2.6595   0.2620 N.ar           1 S1                 0.0000
     19 ****        -1.9881   1.2685   0.2561 C.3            1 S1                 0.0000
     20 ****        -4.4081   2.3100  -0.5694 H              1 S1                 0.0000
     21 ****        -4.2133   3.8500   0.2770 H              1 S1                 0.0000
     22 ****        -4.2831   2.3465   1.1938 H              1 S1                 0.0000
     23 ****        -2.3247   2.9027  -1.9211 H              1 S1                 0.0000
     24 ****        -2.1716   4.3993  -1.0166 H              1 S1                 0.0000
     25 ****         0.0366   3.6413  -1.9659 H              1 S1                 0.0000
     26 ****         0.0948   3.7416  -0.2167 H              1 S1                 0.0000
     27 ****        -0.0281   1.7143   1.0627 H              1 S1                 0.0000
     28 ****        -0.3853  -0.7991   1.0261 H              1 S1                 0.0000
     29 ****        -0.2748  -0.7586  -0.7251 H              1 S1                 0.0000
     30 ****         2.0256   0.5340   0.2670 H              1 S1                 0.0000
     31 ****         5.3505  -2.3950   0.1877 H              1 S1                 0.0000
     32 ****         4.2686  -4.6788   0.1714 H              1 S1                 0.0000
     33 ****        -2.3464   0.8200   1.1837 H              1 S1                 0.0000
     34 ****        -2.4229   0.6964  -0.5654 H              1 S1                 0.0000
     35 ****        -2.0625   3.1516   0.9804 H              1 S1                 0.0000
     36 ****         0.9831   1.7485  -1.0626 LP             1 S1                 0.0000
     37 ****        -0.4317   1.3628  -1.7811 LP             1 S1                 0.0000
     38 ****         3.9764  -0.4687   0.2520 LP             1 S1                 0.0000
     39 ****         0.5386  -2.6759   0.2819 LP             1 S1                 0.0000
@<TRIPOS>BOND
    1    1    2 1     
    2    1   20 1     
    3    1   21 1     
    4    1   22 1     
    5    2   19 1     
    6    2    3 1     
    7    2   35 1     
    8    3    4 1     
    9    3   23 1     
   10    3   24 1     
   11    4    5 1     
   12    4   25 1     
   13    4   26 1     
   14    5    6 1     
   15    6    7 1     
   16    6   19 1     
   17    6   27 1     
   18    7    8 1     
   19    7   28 1     
   20    7   29 1     
   21    8    9 1     
   22    8   30 1     
   23    9   18 ar    
   24    9   10 ar    
   25   10   11 ar    
   26   11   12 ar    
   27   11   31 1     
   28   12   13 ar    
   29   12   32 1     
   30   13   14 1     
   31   13   18 ar    
   32   14   15 1     
   33   14   16 1     
   34   14   17 1     
   35   19   33 1     
   36   19   34 1     
   37    5   36 1     
   38    5   37 1     
   39   10   38 1     
   40   18   39 1     
@<TRIPOS>SUBSTRUCTURE
      1 S1             1
@<TRIPOS>SET
LONE_PAIRS      STATIC     ATOMS    <user>   **** ""
4 36 37 38 39
DONOR_HYDROGENS      STATIC     ATOMS    <user>   **** ""
2 35 30
ATOM$BLUE        STATIC     ATOMS    COLORGROUP SYSTEM
4 36 37 38 39
ATOM$RED        STATIC     ATOMS    COLORGROUP SYSTEM
2 35 30
