#       Name:                AV-unprocessed.smi:1207
#       Creating user name   scv26
#       Creation time:       Fri Mar 27 04:08:01 2020


#       File generated by GOLD software.
#

@<TRIPOS>MOLECULE
AV-unprocessed.smi:1207
    58    60     1
SMALL
NO_CHARGES


@<TRIPOS>ATOM
      1 ****        -1.7965   1.7207  -5.6831 C.3            1 S1                 0.0000
      2 ****        -1.7751   1.6562  -4.1660 C.ar           1 S1                 0.0000
      3 ****        -1.0637   2.6427  -3.4466 C.ar           1 S1                 0.0000
      4 ****        -1.0206   2.6197  -2.0356 C.ar           1 S1                 0.0000
      5 ****        -0.3917   3.4695  -1.1423 N.2            1 S1                 0.0000
      6 ****        -0.7224   2.9248   0.0244 C.2            1 S1                 0.0000
      7 ****        -1.4822   1.8126  -0.0074 N.pl3          1 S1                 0.0000
      8 ****        -1.9534   1.0442   1.1310 C.3            1 S1                 0.0000
      9 ****        -1.3246  -0.3630   1.2103 C.3            1 S1                 0.0000
     10 ****        -1.7086  -0.9271   2.4485 O.3            1 S1                 0.0000
     11 ****         0.2184  -0.3493   1.1018 C.3            1 S1                 0.0000
     12 ****         0.8507  -1.6921   1.2302 N.4            1 S1                 1.0000
     13 ****         0.4623  -2.6248   0.1445 C.3            1 S1                 0.0000
     14 ****         2.3286  -1.6257   1.3758 C.3            1 S1                 0.0000
     15 ****         2.7497  -0.9457   2.6546 C.2            1 S1                 0.0000
     16 ****         2.7726  -1.4952   3.9688 C.2            1 S1                 0.0000
     17 ****         2.3897  -2.8777   4.4130 C.3            1 S1                 0.0000
     18 ****         3.1962  -0.6194   4.8631 N.2            1 S1                 0.0000
     19 ****         3.4741   0.5514   4.1517 O.3            1 S1                 0.0000
     20 ****         3.2043   0.3323   2.8402 C.2            1 S1                 0.0000
     21 ****         3.4381   1.4802   1.9161 C.3            1 S1                 0.0000
     22 ****        -1.7148   1.5748  -1.3579 C.ar           1 S1                 0.0000
     23 ****        -2.4278   0.5889  -2.0627 C.ar           1 S1                 0.0000
     24 ****        -2.4579   0.6248  -3.4724 C.ar           1 S1                 0.0000
     25 ****        -3.2250  -0.4481  -4.2251 C.3            1 S1                 0.0000
     26 ****        -1.2366   2.5800  -6.0531 H              1 S1                 0.0000
     27 ****        -2.8203   1.8081  -6.0475 H              1 S1                 0.0000
     28 ****        -1.3515   0.8220  -6.1106 H              1 S1                 0.0000
     29 ****        -0.5438   3.4288  -3.9747 H              1 S1                 0.0000
     30 ****        -0.3842   3.3534   0.9567 H              1 S1                 0.0000
     31 ****        -1.7262   1.6080   2.0375 H              1 S1                 0.0000
     32 ****        -3.0403   0.9740   1.0727 H              1 S1                 0.0000
     33 ****        -1.7543  -0.9677   0.4131 H              1 S1                 0.0000
     34 ****        -1.5176  -1.8523   2.4372 H              1 S1                 0.0000
     35 ****         0.5328   0.0824   0.1506 H              1 S1                 0.0000
     36 ****         0.5935   0.3174   1.8772 H              1 S1                 0.0000
     37 ****         0.7246  -2.2174  -0.8328 H              1 S1                 0.0000
     38 ****        -0.6068  -2.8329   0.1561 H              1 S1                 0.0000
     39 ****         0.9663  -3.5854   0.2564 H              1 S1                 0.0000
     40 ****         2.7317  -2.6389   1.3588 H              1 S1                 0.0000
     41 ****         2.7495  -1.1286   0.5008 H              1 S1                 0.0000
     42 ****         1.5783  -3.2771   3.8045 H              1 S1                 0.0000
     43 ****         2.0563  -2.8870   5.4515 H              1 S1                 0.0000
     44 ****         3.2355  -3.5606   4.3294 H              1 S1                 0.0000
     45 ****         3.3600   1.1725   0.8736 H              1 S1                 0.0000
     46 ****         4.4317   1.9023   2.0678 H              1 S1                 0.0000
     47 ****         2.7055   2.2687   2.0893 H              1 S1                 0.0000
     48 ****        -2.9484  -0.1886  -1.5236 H              1 S1                 0.0000
     49 ****        -3.6923  -1.1576  -3.5415 H              1 S1                 0.0000
     50 ****        -2.5565  -1.0065  -4.8808 H              1 S1                 0.0000
     51 ****        -4.0122  -0.0007  -4.8322 H              1 S1                 0.0000
     52 ****         0.5047  -2.0926   2.0903 H              1 S1                 0.0000
     53 ****         0.1648   4.2798  -1.3261 LP             1 S1                 0.0000
     54 ****        -2.6888  -0.7887   2.5904 LP             1 S1                 0.0000
     55 ****        -1.1994  -0.4886   3.1890 LP             1 S1                 0.0000
     56 ****         3.2973  -0.7645   5.8473 LP             1 S1                 0.0000
     57 ****         4.4383   0.7924   4.2621 LP             1 S1                 0.0000
     58 ****         2.9028   1.2976   4.4936 LP             1 S1                 0.0000
@<TRIPOS>BOND
    1    1    2 1     
    2    1   26 1     
    3    1   27 1     
    4    1   28 1     
    5    2   24 ar    
    6    2    3 ar    
    7    3    4 ar    
    8    3   29 1     
    9    4   22 ar    
   10    4    5 1     
   11    5    6 2     
   12    6    7 1     
   13    6   30 1     
   14    7    8 1     
   15    7   22 1     
   16    8    9 1     
   17    8   31 1     
   18    8   32 1     
   19    9   10 1     
   20    9   11 1     
   21    9   33 1     
   22   10   34 1     
   23   11   12 1     
   24   11   35 1     
   25   11   36 1     
   26   12   13 1     
   27   12   14 1     
   28   12   52 1     
   29   13   37 1     
   30   13   38 1     
   31   13   39 1     
   32   14   15 1     
   33   14   40 1     
   34   14   41 1     
   35   15   20 2     
   36   15   16 1     
   37   16   17 1     
   38   16   18 2     
   39   17   42 1     
   40   17   43 1     
   41   17   44 1     
   42   18   19 1     
   43   19   20 1     
   44   20   21 1     
   45   21   45 1     
   46   21   46 1     
   47   21   47 1     
   48   22   23 ar    
   49   23   24 ar    
   50   23   48 1     
   51   24   25 1     
   52   25   49 1     
   53   25   50 1     
   54   25   51 1     
   55    5   53 1     
   56   10   54 1     
   57   10   55 1     
   58   18   56 1     
   59   19   57 1     
   60   19   58 1     
@<TRIPOS>SUBSTRUCTURE
      1 S1             1
@<TRIPOS>SET
LONE_PAIRS      STATIC     ATOMS    <user>   **** ""
6 53 54 55 56 57 58
DONOR_HYDROGENS      STATIC     ATOMS    <user>   **** ""
2 34 52
ATOM$BLUE        STATIC     ATOMS    COLORGROUP SYSTEM
6 53 54 55 56 57 58
ATOM$RED        STATIC     ATOMS    COLORGROUP SYSTEM
2 34 52
