AV-unprocessed.smi:3237|AV-procd|sdf|12374|dock1
  -GOLD-   2272018233D 1   1.00000     0.00000
 Structure written by MMmdl.
 36 38  0  0  0  0  0  0  0  0  3 V2000
  146.2478  133.8026  162.4946 C   0  0  0  0  0  0  0  0  0  0  0  0
  146.7893  134.8482  161.5814 C   0  0  0  0  0  0  0  0  0  0  0  0
  147.4336  134.7889  160.3779 C   0  0  0  0  0  0  0  0  0  0  0  0
  147.6660  136.1558  160.0698 C   0  0  0  0  0  0  0  0  0  0  0  0
  148.3297  136.5243  158.8696 N   0  0  0  0  0  0  0  0  0  0  0  0
  149.0099  135.7454  158.0086 C   0  0  0  0  0  0  0  0  0  0  0  0
  149.1115  134.5302  158.2129 O   0  0  0  0  0  0  0  0  0  0  0  0
  149.5232  136.4564  156.9667 N   0  5  0  0  0  0  0  0  0  0  0  0
  149.6951  135.9461  155.6053 C   0  0  1  0  0  0  0  0  0  0  0  0
  150.5800  134.6992  155.5760 C   0  0  0  0  0  0  0  0  0  0  0  0
  150.1077  133.9273  154.3356 C   0  0  0  0  0  0  0  0  0  0  0  0
  148.7918  134.4942  153.9565 N   0  3  1  0  0  0  0  0  0  0  0  0
  147.7716  133.4839  153.6025 C   0  0  0  0  0  0  0  0  0  0  0  0
  148.3586  132.1901  153.0914 C   0  0  0  0  0  0  0  0  0  0  0  0
  147.7201  133.1664  152.1273 C   0  0  0  0  0  0  0  0  0  0  0  0
  148.3813  135.4206  155.0301 C   0  0  0  0  0  0  0  0  0  0  0  0
  147.2039  136.9753  161.0028 N   0  0  0  0  0  0  0  0  0  0  0  0
  146.6404  136.1416  161.9759 O   0  0  0  0  0  0  0  0  0  0  0  0
  146.3406  132.8113  162.0505 H   0  0  0  0  0  0  0  0  0  0  0  0
  145.1931  133.9810  162.7046 H   0  0  0  0  0  0  0  0  0  0  0  0
  146.7868  133.8006  163.4419 H   0  0  0  0  0  0  0  0  0  0  0  0
  147.6953  133.9083  159.8104 H   0  0  0  0  0  0  0  0  0  0  0  0
  148.2884  137.5045  158.6334 H   0  0  0  0  0  0  0  0  0  0  0  0
  150.1063  136.6798  154.9099 H   0  0  0  0  0  0  0  0  0  0  0  0
  151.6423  134.9428  155.5381 H   0  0  0  0  0  0  0  0  0  0  0  0
  150.4123  134.0875  156.4644 H   0  0  0  0  0  0  0  0  0  0  0  0
  150.7984  134.0509  153.5000 H   0  0  0  0  0  0  0  0  0  0  0  0
  150.0438  132.8594  154.5510 H   0  0  0  0  0  0  0  0  0  0  0  0
  146.8631  133.4806  154.2023 H   0  0  0  0  0  0  0  0  0  0  0  0
  149.4425  132.0915  153.0634 H   0  0  0  0  0  0  0  0  0  0  0  0
  147.8140  131.2729  153.3062 H   0  0  0  0  0  0  0  0  0  0  0  0
  146.7557  132.8903  151.7055 H   0  0  0  0  0  0  0  0  0  0  0  0
  148.3791  133.7181  151.4591 H   0  0  0  0  0  0  0  0  0  0  0  0
  147.8216  134.8714  155.7903 H   0  0  0  0  0  0  0  0  0  0  0  0
  147.7422  136.2174  154.6485 H   0  0  0  0  0  0  0  0  0  0  0  0
  148.9566  135.0664  153.1410 H   0  0  0  0  0  0  0  0  0  0  0  0
  1  2  1  0  0  0  0
  1 19  1  0  0  0  0
  1 20  1  0  0  0  0
  1 21  1  0  0  0  0
  2 18  1  0  0  0  0
  2  3  2  0  0  0  0
  3  4  1  0  0  0  0
  3 22  1  0  0  0  0
  4  5  1  0  0  0  0
  4 17  2  0  0  0  0
  5  6  1  0  0  0  0
  5 23  1  0  0  0  0
  6  7  2  0  0  0  0
  6  8  1  0  0  0  0
  8  9  1  0  0  0  0
  9 16  1  0  0  0  0
  9 10  1  0  0  0  0
  9 24  1  0  0  0  0
 10 11  1  0  0  0  0
 10 25  1  0  0  0  0
 10 26  1  0  0  0  0
 11 12  1  0  0  0  0
 11 27  1  0  0  0  0
 11 28  1  0  0  0  0
 12 13  1  0  0  0  0
 12 16  1  0  0  0  0
 12 36  1  0  0  0  0
 13 15  1  0  0  0  0
 13 14  1  0  0  0  0
 13 29  1  0  0  0  0
 14 15  1  0  0  0  0
 14 30  1  0  0  0  0
 14 31  1  0  0  0  0
 15 32  1  0  0  0  0
 15 33  1  0  0  0  0
 16 34  1  0  0  0  0
 16 35  1  0  0  0  0
 17 18  1  0  0  0  0
M  CHG  1   8  -1
M  CHG  1  12   1
M  END
> <s_m_source_file>
AV-unprocessed.smi

> <i_m_source_file_index>
3237

> <i_lp_mmshare_version>
43012

> <i_f3d_flags>
0

> <s_epik_input>
W0NIM11jMVtjSF1jKG5vMSlbTkhdQyg9TylbTkhdW0NAQEhdMltDSDJdW0NIMl1OKFtDSDJdMilbQ0hdM1tDSDJdW0NIMl0z

> <s_epik_cmdline>
J2VwaWtfcHl0aG9uJywgJy1waCcsICc3LjAnLCAnLXRuJywgJzgnLCAnLW1hJywgJzIwMCcsICctbWV0YWxfYmluZGluZycsICctaW1hZScsICc8aW5maWxlLm1hZT4nLCAnLW9tYWUnLCAnPG91dGZpbGUubWFlPic=

> <r_epik_Ionization_Penalty>
6.76456

> <r_epik_Ionization_Penalty_Charging>
6.76456

> <r_epik_Ionization_Penalty_Neutral>
5.76722e-06

> <r_epik_State_Penalty>
6.78919

> <r_epik_Charging_Adjusted_Penalty>
13.5538

> <i_epik_Tot_Q>
0

> <i_epik_Tot_abs_Q>
2

> <r_epik_Metal_State_Penalty>
2.728

> <b_epik_Metal_Only>
1

> <s_lp_Force_Field>
OPLS_2005

> <r_lp_Energy>
31.1689

> <b_lp_Chiralities_Consistent>
1

> <s_lp_Variant>
AV-unprocessed.smi:3237-12

> <Gold.Version>
5.8.1

> <Gold.Id.Protein>
6NUR|6NUR_protein|mol2

> <Gold.PLP.Fitness>
41.4806

> <Gold.PLP.PLP>
-27.8843

> <Gold.PLP.part.hbond>
-4.0000

> <Gold.PLP.part.metal>
0.0000

> <Gold.PLP.part.buried>
-2.9043

> <Gold.PLP.part.nonpolar>
-20.6697

> <Gold.PLP.part.repulsive>
0.1552

> <Gold.PLP.ligand.clash>
0.0000

> <Gold.PLP.ligand.torsion>
1.1352

> <Gold.PLP.Chemscore.Hbond>
4.8560

> <Gold.PLP.Chemscore.CHOScore>
0.0000

> <Gold.PLP.Chemscore.Metal>
0.0000

> <Gold.Chemscore.Hbonds>
donor molecule, donor type, donor heavy atom, donor atom, acceptor molecule, acceptor atom, score
      L1  H    12    36       P1  7948  2.00
      P1  H  6896  6909       L1     7  1.00
      P1  H  6931  6943       L1    17  0.06
      P1  H  6934  6947       L1    17  0.96

> <Gold.PLP.Chemscore.Internal.Correction>
1.2987

> <Gold.Rescore>
     Score         DG    S(hbond)    S(metal)    S(lipo)     H(rot)  DE(clash)    DE(int)     intcor
     15.21     -18.75       2.93        0.00      56.90       1.25       0.01       3.53       ----

> <Gold.Chemscore.Fitness>
15.2133

> <Gold.Chemscore.DG>
-18.7463

> <Gold.Chemscore.ZeroCoef>
-5.4800

> <Gold.Chemscore.Hbond>
2.9341

> <Gold.Chemscore.Metal>
0.0000

> <Gold.Chemscore.Lipo>
56.9006

> <Gold.Chemscore.Internal_Hbond>
0.0000

> <Gold.Chemscore.DEClash>
0.0075

> <Gold.Chemscore.DEInternal>
3.5255

> <Gold.Chemscore.Rot>
1.2464

> <Gold.Chemscore.Internal.Correction>
   9.000000E+99

> <Gold.Chemscore.Hbonds>
donor molecule, donor type, donor heavy atom, donor atom, acceptor molecule, acceptor atom, score
      L1  H    12    36       P1  7948  0.26
      P1  H  6896  6909       L1     7  0.28
      P1  H  6931  6943       L1    17  0.05
      P1  H  6934  6947       L1    17  0.90

> <Gold.Chemscore.Hbond.Weighted>
-9.7998

> <Gold.Chemscore.Metal.Weighted>
-0.0000

> <Gold.Chemscore.Lipo.Weighted>
-6.6574

> <Gold.Chemscore.Internal_Hbond.Weighted>
0.0000

> <Gold.Chemscore.DEClash.Weighted>
0.0075

> <Gold.Chemscore.DEInternal.Weighted>
3.5255

> <Gold.Chemscore.Rot.Weighted>
3.1909

> <Gold.Chemscore.Internal.Correction.Weighted>
   9.000000E+99

> <Gold.Protein.RotatedTorsions>
[ 6907 6896 6895 6894 ] final   44.30 input  -60.11 | X-H torsion
[ 7974 7965 7964 7962 ] final   31.76 input  175.53 | X-H torsion
[ 8008 7997 7996 7995 ] final -179.45 input   59.86 | X-H torsion
[ 10167 10162 10161 10158 ] final   25.72 input  -65.29 | X-H torsion
[ 10718 10713 10712 10709 ] final   91.43 input   66.30 | X-H torsion
[ 10763 10752 10751 10750 ] final  -77.49 input  -60.55 | X-H torsion
[ 11005 11000 10999 10996 ] final  -70.19 input  -57.11 | X-H torsion

> <Gold.Protein.ActiveResidues>
 VAL166  LYS551  ARG553  GLY616  TRP617  ASP618  TYR619  PRO620  LYS621  CYS622 
 ASP623  PHE694  ASN695  SER759  ASP760  ASP761  ALA762  ILE779  LEU786  VAL792 
 PHE793  MET794  SER795  GLU796  ALA797  LYS798  CYS799  TRP800  GLU811  SER814 

> <Gold.Protein.RotatedAtoms>
  152.2309  134.8323  160.0473 H   0  0  0  0  0  0  0  0  0  0  0  0  # atno 6907 bound_to 6896
  151.9072  133.3547  159.3859 H   0  0  0  0  0  0  0  0  0  0  0  0  # atno 6908 bound_to 6896
  150.7025  134.4694  159.5462 H   0  0  0  0  0  0  0  0  0  0  0  0  # atno 6909 bound_to 6896
  146.1530  139.6614  142.9086 H   0  0  0  0  0  0  0  0  0  0  0  0  # atno 7974 bound_to 7965
  156.0307  140.1281  157.0261 H   0  0  0  0  0  0  0  0  0  0  0  0  # atno 8008 bound_to 7997
  154.4349  140.1050  156.6165 H   0  0  0  0  0  0  0  0  0  0  0  0  # atno 8009 bound_to 7997
  155.5811  140.3468  155.4543 H   0  0  0  0  0  0  0  0  0  0  0  0  # atno 8010 bound_to 7997
  140.5083  144.0202  150.6361 H   0  0  0  0  0  0  0  0  0  0  0  0  # atno 10167 bound_to 10162
  157.6960  131.0407  150.3728 H   0  0  0  0  0  0  0  0  0  0  0  0  # atno 10718 bound_to 10713
  154.5136  135.5762  153.6625 H   0  0  0  0  0  0  0  0  0  0  0  0  # atno 10763 bound_to 10752
  152.9902  135.6165  154.2846 H   0  0  0  0  0  0  0  0  0  0  0  0  # atno 10764 bound_to 10752
  154.2762  135.2852  155.2696 H   0  0  0  0  0  0  0  0  0  0  0  0  # atno 10765 bound_to 10752
  141.1569  133.6783  156.6714 H   0  0  0  0  0  0  0  0  0  0  0  0  # atno 11005 bound_to 11000
  145.4778  141.0437  143.2663 LP  0  0  0  0  0  0  0  0  0  0  0  0  # atno 17320 bound_to 7965
  144.7927  139.6296  143.7106 LP  0  0  0  0  0  0  0  0  0  0  0  0  # atno 17321 bound_to 7965
  140.3518  143.2959  152.0479 LP  0  0  0  0  0  0  0  0  0  0  0  0  # atno 17342 bound_to 10162
  139.4889  144.6368  151.6958 LP  0  0  0  0  0  0  0  0  0  0  0  0  # atno 17343 bound_to 10162
  156.4151  130.3942  149.6864 LP  0  0  0  0  0  0  0  0  0  0  0  0  # atno 17370 bound_to 10713
  156.4135  130.7733  151.2748 LP  0  0  0  0  0  0  0  0  0  0  0  0  # atno 17371 bound_to 10713
  140.3172  134.8038  157.4223 LP  0  0  0  0  0  0  0  0  0  0  0  0  # atno 17394 bound_to 11000
  140.1128  134.5323  155.8251 LP  0  0  0  0  0  0  0  0  0  0  0  0  # atno 17395 bound_to 11000

$$$$
