AV-unprocessed.smi:69|AV-procd|sdf|645|dock6
  -GOLD-   2262016543D 1   1.00000     0.00000
 Structure written by MMmdl.
 32 34  0  0  0  0  0  0  0  0  1 V2000
  142.5140  145.7068  155.6368 N   0  0  0  0  0  0  0  0  0  0  0  0
  143.4499  145.2622  154.7868 C   0  0  0  0  0  0  0  0  0  0  0  0
  143.5174  145.8212  153.5560 N   0  0  0  0  0  0  0  0  0  0  0  0
  144.4432  145.3961  152.6906 C   0  0  0  0  0  0  0  0  0  0  0  0
  145.3686  144.4476  152.8568 N   0  0  0  0  0  0  0  0  0  0  0  0
  145.3013  143.8833  154.0982 C   0  0  0  0  0  0  0  0  0  0  0  0
  144.3711  144.2357  155.1161 C   0  0  0  0  0  0  0  0  0  0  0  0
  144.5899  143.4612  156.2462 N   0  0  0  0  0  0  0  0  0  0  0  0
  145.5968  142.6994  155.9131 C   0  0  0  0  0  0  0  0  0  0  0  0
  146.0848  142.8798  154.6364 N   0  0  0  0  0  0  0  0  0  0  0  0
  147.2381  142.1625  154.0026 C   0  0  2  0  0  0  0  0  0  0  0  0
  146.7260  141.1699  153.1626 O   0  0  0  0  0  0  0  0  0  0  0  0
  147.1235  139.8735  153.6072 C   0  0  1  0  0  0  0  0  0  0  0  0
  147.2295  138.8920  152.4265 C   0  0  0  0  0  0  0  0  0  0  0  0
  145.9512  138.6545  151.8764 O   0  0  0  0  0  0  0  0  0  0  0  0
  148.4273  140.1399  154.3703 C   0  0  1  0  0  0  0  0  0  0  0  0
  149.5240  140.2168  153.4721 O   0  0  0  0  0  0  0  0  0  0  0  0
  148.1321  141.4750  155.0463 C   0  0  1  0  0  0  0  0  0  0  0  0
  149.3200  142.1893  155.3351 O   0  0  0  0  0  0  0  0  0  0  0  0
  147.7567  142.9119  153.4027 H   0  0  0  0  0  0  0  0  0  0  0  0
  146.3902  139.5016  154.3227 H   0  0  0  0  0  0  0  0  0  0  0  0
  148.6374  139.3567  155.0995 H   0  0  0  0  0  0  0  0  0  0  0  0
  147.5731  141.3046  155.9665 H   0  0  0  0  0  0  0  0  0  0  0  0
  142.4435  145.3060  156.5611 H   0  0  0  0  0  0  0  0  0  0  0  0
  141.8853  146.4444  155.3534 H   0  0  0  0  0  0  0  0  0  0  0  0
  144.4426  145.8848  151.7275 H   0  0  0  0  0  0  0  0  0  0  0  0
  146.0156  141.9773  156.5990 H   0  0  0  0  0  0  0  0  0  0  0  0
  147.9081  139.2640  151.6583 H   0  0  0  0  0  0  0  0  0  0  0  0
  147.6189  137.9328  152.7693 H   0  0  0  0  0  0  0  0  0  0  0  0
  145.3858  139.3753  152.1086 H   0  0  0  0  0  0  0  0  0  0  0  0
  149.1856  140.1983  152.5895 H   0  0  0  0  0  0  0  0  0  0  0  0
  149.1014  143.1028  155.4386 H   0  0  0  0  0  0  0  0  0  0  0  0
  1  2  1  0  0  0  0
  1 24  1  0  0  0  0
  1 25  1  0  0  0  0
  2  7  1  0  0  0  0
  2  3  2  0  0  0  0
  3  4  1  0  0  0  0
  4  5  2  0  0  0  0
  4 26  1  0  0  0  0
  5  6  1  0  0  0  0
  6 10  1  0  0  0  0
  6  7  2  0  0  0  0
  7  8  1  0  0  0  0
  8  9  2  0  0  0  0
  9 10  1  0  0  0  0
  9 27  1  0  0  0  0
 10 11  1  0  0  0  0
 11 20  1  0  0  0  0
 11 18  1  0  0  0  0
 11 12  1  0  0  0  0
 12 13  1  0  0  0  0
 13 21  1  0  0  0  0
 13 14  1  0  0  0  0
 13 16  1  0  0  0  0
 14 15  1  0  0  0  0
 14 28  1  0  0  0  0
 14 29  1  0  0  0  0
 15 30  1  0  0  0  0
 16 22  1  0  0  0  0
 16 17  1  0  0  0  0
 16 18  1  0  0  0  0
 17 31  1  0  0  0  0
 18 23  1  0  0  0  0
 18 19  1  0  0  0  0
 19 32  1  0  0  0  0
M  END
> <s_m_source_file>
AV-unprocessed.smi

> <i_m_source_file_index>
69

> <i_lp_mmshare_version>
43012

> <i_f3d_flags>
0

> <s_epik_input>
bjFbY0hdbmMoW05IMl0pYyhjMTIpbltjSF1uMltDQEBIXTNPW0NASF0oW0NIMl1bT0hdKVtDQEBIXShbT0hdKVtDQEhdM1tPSF0=

> <s_epik_cmdline>
J2VwaWtfcHl0aG9uJywgJy1waCcsICc3LjAnLCAnLXRuJywgJzgnLCAnLW1hJywgJzIwMCcsICctbWV0YWxfYmluZGluZycsICctaW1hZScsICc8aW5maWxlLm1hZT4nLCAnLW9tYWUnLCAnPG91dGZpbGUubWFlPic=

> <r_lp_tautomer_probability>
1

> <r_epik_Ionization_Penalty>
0.000428445

> <r_epik_Ionization_Penalty_Charging>
0

> <r_epik_Ionization_Penalty_Neutral>
0.000428445

> <r_epik_State_Penalty>
-0

> <r_epik_Charging_Adjusted_Penalty>
0

> <i_epik_Tot_Q>
0

> <i_epik_Tot_abs_Q>
0

> <r_epik_Metal_State_Penalty>
-0

> <b_epik_Metal_Only>
0

> <s_epik_Chemistry_Notes>
This compound contains an acetal/aminal-like group ( X-CH(R)-Y where X, Y are N, S, or O) that may be acid/base labile, releasing an aldehyde.

> <s_lp_Force_Field>
OPLS_2005

> <r_lp_Energy>
42.3633

> <b_lp_Chiralities_Consistent>
1

> <s_lp_Variant>
AV-unprocessed.smi:69-3

> <Gold.Version>
5.8.1

> <Gold.Id.Protein>
6NUR|6NUR_protein|mol2

> <Gold.PLP.Fitness>
42.9010

> <Gold.PLP.PLP>
-34.2239

> <Gold.PLP.part.hbond>
-7.4681

> <Gold.PLP.part.metal>
0.0000

> <Gold.PLP.part.buried>
-1.4575

> <Gold.PLP.part.nonpolar>
-25.6163

> <Gold.PLP.part.repulsive>
0.6376

> <Gold.PLP.ligand.clash>
0.0000

> <Gold.PLP.ligand.torsion>
0.5445

> <Gold.PLP.Chemscore.Hbond>
3.2529

> <Gold.PLP.Chemscore.CHOScore>
0.0000

> <Gold.PLP.Chemscore.Metal>
0.0000

> <Gold.Chemscore.Hbonds>
donor molecule, donor type, donor heavy atom, donor atom, acceptor molecule, acceptor atom, score
      L1  H    15    30       P1 10175  0.96
      L1  H    17    31       P1  7957  0.79
      L1  H    19    32       P1  8028  1.00
      P1  H  7989  7998       L1    17  0.33

> <Gold.PLP.Chemscore.Internal.Correction>
0.0075

> <Gold.Rescore>
     Score         DG    S(hbond)    S(metal)    S(lipo)     H(rot)  DE(clash)    DE(int)     intcor
      6.93      -8.59       2.97        0.00      29.96       4.03       1.21       0.46       ----

> <Gold.Chemscore.Fitness>
6.9301

> <Gold.Chemscore.DG>
-8.5947

> <Gold.Chemscore.ZeroCoef>
-5.4800

> <Gold.Chemscore.Hbond>
2.9703

> <Gold.Chemscore.Metal>
0.0000

> <Gold.Chemscore.Lipo>
29.9565

> <Gold.Chemscore.Internal_Hbond>
0.0000

> <Gold.Chemscore.DEClash>
1.2094

> <Gold.Chemscore.DEInternal>
0.4552

> <Gold.Chemscore.Rot>
4.0277

> <Gold.Chemscore.Internal.Correction>
   9.000000E+99

> <Gold.Chemscore.Hbonds>
donor molecule, donor type, donor heavy atom, donor atom, acceptor molecule, acceptor atom, score
      L1  H    15    30       P1 10175  0.90
      L1  H    17    31       P1  7957  0.75
      L1  H    19    32       P1  8028  1.00
      P1  H  7989  7998       L1    17  0.25

> <Gold.Chemscore.Hbond.Weighted>
-9.9207

> <Gold.Chemscore.Metal.Weighted>
-0.0000

> <Gold.Chemscore.Lipo.Weighted>
-3.5049

> <Gold.Chemscore.Internal_Hbond.Weighted>
0.0000

> <Gold.Chemscore.DEClash.Weighted>
1.2094

> <Gold.Chemscore.DEInternal.Weighted>
0.4552

> <Gold.Chemscore.Rot.Weighted>
10.3110

> <Gold.Chemscore.Internal.Correction.Weighted>
   9.000000E+99

> <Gold.Protein.RotatedTorsions>
[ 6907 6896 6895 6894 ] final -133.24 input  -60.11 | X-H torsion
[ 7974 7965 7964 7962 ] final  168.39 input  175.53 | X-H torsion
[ 8008 7997 7996 7995 ] final  -71.20 input   59.86 | X-H torsion
[ 10167 10162 10161 10158 ] final   -6.83 input  -65.29 | X-H torsion
[ 10718 10713 10712 10709 ] final  116.67 input   66.30 | X-H torsion
[ 10763 10752 10751 10750 ] final  100.86 input  -60.55 | X-H torsion
[ 11005 11000 10999 10996 ] final  -66.40 input  -57.11 | X-H torsion

> <Gold.Protein.ActiveResidues>
 VAL166  LYS551  ARG553  GLY616  TRP617  ASP618  TYR619  PRO620  LYS621  CYS622 
 ASP623  PHE694  ASN695  SER759  ASP760  ASP761  ALA762  ILE779  LEU786  VAL792 
 PHE793  MET794  SER795  GLU796  ALA797  LYS798  CYS799  TRP800  GLU811  SER814 

> <Gold.Protein.RotatedAtoms>
  150.9717  133.6337  159.2736 H   0  0  0  0  0  0  0  0  0  0  0  0  # atno 6907 bound_to 6896
  151.3624  135.0905  159.9448 H   0  0  0  0  0  0  0  0  0  0  0  0  # atno 6908 bound_to 6896
  152.5185  133.9288  159.7625 H   0  0  0  0  0  0  0  0  0  0  0  0  # atno 6909 bound_to 6896
  144.7390  139.8901  143.6402 H   0  0  0  0  0  0  0  0  0  0  0  0  # atno 7974 bound_to 7965
  154.5069  140.0820  156.7913 H   0  0  0  0  0  0  0  0  0  0  0  0  # atno 8008 bound_to 7997
  155.3873  140.3431  155.4231 H   0  0  0  0  0  0  0  0  0  0  0  0  # atno 8009 bound_to 7997
  156.1527  140.1563  156.8731 H   0  0  0  0  0  0  0  0  0  0  0  0  # atno 8010 bound_to 7997
  140.7009  143.6149  150.8668 H   0  0  0  0  0  0  0  0  0  0  0  0  # atno 10167 bound_to 10162
  157.6146  131.1028  150.7505 H   0  0  0  0  0  0  0  0  0  0  0  0  # atno 10718 bound_to 10713
  153.3193  135.4064  155.1403 H   0  0  0  0  0  0  0  0  0  0  0  0  # atno 10763 bound_to 10752
  154.8596  135.3583  154.5618 H   0  0  0  0  0  0  0  0  0  0  0  0  # atno 10764 bound_to 10752
  153.6051  135.7069  153.5428 H   0  0  0  0  0  0  0  0  0  0  0  0  # atno 10765 bound_to 10752
  141.1481  133.6699  156.6134 H   0  0  0  0  0  0  0  0  0  0  0  0  # atno 11005 bound_to 11000
  146.1148  139.4158  143.0265 LP  0  0  0  0  0  0  0  0  0  0  0  0  # atno 17320 bound_to 7965
  145.7390  141.0015  143.1311 LP  0  0  0  0  0  0  0  0  0  0  0  0  # atno 17321 bound_to 7965
  139.9871  143.5887  152.2923 LP  0  0  0  0  0  0  0  0  0  0  0  0  # atno 17342 bound_to 10162
  139.6529  144.7661  151.2113 LP  0  0  0  0  0  0  0  0  0  0  0  0  # atno 17343 bound_to 10162
  156.7875  130.4879  149.5390 LP  0  0  0  0  0  0  0  0  0  0  0  0  # atno 17370 bound_to 10713
  156.1262  130.6146  151.0267 LP  0  0  0  0  0  0  0  0  0  0  0  0  # atno 17371 bound_to 10713
  140.3597  134.7698  157.4525 LP  0  0  0  0  0  0  0  0  0  0  0  0  # atno 17394 bound_to 11000
  140.0795  134.5751  155.8555 LP  0  0  0  0  0  0  0  0  0  0  0  0  # atno 17395 bound_to 11000

$$$$
