#       Name:                AV-unprocessed.smi:2492
#       Creating user name   scv26
#       Creation time:       Fri Mar 27 13:44:57 2020


#       File generated by GOLD software.
#

@<TRIPOS>MOLECULE
AV-unprocessed.smi:2492
    39    40     1
SMALL
NO_CHARGES


@<TRIPOS>ATOM
      1 ****        -3.0655  -3.5508   1.3237 C.3            1 S1                 0.0000
      2 ****        -3.9156  -2.8079  -0.0941 S.3            1 S1                 0.0000
      3 ****        -2.5317  -1.9229  -0.8683 C.3            1 S1                 0.0000
      4 ****        -2.9073  -1.3111  -2.2156 C.3            1 S1                 0.0000
      5 ****        -1.8426  -0.2389  -2.4563 C.3            1 S1                 0.0000
      6 ****        -1.3856   0.2332  -1.0623 C.3            1 S1                 0.0000
      7 ****         0.0719   0.2020  -0.9572 N.am           1 S1                 0.0000
      8 ****         0.8099   0.8513  -0.0451 C.2            1 S1                 0.0000
      9 ****         0.2576   1.5453   0.8119 O.2            1 S1                 0.0000
     10 ****         2.1408   0.6548  -0.1823 N.pl3          1 S1                -1.0000
     11 ****         2.9973   1.2542   0.6610 C.2            1 S1                 0.0000
     12 ****         3.6362   2.4045   0.4427 N.2            1 S1                 0.0000
     13 ****         4.3644   2.5402   1.5830 C.2            1 S1                 0.0000
     14 ****         5.2676   3.6989   1.8341 C.3            1 S1                 0.0000
     15 ****         4.2331   1.5663   2.4714 N.2            1 S1                 0.0000
     16 ****         3.3193   0.6978   1.8579 O.3            1 S1                 0.0000
     17 ****        -2.0461  -0.7236  -0.0504 C.3            1 S1                 0.0000
     18 ****        -3.7590  -4.1676   1.8952 H              1 S1                 0.0000
     19 ****        -2.6702  -2.7780   1.9827 H              1 S1                 0.0000
     20 ****        -2.2403  -4.1785   0.9875 H              1 S1                 0.0000
     21 ****        -1.7040  -2.6182  -1.0160 H              1 S1                 0.0000
     22 ****        -2.9448  -2.0502  -3.0165 H              1 S1                 0.0000
     23 ****        -3.8891  -0.8399  -2.1509 H              1 S1                 0.0000
     24 ****        -1.0102  -0.6805  -3.0069 H              1 S1                 0.0000
     25 ****        -2.2264   0.5830  -3.0615 H              1 S1                 0.0000
     26 ****        -1.7402   1.2510  -0.8889 H              1 S1                 0.0000
     27 ****         0.5658  -0.3559  -1.6383 H              1 S1                 0.0000
     28 ****         6.3060   3.4060   1.6776 H              1 S1                 0.0000
     29 ****         5.1560   4.0548   2.8587 H              1 S1                 0.0000
     30 ****         5.0340   4.5215   1.1575 H              1 S1                 0.0000
     31 ****        -2.8995  -0.2203   0.4063 H              1 S1                 0.0000
     32 ****        -1.3805  -1.0215   0.7607 H              1 S1                 0.0000
     33 ****        -0.7393   1.6232   0.8259 LP             1 S1                 0.0000
     34 ****         0.8066   2.0301   1.4927 LP             1 S1                 0.0000
     35 ****         2.4869   0.0638  -0.9110 LP             1 S1                 0.0000
     36 ****         3.5913   3.0095  -0.3524 LP             1 S1                 0.0000
     37 ****         4.6774   1.4733   3.3624 LP             1 S1                 0.0000
     38 ****         3.7366  -0.2003   1.7196 LP             1 S1                 0.0000
     39 ****         2.5011   0.6015   2.4247 LP             1 S1                 0.0000
@<TRIPOS>BOND
    1    1    2 1     
    2    1   18 1     
    3    1   19 1     
    4    1   20 1     
    5    2    3 1     
    6    3   17 1     
    7    3    4 1     
    8    3   21 1     
    9    4    5 1     
   10    4   22 1     
   11    4   23 1     
   12    5    6 1     
   13    5   24 1     
   14    5   25 1     
   15    6    7 1     
   16    6   17 1     
   17    6   26 1     
   18    7    8 am    
   19    7   27 1     
   20    8    9 2     
   21    8   10 1     
   22   10   11 1     
   23   11   16 1     
   24   11   12 2     
   25   12   13 1     
   26   13   14 1     
   27   13   15 2     
   28   14   28 1     
   29   14   29 1     
   30   14   30 1     
   31   15   16 1     
   32   17   31 1     
   33   17   32 1     
   34    9   33 1     
   35    9   34 1     
   36   10   35 1     
   37   12   36 1     
   38   15   37 1     
   39   16   38 1     
   40   16   39 1     
@<TRIPOS>SUBSTRUCTURE
      1 S1             1
@<TRIPOS>SET
LONE_PAIRS      STATIC     ATOMS    <user>   **** ""
7 33 34 35 36 37 38 39
DONOR_HYDROGENS      STATIC     ATOMS    <user>   **** ""
1 27
ATOM$BLUE        STATIC     ATOMS    COLORGROUP SYSTEM
7 33 34 35 36 37 38 39
ATOM$RED        STATIC     ATOMS    COLORGROUP SYSTEM
1 27
