AV-unprocessed.smi:630|AV-procd|sdf|3123|dock3
  -GOLD-   22720 0 43D 1   1.00000     0.00000
 Structure written by MMmdl.
 36 37  0  0  0  0  0  0  0  0  2 V2000
  152.9227  137.9045  156.2800 N   0  0  0  0  0  0  0  0  0  0  0  0
  151.8377  137.2385  155.8752 C   0  0  0  0  0  0  0  0  0  0  0  0
  151.8668  136.0314  155.6402 O   0  0  0  0  0  0  0  0  0  0  0  0
  150.5346  138.0512  155.7137 C   0  0  2  0  0  0  0  0  0  0  0  0
  150.7839  139.2433  154.7528 C   0  0  0  0  0  0  0  0  0  0  0  0
  149.8161  140.4331  154.8600 C   0  0  0  0  0  0  0  0  0  0  0  0
  150.2126  141.4247  155.9666 C   0  0  0  0  0  0  0  0  0  0  0  0
  149.8640  140.9677  157.3892 C   0  0  0  0  0  0  0  0  0  0  0  0
  150.4788  139.6231  157.8137 C   0  0  0  0  0  0  0  0  0  0  0  0
  149.8593  138.4140  157.0776 C   0  0  2  0  0  0  0  0  0  0  0  0
  149.8222  137.2637  157.9884 N   0  0  0  0  0  0  0  0  0  0  0  0
  149.0958  137.1567  159.1116 C   0  0  0  0  0  0  0  0  0  0  0  0
  148.3844  138.0954  159.4774 O   0  0  0  0  0  0  0  0  0  0  0  0
  149.2267  135.9622  159.7320 N   0  5  0  0  0  0  0  0  0  0  0  0
  148.5746  135.7276  160.8822 C   0  0  0  0  0  0  0  0  0  0  0  0
  148.3447  136.6747  161.7988 N   0  0  0  0  0  0  0  0  0  0  0  0
  147.6580  136.2064  162.9206 C   0  0  0  0  0  0  0  0  0  0  0  0
  147.3647  134.8700  162.8599 C   0  0  0  0  0  0  0  0  0  0  0  0
  147.9467  134.1550  161.3837 S   0  0  0  0  0  0  0  0  0  0  0  0
  153.8047  137.4215  156.3673 H   0  0  0  0  0  0  0  0  0  0  0  0
  152.8637  138.8955  156.4648 H   0  0  0  0  0  0  0  0  0  0  0  0
  149.8211  137.4030  155.2015 H   0  0  0  0  0  0  0  0  0  0  0  0
  151.8025  139.6225  154.8476 H   0  0  0  0  0  0  0  0  0  0  0  0
  150.7274  138.8560  153.7346 H   0  0  0  0  0  0  0  0  0  0  0  0
  149.8496  140.9718  153.9123 H   0  0  0  0  0  0  0  0  0  0  0  0
  148.7840  140.0994  154.9720 H   0  0  0  0  0  0  0  0  0  0  0  0
  151.2779  141.6492  155.9009 H   0  0  0  0  0  0  0  0  0  0  0  0
  149.7019  142.3707  155.7829 H   0  0  0  0  0  0  0  0  0  0  0  0
  150.1998  141.7369  158.0854 H   0  0  0  0  0  0  0  0  0  0  0  0
  148.7801  140.9243  157.5024 H   0  0  0  0  0  0  0  0  0  0  0  0
  151.5628  139.6435  157.7025 H   0  0  0  0  0  0  0  0  0  0  0  0
  150.2971  139.5197  158.8846 H   0  0  0  0  0  0  0  0  0  0  0  0
  148.8149  138.6603  156.8785 H   0  0  0  0  0  0  0  0  0  0  0  0
  150.3878  136.4677  157.7322 H   0  0  0  0  0  0  0  0  0  0  0  0
  147.4199  136.8950  163.7172 H   0  0  0  0  0  0  0  0  0  0  0  0
  146.8471  134.2653  163.5889 H   0  0  0  0  0  0  0  0  0  0  0  0
  1  2  1  0  0  0  0
  1 20  1  0  0  0  0
  1 21  1  0  0  0  0
  2  3  2  0  0  0  0
  2  4  1  0  0  0  0
  4 10  1  0  0  0  0
  4  5  1  0  0  0  0
  4 22  1  0  0  0  0
  5  6  1  0  0  0  0
  5 23  1  0  0  0  0
  5 24  1  0  0  0  0
  6  7  1  0  0  0  0
  6 25  1  0  0  0  0
  6 26  1  0  0  0  0
  7  8  1  0  0  0  0
  7 27  1  0  0  0  0
  7 28  1  0  0  0  0
  8  9  1  0  0  0  0
  8 29  1  0  0  0  0
  8 30  1  0  0  0  0
  9 10  1  0  0  0  0
  9 31  1  0  0  0  0
  9 32  1  0  0  0  0
 10 11  1  0  0  0  0
 10 33  1  0  0  0  0
 11 12  1  0  0  0  0
 11 34  1  0  0  0  0
 12 13  2  0  0  0  0
 12 14  1  0  0  0  0
 14 15  1  0  0  0  0
 15 19  1  0  0  0  0
 15 16  2  0  0  0  0
 16 17  1  0  0  0  0
 17 18  2  0  0  0  0
 17 35  1  0  0  0  0
 18 19  1  0  0  0  0
 18 36  1  0  0  0  0
M  CHG  1  14  -1
M  END
> <s_m_source_file>
AV-unprocessed.smi

> <i_m_source_file_index>
630

> <i_lp_mmshare_version>
43012

> <i_f3d_flags>
0

> <s_epik_input>
W05IMl1DKD1PKVtDQEBIXTFbQ0gyXVtDSDJdW0NIMl1bQ0gyXVtDSDJdW0NASF0xW05IXUMoPU8pW05IXWMybltjSF1bY0hdczI=

> <s_epik_cmdline>
J2VwaWtfcHl0aG9uJywgJy1waCcsICc3LjAnLCAnLXRuJywgJzgnLCAnLW1hJywgJzIwMCcsICctbWV0YWxfYmluZGluZycsICctaW1hZScsICc8aW5maWxlLm1hZT4nLCAnLW9tYWUnLCAnPG91dGZpbGUubWFlPic=

> <r_lp_tautomer_probability>
0.999

> <r_epik_Ionization_Penalty>
8.29606

> <r_epik_Ionization_Penalty_Charging>
6.67551

> <r_epik_Ionization_Penalty_Neutral>
1.62055

> <r_epik_State_Penalty>
6.67568

> <r_epik_Charging_Adjusted_Penalty>
13.3512

> <i_epik_Tot_Q>
-1

> <i_epik_Tot_abs_Q>
1

> <r_epik_Metal_State_Penalty>
2.59802

> <b_epik_Metal_Only>
1

> <s_lp_Force_Field>
OPLS_2005

> <r_lp_Energy>
8.77772

> <b_lp_Chiralities_Consistent>
1

> <s_lp_Variant>
AV-unprocessed.smi:630-7

> <Gold.Version>
5.8.1

> <Gold.Id.Protein>
6NUR|6NUR_protein|mol2

> <Gold.PLP.Fitness>
42.0935

> <Gold.PLP.PLP>
-30.3606

> <Gold.PLP.part.hbond>
-4.9245

> <Gold.PLP.part.metal>
0.0000

> <Gold.PLP.part.buried>
-2.4170

> <Gold.PLP.part.nonpolar>
-24.1112

> <Gold.PLP.part.repulsive>
0.3042

> <Gold.PLP.ligand.clash>
0.0000

> <Gold.PLP.ligand.torsion>
0.5387

> <Gold.PLP.Chemscore.Hbond>
4.2113

> <Gold.PLP.Chemscore.CHOScore>
0.0000

> <Gold.PLP.Chemscore.Metal>
0.0000

> <Gold.Chemscore.Hbonds>
donor molecule, donor type, donor heavy atom, donor atom, acceptor molecule, acceptor atom, score
      P1  H  6896  6907       L1    14  2.00
      P1  H  6931  6943       L1    16  1.00
      P1  H  6934  6947       L1    13  0.19
      P1  H 10752 10765       L1     3  0.98

> <Gold.PLP.Chemscore.Internal.Correction>
0.1764

> <Gold.Rescore>
     Score         DG    S(hbond)    S(metal)    S(lipo)     H(rot)  DE(clash)    DE(int)     intcor
     15.92     -18.65       2.92        0.00      62.07       1.50       0.71       2.02       ----

> <Gold.Chemscore.Fitness>
15.9192

> <Gold.Chemscore.DG>
-18.6481

> <Gold.Chemscore.ZeroCoef>
-5.4800

> <Gold.Chemscore.Hbond>
2.9214

> <Gold.Chemscore.Metal>
0.0000

> <Gold.Chemscore.Lipo>
62.0677

> <Gold.Chemscore.Internal_Hbond>
0.0000

> <Gold.Chemscore.DEClash>
0.7053

> <Gold.Chemscore.DEInternal>
2.0236

> <Gold.Chemscore.Rot>
1.5044

> <Gold.Chemscore.Internal.Correction>
   9.000000E+99

> <Gold.Chemscore.Hbonds>
donor molecule, donor type, donor heavy atom, donor atom, acceptor molecule, acceptor atom, score
      P1  H  6896  6907       L1    14  0.65
      P1  H  6931  6943       L1    16  0.94
      P1  H  6934  6947       L1    13  0.18
      P1  H 10752 10765       L1     3  0.86

> <Gold.Chemscore.Hbond.Weighted>
-9.7574

> <Gold.Chemscore.Metal.Weighted>
-0.0000

> <Gold.Chemscore.Lipo.Weighted>
-7.2619

> <Gold.Chemscore.Internal_Hbond.Weighted>
0.0000

> <Gold.Chemscore.DEClash.Weighted>
0.7053

> <Gold.Chemscore.DEInternal.Weighted>
2.0236

> <Gold.Chemscore.Rot.Weighted>
3.8512

> <Gold.Chemscore.Internal.Correction.Weighted>
   9.000000E+99

> <Gold.Protein.RotatedTorsions>
[ 6907 6896 6895 6894 ] final  -57.45 input  -60.11 | X-H torsion
[ 7974 7965 7964 7962 ] final   63.88 input  175.53 | X-H torsion
[ 8008 7997 7996 7995 ] final  -84.32 input   59.86 | X-H torsion
[ 10167 10162 10161 10158 ] final   76.25 input  -65.29 | X-H torsion
[ 10718 10713 10712 10709 ] final  -31.90 input   66.30 | X-H torsion
[ 10763 10752 10751 10750 ] final -148.27 input  -60.55 | X-H torsion
[ 11005 11000 10999 10996 ] final  169.72 input  -57.11 | X-H torsion

> <Gold.Protein.ActiveResidues>
 VAL166  LYS551  ARG553  GLY616  TRP617  ASP618  TYR619  PRO620  LYS621  CYS622 
 ASP623  PHE694  ASN695  SER759  ASP760  ASP761  ALA762  ILE779  LEU786  VAL792 
 PHE793  MET794  SER795  GLU796  ALA797  LYS798  CYS799  TRP800  GLU811  SER814 

> <Gold.Protein.RotatedAtoms>
  150.8085  134.7225  159.6665 H   0  0  0  0  0  0  0  0  0  0  0  0  # atno 6907 bound_to 6896
  152.4205  134.5961  159.9997 H   0  0  0  0  0  0  0  0  0  0  0  0  # atno 6908 bound_to 6896
  151.6178  133.3304  159.3117 H   0  0  0  0  0  0  0  0  0  0  0  0  # atno 6909 bound_to 6896
  145.8567  139.3288  143.0843 H   0  0  0  0  0  0  0  0  0  0  0  0  # atno 7974 bound_to 7965
  154.6285  140.0606  156.9703 H   0  0  0  0  0  0  0  0  0  0  0  0  # atno 8008 bound_to 7997
  155.1703  140.3290  155.4375 H   0  0  0  0  0  0  0  0  0  0  0  0  # atno 8009 bound_to 7997
  156.2470  140.1915  156.6805 H   0  0  0  0  0  0  0  0  0  0  0  0  # atno 8010 bound_to 7997
  139.9943  144.5734  150.7791 H   0  0  0  0  0  0  0  0  0  0  0  0  # atno 10167 bound_to 10162
  156.3815  130.4357  149.7465 H   0  0  0  0  0  0  0  0  0  0  0  0  # atno 10718 bound_to 10713
  154.8242  135.3339  154.6948 H   0  0  0  0  0  0  0  0  0  0  0  0  # atno 10763 bound_to 10752
  153.7576  135.6935  153.4937 H   0  0  0  0  0  0  0  0  0  0  0  0  # atno 10764 bound_to 10752
  153.2132  135.4474  155.0354 H   0  0  0  0  0  0  0  0  0  0  0  0  # atno 10765 bound_to 10752
  140.3007  134.7597  157.3914 H   0  0  0  0  0  0  0  0  0  0  0  0  # atno 11005 bound_to 11000
  145.9295  140.9058  143.0363 LP  0  0  0  0  0  0  0  0  0  0  0  0  # atno 17320 bound_to 7965
  144.6727  140.1399  143.7438 LP  0  0  0  0  0  0  0  0  0  0  0  0  # atno 17321 bound_to 7965
  140.7443  143.2859  151.3466 LP  0  0  0  0  0  0  0  0  0  0  0  0  # atno 17342 bound_to 10162
  139.6318  144.0707  152.2482 LP  0  0  0  0  0  0  0  0  0  0  0  0  # atno 17343 bound_to 10162
  156.4554  130.7926  151.2947 LP  0  0  0  0  0  0  0  0  0  0  0  0  # atno 17370 bound_to 10713
  157.7492  131.0082  150.3221 LP  0  0  0  0  0  0  0  0  0  0  0  0  # atno 17371 bound_to 10713
  140.1111  134.5344  155.8265 LP  0  0  0  0  0  0  0  0  0  0  0  0  # atno 17394 bound_to 11000
  141.2128  133.6725  156.6691 LP  0  0  0  0  0  0  0  0  0  0  0  0  # atno 17395 bound_to 11000

$$$$
