#       Name:                AV-unprocessed.smi:104
#       Creating user name   scv26
#       Creation time:       Thu Mar 26 17:58:29 2020


#       File generated by GOLD software.
#

@<TRIPOS>MOLECULE
AV-unprocessed.smi:104
    58    60     1
SMALL
NO_CHARGES


@<TRIPOS>ATOM
      1 ****        -3.9456   3.6935   2.7076 C.3            1 S1                 0.0000
      2 ****        -3.7148   2.4282   1.8919 C.2            1 S1                 0.0000
      3 ****        -4.6055   1.9390   1.1967 O.2            1 S1                 0.0000
      4 ****        -2.4698   1.9495   2.0319 O.3            1 S1                 0.0000
      5 ****        -2.0913   0.7719   1.3391 C.3            1 S1                 0.0000
      6 ****        -0.6118   0.4770   1.6088 C.3            1 S1                 0.0000
      7 ****         0.2003   1.3735   0.8668 O.3            1 S1                 0.0000
      8 ****         1.4525   0.8035   0.6552 C.3            1 S1                 0.0000
      9 ****         1.8852   1.1688  -0.7325 N.pl3          1 S1                 0.0000
     10 ****         3.1143   1.6028  -1.1741 C.2            1 S1                 0.0000
     11 ****         4.6015   1.8144  -0.0039 Br             1 S1                 0.0000
     12 ****         3.2344   1.8557  -2.4475 N.2            1 S1                 0.0000
     13 ****         1.9684   1.5616  -2.9388 C.ar           1 S1                 0.0000
     14 ****         1.3781   1.6001  -4.2271 C.ar           1 S1                 0.0000
     15 ****         2.0425   1.9877  -5.3248 N.pl3          1 S1                 0.0000
     16 ****         0.0833   1.2271  -4.3567 N.ar           1 S1                 0.0000
     17 ****        -0.6018   0.8353  -3.2773 C.ar           1 S1                 0.0000
     18 ****        -0.1879   0.7494  -2.0104 N.ar           1 S1                 0.0000
     19 ****         1.1176   1.1286  -1.8799 C.ar           1 S1                 0.0000
     20 ****         1.3212  -0.7211   0.8593 C.3            1 S1                 0.0000
     21 ****         1.7406  -1.4640  -0.2821 O.3            1 S1                 0.0000
     22 ****         2.1227  -2.7447  -0.1577 C.2            1 S1                 0.0000
     23 ****         2.5250  -3.3597  -1.4911 C.3            1 S1                 0.0000
     24 ****         2.1584  -3.3934   0.8878 O.2            1 S1                 0.0000
     25 ****        -0.1690  -0.9004   1.1158 C.3            1 S1                 0.0000
     26 ****        -0.3560  -1.8889   2.1211 O.3            1 S1                 0.0000
     27 ****        -1.3651  -2.7711   2.0318 C.2            1 S1                 0.0000
     28 ****        -1.3754  -3.7557   3.1931 C.3            1 S1                 0.0000
     29 ****        -2.2111  -2.8213   1.1391 O.2            1 S1                 0.0000
     30 ****        -3.4090   4.5322   2.2637 H              1 S1                 0.0000
     31 ****        -3.5920   3.5569   3.7297 H              1 S1                 0.0000
     32 ****        -5.0070   3.9398   2.7408 H              1 S1                 0.0000
     33 ****        -2.7062  -0.0554   1.6958 H              1 S1                 0.0000
     34 ****        -2.2707   0.8763   0.2680 H              1 S1                 0.0000
     35 ****        -0.3757   0.5846   2.6693 H              1 S1                 0.0000
     36 ****         2.1870   1.2572   1.3197 H              1 S1                 0.0000
     37 ****         3.0097   2.2698  -5.2547 H              1 S1                 0.0000
     38 ****         1.5739   2.0022  -6.2190 H              1 S1                 0.0000
     39 ****        -1.6287   0.5505  -3.4532 H              1 S1                 0.0000
     40 ****         1.9063  -0.9773   1.7441 H              1 S1                 0.0000
     41 ****         3.4276  -2.8810  -1.8712 H              1 S1                 0.0000
     42 ****         1.7284  -3.2297  -2.2238 H              1 S1                 0.0000
     43 ****         2.7192  -4.4265  -1.3780 H              1 S1                 0.0000
     44 ****        -0.6708  -1.1413   0.1767 H              1 S1                 0.0000
     45 ****        -1.5856  -3.2357   4.1276 H              1 S1                 0.0000
     46 ****        -0.4075  -4.2494   3.2800 H              1 S1                 0.0000
     47 ****        -2.1396  -4.5184   3.0419 H              1 S1                 0.0000
     48 ****        -5.5055   2.3733   1.1586 LP             1 S1                 0.0000
     49 ****        -4.4290   1.1073   0.6702 LP             1 S1                 0.0000
     50 ****         0.3052   2.2272   1.3768 LP             1 S1                 0.0000
     51 ****        -0.2324   1.5627  -0.0146 LP             1 S1                 0.0000
     52 ****         4.0378   2.1805  -2.9465 LP             1 S1                 0.0000
     53 ****        -0.3580   1.2444  -5.2539 LP             1 S1                 0.0000
     54 ****        -0.7630   0.4449  -1.2510 LP             1 S1                 0.0000
     55 ****         1.8860  -2.9671   1.7503 LP             1 S1                 0.0000
     56 ****         2.4598  -4.3468   0.8746 LP             1 S1                 0.0000
     57 ****        -2.1845  -2.1624   0.3874 LP             1 S1                 0.0000
     58 ****        -2.9250  -3.5211   1.1656 LP             1 S1                 0.0000
@<TRIPOS>BOND
    1    1    2 1     
    2    1   30 1     
    3    1   31 1     
    4    1   32 1     
    5    2    3 2     
    6    2    4 1     
    7    4    5 1     
    8    5    6 1     
    9    5   33 1     
   10    5   34 1     
   11    6   25 1     
   12    6    7 1     
   13    6   35 1     
   14    7    8 1     
   15    8    9 1     
   16    8   20 1     
   17    8   36 1     
   18    9   19 1     
   19    9   10 1     
   20   10   11 1     
   21   10   12 2     
   22   12   13 1     
   23   13   19 ar    
   24   13   14 ar    
   25   14   15 1     
   26   14   16 ar    
   27   15   37 1     
   28   15   38 1     
   29   16   17 ar    
   30   17   18 ar    
   31   17   39 1     
   32   18   19 ar    
   33   20   21 1     
   34   20   25 1     
   35   20   40 1     
   36   21   22 1     
   37   22   23 1     
   38   22   24 2     
   39   23   41 1     
   40   23   42 1     
   41   23   43 1     
   42   25   26 1     
   43   25   44 1     
   44   26   27 1     
   45   27   28 1     
   46   27   29 2     
   47   28   45 1     
   48   28   46 1     
   49   28   47 1     
   50    3   48 1     
   51    3   49 1     
   52    7   50 1     
   53    7   51 1     
   54   12   52 1     
   55   16   53 1     
   56   18   54 1     
   57   24   55 1     
   58   24   56 1     
   59   29   57 1     
   60   29   58 1     
@<TRIPOS>SUBSTRUCTURE
      1 S1             1
@<TRIPOS>SET
LONE_PAIRS      STATIC     ATOMS    <user>   **** ""
11 48 49 50 51 52 53 54 55 56 57 58
DONOR_HYDROGENS      STATIC     ATOMS    <user>   **** ""
2 37 38
ATOM$BLUE        STATIC     ATOMS    COLORGROUP SYSTEM
11 48 49 50 51 52 53 54 55 56 57 58
ATOM$RED        STATIC     ATOMS    COLORGROUP SYSTEM
2 37 38
