AV-unprocessed.smi:2530|AV-procd|sdf|9962|dock5
  -GOLD-   2272014 03D 1   1.00000     0.00000
 Structure written by MMmdl.
 44 46  0  0  0  0  0  0  0  0  1 V2000
  146.6069  138.1139  151.5736 C   0  0  0  0  0  0  0  0  0  0  0  0
  146.6232  138.5755  153.0161 C   0  0  0  0  0  0  0  0  0  0  0  0
  145.9777  137.8196  154.0111 C   0  0  0  0  0  0  0  0  0  0  0  0
  145.9836  138.2653  155.3447 C   0  0  0  0  0  0  0  0  0  0  0  0
  146.6251  139.4710  155.7028 C   0  0  0  0  0  0  0  0  0  0  0  0
  146.5712  139.8968  157.1613 C   0  0  0  0  0  0  0  0  0  0  0  0
  147.2845  140.2385  154.7012 C   0  0  0  0  0  0  0  0  0  0  0  0
  147.9777  141.5781  154.9764 C   0  0  2  0  0  0  0  0  0  0  0  0
  147.3987  142.6693  154.2919 O   0  0  0  0  0  0  0  0  0  0  0  0
  149.5072  141.5639  154.7268 C   0  0  0  0  0  0  0  0  0  0  0  0
  150.2870  141.3295  155.9557 N   0  0  0  0  0  0  0  0  0  0  0  0
  149.8924  142.0392  157.1073 C   0  0  0  0  0  0  0  0  0  0  0  0
  150.5510  141.9537  158.2186 N   0  0  0  0  0  0  0  0  0  0  0  0
  151.6871  141.1387  158.2959 C   0  0  0  0  0  0  0  0  0  0  0  0
  152.4413  141.0503  159.6171 C   0  0  0  0  0  0  0  0  0  0  0  0
  153.0998  142.3333  160.1589 C   0  0  0  0  0  0  0  0  0  0  0  0
  154.2893  141.4612  160.5792 C   0  0  0  0  0  0  0  0  0  0  0  0
  153.8510  140.4541  159.5091 C   0  0  0  0  0  0  0  0  0  0  0  0
  152.0810  140.4083  157.2265 C   0  0  0  0  0  0  0  0  0  0  0  0
  151.3591  140.4855  155.9568 C   0  0  0  0  0  0  0  0  0  0  0  0
  151.7026  139.8511  154.9593 O   0  0  0  0  0  0  0  0  0  0  0  0
  147.2746  139.7731  153.3661 C   0  0  0  0  0  0  0  0  0  0  0  0
  146.4693  137.0342  151.5092 H   0  0  0  0  0  0  0  0  0  0  0  0
  147.5443  138.3654  151.0768 H   0  0  0  0  0  0  0  0  0  0  0  0
  145.7916  138.5975  151.0351 H   0  0  0  0  0  0  0  0  0  0  0  0
  145.4730  136.8993  153.7554 H   0  0  0  0  0  0  0  0  0  0  0  0
  145.4812  137.6738  156.0964 H   0  0  0  0  0  0  0  0  0  0  0  0
  147.5512  139.7941  157.6270 H   0  0  0  0  0  0  0  0  0  0  0  0
  145.8738  139.2781  157.7268 H   0  0  0  0  0  0  0  0  0  0  0  0
  146.2398  140.9281  157.2632 H   0  0  0  0  0  0  0  0  0  0  0  0
  147.8235  141.8069  156.0315 H   0  0  0  0  0  0  0  0  0  0  0  0
  147.6500  143.4659  154.7340 H   0  0  0  0  0  0  0  0  0  0  0  0
  149.7554  140.8166  153.9728 H   0  0  0  0  0  0  0  0  0  0  0  0
  149.8108  142.5091  154.2733 H   0  0  0  0  0  0  0  0  0  0  0  0
  149.0088  142.6692  156.9931 H   0  0  0  0  0  0  0  0  0  0  0  0
  151.8541  140.5515  160.3911 H   0  0  0  0  0  0  0  0  0  0  0  0
  153.3835  143.0656  159.4021 H   0  0  0  0  0  0  0  0  0  0  0  0
  152.5675  142.8017  160.9872 H   0  0  0  0  0  0  0  0  0  0  0  0
  155.2684  141.9100  160.4099 H   0  0  0  0  0  0  0  0  0  0  0  0
  154.1915  141.0706  161.5935 H   0  0  0  0  0  0  0  0  0  0  0  0
  153.9277  139.4080  159.8068 H   0  0  0  0  0  0  0  0  0  0  0  0
  154.3246  140.6344  158.5424 H   0  0  0  0  0  0  0  0  0  0  0  0
  152.9479  139.7678  157.3000 H   0  0  0  0  0  0  0  0  0  0  0  0
  147.7576  140.3523  152.5923 H   0  0  0  0  0  0  0  0  0  0  0  0
  1  2  1  0  0  0  0
  1 23  1  0  0  0  0
  1 24  1  0  0  0  0
  1 25  1  0  0  0  0
  2 22  1  0  0  0  0
  2  3  2  0  0  0  0
  3  4  1  0  0  0  0
  3 26  1  0  0  0  0
  4  5  2  0  0  0  0
  4 27  1  0  0  0  0
  5  6  1  0  0  0  0
  5  7  1  0  0  0  0
  6 28  1  0  0  0  0
  6 29  1  0  0  0  0
  6 30  1  0  0  0  0
  7  8  1  0  0  0  0
  7 22  2  0  0  0  0
  8  9  1  0  0  0  0
  8 10  1  0  0  0  0
  8 31  1  0  0  0  0
  9 32  1  0  0  0  0
 10 11  1  0  0  0  0
 10 33  1  0  0  0  0
 10 34  1  0  0  0  0
 11 20  1  0  0  0  0
 11 12  1  0  0  0  0
 12 13  2  0  0  0  0
 12 35  1  0  0  0  0
 13 14  1  0  0  0  0
 14 15  1  0  0  0  0
 14 19  2  0  0  0  0
 15 18  1  0  0  0  0
 15 16  1  0  0  0  0
 15 36  1  0  0  0  0
 16 17  1  0  0  0  0
 16 37  1  0  0  0  0
 16 38  1  0  0  0  0
 17 18  1  0  0  0  0
 17 39  1  0  0  0  0
 17 40  1  0  0  0  0
 18 41  1  0  0  0  0
 18 42  1  0  0  0  0
 19 20  1  0  0  0  0
 19 43  1  0  0  0  0
 20 21  2  0  0  0  0
 22 44  1  0  0  0  0
M  END
> <s_m_source_file>
AV-unprocessed.smi

> <i_m_source_file_index>
2530

> <i_lp_mmshare_version>
43012

> <i_f3d_flags>
0

> <s_epik_input>
W0NIM11jMVtjSF1bY0hdYyhbQ0gzXSljKFtjSF0xKVtDQEhdKFtPSF0pW0NIMl1uMltjSF1uYyhbY0hdYzI9TylbQ0hdM1tDSDJdW0NIMl1bQ0gyXTM=

> <s_epik_cmdline>
J2VwaWtfcHl0aG9uJywgJy1waCcsICc3LjAnLCAnLXRuJywgJzgnLCAnLW1hJywgJzIwMCcsICctbWV0YWxfYmluZGluZycsICctaW1hZScsICc8aW5maWxlLm1hZT4nLCAnLW9tYWUnLCAnPG91dGZpbGUubWFlPic=

> <r_lp_tautomer_probability>
1

> <r_epik_Ionization_Penalty>
2.57341e-05

> <r_epik_Ionization_Penalty_Charging>
5.39435e-08

> <r_epik_Ionization_Penalty_Neutral>
2.56801e-05

> <r_epik_State_Penalty>
-0

> <r_epik_Charging_Adjusted_Penalty>
5.39435e-08

> <i_epik_Tot_Q>
0

> <i_epik_Tot_abs_Q>
0

> <r_epik_Metal_State_Penalty>
-0

> <b_epik_Metal_Only>
0

> <s_lp_Force_Field>
OPLS_2005

> <r_lp_Energy>
27.4041

> <b_lp_Chiralities_Consistent>
1

> <s_lp_Variant>
AV-unprocessed.smi:2530-1

> <Gold.Version>
5.8.1

> <Gold.Id.Protein>
6NUR|6NUR_protein|mol2

> <Gold.PLP.Fitness>
47.2829

> <Gold.PLP.PLP>
-40.0658

> <Gold.PLP.part.hbond>
-2.6054

> <Gold.PLP.part.metal>
0.0000

> <Gold.PLP.part.buried>
-0.1933

> <Gold.PLP.part.nonpolar>
-36.7172

> <Gold.PLP.part.repulsive>
0.0947

> <Gold.PLP.ligand.clash>
0.0000

> <Gold.PLP.ligand.torsion>
1.0379

> <Gold.PLP.Chemscore.Hbond>
2.0000

> <Gold.PLP.Chemscore.CHOScore>
0.9537

> <Gold.PLP.Chemscore.Metal>
0.0000

> <Gold.Chemscore.Hbonds>
donor molecule, donor type, donor heavy atom, donor atom, acceptor molecule, acceptor atom, score
      L1  H     9    32       P1  8028  1.00
      P1  H  7989  7998       L1    21  1.00
      L1  C    12    35       P1  8028  0.92

> <Gold.PLP.Chemscore.Internal.Correction>
0.4319

> <Gold.Rescore>
     Score         DG    S(hbond)    S(metal)    S(lipo)     H(rot)  DE(clash)    DE(int)     intcor
     14.64     -15.94       1.51        0.00      89.23       1.97       0.25       1.04       ----

> <Gold.Chemscore.Fitness>
14.6427

> <Gold.Chemscore.DG>
-15.9366

> <Gold.Chemscore.ZeroCoef>
-5.4800

> <Gold.Chemscore.Hbond>
1.5137

> <Gold.Chemscore.Metal>
0.0000

> <Gold.Chemscore.Lipo>
89.2305

> <Gold.Chemscore.Internal_Hbond>
0.0000

> <Gold.Chemscore.DEClash>
0.2507

> <Gold.Chemscore.DEInternal>
1.0431

> <Gold.Chemscore.Rot>
1.9684

> <Gold.Chemscore.Internal.Correction>
   9.000000E+99

> <Gold.Chemscore.Hbonds>
donor molecule, donor type, donor heavy atom, donor atom, acceptor molecule, acceptor atom, score
      L1  H     9    32       P1  8028  0.34
      P1  H  7989  7998       L1    21  0.75

> <Gold.Chemscore.Hbond.Weighted>
-5.0557

> <Gold.Chemscore.Metal.Weighted>
-0.0000

> <Gold.Chemscore.Lipo.Weighted>
-10.4400

> <Gold.Chemscore.Internal_Hbond.Weighted>
0.0000

> <Gold.Chemscore.DEClash.Weighted>
0.2507

> <Gold.Chemscore.DEInternal.Weighted>
1.0431

> <Gold.Chemscore.Rot.Weighted>
5.0391

> <Gold.Chemscore.Internal.Correction.Weighted>
   9.000000E+99

> <Gold.Protein.RotatedTorsions>
[ 6907 6896 6895 6894 ] final   75.91 input  -60.11 | X-H torsion
[ 7974 7965 7964 7962 ] final -179.65 input  175.53 | X-H torsion
[ 8008 7997 7996 7995 ] final  176.22 input   59.86 | X-H torsion
[ 10167 10162 10161 10158 ] final  143.03 input  -65.29 | X-H torsion
[ 10718 10713 10712 10709 ] final -175.77 input   66.30 | X-H torsion
[ 10763 10752 10751 10750 ] final -145.78 input  -60.55 | X-H torsion
[ 11005 11000 10999 10996 ] final -127.94 input  -57.11 | X-H torsion

> <Gold.Protein.ActiveResidues>
 VAL166  LYS551  ARG553  GLY616  TRP617  ASP618  TYR619  PRO620  LYS621  CYS622 
 ASP623  PHE694  ASN695  SER759  ASP760  ASP761  ALA762  ILE779  LEU786  VAL792 
 PHE793  MET794  SER795  GLU796  ALA797  LYS798  CYS799  TRP800  GLU811  SER814 

> <Gold.Protein.RotatedAtoms>
  152.5048  134.4049  159.9428 H   0  0  0  0  0  0  0  0  0  0  0  0  # atno 6907 bound_to 6896
  151.4015  133.3750  159.2740 H   0  0  0  0  0  0  0  0  0  0  0  0  # atno 6908 bound_to 6896
  150.9358  134.8792  159.7640 H   0  0  0  0  0  0  0  0  0  0  0  0  # atno 6909 bound_to 6896
  144.7138  140.0685  143.6430 H   0  0  0  0  0  0  0  0  0  0  0  0  # atno 7974 bound_to 7965
  156.0787  140.1389  156.9739 H   0  0  0  0  0  0  0  0  0  0  0  0  # atno 8008 bound_to 7997
  154.4573  140.0956  156.6842 H   0  0  0  0  0  0  0  0  0  0  0  0  # atno 8009 bound_to 7997
  155.5110  140.3453  155.4390 H   0  0  0  0  0  0  0  0  0  0  0  0  # atno 8010 bound_to 7997
  139.4979  144.6068  151.6361 H   0  0  0  0  0  0  0  0  0  0  0  0  # atno 10167 bound_to 10162
  156.8048  130.9565  151.3117 H   0  0  0  0  0  0  0  0  0  0  0  0  # atno 10718 bound_to 10713
  154.8367  135.3404  154.6558 H   0  0  0  0  0  0  0  0  0  0  0  0  # atno 10763 bound_to 10752
  153.7172  135.6960  153.5026 H   0  0  0  0  0  0  0  0  0  0  0  0  # atno 10764 bound_to 10752
  153.2408  135.4385  155.0649 H   0  0  0  0  0  0  0  0  0  0  0  0  # atno 10765 bound_to 10752
  140.9558  134.1004  157.4018 H   0  0  0  0  0  0  0  0  0  0  0  0  # atno 11005 bound_to 11000
  145.9803  139.2936  143.1046 LP  0  0  0  0  0  0  0  0  0  0  0  0  # atno 17320 bound_to 7965
  145.9018  140.9238  143.0499 LP  0  0  0  0  0  0  0  0  0  0  0  0  # atno 17321 bound_to 7965
  140.5732  144.0074  150.6227 LP  0  0  0  0  0  0  0  0  0  0  0  0  # atno 17342 bound_to 10162
  140.3198  143.3144  152.0795 LP  0  0  0  0  0  0  0  0  0  0  0  0  # atno 17343 bound_to 10162
  157.6536  130.8905  149.9682 LP  0  0  0  0  0  0  0  0  0  0  0  0  # atno 17370 bound_to 10713
  156.1080  130.3651  150.0100 LP  0  0  0  0  0  0  0  0  0  0  0  0  # atno 17371 bound_to 10713
  139.8862  135.0079  156.6481 LP  0  0  0  0  0  0  0  0  0  0  0  0  # atno 17394 bound_to 11000
  140.7538  133.8875  155.8367 LP  0  0  0  0  0  0  0  0  0  0  0  0  # atno 17395 bound_to 11000

$$$$
