AV-unprocessed.smi:276|AV-procd|sdf|2078|dock5
  -GOLD-   2262021343D 1   1.00000     0.00000
 Structure written by MMmdl.
 57 61  0  0  0  0  0  0  0  0  1 V2000
  154.9928  131.1791  166.5715 C   0  0  0  0  0  0  0  0  0  0  0  0
  155.8044  131.4557  165.4430 O   0  0  0  0  0  0  0  0  0  0  0  0
  155.0486  131.8454  164.3070 C   0  0  2  0  0  0  0  0  0  0  0  0
  155.9152  132.3674  163.1497 C   0  0  0  0  0  0  0  0  0  0  0  0
  155.1247  133.6840  163.1589 C   0  0  1  0  0  0  0  0  0  0  0  0
  154.2569  133.8669  161.9834 N   0  0  0  0  0  0  0  0  0  0  0  0
  153.2951  132.8498  161.5582 C   0  0  0  0  0  0  0  0  0  0  0  0
  154.0331  135.1353  161.5399 C   0  0  0  0  0  0  0  0  0  0  0  0
  153.3119  135.3239  160.4014 N   0  0  0  0  0  0  0  0  0  0  0  0
  153.0864  136.5532  159.9310 C   0  0  0  0  0  0  0  0  0  0  0  0
  153.4784  137.7232  160.4358 N   0  0  0  0  0  0  0  0  0  0  0  0
  154.1919  137.5490  161.5844 C   0  0  0  0  0  0  0  0  0  0  0  0
  154.5134  136.3054  162.2014 C   0  0  0  0  0  0  0  0  0  0  0  0
  155.2423  136.5378  163.3639 N   0  0  0  0  0  0  0  0  0  0  0  0
  155.3495  137.8368  163.4256 C   0  0  0  0  0  0  0  0  0  0  0  0
  154.7465  138.5215  162.3969 N   0  0  0  0  0  0  0  0  0  0  0  0
  154.7051  139.9627  162.2203 C   0  0  0  0  0  0  0  0  0  0  0  0
  154.2807  140.3723  160.7957 C   0  0  2  0  0  0  0  0  0  0  0  0
  155.4219  140.7760  160.0626 O   0  0  0  0  0  0  0  0  0  0  0  0
  153.2590  141.5247  160.8027 C   0  0  1  0  0  0  0  0  0  0  0  0
  153.6143  142.6809  161.7392 C   0  0  0  0  0  0  0  0  0  0  0  0
  152.8400  143.8225  161.1224 C   0  0  0  0  0  0  0  0  0  0  0  0
  153.0012  143.5394  159.6319 C   0  0  0  0  0  0  0  0  0  0  0  0
  153.1812  142.1299  159.5137 O   0  0  0  0  0  0  0  0  0  0  0  0
  154.4034  133.2406  164.4476 C   0  0  0  0  0  0  0  0  0  0  0  0
  154.5784  134.0631  165.7373 C   0  0  0  0  0  0  0  0  0  0  0  0
  153.1633  133.6448  166.1414 C   0  0  0  0  0  0  0  0  0  0  0  0
  152.8841  133.3820  164.6599 C   0  0  0  0  0  0  0  0  0  0  0  0
  155.6220  130.8826  167.4107 H   0  0  0  0  0  0  0  0  0  0  0  0
  154.2949  130.3653  166.3710 H   0  0  0  0  0  0  0  0  0  0  0  0
  154.4247  132.0604  166.8719 H   0  0  0  0  0  0  0  0  0  0  0  0
  154.3256  131.0909  163.9931 H   0  0  0  0  0  0  0  0  0  0  0  0
  156.9582  132.5139  163.4333 H   0  0  0  0  0  0  0  0  0  0  0  0
  155.8405  131.7781  162.2353 H   0  0  0  0  0  0  0  0  0  0  0  0
  155.8025  134.5203  163.3365 H   0  0  0  0  0  0  0  0  0  0  0  0
  152.3062  133.2814  161.3978 H   0  0  0  0  0  0  0  0  0  0  0  0
  153.1797  132.0592  162.2967 H   0  0  0  0  0  0  0  0  0  0  0  0
  153.6251  132.3880  160.6276 H   0  0  0  0  0  0  0  0  0  0  0  0
  152.5097  136.6064  159.0195 H   0  0  0  0  0  0  0  0  0  0  0  0
  155.8716  138.3344  164.2301 H   0  0  0  0  0  0  0  0  0  0  0  0
  154.0107  140.3731  162.9543 H   0  0  0  0  0  0  0  0  0  0  0  0
  155.6867  140.3733  162.4603 H   0  0  0  0  0  0  0  0  0  0  0  0
  153.8461  139.5097  160.2886 H   0  0  0  0  0  0  0  0  0  0  0  0
  155.4488  140.2858  159.2550 H   0  0  0  0  0  0  0  0  0  0  0  0
  152.2654  141.1505  161.0558 H   0  0  0  0  0  0  0  0  0  0  0  0
  153.3370  142.4901  162.7764 H   0  0  0  0  0  0  0  0  0  0  0  0
  154.6840  142.8926  161.7037 H   0  0  0  0  0  0  0  0  0  0  0  0
  151.7888  143.7569  161.4065 H   0  0  0  0  0  0  0  0  0  0  0  0
  153.2135  144.8045  161.4141 H   0  0  0  0  0  0  0  0  0  0  0  0
  152.1434  143.8807  159.0522 H   0  0  0  0  0  0  0  0  0  0  0  0
  153.8917  144.0344  159.2429 H   0  0  0  0  0  0  0  0  0  0  0  0
  155.3648  133.7296  166.4144 H   0  0  0  0  0  0  0  0  0  0  0  0
  154.6537  135.1343  165.5423 H   0  0  0  0  0  0  0  0  0  0  0  0
  153.1477  132.7343  166.7426 H   0  0  0  0  0  0  0  0  0  0  0  0
  152.5621  134.4376  166.5871 H   0  0  0  0  0  0  0  0  0  0  0  0
  152.4558  134.2521  164.1608 H   0  0  0  0  0  0  0  0  0  0  0  0
  152.3042  132.4806  164.4606 H   0  0  0  0  0  0  0  0  0  0  0  0
  1  2  1  0  0  0  0
  1 29  1  0  0  0  0
  1 30  1  0  0  0  0
  1 31  1  0  0  0  0
  2  3  1  0  0  0  0
  3 25  1  0  0  0  0
  3  4  1  0  0  0  0
  3 32  1  0  0  0  0
  4  5  1  0  0  0  0
  4 33  1  0  0  0  0
  4 34  1  0  0  0  0
  5  6  1  0  0  0  0
  5 25  1  0  0  0  0
  5 35  1  0  0  0  0
  6  7  1  0  0  0  0
  6  8  1  0  0  0  0
  7 36  1  0  0  0  0
  7 37  1  0  0  0  0
  7 38  1  0  0  0  0
  8 13  1  0  0  0  0
  8  9  2  0  0  0  0
  9 10  1  0  0  0  0
 10 11  2  0  0  0  0
 10 39  1  0  0  0  0
 11 12  1  0  0  0  0
 12 16  1  0  0  0  0
 12 13  2  0  0  0  0
 13 14  1  0  0  0  0
 14 15  2  0  0  0  0
 15 16  1  0  0  0  0
 15 40  1  0  0  0  0
 16 17  1  0  0  0  0
 17 18  1  0  0  0  0
 17 41  1  0  0  0  0
 17 42  1  0  0  0  0
 18 19  1  0  0  0  0
 18 20  1  0  0  0  0
 18 43  1  0  0  0  0
 19 44  1  0  0  0  0
 20 24  1  0  0  0  0
 20 21  1  0  0  0  0
 20 45  1  0  0  0  0
 21 22  1  0  0  0  0
 21 46  1  0  0  0  0
 21 47  1  0  0  0  0
 22 23  1  0  0  0  0
 22 48  1  0  0  0  0
 22 49  1  0  0  0  0
 23 24  1  0  0  0  0
 23 50  1  0  0  0  0
 23 51  1  0  0  0  0
 25 28  1  0  0  0  0
 25 26  1  0  0  0  0
 26 27  1  0  0  0  0
 26 52  1  0  0  0  0
 26 53  1  0  0  0  0
 27 28  1  0  0  0  0
 27 54  1  0  0  0  0
 27 55  1  0  0  0  0
 28 56  1  0  0  0  0
 28 57  1  0  0  0  0
M  END
> <s_m_source_file>
AV-unprocessed.smi

> <i_m_source_file_index>
276

> <i_lp_mmshare_version>
43012

> <i_f3d_flags>
0

> <s_epik_input>
W0NIMl0xW0NIMl1bQ0gyXUMxMltDQEhdKE9bQ0gzXSlbQ0gyXVtDQEhdMk4oW0NIM10pYyhuW2NIXW4zKWMoYzM0KW5bY0hdbjRbQ0gyXVtDQEhdKFtPSF0pW0NAQEhdNVtDSDJdW0NIMl1bQ0gyXU81

> <s_epik_cmdline>
J2VwaWtfcHl0aG9uJywgJy1waCcsICc3LjAnLCAnLXRuJywgJzgnLCAnLW1hJywgJzIwMCcsICctbWV0YWxfYmluZGluZycsICctaW1hZScsICc8aW5maWxlLm1hZT4nLCAnLW9tYWUnLCAnPG91dGZpbGUubWFlPic=

> <r_lp_tautomer_probability>
1

> <r_epik_Ionization_Penalty>
0.00204117

> <r_epik_Ionization_Penalty_Charging>
0

> <r_epik_Ionization_Penalty_Neutral>
0.00204117

> <r_epik_State_Penalty>
0.00127401

> <r_epik_Charging_Adjusted_Penalty>
0.00127401

> <i_epik_Tot_Q>
0

> <i_epik_Tot_abs_Q>
0

> <r_epik_Metal_State_Penalty>
-0

> <b_epik_Metal_Only>
0

> <s_lp_Force_Field>
OPLS_2005

> <r_lp_Energy>
56.66

> <b_lp_Chiralities_Consistent>
1

> <s_lp_Variant>
AV-unprocessed.smi:276-9

> <Gold.Version>
5.8.1

> <Gold.Id.Protein>
6NUR|6NUR_protein|mol2

> <Gold.PLP.Fitness>
40.7688

> <Gold.PLP.PLP>
-40.8887

> <Gold.PLP.part.hbond>
-2.0000

> <Gold.PLP.part.metal>
0.0000

> <Gold.PLP.part.buried>
-4.1362

> <Gold.PLP.part.nonpolar>
-35.0096

> <Gold.PLP.part.repulsive>
0.0064

> <Gold.PLP.ligand.clash>
0.0000

> <Gold.PLP.ligand.torsion>
1.5580

> <Gold.PLP.Chemscore.Hbond>
0.6825

> <Gold.PLP.Chemscore.CHOScore>
0.0000

> <Gold.PLP.Chemscore.Metal>
0.0000

> <Gold.Chemscore.Hbonds>
donor molecule, donor type, donor heavy atom, donor atom, acceptor molecule, acceptor atom, score
      P1  H  6896  6909       L1     9  0.02

> <Gold.PLP.Chemscore.Internal.Correction>
0.9485

> <Gold.Rescore>
     Score         DG    S(hbond)    S(metal)    S(lipo)     H(rot)  DE(clash)    DE(int)     intcor
      7.89     -11.96       0.00        0.00     109.20       2.46       0.06       4.01       ----

> <Gold.Chemscore.Fitness>
7.8949

> <Gold.Chemscore.DG>
-11.9636

> <Gold.Chemscore.ZeroCoef>
-5.4800

> <Gold.Chemscore.Hbond>
0.0001

> <Gold.Chemscore.Metal>
0.0000

> <Gold.Chemscore.Lipo>
109.1968

> <Gold.Chemscore.Internal_Hbond>
0.0000

> <Gold.Chemscore.DEClash>
0.0563

> <Gold.Chemscore.DEInternal>
4.0124

> <Gold.Chemscore.Rot>
2.4581

> <Gold.Chemscore.Internal.Correction>
   9.000000E+99

> <Gold.Chemscore.Hbonds>
donor molecule, donor type, donor heavy atom, donor atom, acceptor molecule, acceptor atom, score
      P1  H  6896  6909       L1     9  0.03

> <Gold.Chemscore.Hbond.Weighted>
-0.0002

> <Gold.Chemscore.Metal.Weighted>
-0.0000

> <Gold.Chemscore.Lipo.Weighted>
-12.7760

> <Gold.Chemscore.Internal_Hbond.Weighted>
0.0000

> <Gold.Chemscore.DEClash.Weighted>
0.0563

> <Gold.Chemscore.DEInternal.Weighted>
4.0124

> <Gold.Chemscore.Rot.Weighted>
6.2927

> <Gold.Chemscore.Internal.Correction.Weighted>
   9.000000E+99

> <Gold.Protein.RotatedTorsions>
[ 6907 6896 6895 6894 ] final  175.25 input  -60.11 | X-H torsion
[ 7974 7965 7964 7962 ] final   45.65 input  175.53 | X-H torsion
[ 8008 7997 7996 7995 ] final   65.31 input   59.86 | X-H torsion
[ 10167 10162 10161 10158 ] final   76.81 input  -65.29 | X-H torsion
[ 10718 10713 10712 10709 ] final   34.63 input   66.30 | X-H torsion
[ 10763 10752 10751 10750 ] final   29.41 input  -60.55 | X-H torsion
[ 11005 11000 10999 10996 ] final  -86.78 input  -57.11 | X-H torsion

> <Gold.Protein.ActiveResidues>
 VAL166  LYS551  ARG553  GLY616  TRP617  ASP618  TYR619  PRO620  LYS621  CYS622 
 ASP623  PHE694  ASN695  SER759  ASP760  ASP761  ALA762  ILE779  LEU786  VAL792 
 PHE793  MET794  SER795  GLU796  ALA797  LYS798  CYS799  TRP800  GLU811  SER814 

> <Gold.Protein.RotatedAtoms>
  151.7393  133.3321  159.3360 H   0  0  0  0  0  0  0  0  0  0  0  0  # atno 6907 bound_to 6896
  150.7580  134.6293  159.6187 H   0  0  0  0  0  0  0  0  0  0  0  0  # atno 6908 bound_to 6896
  152.3541  134.6966  160.0279 H   0  0  0  0  0  0  0  0  0  0  0  0  # atno 6909 bound_to 6896
  146.0461  139.4941  142.9748 H   0  0  0  0  0  0  0  0  0  0  0  0  # atno 7974 bound_to 7965
  155.6598  140.3497  155.4778 H   0  0  0  0  0  0  0  0  0  0  0  0  # atno 8008 bound_to 7997
  155.9778  140.1168  157.0777 H   0  0  0  0  0  0  0  0  0  0  0  0  # atno 8009 bound_to 7997
  154.4183  140.1144  156.5380 H   0  0  0  0  0  0  0  0  0  0  0  0  # atno 8010 bound_to 7997
  139.9882  144.5776  150.7841 H   0  0  0  0  0  0  0  0  0  0  0  0  # atno 10167 bound_to 10162
  157.3127  130.7407  149.6735 H   0  0  0  0  0  0  0  0  0  0  0  0  # atno 10718 bound_to 10713
  153.0432  135.6489  154.0887 H   0  0  0  0  0  0  0  0  0  0  0  0  # atno 10763 bound_to 10752
  154.0589  135.2889  155.3329 H   0  0  0  0  0  0  0  0  0  0  0  0  # atno 10764 bound_to 10752
  154.6670  135.5370  153.8155 H   0  0  0  0  0  0  0  0  0  0  0  0  # atno 10765 bound_to 10752
  141.1625  133.7474  156.9211 H   0  0  0  0  0  0  0  0  0  0  0  0  # atno 11005 bound_to 11000
  145.6804  141.0192  143.1610 LP  0  0  0  0  0  0  0  0  0  0  0  0  # atno 17320 bound_to 7965
  144.7098  139.8414  143.7418 LP  0  0  0  0  0  0  0  0  0  0  0  0  # atno 17321 bound_to 7965
  140.7464  143.2890  151.3382 LP  0  0  0  0  0  0  0  0  0  0  0  0  # atno 17342 bound_to 10162
  139.6359  144.0631  152.2515 LP  0  0  0  0  0  0  0  0  0  0  0  0  # atno 17343 bound_to 10162
  155.9679  130.4246  150.4618 LP  0  0  0  0  0  0  0  0  0  0  0  0  # atno 17370 bound_to 10713
  157.2619  131.0569  151.2315 LP  0  0  0  0  0  0  0  0  0  0  0  0  # atno 17371 bound_to 10713
  140.1451  134.9268  157.2518 LP  0  0  0  0  0  0  0  0  0  0  0  0  # atno 17394 bound_to 11000
  140.2790  134.3372  155.7349 LP  0  0  0  0  0  0  0  0  0  0  0  0  # atno 17395 bound_to 11000

$$$$
