AV-unprocessed.smi:3282|AV-procd|sdf|12562|dock6
  -GOLD-   2272018483D 1   1.00000     0.00000
 Structure written by MMmdl.
 34 35  0  0  0  0  0  0  0  0  1 V2000
  151.7335  145.7800  159.8243 C   0  0  0  0  0  0  0  0  0  0  0  0
  152.0412  144.5414  160.6814 C   0  0  0  0  0  0  0  0  0  0  0  0
  152.3593  143.2821  159.8577 C   0  0  0  0  0  0  0  0  0  0  0  0
  151.9460  143.1851  158.7011 O   0  0  0  0  0  0  0  0  0  0  0  0
  153.0934  142.3100  160.4380 N   0  0  0  0  0  0  0  0  0  0  0  0
  153.5847  142.3836  161.8113 C   0  0  0  0  0  0  0  0  0  0  0  0
  154.1415  140.9970  162.1334 C   0  0  0  0  0  0  0  0  0  0  0  0
  154.4948  140.3984  160.7750 C   0  0  1  0  0  0  0  0  0  0  0  0
  154.3760  138.9436  160.7814 N   0  0  0  0  0  0  0  0  0  0  0  0
  154.4934  138.1525  159.7048 C   0  0  0  0  0  0  0  0  0  0  0  0
  154.7274  138.6117  158.5824 O   0  0  0  0  0  0  0  0  0  0  0  0
  154.3604  136.8211  160.0669 N   0  0  0  0  0  0  0  0  0  0  0  0
  154.6214  135.9003  159.1905 C   0  0  0  0  0  0  0  0  0  0  0  0
  155.0636  135.9480  157.8707 N   0  0  0  0  0  0  0  0  0  0  0  0
  155.1856  134.6645  157.4165 C   0  0  0  0  0  0  0  0  0  0  0  0
  154.8371  133.8434  158.4025 C   0  0  0  0  0  0  0  0  0  0  0  0
  154.4874  134.5706  159.5006 O   0  0  0  0  0  0  0  0  0  0  0  0
  153.5062  141.0590  159.8045 C   0  0  0  0  0  0  0  0  0  0  0  0
  151.5297  146.6444  160.4566 H   0  0  0  0  0  0  0  0  0  0  0  0
  150.8579  145.6212  159.1937 H   0  0  0  0  0  0  0  0  0  0  0  0
  152.5739  146.0367  159.1782 H   0  0  0  0  0  0  0  0  0  0  0  0
  152.8872  144.7635  161.3326 H   0  0  0  0  0  0  0  0  0  0  0  0
  151.1878  144.3323  161.3270 H   0  0  0  0  0  0  0  0  0  0  0  0
  154.3749  143.1338  161.8644 H   0  0  0  0  0  0  0  0  0  0  0  0
  152.7997  142.6678  162.5140 H   0  0  0  0  0  0  0  0  0  0  0  0
  154.9939  141.0331  162.8124 H   0  0  0  0  0  0  0  0  0  0  0  0
  153.3607  140.4055  162.6148 H   0  0  0  0  0  0  0  0  0  0  0  0
  155.5124  140.6981  160.5169 H   0  0  0  0  0  0  0  0  0  0  0  0
  154.1977  138.5038  161.6727 H   0  0  0  0  0  0  0  0  0  0  0  0
  155.2693  136.7614  157.3086 H   0  0  0  0  0  0  0  0  0  0  0  0
  155.5181  134.4709  156.4074 H   0  0  0  0  0  0  0  0  0  0  0  0
  154.7871  132.7672  158.4776 H   0  0  0  0  0  0  0  0  0  0  0  0
  152.6228  140.4350  159.6576 H   0  0  0  0  0  0  0  0  0  0  0  0
  153.9704  141.2237  158.8311 H   0  0  0  0  0  0  0  0  0  0  0  0
  1  2  1  0  0  0  0
  1 19  1  0  0  0  0
  1 20  1  0  0  0  0
  1 21  1  0  0  0  0
  2  3  1  0  0  0  0
  2 22  1  0  0  0  0
  2 23  1  0  0  0  0
  3  4  2  0  0  0  0
  3  5  1  0  0  0  0
  5 18  1  0  0  0  0
  5  6  1  0  0  0  0
  6  7  1  0  0  0  0
  6 24  1  0  0  0  0
  6 25  1  0  0  0  0
  7  8  1  0  0  0  0
  7 26  1  0  0  0  0
  7 27  1  0  0  0  0
  8  9  1  0  0  0  0
  8 18  1  0  0  0  0
  8 28  1  0  0  0  0
  9 29  1  0  0  0  0
  9 10  1  0  0  0  0
 10 12  1  0  0  0  0
 10 11  2  0  0  0  0
 12 13  2  0  0  0  0
 13 17  1  0  0  0  0
 13 14  1  0  0  0  0
 14 30  1  0  0  0  0
 14 15  1  0  0  0  0
 15 31  1  0  0  0  0
 15 16  2  0  0  0  0
 16 32  1  0  0  0  0
 16 17  1  0  0  0  0
 18 33  1  0  0  0  0
 18 34  1  0  0  0  0
M  END
> <s_m_source_file>
AV-unprocessed.smi

> <i_m_source_file_index>
3282

> <i_lp_mmshare_version>
43012

> <i_f3d_flags>
0

> <s_epik_input>
W0NIM11bQ0gyXUMoPU8pTjFbQ0gyXVtDSDJdW0NASF0oW0NIMl0xKVtOSF1DKD1PKVtOSF1jMm5bY0hdW2NIXW8y

> <s_epik_cmdline>
J2VwaWtfcHl0aG9uJywgJy1waCcsICc3LjAnLCAnLXRuJywgJzgnLCAnLW1hJywgJzIwMCcsICctbWV0YWxfYmluZGluZycsICctaW1hZScsICc8aW5maWxlLm1hZT4nLCAnLW9tYWUnLCAnPG91dGZpbGUubWFlPic=

> <r_lp_tautomer_probability>
0.107061

> <r_epik_Ionization_Penalty>
0.434703

> <r_epik_Ionization_Penalty_Charging>
0.434345

> <r_epik_Ionization_Penalty_Neutral>
0.000358141

> <r_epik_State_Penalty>
2.49584

> <r_epik_Charging_Adjusted_Penalty>
2.93019

> <i_epik_Tot_Q>
0

> <i_epik_Tot_abs_Q>
0

> <r_epik_Metal_State_Penalty>
4.06361

> <b_epik_Metal_Only>
0

> <s_lp_Force_Field>
OPLS_2005

> <r_lp_Energy>
50.3275

> <b_lp_Chiralities_Consistent>
1

> <s_lp_Variant>
AV-unprocessed.smi:3282-3

> <Gold.Version>
5.8.1

> <Gold.Id.Protein>
6NUR|6NUR_protein|mol2

> <Gold.PLP.Fitness>
38.1560

> <Gold.PLP.PLP>
-32.9059

> <Gold.PLP.part.hbond>
-2.0000

> <Gold.PLP.part.metal>
0.0000

> <Gold.PLP.part.buried>
-4.0631

> <Gold.PLP.part.nonpolar>
-27.3150

> <Gold.PLP.part.repulsive>
0.1274

> <Gold.PLP.ligand.clash>
0.0000

> <Gold.PLP.ligand.torsion>
0.3795

> <Gold.PLP.Chemscore.Hbond>
2.0000

> <Gold.PLP.Chemscore.CHOScore>
0.0000

> <Gold.PLP.Chemscore.Metal>
0.0000

> <Gold.Chemscore.Hbonds>
donor molecule, donor type, donor heavy atom, donor atom, acceptor molecule, acceptor atom, score
      P1  H  6896  6908       L1    17  1.00
      P1  H  7997  8010       L1    11  1.00

> <Gold.PLP.Chemscore.Internal.Correction>
0.0091

> <Gold.Rescore>
     Score         DG    S(hbond)    S(metal)    S(lipo)     H(rot)  DE(clash)    DE(int)     intcor
     16.20     -16.57       1.90        0.00      69.51       1.32       0.08       0.28       ----

> <Gold.Chemscore.Fitness>
16.2003

> <Gold.Chemscore.DG>
-16.5655

> <Gold.Chemscore.ZeroCoef>
-5.4800

> <Gold.Chemscore.Hbond>
1.8959

> <Gold.Chemscore.Metal>
0.0000

> <Gold.Chemscore.Lipo>
69.5053

> <Gold.Chemscore.Internal_Hbond>
0.0000

> <Gold.Chemscore.DEClash>
0.0801

> <Gold.Chemscore.DEInternal>
0.2850

> <Gold.Chemscore.Rot>
1.3199

> <Gold.Chemscore.Internal.Correction>
   9.000000E+99

> <Gold.Chemscore.Hbonds>
donor molecule, donor type, donor heavy atom, donor atom, acceptor molecule, acceptor atom, score
      P1  H  6896  6908       L1    17  0.21
      P1  H  7997  8010       L1    11  0.99

> <Gold.Chemscore.Hbond.Weighted>
-6.3323

> <Gold.Chemscore.Metal.Weighted>
-0.0000

> <Gold.Chemscore.Lipo.Weighted>
-8.1321

> <Gold.Chemscore.Internal_Hbond.Weighted>
0.0000

> <Gold.Chemscore.DEClash.Weighted>
0.0801

> <Gold.Chemscore.DEInternal.Weighted>
0.2850

> <Gold.Chemscore.Rot.Weighted>
3.3789

> <Gold.Chemscore.Internal.Correction.Weighted>
   9.000000E+99

> <Gold.Protein.RotatedTorsions>
[ 6907 6896 6895 6894 ] final  -52.76 input  -60.11 | X-H torsion
[ 7974 7965 7964 7962 ] final   16.02 input  175.53 | X-H torsion
[ 8008 7997 7996 7995 ] final   -4.89 input   59.86 | X-H torsion
[ 10167 10162 10161 10158 ] final   -7.68 input  -65.29 | X-H torsion
[ 10718 10713 10712 10709 ] final -150.04 input   66.30 | X-H torsion
[ 10763 10752 10751 10750 ] final -170.61 input  -60.55 | X-H torsion
[ 11005 11000 10999 10996 ] final   10.07 input  -57.11 | X-H torsion

> <Gold.Protein.ActiveResidues>
 VAL166  LYS551  ARG553  GLY616  TRP617  ASP618  TYR619  PRO620  LYS621  CYS622 
 ASP623  PHE694  ASN695  SER759  ASP760  ASP761  ALA762  ILE779  LEU786  VAL792 
 PHE793  MET794  SER795  GLU796  ALA797  LYS798  CYS799  TRP800  GLU811  SER814 

> <Gold.Protein.RotatedAtoms>
  150.8488  134.7806  159.6991 H   0  0  0  0  0  0  0  0  0  0  0  0  # atno 6907 bound_to 6896
  152.4558  134.5291  159.9815 H   0  0  0  0  0  0  0  0  0  0  0  0  # atno 6908 bound_to 6896
  151.5416  133.3394  159.2972 H   0  0  0  0  0  0  0  0  0  0  0  0  # atno 6909 bound_to 6896
  146.2262  139.8809  142.8571 H   0  0  0  0  0  0  0  0  0  0  0  0  # atno 7974 bound_to 7965
  154.6096  140.2472  155.7686 H   0  0  0  0  0  0  0  0  0  0  0  0  # atno 8008 bound_to 7997
  156.2362  140.2949  156.0270 H   0  0  0  0  0  0  0  0  0  0  0  0  # atno 8009 bound_to 7997
  155.2074  140.0396  157.2918 H   0  0  0  0  0  0  0  0  0  0  0  0  # atno 8010 bound_to 7997
  140.7036  143.6053  150.8757 H   0  0  0  0  0  0  0  0  0  0  0  0  # atno 10167 bound_to 10162
  156.4409  130.8121  151.2351 H   0  0  0  0  0  0  0  0  0  0  0  0  # atno 10718 bound_to 10713
  154.6396  135.2897  155.0119 H   0  0  0  0  0  0  0  0  0  0  0  0  # atno 10763 bound_to 10752
  154.1250  135.6542  153.4914 H   0  0  0  0  0  0  0  0  0  0  0  0  # atno 10764 bound_to 10752
  153.0320  135.5297  154.7257 H   0  0  0  0  0  0  0  0  0  0  0  0  # atno 10765 bound_to 10752
  140.5186  134.0581  155.7838 H   0  0  0  0  0  0  0  0  0  0  0  0  # atno 11005 bound_to 11000
  145.2513  141.0045  143.3879 LP  0  0  0  0  0  0  0  0  0  0  0  0  # atno 17320 bound_to 7965
  144.9372  139.4230  143.6466 LP  0  0  0  0  0  0  0  0  0  0  0  0  # atno 17321 bound_to 7965
  139.9777  143.5986  152.2953 LP  0  0  0  0  0  0  0  0  0  0  0  0  # atno 17342 bound_to 10162
  139.6596  144.7662  151.1989 LP  0  0  0  0  0  0  0  0  0  0  0  0  # atno 17343 bound_to 10162
  157.7506  131.0168  150.3561 LP  0  0  0  0  0  0  0  0  0  0  0  0  # atno 17370 bound_to 10713
  156.3918  130.3899  149.7024 LP  0  0  0  0  0  0  0  0  0  0  0  0  # atno 17371 bound_to 10713
  141.1346  133.9243  157.2461 LP  0  0  0  0  0  0  0  0  0  0  0  0  # atno 17394 bound_to 11000
  139.9618  135.0152  156.9282 LP  0  0  0  0  0  0  0  0  0  0  0  0  # atno 17395 bound_to 11000

$$$$
