#       Name:                AV-unprocessed.smi:971
#       Creating user name   scv26
#       Creation time:       Fri Mar 27 02:20:13 2020


#       File generated by GOLD software.
#

@<TRIPOS>MOLECULE
AV-unprocessed.smi:971
    37    38     1
SMALL
NO_CHARGES


@<TRIPOS>ATOM
      1 ****        -4.6433  -0.9963  -1.4420 C.3            1 S1                 0.0000
      2 ****        -4.2035  -0.7408   0.0036 C.3            1 S1                 0.0000
      3 ****        -3.1109   0.2838   0.0923 C.2            1 S1                 0.0000
      4 ****        -1.7919  -0.0974  -0.1718 N.2            1 S1                 0.0000
      5 ****        -0.9311   0.9172  -0.0710 C.2            1 S1                 0.0000
      6 ****         0.5397   0.7720  -0.2719 C.3            1 S1                 0.0000
      7 ****         1.2714   0.3645   1.0170 C.3            1 S1                 0.0000
      8 ****         2.7113   0.2619   0.8089 N.am           1 S1                 0.0000
      9 ****         3.3366  -0.7797   0.2392 C.2            1 S1                 0.0000
     10 ****         2.7411  -1.7768  -0.1717 O.2            1 S1                 0.0000
     11 ****         4.8186  -0.6194   0.1443 C.3            1 S1                 0.0000
     12 ****         5.5092  -1.1892  -1.0782 C.3            1 S1                 0.0000
     13 ****         5.6706  -1.8674   0.2589 C.3            1 S1                 0.0000
     14 ****        -1.6985   2.4303   0.3889 S.3            1 S1                 0.0000
     15 ****        -3.2424   1.6165   0.4071 C.2            1 S1                 0.0000
     16 ****        -4.4940   2.3600   0.7374 C.3            1 S1                 0.0000
     17 ****        -5.4372  -1.7422  -1.4808 H              1 S1                 0.0000
     18 ****        -3.8137  -1.3616  -2.0482 H              1 S1                 0.0000
     19 ****        -5.0201  -0.0834  -1.9042 H              1 S1                 0.0000
     20 ****        -5.0669  -0.4271   0.5907 H              1 S1                 0.0000
     21 ****        -3.8705  -1.6796   0.4476 H              1 S1                 0.0000
     22 ****         0.7109   0.0346  -1.0573 H              1 S1                 0.0000
     23 ****         0.9335   1.7191  -0.6426 H              1 S1                 0.0000
     24 ****         1.0949   1.1086   1.7940 H              1 S1                 0.0000
     25 ****         0.8802  -0.5808   1.3972 H              1 S1                 0.0000
     26 ****         3.2741   1.0406   1.1197 H              1 S1                 0.0000
     27 ****         5.2365   0.2978   0.5571 H              1 S1                 0.0000
     28 ****         4.9053  -1.6981  -1.8276 H              1 S1                 0.0000
     29 ****         6.3548  -0.6296  -1.4728 H              1 S1                 0.0000
     30 ****         6.6258  -1.7678   0.7701 H              1 S1                 0.0000
     31 ****         5.1744  -2.8269   0.3958 H              1 S1                 0.0000
     32 ****        -5.2627   2.1777  -0.0141 H              1 S1                 0.0000
     33 ****        -4.3163   3.4347   0.7803 H              1 S1                 0.0000
     34 ****        -4.8857   2.0449   1.7045 H              1 S1                 0.0000
     35 ****        -1.5225  -1.0303  -0.4106 LP             1 S1                 0.0000
     36 ****         1.7463  -1.8351  -0.0876 LP             1 S1                 0.0000
     37 ****         3.2525  -2.5279  -0.5893 LP             1 S1                 0.0000
@<TRIPOS>BOND
    1    1    2 1     
    2    1   17 1     
    3    1   18 1     
    4    1   19 1     
    5    2    3 1     
    6    2   20 1     
    7    2   21 1     
    8    3   15 2     
    9    3    4 1     
   10    4    5 2     
   11    5    6 1     
   12    5   14 1     
   13    6    7 1     
   14    6   22 1     
   15    6   23 1     
   16    7    8 1     
   17    7   24 1     
   18    7   25 1     
   19    8    9 am    
   20    8   26 1     
   21    9   10 2     
   22    9   11 1     
   23   11   13 1     
   24   11   12 1     
   25   11   27 1     
   26   12   13 1     
   27   12   28 1     
   28   12   29 1     
   29   13   30 1     
   30   13   31 1     
   31   14   15 1     
   32   15   16 1     
   33   16   32 1     
   34   16   33 1     
   35   16   34 1     
   36    4   35 1     
   37   10   36 1     
   38   10   37 1     
@<TRIPOS>SUBSTRUCTURE
      1 S1             1
@<TRIPOS>SET
LONE_PAIRS      STATIC     ATOMS    <user>   **** ""
3 35 36 37
DONOR_HYDROGENS      STATIC     ATOMS    <user>   **** ""
1 26
ATOM$BLUE        STATIC     ATOMS    COLORGROUP SYSTEM
3 35 36 37
ATOM$RED        STATIC     ATOMS    COLORGROUP SYSTEM
1 26
