AV-unprocessed.smi:210|AV-procd|sdf|1611|dock4
  -GOLD-   2262019533D 1   1.00000     0.00000
 Structure written by MMmdl.
 57 61  0  0  0  0  0  0  0  0  1 V2000
  153.9420  141.0903  160.8738 C   0  0  0  0  0  0  0  0  0  0  0  0
  153.4458  141.8099  159.7576 O   0  0  0  0  0  0  0  0  0  0  0  0
  152.0325  141.7247  159.6347 C   0  0  2  0  0  0  0  0  0  0  0  0
  151.6347  140.4025  158.9669 C   0  0  0  0  0  0  0  0  0  0  0  0
  151.7347  141.1248  157.6131 C   0  0  1  0  0  0  0  0  0  0  0  0
  150.6990  140.7556  156.6470 N   0  0  0  0  0  0  0  0  0  0  0  0
  150.3682  141.7623  155.6453 C   0  0  0  0  0  0  0  0  0  0  0  0
  150.8978  139.5454  156.0794 C   0  0  0  0  0  0  0  0  0  0  0  0
  151.8621  139.3884  155.1346 N   0  0  0  0  0  0  0  0  0  0  0  0
  152.0592  138.1886  154.5793 C   0  0  0  0  0  0  0  0  0  0  0  0
  151.4203  137.0411  154.8209 N   0  0  0  0  0  0  0  0  0  0  0  0
  150.4540  137.1992  155.7717 C   0  0  0  0  0  0  0  0  0  0  0  0
  150.1295  138.4100  156.4445 C   0  0  0  0  0  0  0  0  0  0  0  0
  149.0942  138.1966  157.3444 N   0  0  0  0  0  0  0  0  0  0  0  0
  148.8185  136.9279  157.2097 C   0  0  0  0  0  0  0  0  0  0  0  0
  149.5897  136.2497  156.2909 N   0  0  0  0  0  0  0  0  0  0  0  0
  149.4882  134.8607  155.9425 C   0  0  0  0  0  0  0  0  0  0  0  0
  149.8749  134.3763  154.5449 C   0  0  0  0  0  0  0  0  0  0  0  0
  148.7853  133.2838  154.6292 C   0  0  0  0  0  0  0  0  0  0  0  0
  147.9708  133.0742  153.3418 C   0  0  0  0  0  0  0  0  0  0  0  0
  147.4338  134.2934  152.8704 O   0  0  0  0  0  0  0  0  0  0  0  0
  149.2700  131.9157  155.1502 C   0  0  0  0  0  0  0  0  0  0  0  0
  148.1937  131.0154  155.3201 O   0  0  0  0  0  0  0  0  0  0  0  0
  148.1313  134.1999  155.6902 C   0  0  0  0  0  0  0  0  0  0  0  0
  151.4708  142.4360  158.3836 C   0  0  0  0  0  0  0  0  0  0  0  0
  152.0130  143.7918  157.9067 C   0  0  0  0  0  0  0  0  0  0  0  0
  150.7950  144.4511  158.5611 C   0  0  0  0  0  0  0  0  0  0  0  0
  150.0822  143.0971  158.4820 C   0  0  0  0  0  0  0  0  0  0  0  0
  155.0192  141.2361  160.9549 H   0  0  0  0  0  0  0  0  0  0  0  0
  153.7558  140.0214  160.7612 H   0  0  0  0  0  0  0  0  0  0  0  0
  153.4844  141.4236  161.8055 H   0  0  0  0  0  0  0  0  0  0  0  0
  151.4856  141.9092  160.5613 H   0  0  0  0  0  0  0  0  0  0  0  0
  152.3446  139.5856  159.1002 H   0  0  0  0  0  0  0  0  0  0  0  0
  150.6190  140.0977  159.2261 H   0  0  0  0  0  0  0  0  0  0  0  0
  152.7490  141.0916  157.2107 H   0  0  0  0  0  0  0  0  0  0  0  0
  149.6234  141.3858  154.9426 H   0  0  0  0  0  0  0  0  0  0  0  0
  151.2548  142.0552  155.0816 H   0  0  0  0  0  0  0  0  0  0  0  0
  149.9563  142.6557  156.1121 H   0  0  0  0  0  0  0  0  0  0  0  0
  152.8411  138.1413  153.8359 H   0  0  0  0  0  0  0  0  0  0  0  0
  148.0364  136.4499  157.7815 H   0  0  0  0  0  0  0  0  0  0  0  0
  150.0385  134.3017  156.7008 H   0  0  0  0  0  0  0  0  0  0  0  0
  149.6722  135.1196  153.7715 H   0  0  0  0  0  0  0  0  0  0  0  0
  150.8952  134.0000  154.4646 H   0  0  0  0  0  0  0  0  0  0  0  0
  148.5728  132.6230  152.5527 H   0  0  0  0  0  0  0  0  0  0  0  0
  147.1388  132.3918  153.5178 H   0  0  0  0  0  0  0  0  0  0  0  0
  148.1467  134.8934  152.7118 H   0  0  0  0  0  0  0  0  0  0  0  0
  149.9987  131.4671  154.4749 H   0  0  0  0  0  0  0  0  0  0  0  0
  149.7735  132.0167  156.1118 H   0  0  0  0  0  0  0  0  0  0  0  0
  147.4132  131.5133  155.5102 H   0  0  0  0  0  0  0  0  0  0  0  0
  147.7179  133.6825  156.5565 H   0  0  0  0  0  0  0  0  0  0  0  0
  147.3972  134.8859  155.2648 H   0  0  0  0  0  0  0  0  0  0  0  0
  152.9754  144.0880  158.3220 H   0  0  0  0  0  0  0  0  0  0  0  0
  152.0071  143.8890  156.8204 H   0  0  0  0  0  0  0  0  0  0  0  0
  150.9883  144.7660  159.5877 H   0  0  0  0  0  0  0  0  0  0  0  0
  150.3348  145.2453  157.9728 H   0  0  0  0  0  0  0  0  0  0  0  0
  149.4766  143.0018  157.5808 H   0  0  0  0  0  0  0  0  0  0  0  0
  149.5101  142.8349  159.3725 H   0  0  0  0  0  0  0  0  0  0  0  0
  1  2  1  0  0  0  0
  1 29  1  0  0  0  0
  1 30  1  0  0  0  0
  1 31  1  0  0  0  0
  2  3  1  0  0  0  0
  3 25  1  0  0  0  0
  3  4  1  0  0  0  0
  3 32  1  0  0  0  0
  4  5  1  0  0  0  0
  4 33  1  0  0  0  0
  4 34  1  0  0  0  0
  5  6  1  0  0  0  0
  5 25  1  0  0  0  0
  5 35  1  0  0  0  0
  6  7  1  0  0  0  0
  6  8  1  0  0  0  0
  7 36  1  0  0  0  0
  7 37  1  0  0  0  0
  7 38  1  0  0  0  0
  8 13  1  0  0  0  0
  8  9  2  0  0  0  0
  9 10  1  0  0  0  0
 10 11  2  0  0  0  0
 10 39  1  0  0  0  0
 11 12  1  0  0  0  0
 12 16  1  0  0  0  0
 12 13  2  0  0  0  0
 13 14  1  0  0  0  0
 14 15  2  0  0  0  0
 15 16  1  0  0  0  0
 15 40  1  0  0  0  0
 16 17  1  0  0  0  0
 17 24  1  0  0  0  0
 17 18  1  0  0  0  0
 17 41  1  0  0  0  0
 18 19  1  0  0  0  0
 18 42  1  0  0  0  0
 18 43  1  0  0  0  0
 19 20  1  0  0  0  0
 19 22  1  0  0  0  0
 19 24  1  0  0  0  0
 20 21  1  0  0  0  0
 20 44  1  0  0  0  0
 20 45  1  0  0  0  0
 21 46  1  0  0  0  0
 22 23  1  0  0  0  0
 22 47  1  0  0  0  0
 22 48  1  0  0  0  0
 23 49  1  0  0  0  0
 24 50  1  0  0  0  0
 24 51  1  0  0  0  0
 25 28  1  0  0  0  0
 25 26  1  0  0  0  0
 26 27  1  0  0  0  0
 26 52  1  0  0  0  0
 26 53  1  0  0  0  0
 27 28  1  0  0  0  0
 27 54  1  0  0  0  0
 27 55  1  0  0  0  0
 28 56  1  0  0  0  0
 28 57  1  0  0  0  0
M  END
> <s_m_source_file>
AV-unprocessed.smi

> <i_m_source_file_index>
210

> <i_lp_mmshare_version>
43012

> <i_f3d_flags>
0

> <s_epik_input>
W0NIMl0xW0NIMl1bQ0gyXUMxMltDQEhdKE9bQ0gzXSlbQ0gyXVtDQEhdMk4oW0NIM10pYyhuW2NIXW4zKWMoYzM0KW5bY0hdbjRbQ0hdKFtDSDJdNSlbQ0gyXUM1KFtDSDJdW09IXSlbQ0gyXVtPSF0=

> <s_epik_cmdline>
J2VwaWtfcHl0aG9uJywgJy1waCcsICc3LjAnLCAnLXRuJywgJzgnLCAnLW1hJywgJzIwMCcsICctbWV0YWxfYmluZGluZycsICctaW1hZScsICc8aW5maWxlLm1hZT4nLCAnLW9tYWUnLCAnPG91dGZpbGUubWFlPic=

> <r_lp_tautomer_probability>
1

> <r_epik_Ionization_Penalty>
0.00313676

> <r_epik_Ionization_Penalty_Charging>
0

> <r_epik_Ionization_Penalty_Neutral>
0.00313676

> <r_epik_State_Penalty>
0.00199132

> <r_epik_Charging_Adjusted_Penalty>
0.00199132

> <i_epik_Tot_Q>
0

> <i_epik_Tot_abs_Q>
0

> <r_epik_Metal_State_Penalty>
-0

> <b_epik_Metal_Only>
0

> <s_lp_Force_Field>
OPLS_2005

> <r_lp_Energy>
59.5036

> <b_lp_Chiralities_Consistent>
1

> <s_lp_Variant>
AV-unprocessed.smi:210-1

> <Gold.Version>
5.8.1

> <Gold.Id.Protein>
6NUR|6NUR_protein|mol2

> <Gold.PLP.Fitness>
52.6403

> <Gold.PLP.PLP>
-44.9983

> <Gold.PLP.part.hbond>
-3.0000

> <Gold.PLP.part.metal>
0.0000

> <Gold.PLP.part.buried>
-8.2516

> <Gold.PLP.part.nonpolar>
-33.2724

> <Gold.PLP.part.repulsive>
0.1964

> <Gold.PLP.ligand.clash>
0.0000

> <Gold.PLP.ligand.torsion>
1.2260

> <Gold.PLP.Chemscore.Hbond>
2.9833

> <Gold.PLP.Chemscore.CHOScore>
0.0000

> <Gold.PLP.Chemscore.Metal>
0.0000

> <Gold.Chemscore.Hbonds>
donor molecule, donor type, donor heavy atom, donor atom, acceptor molecule, acceptor atom, score
      L1  H    21    46       P1  7948  1.00
      P1  H  7989  7998       L1     9  0.55
      P1  H 10752 10765       L1    11  0.73

> <Gold.PLP.Chemscore.Internal.Correction>
1.1443

> <Gold.Rescore>
     Score         DG    S(hbond)    S(metal)    S(lipo)     H(rot)  DE(clash)    DE(int)     intcor
     14.09     -16.14       2.07        0.00     110.26       3.57       0.72       1.34       ----

> <Gold.Chemscore.Fitness>
14.0919

> <Gold.Chemscore.DG>
-16.1435

> <Gold.Chemscore.ZeroCoef>
-5.4800

> <Gold.Chemscore.Hbond>
2.0675

> <Gold.Chemscore.Metal>
0.0000

> <Gold.Chemscore.Lipo>
110.2586

> <Gold.Chemscore.Internal_Hbond>
0.0000

> <Gold.Chemscore.DEClash>
0.7152

> <Gold.Chemscore.DEInternal>
1.3364

> <Gold.Chemscore.Rot>
3.5712

> <Gold.Chemscore.Internal.Correction>
   9.000000E+99

> <Gold.Chemscore.Hbonds>
donor molecule, donor type, donor heavy atom, donor atom, acceptor molecule, acceptor atom, score
      L1  H    21    46       P1  7948  0.77
      P1  H  7989  7998       L1     9  0.29
      P1  H 10752 10765       L1    11  0.16

> <Gold.Chemscore.Hbond.Weighted>
-6.9056

> <Gold.Chemscore.Metal.Weighted>
-0.0000

> <Gold.Chemscore.Lipo.Weighted>
-12.9003

> <Gold.Chemscore.Internal_Hbond.Weighted>
0.0000

> <Gold.Chemscore.DEClash.Weighted>
0.7152

> <Gold.Chemscore.DEInternal.Weighted>
1.3364

> <Gold.Chemscore.Rot.Weighted>
9.1423

> <Gold.Chemscore.Internal.Correction.Weighted>
   9.000000E+99

> <Gold.Protein.RotatedTorsions>
[ 6907 6896 6895 6894 ] final -119.82 input  -60.11 | X-H torsion
[ 7974 7965 7964 7962 ] final    7.05 input  175.53 | X-H torsion
[ 8008 7997 7996 7995 ] final  -38.21 input   59.86 | X-H torsion
[ 10167 10162 10161 10158 ] final  130.84 input  -65.29 | X-H torsion
[ 10718 10713 10712 10709 ] final -159.35 input   66.30 | X-H torsion
[ 10763 10752 10751 10750 ] final  159.41 input  -60.55 | X-H torsion
[ 11005 11000 10999 10996 ] final -106.99 input  -57.11 | X-H torsion

> <Gold.Protein.ActiveResidues>
 VAL166  LYS551  ARG553  GLY616  TRP617  ASP618  TYR619  PRO620  LYS621  CYS622 
 ASP623  PHE694  ASN695  SER759  ASP760  ASP761  ALA762  ILE779  LEU786  VAL792 
 PHE793  MET794  SER795  GLU796  ALA797  LYS798  CYS799  TRP800  GLU811  SER814 

> <Gold.Protein.RotatedAtoms>
  150.8338  133.8047  159.3087 H   0  0  0  0  0  0  0  0  0  0  0  0  # atno 6907 bound_to 6896
  151.5768  135.1058  160.0017 H   0  0  0  0  0  0  0  0  0  0  0  0  # atno 6908 bound_to 6896
  152.4414  133.7413  159.6699 H   0  0  0  0  0  0  0  0  0  0  0  0  # atno 6909 bound_to 6896
  146.2430  140.0141  142.8404 H   0  0  0  0  0  0  0  0  0  0  0  0  # atno 7974 bound_to 7965
  154.4040  140.1584  156.2662 H   0  0  0  0  0  0  0  0  0  0  0  0  # atno 8008 bound_to 7997
  155.8993  140.3434  155.5992 H   0  0  0  0  0  0  0  0  0  0  0  0  # atno 8009 bound_to 7997
  155.7467  140.0799  157.2211 H   0  0  0  0  0  0  0  0  0  0  0  0  # atno 8010 bound_to 7997
  139.5411  144.6731  151.4621 H   0  0  0  0  0  0  0  0  0  0  0  0  # atno 10167 bound_to 10162
  156.5669  130.8671  151.2826 H   0  0  0  0  0  0  0  0  0  0  0  0  # atno 10718 bound_to 10713
  154.2314  135.2778  155.2888 H   0  0  0  0  0  0  0  0  0  0  0  0  # atno 10763 bound_to 10752
  154.5621  135.5644  153.7020 H   0  0  0  0  0  0  0  0  0  0  0  0  # atno 10764 bound_to 10752
  153.0019  135.6300  154.2456 H   0  0  0  0  0  0  0  0  0  0  0  0  # atno 10765 bound_to 10752
  141.0977  133.8942  157.1923 H   0  0  0  0  0  0  0  0  0  0  0  0  # atno 11005 bound_to 11000
  145.1301  140.9513  143.4549 LP  0  0  0  0  0  0  0  0  0  0  0  0  # atno 17320 bound_to 7965
  145.0396  139.3271  143.5983 LP  0  0  0  0  0  0  0  0  0  0  0  0  # atno 17321 bound_to 7965
  140.6641  143.8435  150.6922 LP  0  0  0  0  0  0  0  0  0  0  0  0  # atno 17342 bound_to 10162
  140.1838  143.4092  152.1913 LP  0  0  0  0  0  0  0  0  0  0  0  0  # atno 17343 bound_to 10162
  157.7356  130.9766  150.2094 LP  0  0  0  0  0  0  0  0  0  0  0  0  # atno 17370 bound_to 10713
  156.2749  130.3726  149.7993 LP  0  0  0  0  0  0  0  0  0  0  0  0  # atno 17371 bound_to 10713
  139.9818  135.0095  156.9768 LP  0  0  0  0  0  0  0  0  0  0  0  0  # atno 17394 bound_to 11000
  140.5100  134.1011  155.7268 LP  0  0  0  0  0  0  0  0  0  0  0  0  # atno 17395 bound_to 11000

$$$$
