AV-unprocessed.smi:2004|AV-procd|sdf|8122|dock5
  -GOLD-   2272010353D 1   1.00000     0.00000
 Structure written by MMmdl.
 39 41  0  0  0  0  0  0  0  0  1 V2000
  148.1621  142.5058  156.7113 O   0  0  0  0  0  0  0  0  0  0  0  0
  149.1308  141.5532  157.1047 C   0  0  1  0  0  0  0  0  0  0  0  0
  148.9256  140.2795  156.2705 C   0  0  0  0  0  0  0  0  0  0  0  0
  149.3149  140.5405  154.9323 O   0  0  0  0  0  0  0  0  0  0  0  0
  148.2387  140.9787  154.1192 C   0  0  0  0  0  0  0  0  0  0  0  0
  147.4563  139.8120  153.5478 C   0  0  0  0  0  0  0  0  0  0  0  0
  147.2645  139.7031  152.1541 C   0  0  0  0  0  0  0  0  0  0  0  0
  146.5259  138.6279  151.6223 C   0  0  0  0  0  0  0  0  0  0  0  0
  145.9717  137.6601  152.4823 C   0  0  0  0  0  0  0  0  0  0  0  0
  146.1537  137.7697  153.8746 C   0  0  0  0  0  0  0  0  0  0  0  0
  146.8921  138.8450  154.4068 C   0  0  0  0  0  0  0  0  0  0  0  0
  150.5348  142.1552  156.9019 C   0  0  0  0  0  0  0  0  0  0  0  0
  151.5343  141.5287  157.7486 N   0  0  0  0  0  0  0  0  0  0  0  0
  152.1239  140.3315  157.5640 C   0  0  0  0  0  0  0  0  0  0  0  0
  153.0204  139.9479  158.4687 N   0  0  0  0  0  0  0  0  0  0  0  0
  153.0120  141.0217  159.3427 C   0  0  0  0  0  0  0  0  0  0  0  0
  153.7482  141.2453  160.5283 C   0  0  0  0  0  0  0  0  0  0  0  0
  153.5696  142.4340  161.2667 C   0  0  0  0  0  0  0  0  0  0  0  0
  152.6547  143.4154  160.8325 C   0  0  0  0  0  0  0  0  0  0  0  0
  151.9098  143.2150  159.6545 C   0  0  0  0  0  0  0  0  0  0  0  0
  152.0909  142.0277  158.9207 C   0  0  0  0  0  0  0  0  0  0  0  0
  148.6088  143.2356  156.3095 H   0  0  0  0  0  0  0  0  0  0  0  0
  148.9922  141.3230  158.1620 H   0  0  0  0  0  0  0  0  0  0  0  0
  149.4785  139.4378  156.6919 H   0  0  0  0  0  0  0  0  0  0  0  0
  147.8692  140.0059  156.2713 H   0  0  0  0  0  0  0  0  0  0  0  0
  147.5734  141.6161  154.7040 H   0  0  0  0  0  0  0  0  0  0  0  0
  148.6168  141.5772  153.2890 H   0  0  0  0  0  0  0  0  0  0  0  0
  147.6842  140.4438  151.4889 H   0  0  0  0  0  0  0  0  0  0  0  0
  146.3839  138.5465  150.5547 H   0  0  0  0  0  0  0  0  0  0  0  0
  145.4051  136.8356  152.0750 H   0  0  0  0  0  0  0  0  0  0  0  0
  145.7259  137.0297  154.5348 H   0  0  0  0  0  0  0  0  0  0  0  0
  147.0244  138.9226  155.4760 H   0  0  0  0  0  0  0  0  0  0  0  0
  150.8501  142.0372  155.8646 H   0  0  0  0  0  0  0  0  0  0  0  0
  150.5245  143.2274  157.1049 H   0  0  0  0  0  0  0  0  0  0  0  0
  151.8832  139.7076  156.7156 H   0  0  0  0  0  0  0  0  0  0  0  0
  154.4519  140.5006  160.8698 H   0  0  0  0  0  0  0  0  0  0  0  0
  154.1381  142.5939  162.1710 H   0  0  0  0  0  0  0  0  0  0  0  0
  152.5255  144.3226  161.4046 H   0  0  0  0  0  0  0  0  0  0  0  0
  151.2087  143.9642  159.3180 H   0  0  0  0  0  0  0  0  0  0  0  0
  1  2  1  0  0  0  0
  1 22  1  0  0  0  0
  2  3  1  0  0  0  0
  2 12  1  0  0  0  0
  2 23  1  0  0  0  0
  3  4  1  0  0  0  0
  3 24  1  0  0  0  0
  3 25  1  0  0  0  0
  4  5  1  0  0  0  0
  5  6  1  0  0  0  0
  5 26  1  0  0  0  0
  5 27  1  0  0  0  0
  6 11  1  0  0  0  0
  6  7  2  0  0  0  0
  7  8  1  0  0  0  0
  7 28  1  0  0  0  0
  8  9  2  0  0  0  0
  8 29  1  0  0  0  0
  9 10  1  0  0  0  0
  9 30  1  0  0  0  0
 10 11  2  0  0  0  0
 10 31  1  0  0  0  0
 11 32  1  0  0  0  0
 12 13  1  0  0  0  0
 12 33  1  0  0  0  0
 12 34  1  0  0  0  0
 13 21  1  0  0  0  0
 13 14  1  0  0  0  0
 14 15  2  0  0  0  0
 14 35  1  0  0  0  0
 15 16  1  0  0  0  0
 16 21  2  0  0  0  0
 16 17  1  0  0  0  0
 17 18  2  0  0  0  0
 17 36  1  0  0  0  0
 18 19  1  0  0  0  0
 18 37  1  0  0  0  0
 19 20  2  0  0  0  0
 19 38  1  0  0  0  0
 20 21  1  0  0  0  0
 20 39  1  0  0  0  0
M  END
> <s_m_source_file>
AV-unprocessed.smi

> <i_m_source_file_index>
2004

> <i_lp_mmshare_version>
43012

> <i_f3d_flags>
0

> <s_epik_input>
W2NIXTFbY0hdW2NIXVtjSF1jKGMxMiluKFtjSF1uMilbQ0gyXVtDQEhdKFtPSF0pW0NIMl1PW0NIMl1jM1tjSF1bY0hdW2NIXVtjSF1bY0hdMw==

> <s_epik_cmdline>
J2VwaWtfcHl0aG9uJywgJy1waCcsICc3LjAnLCAnLXRuJywgJzgnLCAnLW1hJywgJzIwMCcsICctbWV0YWxfYmluZGluZycsICctaW1hZScsICc8aW5maWxlLm1hZT4nLCAnLW9tYWUnLCAnPG91dGZpbGUubWFlPic=

> <r_epik_Ionization_Penalty>
0.0713119

> <r_epik_Ionization_Penalty_Charging>
0

> <r_epik_Ionization_Penalty_Neutral>
0.0713119

> <r_epik_State_Penalty>
0.06259

> <r_epik_Charging_Adjusted_Penalty>
0.06259

> <i_epik_Tot_Q>
0

> <i_epik_Tot_abs_Q>
0

> <r_epik_Metal_State_Penalty>
6.60119e-05

> <b_epik_Metal_Only>
0

> <s_lp_Force_Field>
OPLS_2005

> <r_lp_Energy>
14.5219

> <b_lp_Chiralities_Consistent>
1

> <s_lp_Variant>
AV-unprocessed.smi:2004-2

> <Gold.Version>
5.8.1

> <Gold.Id.Protein>
6NUR|6NUR_protein|mol2

> <Gold.PLP.Fitness>
44.6346

> <Gold.PLP.PLP>
-40.2971

> <Gold.PLP.part.hbond>
-2.0000

> <Gold.PLP.part.metal>
0.0000

> <Gold.PLP.part.buried>
1.0418

> <Gold.PLP.part.nonpolar>
-40.1156

> <Gold.PLP.part.repulsive>
0.1007

> <Gold.PLP.ligand.clash>
0.0000

> <Gold.PLP.ligand.torsion>
0.9087

> <Gold.PLP.Chemscore.Hbond>
2.0000

> <Gold.PLP.Chemscore.CHOScore>
0.0000

> <Gold.PLP.Chemscore.Metal>
0.0000

> <Gold.Chemscore.Hbonds>
donor molecule, donor type, donor heavy atom, donor atom, acceptor molecule, acceptor atom, score
      L1  H     1    22       P1  8028  1.00
      P1  H  7997  8009       L1    15  0.56

> <Gold.PLP.Chemscore.Internal.Correction>
0.1550

> <Gold.Rescore>
     Score         DG    S(hbond)    S(metal)    S(lipo)     H(rot)  DE(clash)    DE(int)     intcor
     14.18     -17.93       1.00        0.00     128.83       2.33       1.80       1.96       ----

> <Gold.Chemscore.Fitness>
14.1763

> <Gold.Chemscore.DG>
-17.9278

> <Gold.Chemscore.ZeroCoef>
-5.4800

> <Gold.Chemscore.Hbond>
0.9988

> <Gold.Chemscore.Metal>
0.0000

> <Gold.Chemscore.Lipo>
128.8317

> <Gold.Chemscore.Internal_Hbond>
0.0000

> <Gold.Chemscore.DEClash>
1.7952

> <Gold.Chemscore.DEInternal>
1.9563

> <Gold.Chemscore.Rot>
2.3288

> <Gold.Chemscore.Internal.Correction>
   9.000000E+99

> <Gold.Chemscore.Hbonds>
donor molecule, donor type, donor heavy atom, donor atom, acceptor molecule, acceptor atom, score
      L1  H     1    22       P1  8028  0.90
      P1  H  7997  8009       L1    15  0.08

> <Gold.Chemscore.Hbond.Weighted>
-3.3361

> <Gold.Chemscore.Metal.Weighted>
-0.0000

> <Gold.Chemscore.Lipo.Weighted>
-15.0733

> <Gold.Chemscore.Internal_Hbond.Weighted>
0.0000

> <Gold.Chemscore.DEClash.Weighted>
1.7952

> <Gold.Chemscore.DEInternal.Weighted>
1.9563

> <Gold.Chemscore.Rot.Weighted>
5.9616

> <Gold.Chemscore.Internal.Correction.Weighted>
   9.000000E+99

> <Gold.Protein.RotatedTorsions>
[ 6907 6896 6895 6894 ] final  -96.86 input  -60.11 | X-H torsion
[ 7974 7965 7964 7962 ] final -154.11 input  175.53 | X-H torsion
[ 8008 7997 7996 7995 ] final  139.66 input   59.86 | X-H torsion
[ 10167 10162 10161 10158 ] final  119.94 input  -65.29 | X-H torsion
[ 10718 10713 10712 10709 ] final  -82.63 input   66.30 | X-H torsion
[ 10763 10752 10751 10750 ] final   71.47 input  -60.55 | X-H torsion
[ 11005 11000 10999 10996 ] final  111.14 input  -57.11 | X-H torsion

> <Gold.Protein.ActiveResidues>
 VAL166  LYS551  ARG553  GLY616  TRP617  ASP618  TYR619  PRO620  LYS621  CYS622 
 ASP623  PHE694  ASN695  SER759  ASP760  ASP761  ALA762  ILE779  LEU786  VAL792 
 PHE793  MET794  SER795  GLU796  ALA797  LYS798  CYS799  TRP800  GLU811  SER814 

> <Gold.Protein.RotatedAtoms>
  150.7000  134.1437  159.4114 H   0  0  0  0  0  0  0  0  0  0  0  0  # atno 6907 bound_to 6896
  151.9421  135.0206  160.0546 H   0  0  0  0  0  0  0  0  0  0  0  0  # atno 6908 bound_to 6896
  152.2084  133.4858  159.5133 H   0  0  0  0  0  0  0  0  0  0  0  0  # atno 6909 bound_to 6896
  144.7706  140.4433  143.5910 H   0  0  0  0  0  0  0  0  0  0  0  0  # atno 7974 bound_to 7965
  156.2987  140.2362  156.4273 H   0  0  0  0  0  0  0  0  0  0  0  0  # atno 8008 bound_to 7997
  154.8301  140.0433  157.1491 H   0  0  0  0  0  0  0  0  0  0  0  0  # atno 8009 bound_to 7997
  154.9217  140.3004  155.5216 H   0  0  0  0  0  0  0  0  0  0  0  0  # atno 8010 bound_to 7997
  139.6013  144.7057  151.3055 H   0  0  0  0  0  0  0  0  0  0  0  0  # atno 10167 bound_to 10162
  156.0030  130.4640  150.4134 H   0  0  0  0  0  0  0  0  0  0  0  0  # atno 10718 bound_to 10713
  153.0401  135.5136  154.7598 H   0  0  0  0  0  0  0  0  0  0  0  0  # atno 10763 bound_to 10752
  154.6542  135.2929  154.9950 H   0  0  0  0  0  0  0  0  0  0  0  0  # atno 10764 bound_to 10752
  154.0824  135.6662  153.4892 H   0  0  0  0  0  0  0  0  0  0  0  0  # atno 10765 bound_to 10752
  139.8897  134.9501  156.6386 H   0  0  0  0  0  0  0  0  0  0  0  0  # atno 11005 bound_to 11000
  145.6336  139.1540  143.2955 LP  0  0  0  0  0  0  0  0  0  0  0  0  # atno 17320 bound_to 7965
  146.1849  140.6437  142.9172 LP  0  0  0  0  0  0  0  0  0  0  0  0  # atno 17321 bound_to 7965
  140.7252  143.7024  150.7834 LP  0  0  0  0  0  0  0  0  0  0  0  0  # atno 17342 bound_to 10162
  140.0601  143.5163  152.2632 LP  0  0  0  0  0  0  0  0  0  0  0  0  # atno 17343 bound_to 10162
  157.2195  131.0479  151.2554 LP  0  0  0  0  0  0  0  0  0  0  0  0  # atno 17370 bound_to 10713
  157.3814  130.7233  149.6632 LP  0  0  0  0  0  0  0  0  0  0  0  0  # atno 17371 bound_to 10713
  140.7611  133.8817  155.8419 LP  0  0  0  0  0  0  0  0  0  0  0  0  # atno 17394 bound_to 11000
  140.9921  134.1264  157.4398 LP  0  0  0  0  0  0  0  0  0  0  0  0  # atno 17395 bound_to 11000

$$$$
