AV-unprocessed.smi:69|AV-procd|sdf|645|dock8
  -GOLD-   2262016543D 1   1.00000     0.00000
 Structure written by MMmdl.
 32 34  0  0  0  0  0  0  0  0  1 V2000
  150.4340  131.7451  156.5505 N   0  0  0  0  0  0  0  0  0  0  0  0
  149.8128  131.4236  155.4072 C   0  0  0  0  0  0  0  0  0  0  0  0
  149.8134  130.1272  155.0185 N   0  0  0  0  0  0  0  0  0  0  0  0
  149.1994  129.7810  153.8828 C   0  0  0  0  0  0  0  0  0  0  0  0
  148.5462  130.5592  153.0160 N   0  0  0  0  0  0  0  0  0  0  0  0
  148.5448  131.8671  153.4076 C   0  0  0  0  0  0  0  0  0  0  0  0
  149.1560  132.3763  154.5877 C   0  0  0  0  0  0  0  0  0  0  0  0
  148.9588  133.7473  154.6693 N   0  0  0  0  0  0  0  0  0  0  0  0
  148.2654  134.0277  153.5989 C   0  0  0  0  0  0  0  0  0  0  0  0
  147.9762  132.9585  152.7781 N   0  0  0  0  0  0  0  0  0  0  0  0
  147.1842  132.9871  151.5060 C   0  0  2  0  0  0  0  0  0  0  0  0
  146.6153  134.2568  151.3748 O   0  0  0  0  0  0  0  0  0  0  0  0
  145.1905  134.1790  151.3903 C   0  0  1  0  0  0  0  0  0  0  0  0
  144.5650  135.3194  150.5674 C   0  0  0  0  0  0  0  0  0  0  0  0
  144.9502  136.5693  151.0989 O   0  0  0  0  0  0  0  0  0  0  0  0
  144.9030  132.7592  150.8858 C   0  0  1  0  0  0  0  0  0  0  0  0
  144.9341  132.7182  149.4672 O   0  0  0  0  0  0  0  0  0  0  0  0
  146.0396  131.9618  151.5176 C   0  0  1  0  0  0  0  0  0  0  0  0
  146.3243  130.7850  150.7836 O   0  0  0  0  0  0  0  0  0  0  0  0
  147.9084  132.8306  150.7051 H   0  0  0  0  0  0  0  0  0  0  0  0
  144.8412  134.2423  152.4208 H   0  0  0  0  0  0  0  0  0  0  0  0
  143.9274  132.4013  151.2165 H   0  0  0  0  0  0  0  0  0  0  0  0
  145.7788  131.7009  152.5433 H   0  0  0  0  0  0  0  0  0  0  0  0
  150.4472  132.7056  156.8622 H   0  0  0  0  0  0  0  0  0  0  0  0
  150.8825  131.0263  157.0997 H   0  0  0  0  0  0  0  0  0  0  0  0
  149.2368  128.7312  153.6321 H   0  0  0  0  0  0  0  0  0  0  0  0
  147.9418  135.0345  153.3780 H   0  0  0  0  0  0  0  0  0  0  0  0
  144.8464  135.2532  149.5160 H   0  0  0  0  0  0  0  0  0  0  0  0
  143.4771  135.2662  150.6182 H   0  0  0  0  0  0  0  0  0  0  0  0
  144.4848  137.2488  150.6356 H   0  0  0  0  0  0  0  0  0  0  0  0
  145.3528  133.5072  149.1572 H   0  0  0  0  0  0  0  0  0  0  0  0
  147.2555  130.7485  150.6273 H   0  0  0  0  0  0  0  0  0  0  0  0
  1  2  1  0  0  0  0
  1 24  1  0  0  0  0
  1 25  1  0  0  0  0
  2  7  1  0  0  0  0
  2  3  2  0  0  0  0
  3  4  1  0  0  0  0
  4  5  2  0  0  0  0
  4 26  1  0  0  0  0
  5  6  1  0  0  0  0
  6 10  1  0  0  0  0
  6  7  2  0  0  0  0
  7  8  1  0  0  0  0
  8  9  2  0  0  0  0
  9 10  1  0  0  0  0
  9 27  1  0  0  0  0
 10 11  1  0  0  0  0
 11 20  1  0  0  0  0
 11 18  1  0  0  0  0
 11 12  1  0  0  0  0
 12 13  1  0  0  0  0
 13 21  1  0  0  0  0
 13 14  1  0  0  0  0
 13 16  1  0  0  0  0
 14 15  1  0  0  0  0
 14 28  1  0  0  0  0
 14 29  1  0  0  0  0
 15 30  1  0  0  0  0
 16 22  1  0  0  0  0
 16 17  1  0  0  0  0
 16 18  1  0  0  0  0
 17 31  1  0  0  0  0
 18 23  1  0  0  0  0
 18 19  1  0  0  0  0
 19 32  1  0  0  0  0
M  END
> <s_m_source_file>
AV-unprocessed.smi

> <i_m_source_file_index>
69

> <i_lp_mmshare_version>
43012

> <i_f3d_flags>
0

> <s_epik_input>
bjFbY0hdbmMoW05IMl0pYyhjMTIpbltjSF1uMltDQEBIXTNPW0NASF0oW0NIMl1bT0hdKVtDQEBIXShbT0hdKVtDQEhdM1tPSF0=

> <s_epik_cmdline>
J2VwaWtfcHl0aG9uJywgJy1waCcsICc3LjAnLCAnLXRuJywgJzgnLCAnLW1hJywgJzIwMCcsICctbWV0YWxfYmluZGluZycsICctaW1hZScsICc8aW5maWxlLm1hZT4nLCAnLW9tYWUnLCAnPG91dGZpbGUubWFlPic=

> <r_lp_tautomer_probability>
1

> <r_epik_Ionization_Penalty>
0.000428445

> <r_epik_Ionization_Penalty_Charging>
0

> <r_epik_Ionization_Penalty_Neutral>
0.000428445

> <r_epik_State_Penalty>
-0

> <r_epik_Charging_Adjusted_Penalty>
0

> <i_epik_Tot_Q>
0

> <i_epik_Tot_abs_Q>
0

> <r_epik_Metal_State_Penalty>
-0

> <b_epik_Metal_Only>
0

> <s_epik_Chemistry_Notes>
This compound contains an acetal/aminal-like group ( X-CH(R)-Y where X, Y are N, S, or O) that may be acid/base labile, releasing an aldehyde.

> <s_lp_Force_Field>
OPLS_2005

> <r_lp_Energy>
42.3633

> <b_lp_Chiralities_Consistent>
1

> <s_lp_Variant>
AV-unprocessed.smi:69-3

> <Gold.Version>
5.8.1

> <Gold.Id.Protein>
6NUR|6NUR_protein|mol2

> <Gold.PLP.Fitness>
38.1573

> <Gold.PLP.PLP>
-26.7722

> <Gold.PLP.part.hbond>
-3.0000

> <Gold.PLP.part.metal>
0.0000

> <Gold.PLP.part.buried>
-1.3276

> <Gold.PLP.part.nonpolar>
-23.3588

> <Gold.PLP.part.repulsive>
2.8086

> <Gold.PLP.ligand.clash>
0.0000

> <Gold.PLP.ligand.torsion>
0.1404

> <Gold.PLP.Chemscore.Hbond>
2.9833

> <Gold.PLP.Chemscore.CHOScore>
0.9028

> <Gold.PLP.Chemscore.Metal>
0.0000

> <Gold.Chemscore.Hbonds>
donor molecule, donor type, donor heavy atom, donor atom, acceptor molecule, acceptor atom, score
      L1  H    15    30       P1 10171  1.00
      L1  H    17    31       P1  7921  0.71
      L1  H    19    32       P1 10747  1.00
      L1  C     9    27       P1  7948  0.80

> <Gold.PLP.Chemscore.Internal.Correction>
0.0075

> <Gold.Rescore>
     Score         DG    S(hbond)    S(metal)    S(lipo)     H(rot)  DE(clash)    DE(int)     intcor
      4.84      -5.18       1.98        0.00      29.07       4.03       0.10       0.24       ----

> <Gold.Chemscore.Fitness>
4.8435

> <Gold.Chemscore.DG>
-5.1778

> <Gold.Chemscore.ZeroCoef>
-5.4800

> <Gold.Chemscore.Hbond>
1.9782

> <Gold.Chemscore.Metal>
0.0000

> <Gold.Chemscore.Lipo>
29.0736

> <Gold.Chemscore.Internal_Hbond>
0.0000

> <Gold.Chemscore.DEClash>
0.0960

> <Gold.Chemscore.DEInternal>
0.2383

> <Gold.Chemscore.Rot>
4.0277

> <Gold.Chemscore.Internal.Correction>
   9.000000E+99

> <Gold.Chemscore.Hbonds>
donor molecule, donor type, donor heavy atom, donor atom, acceptor molecule, acceptor atom, score
      L1  H    15    30       P1 10171  1.00
      L1  H    17    31       P1  7921  0.34
      L1  H    19    32       P1 10747  1.00

> <Gold.Chemscore.Hbond.Weighted>
-6.6072

> <Gold.Chemscore.Metal.Weighted>
-0.0000

> <Gold.Chemscore.Lipo.Weighted>
-3.4016

> <Gold.Chemscore.Internal_Hbond.Weighted>
0.0000

> <Gold.Chemscore.DEClash.Weighted>
0.0960

> <Gold.Chemscore.DEInternal.Weighted>
0.2383

> <Gold.Chemscore.Rot.Weighted>
10.3110

> <Gold.Chemscore.Internal.Correction.Weighted>
   9.000000E+99

> <Gold.Protein.RotatedTorsions>
[ 6907 6896 6895 6894 ] final  -33.47 input  -60.11 | X-H torsion
[ 7974 7965 7964 7962 ] final    9.36 input  175.53 | X-H torsion
[ 8008 7997 7996 7995 ] final  -96.95 input   59.86 | X-H torsion
[ 10167 10162 10161 10158 ] final   81.39 input  -65.29 | X-H torsion
[ 10718 10713 10712 10709 ] final  109.88 input   66.30 | X-H torsion
[ 10763 10752 10751 10750 ] final -110.28 input  -60.55 | X-H torsion
[ 11005 11000 10999 10996 ] final   40.72 input  -57.11 | X-H torsion

> <Gold.Protein.ActiveResidues>
 VAL166  LYS551  ARG553  GLY616  TRP617  ASP618  TYR619  PRO620  LYS621  CYS622 
 ASP623  PHE694  ASN695  SER759  ASP760  ASP761  ALA762  ILE779  LEU786  VAL792 
 PHE793  MET794  SER795  GLU796  ALA797  LYS798  CYS799  TRP800  GLU811  SER814 

> <Gold.Protein.RotatedAtoms>
  151.0652  134.9763  159.8280 H   0  0  0  0  0  0  0  0  0  0  0  0  # atno 6907 bound_to 6896
  152.5401  134.2368  159.8856 H   0  0  0  0  0  0  0  0  0  0  0  0  # atno 6908 bound_to 6896
  151.2389  133.4367  159.2640 H   0  0  0  0  0  0  0  0  0  0  0  0  # atno 6909 bound_to 6896
  146.2404  139.9795  142.8438 H   0  0  0  0  0  0  0  0  0  0  0  0  # atno 7974 bound_to 7965
  154.7813  140.0467  157.1129 H   0  0  0  0  0  0  0  0  0  0  0  0  # atno 8008 bound_to 7997
  154.9702  140.3088  155.4972 H   0  0  0  0  0  0  0  0  0  0  0  0  # atno 8009 bound_to 7997
  156.2937  140.2254  156.4794 H   0  0  0  0  0  0  0  0  0  0  0  0  # atno 8010 bound_to 7997
  139.9398  144.6097  150.8263 H   0  0  0  0  0  0  0  0  0  0  0  0  # atno 10167 bound_to 10162
  157.6521  131.0922  150.6519 H   0  0  0  0  0  0  0  0  0  0  0  0  # atno 10718 bound_to 10713
  154.8239  135.4570  154.0861 H   0  0  0  0  0  0  0  0  0  0  0  0  # atno 10763 bound_to 10752
  153.2191  135.6892  153.8028 H   0  0  0  0  0  0  0  0  0  0  0  0  # atno 10764 bound_to 10752
  153.7451  135.3306  155.3288 H   0  0  0  0  0  0  0  0  0  0  0  0  # atno 10765 bound_to 10752
  140.1904  134.3994  155.8150 H   0  0  0  0  0  0  0  0  0  0  0  0  # atno 11005 bound_to 11000
  145.1605  140.9670  143.4380 LP  0  0  0  0  0  0  0  0  0  0  0  0  # atno 17320 bound_to 7965
  145.0120  139.3501  143.6115 LP  0  0  0  0  0  0  0  0  0  0  0  0  # atno 17321 bound_to 7965
  140.7614  143.3174  151.2702 LP  0  0  0  0  0  0  0  0  0  0  0  0  # atno 17342 bound_to 10162
  139.6714  144.0013  152.2755 LP  0  0  0  0  0  0  0  0  0  0  0  0  # atno 17343 bound_to 10162
  156.6829  130.4572  149.5622 LP  0  0  0  0  0  0  0  0  0  0  0  0  # atno 17370 bound_to 10713
  156.1916  130.6563  151.1068 LP  0  0  0  0  0  0  0  0  0  0  0  0  # atno 17371 bound_to 10713
  141.2226  133.7043  156.8085 LP  0  0  0  0  0  0  0  0  0  0  0  0  # atno 17394 bound_to 11000
  140.2166  134.8788  157.3333 LP  0  0  0  0  0  0  0  0  0  0  0  0  # atno 17395 bound_to 11000

$$$$
