#       Name:                AV-unprocessed.smi:62
#       Creating user name   scv26
#       Creation time:       Thu Mar 26 16:50:08 2020


#       File generated by GOLD software.
#

@<TRIPOS>MOLECULE
AV-unprocessed.smi:62
    38    39     1
SMALL
NO_CHARGES


@<TRIPOS>ATOM
      1 ****        -4.2235   1.5272  -1.0184 C.3            1 S1                 0.0000
      2 ****        -3.0063   0.7495  -1.1041 N.pl3          1 S1                 0.0000
      3 ****        -1.7025   1.1772  -1.0031 C.2            1 S1                 0.0000
      4 ****        -0.8880   0.0879  -1.1430 C.2            1 S1                 0.0000
      5 ****         0.6214   0.0985  -1.0842 C.3            1 S1                 0.0000
      6 ****         1.1372  -0.4206   0.1788 N.3            1 S1                 0.0000
      7 ****         0.8262   0.4058   1.3332 C.3            1 S1                 0.0000
      8 ****         1.8240   0.0128   2.4315 C.3            1 S1                 0.0000
      9 ****         2.9264  -0.7511   1.6795 C.3            1 S1                 0.0000
     10 ****         4.2241  -0.2901   1.9925 O.3            1 S1                 0.0000
     11 ****         2.5804  -0.5278   0.2065 C.3            1 S1                 0.0000
     12 ****        -1.8182  -0.9901  -1.3358 C.2            1 S1                 0.0000
     13 ****        -1.3776  -2.4151  -1.5464 C.2            1 S1                 0.0000
     14 ****        -0.1605  -2.6951  -1.6106 O.co2          1 S1                 0.0000
     15 ****        -2.2658  -3.2890  -1.6593 O.co2          1 S1                -1.0000
     16 ****        -3.0798  -0.5789  -1.3061 N.2            1 S1                 0.0000
     17 ****        -3.9857   2.5903  -0.9710 H              1 S1                 0.0000
     18 ****        -4.7767   1.2460  -0.1218 H              1 S1                 0.0000
     19 ****        -4.8440   1.3421  -1.8959 H              1 S1                 0.0000
     20 ****        -1.4592   2.2158  -0.8358 H              1 S1                 0.0000
     21 ****         1.0345  -0.4854  -1.9069 H              1 S1                 0.0000
     22 ****         1.0012   1.1092  -1.2406 H              1 S1                 0.0000
     23 ****         0.9661   1.4592   1.0857 H              1 S1                 0.0000
     24 ****        -0.2090   0.2756   1.6502 H              1 S1                 0.0000
     25 ****         2.2005   0.8991   2.9439 H              1 S1                 0.0000
     26 ****         1.3555  -0.6302   3.1773 H              1 S1                 0.0000
     27 ****         2.8580  -1.8145   1.9135 H              1 S1                 0.0000
     28 ****         4.2772   0.6267   1.7702 H              1 S1                 0.0000
     29 ****         2.9369  -1.3367  -0.4323 H              1 S1                 0.0000
     30 ****         3.0282   0.4027  -0.1475 H              1 S1                 0.0000
     31 ****         0.6867  -1.3118   0.2331 LP             1 S1                 0.0000
     32 ****         4.9012  -0.8048   1.4665 LP             1 S1                 0.0000
     33 ****         4.3988  -0.4113   2.9696 LP             1 S1                 0.0000
     34 ****         0.1278  -3.6415  -1.7562 LP             1 S1                 0.0000
     35 ****         0.5244  -1.9727  -1.5163 LP             1 S1                 0.0000
     36 ****        -2.0111  -4.2449  -1.8057 LP             1 S1                 0.0000
     37 ****        -3.2305  -3.0317  -1.6032 LP             1 S1                 0.0000
     38 ****        -3.9045  -1.1347  -1.4109 LP             1 S1                 0.0000
@<TRIPOS>BOND
    1    1    2 1     
    2    1   17 1     
    3    1   18 1     
    4    1   19 1     
    5    2   16 1     
    6    2    3 1     
    7    3    4 2     
    8    3   20 1     
    9    4    5 1     
   10    4   12 1     
   11    5    6 1     
   12    5   21 1     
   13    5   22 1     
   14    6   11 1     
   15    6    7 1     
   16    7    8 1     
   17    7   23 1     
   18    7   24 1     
   19    8    9 1     
   20    8   25 1     
   21    8   26 1     
   22    9   10 1     
   23    9   11 1     
   24    9   27 1     
   25   10   28 1     
   26   11   29 1     
   27   11   30 1     
   28   12   13 1     
   29   12   16 2     
   30   13   14 ar    
   31   13   15 ar    
   32    6   31 1     
   33   10   32 1     
   34   10   33 1     
   35   14   34 1     
   36   14   35 1     
   37   15   36 1     
   38   15   37 1     
   39   16   38 1     
@<TRIPOS>SUBSTRUCTURE
      1 S1             1
@<TRIPOS>SET
LONE_PAIRS      STATIC     ATOMS    <user>   **** ""
8 31 32 33 34 35 36 37 38
DONOR_HYDROGENS      STATIC     ATOMS    <user>   **** ""
1 28
ATOM$BLUE        STATIC     ATOMS    COLORGROUP SYSTEM
8 31 32 33 34 35 36 37 38
ATOM$RED        STATIC     ATOMS    COLORGROUP SYSTEM
1 28
