#       Name:                AV-unprocessed.smi:3129
#       Creating user name   scv26
#       Creation time:       Fri Mar 27 17:30:59 2020


#       File generated by GOLD software.
#

@<TRIPOS>MOLECULE
AV-unprocessed.smi:3129
    43    43     1
SMALL
NO_CHARGES


@<TRIPOS>ATOM
      1 ****        -2.4921   1.4764   3.2834 C.3            1 S1                 0.0000
      2 ****        -2.6393   2.3049   1.9948 C.3            1 S1                 0.0000
      3 ****        -4.1051   2.7120   1.7845 C.3            1 S1                 0.0000
      4 ****        -2.0952   1.5783   0.7463 C.3            1 S1                 0.0000
      5 ****        -0.6645   1.3015   0.8400 N.am           1 S1                 0.0000
      6 ****        -0.1169   0.1169   1.1540 C.2            1 S1                 0.0000
      7 ****        -0.7788  -0.8921   1.4012 O.2            1 S1                 0.0000
      8 ****         1.4190   0.0593   1.1933 C.3            1 S1                 0.0000
      9 ****         1.9044  -0.0491   2.6469 C.3            1 S1                 0.0000
     10 ****         1.9886  -1.0401   0.3933 N.3            1 S1                 0.0000
     11 ****         1.6560  -0.9808  -1.0256 C.3            1 S1                 0.0000
     12 ****         2.4206  -2.0838  -1.7711 C.3            1 S1                 0.0000
     13 ****         2.1135  -2.0819  -3.1882 N.pl3          1 S1                 0.0000
     14 ****         1.2304  -2.8884  -3.8746 C.2            1 S1                 0.0000
     15 ****         1.2769  -2.5161  -5.1876 C.2            1 S1                 0.0000
     16 ****         2.2300  -1.4594  -5.2055 C.2            1 S1                 0.0000
     17 ****         2.7279  -1.2008  -4.0069 N.2            1 S1                 0.0000
     18 ****        -3.0074   0.5192   3.1990 H              1 S1                 0.0000
     19 ****        -2.9113   2.0049   4.1399 H              1 S1                 0.0000
     20 ****        -1.4465   1.2737   3.5143 H              1 S1                 0.0000
     21 ****        -2.0643   3.2225   2.1262 H              1 S1                 0.0000
     22 ****        -4.7409   1.8384   1.6361 H              1 S1                 0.0000
     23 ****        -4.2135   3.3556   0.9112 H              1 S1                 0.0000
     24 ****        -4.4892   3.2609   2.6448 H              1 S1                 0.0000
     25 ****        -2.6603   0.6629   0.5616 H              1 S1                 0.0000
     26 ****        -2.2443   2.2046  -0.1337 H              1 S1                 0.0000
     27 ****        -0.0402   2.0725   0.6518 H              1 S1                 0.0000
     28 ****         1.8052   0.9966   0.7886 H              1 S1                 0.0000
     29 ****         1.5138   0.7661   3.2578 H              1 S1                 0.0000
     30 ****         2.9925  -0.0025   2.6994 H              1 S1                 0.0000
     31 ****         1.5911  -0.9877   3.1060 H              1 S1                 0.0000
     32 ****         1.7304  -1.9421   0.7678 H              1 S1                 0.0000
     33 ****         0.5846  -1.1171  -1.1774 H              1 S1                 0.0000
     34 ****         1.9235  -0.0020  -1.4259 H              1 S1                 0.0000
     35 ****         3.4976  -1.9580  -1.6469 H              1 S1                 0.0000
     36 ****         2.1671  -3.0642  -1.3653 H              1 S1                 0.0000
     37 ****         0.6484  -3.6505  -3.3772 H              1 S1                 0.0000
     38 ****         0.7156  -2.9345  -6.0098 H              1 S1                 0.0000
     39 ****         2.5719  -0.8760  -6.0478 H              1 S1                 0.0000
     40 ****        -1.7777  -0.8540   1.3735 LP             1 S1                 0.0000
     41 ****        -0.3172  -1.7493   1.6296 LP             1 S1                 0.0000
     42 ****         2.9789  -0.9189   0.4610 LP             1 S1                 0.0000
     43 ****         3.4067  -0.5084  -3.7623 LP             1 S1                 0.0000
@<TRIPOS>BOND
    1    1    2 1     
    2    1   18 1     
    3    1   19 1     
    4    1   20 1     
    5    2    3 1     
    6    2    4 1     
    7    2   21 1     
    8    3   22 1     
    9    3   23 1     
   10    3   24 1     
   11    4    5 1     
   12    4   25 1     
   13    4   26 1     
   14    5    6 am    
   15    5   27 1     
   16    6    7 2     
   17    6    8 1     
   18    8    9 1     
   19    8   10 1     
   20    8   28 1     
   21    9   29 1     
   22    9   30 1     
   23    9   31 1     
   24   10   11 1     
   25   10   32 1     
   26   11   12 1     
   27   11   33 1     
   28   11   34 1     
   29   12   13 1     
   30   12   35 1     
   31   12   36 1     
   32   13   17 1     
   33   13   14 1     
   34   14   15 2     
   35   14   37 1     
   36   15   16 1     
   37   15   38 1     
   38   16   17 2     
   39   16   39 1     
   40    7   40 1     
   41    7   41 1     
   42   10   42 1     
   43   17   43 1     
@<TRIPOS>SUBSTRUCTURE
      1 S1             1
@<TRIPOS>SET
LONE_PAIRS      STATIC     ATOMS    <user>   **** ""
4 40 41 42 43
DONOR_HYDROGENS      STATIC     ATOMS    <user>   **** ""
2 27 32
ATOM$BLUE        STATIC     ATOMS    COLORGROUP SYSTEM
4 40 41 42 43
ATOM$RED        STATIC     ATOMS    COLORGROUP SYSTEM
2 27 32
