AV-unprocessed.smi:17|AV-procd|sdf|105|dock6
  -GOLD-   2262015263D 1   1.00000     0.00000
 Structure written by MMmdl.
 57 59  0  0  0  0  0  0  0  0  1 V2000
  147.1780  140.4226  152.9217 C   0  0  0  0  0  0  0  0  0  0  0  0
  147.0552  138.9280  153.2619 C   0  0  0  0  0  0  0  0  0  0  0  0
  145.9903  138.6390  154.2278 N   0  0  0  0  0  0  0  0  0  0  0  0
  145.0728  137.6907  153.8912 C   0  0  0  0  0  0  0  0  0  0  0  0
  144.0158  137.4683  154.7178 N   0  0  0  0  0  0  0  0  0  0  0  0
  143.1104  136.5298  154.4291 C   0  0  0  0  0  0  0  0  0  0  0  0
  143.0683  135.7070  153.3807 N   0  0  0  0  0  0  0  0  0  0  0  0
  144.1208  135.9248  152.5425 C   0  0  0  0  0  0  0  0  0  0  0  0
  145.1586  136.8851  152.7174 C   0  0  0  0  0  0  0  0  0  0  0  0
  146.0443  136.8127  151.6475 N   0  0  0  0  0  0  0  0  0  0  0  0
  145.5644  135.8636  150.8921 C   0  0  0  0  0  0  0  0  0  0  0  0
  144.4141  135.2717  151.3594 N   0  0  0  0  0  0  0  0  0  0  0  0
  143.6706  134.1945  150.7306 C   0  0  0  0  0  0  0  0  0  0  0  0
  144.5380  133.3548  149.7566 C   0  0  2  0  0  0  0  0  0  0  0  0
  143.7498  132.8247  148.5355 C   0  0  0  0  0  0  0  0  0  0  0  0
  143.3854  133.8641  147.6506 O   0  0  0  0  0  0  0  0  0  0  0  0
  145.3882  132.2439  150.4308 C   0  0  1  0  0  0  0  0  0  0  0  0
  146.2360  132.6818  151.6112 C   0  0  0  0  0  0  0  0  0  0  0  0
  146.6354  131.3384  152.2114 C   0  0  0  0  0  0  0  0  0  0  0  0
  145.5222  130.4772  151.9934 O   0  0  0  0  0  0  0  0  0  0  0  0
  144.6425  131.0430  151.0245 C   0  0  0  0  0  0  0  0  0  0  0  0
  146.1311  139.0298  155.6383 C   0  0  1  0  0  0  0  0  0  0  0  0
  147.4015  138.4357  156.2708 C   0  0  0  0  0  0  0  0  0  0  0  0
  146.0576  140.5590  155.8422 C   0  0  0  0  0  0  0  0  0  0  0  0
  146.1796  141.0651  157.6198 S   0  0  0  0  0  0  0  0  0  0  0  0
  147.7477  142.0278  157.6657 C   0  0  0  0  0  0  0  0  0  0  0  0
  145.0728  141.9788  157.9428 O   0  0  0  0  0  0  0  0  0  0  0  0
  146.3826  139.8496  158.4227 O   0  0  0  0  0  0  0  0  0  0  0  0
  147.9473  140.5811  152.1663 H   0  0  0  0  0  0  0  0  0  0  0  0
  147.4526  141.0134  153.7959 H   0  0  0  0  0  0  0  0  0  0  0  0
  146.2430  140.8220  152.5293 H   0  0  0  0  0  0  0  0  0  0  0  0
  146.8604  138.3841  152.3387 H   0  0  0  0  0  0  0  0  0  0  0  0
  148.0080  138.5446  153.6229 H   0  0  0  0  0  0  0  0  0  0  0  0
  142.3062  136.4213  155.1418 H   0  0  0  0  0  0  0  0  0  0  0  0
  146.0422  135.5623  149.9712 H   0  0  0  0  0  0  0  0  0  0  0  0
  143.2614  133.5728  151.5258 H   0  0  0  0  0  0  0  0  0  0  0  0
  142.8191  134.6344  150.2123 H   0  0  0  0  0  0  0  0  0  0  0  0
  145.2686  134.0476  149.3367 H   0  0  0  0  0  0  0  0  0  0  0  0
  144.3390  132.0922  147.9832 H   0  0  0  0  0  0  0  0  0  0  0  0
  142.8467  132.3067  148.8591 H   0  0  0  0  0  0  0  0  0  0  0  0
  144.1643  134.3446  147.4145 H   0  0  0  0  0  0  0  0  0  0  0  0
  146.0805  131.8571  149.6808 H   0  0  0  0  0  0  0  0  0  0  0  0
  147.0953  133.2869  151.3211 H   0  0  0  0  0  0  0  0  0  0  0  0
  145.6516  133.2440  152.3389 H   0  0  0  0  0  0  0  0  0  0  0  0
  147.4993  130.9297  151.6855 H   0  0  0  0  0  0  0  0  0  0  0  0
  146.8854  131.4095  153.2701 H   0  0  0  0  0  0  0  0  0  0  0  0
  143.7313  131.3428  151.5399 H   0  0  0  0  0  0  0  0  0  0  0  0
  144.3731  130.3068  150.2670 H   0  0  0  0  0  0  0  0  0  0  0  0
  145.2927  138.6218  156.2027 H   0  0  0  0  0  0  0  0  0  0  0  0
  147.4396  138.6464  157.3397 H   0  0  0  0  0  0  0  0  0  0  0  0
  148.3058  138.8474  155.8223 H   0  0  0  0  0  0  0  0  0  0  0  0
  147.4321  137.3524  156.1521 H   0  0  0  0  0  0  0  0  0  0  0  0
  146.9073  141.0212  155.3390 H   0  0  0  0  0  0  0  0  0  0  0  0
  145.1640  141.0040  155.4069 H   0  0  0  0  0  0  0  0  0  0  0  0
  147.9870  142.2734  158.7001 H   0  0  0  0  0  0  0  0  0  0  0  0
  147.6358  142.9519  157.1034 H   0  0  0  0  0  0  0  0  0  0  0  0
  148.5568  141.4345  157.2407 H   0  0  0  0  0  0  0  0  0  0  0  0
  1  2  1  0  0  0  0
  1 29  1  0  0  0  0
  1 30  1  0  0  0  0
  1 31  1  0  0  0  0
  2  3  1  0  0  0  0
  2 32  1  0  0  0  0
  2 33  1  0  0  0  0
  3  4  1  0  0  0  0
  3 22  1  0  0  0  0
  4  9  1  0  0  0  0
  4  5  2  0  0  0  0
  5  6  1  0  0  0  0
  6  7  2  0  0  0  0
  6 34  1  0  0  0  0
  7  8  1  0  0  0  0
  8 12  1  0  0  0  0
  8  9  2  0  0  0  0
  9 10  1  0  0  0  0
 10 11  2  0  0  0  0
 11 12  1  0  0  0  0
 11 35  1  0  0  0  0
 12 13  1  0  0  0  0
 13 14  1  0  0  0  0
 13 36  1  0  0  0  0
 13 37  1  0  0  0  0
 14 15  1  0  0  0  0
 14 17  1  0  0  0  0
 14 38  1  0  0  0  0
 15 16  1  0  0  0  0
 15 39  1  0  0  0  0
 15 40  1  0  0  0  0
 16 41  1  0  0  0  0
 17 21  1  0  0  0  0
 17 18  1  0  0  0  0
 17 42  1  0  0  0  0
 18 19  1  0  0  0  0
 18 43  1  0  0  0  0
 18 44  1  0  0  0  0
 19 20  1  0  0  0  0
 19 45  1  0  0  0  0
 19 46  1  0  0  0  0
 20 21  1  0  0  0  0
 21 47  1  0  0  0  0
 21 48  1  0  0  0  0
 22 23  1  0  0  0  0
 22 24  1  0  0  0  0
 22 49  1  0  0  0  0
 23 50  1  0  0  0  0
 23 51  1  0  0  0  0
 23 52  1  0  0  0  0
 24 25  1  0  0  0  0
 24 53  1  0  0  0  0
 24 54  1  0  0  0  0
 25 26  1  0  0  0  0
 25 27  2  0  0  0  0
 25 28  2  0  0  0  0
 26 55  1  0  0  0  0
 26 56  1  0  0  0  0
 26 57  1  0  0  0  0
M  END
> <s_m_source_file>
AV-unprocessed.smi

> <i_m_source_file_index>
17

> <i_lp_mmshare_version>
43012

> <i_f3d_flags>
0

> <s_epik_input>
W0NIM11TKD1PKSg9TylbQ0gyXVtDQEBIXShbQ0gzXSlOKFtDSDJdW0NIM10pYyhuW2NIXW4xKWMoYzEyKW5bY0hdbjJbQ0gyXVtDQEhdKFtDSDJdW09IXSlbQ0BASF0zW0NIMl1bQ0gyXU9bQ0gyXTM=

> <s_epik_cmdline>
J2VwaWtfcHl0aG9uJywgJy1waCcsICc3LjAnLCAnLXRuJywgJzgnLCAnLW1hJywgJzIwMCcsICctbWV0YWxfYmluZGluZycsICctaW1hZScsICc8aW5maWxlLm1hZT4nLCAnLW9tYWUnLCAnPG91dGZpbGUubWFlPic=

> <r_lp_tautomer_probability>
1

> <r_epik_Ionization_Penalty>
0.00119955

> <r_epik_Ionization_Penalty_Charging>
0

> <r_epik_Ionization_Penalty_Neutral>
0.00119955

> <r_epik_State_Penalty>
0.000665399

> <r_epik_Charging_Adjusted_Penalty>
0.000665399

> <i_epik_Tot_Q>
0

> <i_epik_Tot_abs_Q>
0

> <r_epik_Metal_State_Penalty>
-0

> <b_epik_Metal_Only>
0

> <s_lp_Force_Field>
OPLS_2005

> <r_lp_Energy>
34.6832

> <b_lp_Chiralities_Consistent>
1

> <s_lp_Variant>
AV-unprocessed.smi:17-7

> <Gold.Version>
5.8.1

> <Gold.Id.Protein>
6NUR|6NUR_protein|mol2

> <Gold.PLP.Fitness>
45.6240

> <Gold.PLP.PLP>
-38.0928

> <Gold.PLP.part.hbond>
-4.7942

> <Gold.PLP.part.metal>
0.0000

> <Gold.PLP.part.buried>
-2.5022

> <Gold.PLP.part.nonpolar>
-31.9008

> <Gold.PLP.part.repulsive>
1.5244

> <Gold.PLP.ligand.clash>
0.0000

> <Gold.PLP.ligand.torsion>
1.2926

> <Gold.PLP.Chemscore.Hbond>
2.0000

> <Gold.PLP.Chemscore.CHOScore>
1.0000

> <Gold.PLP.Chemscore.Metal>
0.0000

> <Gold.Chemscore.Hbonds>
donor molecule, donor type, donor heavy atom, donor atom, acceptor molecule, acceptor atom, score
      L1  H    16    41       P1  7921  1.00
      P1  H 10192 10197       L1    16  1.00
      L1  C    11    35       P1  7921  1.00

> <Gold.PLP.Chemscore.Internal.Correction>
1.1163

> <Gold.Rescore>
     Score         DG    S(hbond)    S(metal)    S(lipo)     H(rot)  DE(clash)    DE(int)     intcor
      6.26     -13.11       1.95        0.00      86.16       3.51       2.81       4.03       ----

> <Gold.Chemscore.Fitness>
6.2650

> <Gold.Chemscore.DG>
-13.1064

> <Gold.Chemscore.ZeroCoef>
-5.4800

> <Gold.Chemscore.Hbond>
1.9523

> <Gold.Chemscore.Metal>
0.0000

> <Gold.Chemscore.Lipo>
86.1612

> <Gold.Chemscore.Internal_Hbond>
0.0000

> <Gold.Chemscore.DEClash>
2.8068

> <Gold.Chemscore.DEInternal>
4.0347

> <Gold.Chemscore.Rot>
3.5059

> <Gold.Chemscore.Internal.Correction>
   9.000000E+99

> <Gold.Chemscore.Hbonds>
donor molecule, donor type, donor heavy atom, donor atom, acceptor molecule, acceptor atom, score
      L1  H    16    41       P1  7921  0.94
      P1  H 10192 10197       L1    16  0.25

> <Gold.Chemscore.Hbond.Weighted>
-6.5206

> <Gold.Chemscore.Metal.Weighted>
-0.0000

> <Gold.Chemscore.Lipo.Weighted>
-10.0809

> <Gold.Chemscore.Internal_Hbond.Weighted>
0.0000

> <Gold.Chemscore.DEClash.Weighted>
2.8068

> <Gold.Chemscore.DEInternal.Weighted>
4.0347

> <Gold.Chemscore.Rot.Weighted>
8.9750

> <Gold.Chemscore.Internal.Correction.Weighted>
   9.000000E+99

> <Gold.Protein.RotatedTorsions>
[ 6907 6896 6895 6894 ] final  -53.13 input  -60.11 | X-H torsion
[ 7974 7965 7964 7962 ] final  141.29 input  175.53 | X-H torsion
[ 8008 7997 7996 7995 ] final   -9.16 input   59.86 | X-H torsion
[ 10167 10162 10161 10158 ] final  -24.54 input  -65.29 | X-H torsion
[ 10718 10713 10712 10709 ] final  121.52 input   66.30 | X-H torsion
[ 10763 10752 10751 10750 ] final  124.03 input  -60.55 | X-H torsion
[ 11005 11000 10999 10996 ] final -116.89 input  -57.11 | X-H torsion

> <Gold.Protein.ActiveResidues>
 VAL166  LYS551  ARG553  GLY616  TRP617  ASP618  TYR619  PRO620  LYS621  CYS622 
 ASP623  PHE694  ASN695  SER759  ASP760  ASP761  ALA762  ILE779  LEU786  VAL792 
 PHE793  MET794  SER795  GLU796  ALA797  LYS798  CYS799  TRP800  GLU811  SER814 

> <Gold.Protein.RotatedAtoms>
  150.8454  134.7761  159.6965 H   0  0  0  0  0  0  0  0  0  0  0  0  # atno 6907 bound_to 6896
  152.4532  134.5345  159.9830 H   0  0  0  0  0  0  0  0  0  0  0  0  # atno 6908 bound_to 6896
  151.5476  133.3384  159.2983 H   0  0  0  0  0  0  0  0  0  0  0  0  # atno 6909 bound_to 6896
  144.9110  139.5294  143.5709 H   0  0  0  0  0  0  0  0  0  0  0  0  # atno 7974 bound_to 7965
  154.5673  140.2362  155.8245 H   0  0  0  0  0  0  0  0  0  0  0  0  # atno 8008 bound_to 7997
  156.2078  140.3034  155.9624 H   0  0  0  0  0  0  0  0  0  0  0  0  # atno 8009 bound_to 7997
  155.2778  140.0421  157.3003 H   0  0  0  0  0  0  0  0  0  0  0  0  # atno 8010 bound_to 7997
  140.7288  143.4344  151.0752 H   0  0  0  0  0  0  0  0  0  0  0  0  # atno 10167 bound_to 10162
  157.5812  131.1074  150.8184 H   0  0  0  0  0  0  0  0  0  0  0  0  # atno 10718 bound_to 10713
  153.6549  135.3356  155.3110 H   0  0  0  0  0  0  0  0  0  0  0  0  # atno 10763 bound_to 10752
  154.8529  135.4350  154.1865 H   0  0  0  0  0  0  0  0  0  0  0  0  # atno 10764 bound_to 10752
  153.2817  135.7009  153.7454 H   0  0  0  0  0  0  0  0  0  0  0  0  # atno 10765 bound_to 10752
  141.0392  133.9862  157.3022 H   0  0  0  0  0  0  0  0  0  0  0  0  # atno 11005 bound_to 11000
  146.3158  139.7915  142.8984 LP  0  0  0  0  0  0  0  0  0  0  0  0  # atno 17320 bound_to 7965
  145.3455  141.0297  143.3368 LP  0  0  0  0  0  0  0  0  0  0  0  0  # atno 17321 bound_to 7965
  139.8004  143.8091  152.3162 LP  0  0  0  0  0  0  0  0  0  0  0  0  # atno 17342 bound_to 10162
  139.8106  144.7337  150.9702 LP  0  0  0  0  0  0  0  0  0  0  0  0  # atno 17343 bound_to 10162
  156.8630  130.5119  149.5302 LP  0  0  0  0  0  0  0  0  0  0  0  0  # atno 17370 bound_to 10713
  156.0858  130.5857  150.9645 LP  0  0  0  0  0  0  0  0  0  0  0  0  # atno 17371 bound_to 10713
  139.9263  135.0201  156.8245 LP  0  0  0  0  0  0  0  0  0  0  0  0  # atno 17394 bound_to 11000
  140.6266  133.9944  155.7642 LP  0  0  0  0  0  0  0  0  0  0  0  0  # atno 17395 bound_to 11000

$$$$
