AV-unprocessed.smi:2339|AV-procd|sdf|9341|dock2
  -GOLD-   2272012563D 1   1.00000     0.00000
 Structure written by MMmdl.
 49 52  0  0  0  0  0  0  0  0  1 V2000
  146.3523  142.9205  155.1148 C   0  0  0  0  0  0  0  0  0  0  0  0
  147.2773  142.8748  153.8936 C   0  0  0  0  0  0  0  0  0  0  0  0
  148.1925  141.7441  153.9522 N   0  0  0  0  0  0  0  0  0  0  0  0
  148.1007  140.6917  153.0472 C   0  0  0  0  0  0  0  0  0  0  0  0
  148.8889  139.5998  153.0767 C   0  0  0  0  0  0  0  0  0  0  0  0
  149.9212  139.4809  154.1261 C   0  0  0  0  0  0  0  0  0  0  0  0
  150.6671  138.5027  154.1765 O   0  0  0  0  0  0  0  0  0  0  0  0
  150.0080  140.5979  155.1030 C   0  0  0  0  0  0  0  0  0  0  0  0
  150.9952  140.4752  156.0928 N   0  0  0  0  0  0  0  0  0  0  0  0
  150.8979  140.6089  157.4312 C   0  0  0  0  0  0  0  0  0  0  0  0
  149.8603  140.8225  158.0539 O   0  0  0  0  0  0  0  0  0  0  0  0
  152.0757  140.4886  158.0682 N   0  0  0  0  0  0  0  0  0  0  0  0
  152.3196  140.5810  159.5174 C   0  0  1  0  0  0  0  0  0  0  0  0
  153.6746  140.0199  159.9666 C   0  0  1  0  0  0  0  0  0  0  0  0
  154.6717  139.0699  159.4061 C   0  0  0  0  0  0  0  0  0  0  0  0
  155.9435  139.8769  159.7760 C   0  0  0  0  0  0  0  0  0  0  0  0
  155.4757  141.1730  160.2276 O   0  0  0  0  0  0  0  0  0  0  0  0
  154.2487  141.3564  159.5471 C   0  0  2  0  0  0  0  0  0  0  0  0
  152.8995  141.9687  159.9935 C   0  0  0  0  0  0  0  0  0  0  0  0
  152.7635  142.3377  161.4853 C   0  0  0  0  0  0  0  0  0  0  0  0
  152.1703  143.7443  161.5845 C   0  0  0  0  0  0  0  0  0  0  0  0
  152.4970  144.3909  160.2466 C   0  0  0  0  0  0  0  0  0  0  0  0
  152.4290  143.2300  159.2590 C   0  0  0  0  0  0  0  0  0  0  0  0
  149.1535  141.6423  154.9560 C   0  0  0  0  0  0  0  0  0  0  0  0
  145.6720  143.7699  155.0534 H   0  0  0  0  0  0  0  0  0  0  0  0
  146.9237  143.0172  156.0383 H   0  0  0  0  0  0  0  0  0  0  0  0
  145.7490  142.0151  155.1863 H   0  0  0  0  0  0  0  0  0  0  0  0
  146.6837  142.8150  152.9805 H   0  0  0  0  0  0  0  0  0  0  0  0
  147.8478  143.8020  153.8261 H   0  0  0  0  0  0  0  0  0  0  0  0
  147.3357  140.8172  152.2944 H   0  0  0  0  0  0  0  0  0  0  0  0
  148.7834  138.8076  152.3501 H   0  0  0  0  0  0  0  0  0  0  0  0
  151.9170  140.2674  155.7364 H   0  0  0  0  0  0  0  0  0  0  0  0
  152.8876  140.3154  157.4932 H   0  0  0  0  0  0  0  0  0  0  0  0
  151.4800  140.2398  160.1252 H   0  0  0  0  0  0  0  0  0  0  0  0
  153.6485  139.9036  161.0550 H   0  0  0  0  0  0  0  0  0  0  0  0
  154.6396  138.0901  159.8832 H   0  0  0  0  0  0  0  0  0  0  0  0
  154.5684  138.9476  158.3274 H   0  0  0  0  0  0  0  0  0  0  0  0
  156.5148  139.3961  160.5706 H   0  0  0  0  0  0  0  0  0  0  0  0
  156.5962  139.9892  158.9095 H   0  0  0  0  0  0  0  0  0  0  0  0
  154.4212  141.4551  158.4705 H   0  0  0  0  0  0  0  0  0  0  0  0
  152.1457  141.6247  162.0325 H   0  0  0  0  0  0  0  0  0  0  0  0
  153.7428  142.3314  161.9653 H   0  0  0  0  0  0  0  0  0  0  0  0
  151.0878  143.6771  161.7017 H   0  0  0  0  0  0  0  0  0  0  0  0
  152.5622  144.3082  162.4315 H   0  0  0  0  0  0  0  0  0  0  0  0
  151.8162  145.2038  159.9922 H   0  0  0  0  0  0  0  0  0  0  0  0
  153.5100  144.7947  160.2701 H   0  0  0  0  0  0  0  0  0  0  0  0
  153.0203  143.4388  158.3668 H   0  0  0  0  0  0  0  0  0  0  0  0
  151.3965  143.1056  158.9299 H   0  0  0  0  0  0  0  0  0  0  0  0
  149.1579  142.5023  155.6063 H   0  0  0  0  0  0  0  0  0  0  0  0
  1  2  1  0  0  0  0
  1 25  1  0  0  0  0
  1 26  1  0  0  0  0
  1 27  1  0  0  0  0
  2  3  1  0  0  0  0
  2 28  1  0  0  0  0
  2 29  1  0  0  0  0
  3 24  1  0  0  0  0
  3  4  1  0  0  0  0
  4  5  2  0  0  0  0
  4 30  1  0  0  0  0
  5  6  1  0  0  0  0
  5 31  1  0  0  0  0
  6  7  2  0  0  0  0
  6  8  1  0  0  0  0
  8  9  1  0  0  0  0
  8 24  2  0  0  0  0
  9 10  1  0  0  0  0
  9 32  1  0  0  0  0
 10 11  2  0  0  0  0
 10 12  1  0  0  0  0
 12 13  1  0  0  0  0
 12 33  1  0  0  0  0
 13 19  1  0  0  0  0
 13 14  1  0  0  0  0
 13 34  1  0  0  0  0
 14 18  1  0  0  0  0
 14 15  1  0  0  0  0
 14 35  1  0  0  0  0
 15 16  1  0  0  0  0
 15 36  1  0  0  0  0
 15 37  1  0  0  0  0
 16 17  1  0  0  0  0
 16 38  1  0  0  0  0
 16 39  1  0  0  0  0
 17 18  1  0  0  0  0
 18 19  1  0  0  0  0
 18 40  1  0  0  0  0
 19 23  1  0  0  0  0
 19 20  1  0  0  0  0
 20 21  1  0  0  0  0
 20 41  1  0  0  0  0
 20 42  1  0  0  0  0
 21 22  1  0  0  0  0
 21 43  1  0  0  0  0
 21 44  1  0  0  0  0
 22 23  1  0  0  0  0
 22 45  1  0  0  0  0
 22 46  1  0  0  0  0
 23 47  1  0  0  0  0
 23 48  1  0  0  0  0
 24 49  1  0  0  0  0
M  END
> <s_m_source_file>
AV-unprocessed.smi

> <i_m_source_file_index>
2339

> <i_lp_mmshare_version>
43012

> <i_f3d_flags>
0

> <s_epik_input>
W0NIM11bQ0gyXW4xW2NIXVtjSF1jKD1PKWMoW2NIXTEpW05IXUMoPU8pW05IXVtDQEBIXTJbQ0BASF0oW0NIMl1bQ0gyXU8zKVtDQEBIXTNDMjRbQ0gyXVtDSDJdW0NIMl1bQ0gyXTQ=

> <s_epik_cmdline>
J2VwaWtfcHl0aG9uJywgJy1waCcsICc3LjAnLCAnLXRuJywgJzgnLCAnLW1hJywgJzIwMCcsICctbWV0YWxfYmluZGluZycsICctaW1hZScsICc8aW5maWxlLm1hZT4nLCAnLW9tYWUnLCAnPG91dGZpbGUubWFlPic=

> <r_lp_tautomer_probability>
1

> <r_epik_Ionization_Penalty>
0.00145966

> <r_epik_Ionization_Penalty_Charging>
0.00143969

> <r_epik_Ionization_Penalty_Neutral>
1.99697e-05

> <r_epik_State_Penalty>
0.000961843

> <r_epik_Charging_Adjusted_Penalty>
0.00240153

> <i_epik_Tot_Q>
0

> <i_epik_Tot_abs_Q>
0

> <r_epik_Metal_State_Penalty>
-0

> <b_epik_Metal_Only>
0

> <s_lp_Force_Field>
OPLS_2005

> <r_lp_Energy>
82.1358

> <b_lp_Chiralities_Consistent>
1

> <s_lp_Variant>
AV-unprocessed.smi:2339-6

> <Gold.Version>
5.8.1

> <Gold.Id.Protein>
6NUR|6NUR_protein|mol2

> <Gold.PLP.Fitness>
47.7649

> <Gold.PLP.PLP>
-45.9297

> <Gold.PLP.part.hbond>
-1.0000

> <Gold.PLP.part.metal>
0.0000

> <Gold.PLP.part.buried>
0.3343

> <Gold.PLP.part.nonpolar>
-45.2554

> <Gold.PLP.part.repulsive>
0.3888

> <Gold.PLP.ligand.clash>
0.0000

> <Gold.PLP.ligand.torsion>
0.7222

> <Gold.PLP.Chemscore.Hbond>
0.0000

> <Gold.PLP.Chemscore.CHOScore>
1.0000

> <Gold.PLP.Chemscore.Metal>
0.0000

> <Gold.Chemscore.Hbonds>
donor molecule, donor type, donor heavy atom, donor atom, acceptor molecule, acceptor atom, score
      L1  C    24    49       P1  8028  1.00

> <Gold.PLP.Chemscore.Internal.Correction>
0.2796

> <Gold.Rescore>
     Score         DG    S(hbond)    S(metal)    S(lipo)     H(rot)  DE(clash)    DE(int)     intcor
     15.58     -17.67       0.00        0.00     129.76       1.17       1.45       0.65       ----

> <Gold.Chemscore.Fitness>
15.5777

> <Gold.Chemscore.DG>
-17.6748

> <Gold.Chemscore.ZeroCoef>
-5.4800

> <Gold.Chemscore.Hbond>
0.0000

> <Gold.Chemscore.Metal>
0.0000

> <Gold.Chemscore.Lipo>
129.7626

> <Gold.Chemscore.Internal_Hbond>
0.0000

> <Gold.Chemscore.DEClash>
1.4451

> <Gold.Chemscore.DEInternal>
0.6519

> <Gold.Chemscore.Rot>
1.1670

> <Gold.Chemscore.Internal.Correction>
   9.000000E+99

> <Gold.Chemscore.Hbond.Weighted>
-0.0000

> <Gold.Chemscore.Metal.Weighted>
-0.0000

> <Gold.Chemscore.Lipo.Weighted>
-15.1822

> <Gold.Chemscore.Internal_Hbond.Weighted>
0.0000

> <Gold.Chemscore.DEClash.Weighted>
1.4451

> <Gold.Chemscore.DEInternal.Weighted>
0.6519

> <Gold.Chemscore.Rot.Weighted>
2.9874

> <Gold.Chemscore.Internal.Correction.Weighted>
   9.000000E+99

> <Gold.Protein.RotatedTorsions>
[ 6907 6896 6895 6894 ] final  -16.32 input  -60.11 | X-H torsion
[ 7974 7965 7964 7962 ] final  175.81 input  175.53 | X-H torsion
[ 8008 7997 7996 7995 ] final -104.47 input   59.86 | X-H torsion
[ 10167 10162 10161 10158 ] final   20.12 input  -65.29 | X-H torsion
[ 10718 10713 10712 10709 ] final -172.44 input   66.30 | X-H torsion
[ 10763 10752 10751 10750 ] final   23.29 input  -60.55 | X-H torsion
[ 11005 11000 10999 10996 ] final  -32.76 input  -57.11 | X-H torsion

> <Gold.Protein.ActiveResidues>
 VAL166  LYS551  ARG553  GLY616  TRP617  ASP618  TYR619  PRO620  LYS621  CYS622 
 ASP623  PHE694  ASN695  SER759  ASP760  ASP761  ALA762  ILE779  LEU786  VAL792 
 PHE793  MET794  SER795  GLU796  ALA797  LYS798  CYS799  TRP800  GLU811  SER814 

> <Gold.Protein.RotatedAtoms>
  151.3104  135.0792  159.9269 H   0  0  0  0  0  0  0  0  0  0  0  0  # atno 6907 bound_to 6896
  152.5279  133.9742  159.7786 H   0  0  0  0  0  0  0  0  0  0  0  0  # atno 6908 bound_to 6896
  151.0044  133.5973  159.2721 H   0  0  0  0  0  0  0  0  0  0  0  0  # atno 6909 bound_to 6896
  144.7195  140.0003  143.6440 H   0  0  0  0  0  0  0  0  0  0  0  0  # atno 7974 bound_to 7965
  154.8858  140.0417  157.1809 H   0  0  0  0  0  0  0  0  0  0  0  0  # atno 8008 bound_to 7997
  154.8592  140.2941  155.5529 H   0  0  0  0  0  0  0  0  0  0  0  0  # atno 8009 bound_to 7997
  156.2998  140.2450  156.3563 H   0  0  0  0  0  0  0  0  0  0  0  0  # atno 8010 bound_to 7997
  140.5527  143.9479  150.6589 H   0  0  0  0  0  0  0  0  0  0  0  0  # atno 10167 bound_to 10162
  156.7556  130.9394  151.3116 H   0  0  0  0  0  0  0  0  0  0  0  0  # atno 10718 bound_to 10713
  153.0849  135.6630  153.9969 H   0  0  0  0  0  0  0  0  0  0  0  0  # atno 10763 bound_to 10752
  153.9581  135.2977  155.3436 H   0  0  0  0  0  0  0  0  0  0  0  0  # atno 10764 bound_to 10752
  154.7255  135.5146  153.8952 H   0  0  0  0  0  0  0  0  0  0  0  0  # atno 10765 bound_to 10752
  140.9579  133.7182  156.1322 H   0  0  0  0  0  0  0  0  0  0  0  0  # atno 11005 bound_to 11000
  146.0341  139.3361  143.0737 LP  0  0  0  0  0  0  0  0  0  0  0  0  # atno 17320 bound_to 7965
  145.8416  140.9577  143.0796 LP  0  0  0  0  0  0  0  0  0  0  0  0  # atno 17321 bound_to 7965
  140.2910  143.3324  152.1063 LP  0  0  0  0  0  0  0  0  0  0  0  0  # atno 17342 bound_to 10162
  139.5034  144.6755  151.6138 LP  0  0  0  0  0  0  0  0  0  0  0  0  # atno 17343 bound_to 10162
  157.6757  130.9092  150.0145 LP  0  0  0  0  0  0  0  0  0  0  0  0  # atno 17370 bound_to 10713
  156.1372  130.3642  149.9638 LP  0  0  0  0  0  0  0  0  0  0  0  0  # atno 17371 bound_to 10713
  140.7510  134.4045  157.5541 LP  0  0  0  0  0  0  0  0  0  0  0  0  # atno 17394 bound_to 11000
  139.8868  134.8899  156.2563 LP  0  0  0  0  0  0  0  0  0  0  0  0  # atno 17395 bound_to 11000

$$$$
