AV-unprocessed.smi:2023|AV-procd|sdf|8190|dock3
  -GOLD-   2272010443D 1   1.00000     0.00000
 Structure written by MMmdl.
 34 35  0  0  0  0  0  0  0  0  2 V2000
  150.7317  139.7875  154.8500 O   0  0  0  0  0  0  0  0  0  0  0  0
  151.5933  139.2631  155.9222 S   0  0  0  0  0  0  0  0  0  0  0  0
  152.5528  138.2019  155.5746 O   0  0  0  0  0  0  0  0  0  0  0  0
  152.2419  140.4124  156.8613 N   0  5  0  0  0  0  0  0  0  0  0  0
  151.4031  141.4985  157.3357 C   0  0  0  0  0  0  0  0  0  0  0  0
  152.2779  142.6627  157.8494 C   0  0  0  0  0  0  0  0  0  0  0  0
  152.4918  142.6824  159.3597 C   0  0  0  0  0  0  0  0  0  0  0  0
  152.1371  143.8111  160.1300 C   0  0  0  0  0  0  0  0  0  0  0  0
  152.3429  143.7779  161.5224 C   0  0  0  0  0  0  0  0  0  0  0  0
  152.8937  142.6123  162.0907 C   0  0  0  0  0  0  0  0  0  0  0  0
  153.2309  141.5225  161.3689 N   0  0  0  0  0  0  0  0  0  0  0  0
  153.0323  141.5634  160.0334 C   0  0  0  0  0  0  0  0  0  0  0  0
  150.5194  138.5856  157.1078 N   0  0  0  0  0  0  0  0  0  0  0  0
  151.0950  138.2807  158.4287 C   0  0  0  0  0  0  0  0  0  0  0  0
  149.9973  137.9296  159.4460 C   0  0  0  0  0  0  0  0  0  0  0  0
  149.1868  136.8756  158.9505 O   0  0  0  0  0  0  0  0  0  0  0  0
  148.5198  137.2580  157.7578 C   0  0  0  0  0  0  0  0  0  0  0  0
  149.5440  137.5720  156.6562 C   0  0  0  0  0  0  0  0  0  0  0  0
  150.7342  141.8676  156.5576 H   0  0  0  0  0  0  0  0  0  0  0  0
  150.7578  141.1679  158.1499 H   0  0  0  0  0  0  0  0  0  0  0  0
  153.2556  142.6087  157.3695 H   0  0  0  0  0  0  0  0  0  0  0  0
  151.8486  143.6163  157.5386 H   0  0  0  0  0  0  0  0  0  0  0  0
  151.7158  144.6884  159.6617 H   0  0  0  0  0  0  0  0  0  0  0  0
  152.0848  144.6255  162.1397 H   0  0  0  0  0  0  0  0  0  0  0  0
  153.0646  142.5529  163.1554 H   0  0  0  0  0  0  0  0  0  0  0  0
  153.3138  140.6762  159.4852 H   0  0  0  0  0  0  0  0  0  0  0  0
  151.7929  137.4491  158.3243 H   0  0  0  0  0  0  0  0  0  0  0  0
  151.6657  139.1350  158.7919 H   0  0  0  0  0  0  0  0  0  0  0  0
  150.4482  137.6150  160.3870 H   0  0  0  0  0  0  0  0  0  0  0  0
  149.3818  138.8031  159.6672 H   0  0  0  0  0  0  0  0  0  0  0  0
  147.8698  136.4427  157.4400 H   0  0  0  0  0  0  0  0  0  0  0  0
  147.8769  138.1196  157.9453 H   0  0  0  0  0  0  0  0  0  0  0  0
  149.0193  137.9145  155.7652 H   0  0  0  0  0  0  0  0  0  0  0  0
  150.0827  136.6657  156.3778 H   0  0  0  0  0  0  0  0  0  0  0  0
  1  2  2  0  0  0  0
  2  3  2  0  0  0  0
  2  4  1  0  0  0  0
  2 13  1  0  0  0  0
  4  5  1  0  0  0  0
  5  6  1  0  0  0  0
  5 19  1  0  0  0  0
  5 20  1  0  0  0  0
  6  7  1  0  0  0  0
  6 21  1  0  0  0  0
  6 22  1  0  0  0  0
  7 12  1  0  0  0  0
  7  8  2  0  0  0  0
  8  9  1  0  0  0  0
  8 23  1  0  0  0  0
  9 10  2  0  0  0  0
  9 24  1  0  0  0  0
 10 11  1  0  0  0  0
 10 25  1  0  0  0  0
 11 12  2  0  0  0  0
 12 26  1  0  0  0  0
 13 18  1  0  0  0  0
 13 14  1  0  0  0  0
 14 15  1  0  0  0  0
 14 27  1  0  0  0  0
 14 28  1  0  0  0  0
 15 16  1  0  0  0  0
 15 29  1  0  0  0  0
 15 30  1  0  0  0  0
 16 17  1  0  0  0  0
 17 18  1  0  0  0  0
 17 31  1  0  0  0  0
 17 32  1  0  0  0  0
 18 33  1  0  0  0  0
 18 34  1  0  0  0  0
M  CHG  1   4  -1
M  END
> <s_m_source_file>
AV-unprocessed.smi

> <i_m_source_file_index>
2023

> <i_lp_mmshare_version>
43012

> <i_f3d_flags>
0

> <s_epik_input>
W0NIMl0xW0NIMl1PW0NIMl1bQ0gyXU4xUyg9TykoPU8pW05IXVtDSDJdW0NIMl1jMltjSF1bY0hdW2NIXW5bY0hdMg==

> <s_epik_cmdline>
J2VwaWtfcHl0aG9uJywgJy1waCcsICc3LjAnLCAnLXRuJywgJzgnLCAnLW1hJywgJzIwMCcsICctbWV0YWxfYmluZGluZycsICctaW1hZScsICc8aW5maWxlLm1hZT4nLCAnLW9tYWUnLCAnPG91dGZpbGUubWFlPic=

> <r_epik_Ionization_Penalty>
1.23471

> <r_epik_Ionization_Penalty_Charging>
1.20871

> <r_epik_Ionization_Penalty_Neutral>
0.025996

> <r_epik_State_Penalty>
1.46261

> <r_epik_Charging_Adjusted_Penalty>
2.67132

> <i_epik_Tot_Q>
-1

> <i_epik_Tot_abs_Q>
1

> <r_epik_Metal_State_Penalty>
0.521406

> <b_epik_Metal_Only>
0

> <s_lp_Force_Field>
OPLS_2005

> <r_lp_Energy>
4.19534

> <b_lp_Chiralities_Consistent>
1

> <s_lp_Variant>
AV-unprocessed.smi:2023-2

> <Gold.Version>
5.8.1

> <Gold.Id.Protein>
6NUR|6NUR_protein|mol2

> <Gold.PLP.Fitness>
42.1838

> <Gold.PLP.PLP>
-31.5434

> <Gold.PLP.part.hbond>
-3.0000

> <Gold.PLP.part.metal>
0.0000

> <Gold.PLP.part.buried>
-3.7035

> <Gold.PLP.part.nonpolar>
-24.0957

> <Gold.PLP.part.repulsive>
0.0629

> <Gold.PLP.ligand.clash>
0.0000

> <Gold.PLP.ligand.torsion>
1.1633

> <Gold.PLP.Chemscore.Hbond>
3.8080

> <Gold.PLP.Chemscore.CHOScore>
0.0000

> <Gold.PLP.Chemscore.Metal>
0.0000

> <Gold.Chemscore.Hbonds>
donor molecule, donor type, donor heavy atom, donor atom, acceptor molecule, acceptor atom, score
      P1  H  7989  7998       L1     1  1.00
      P1  H  7997  8009       L1     4  1.32

> <Gold.PLP.Chemscore.Internal.Correction>
1.5428

> <Gold.Rescore>
     Score         DG    S(hbond)    S(metal)    S(lipo)     H(rot)  DE(clash)    DE(int)     intcor
     15.55     -18.88       2.03        0.00      90.75       1.56       2.13       1.19       ----

> <Gold.Chemscore.Fitness>
15.5513

> <Gold.Chemscore.DG>
-18.8766

> <Gold.Chemscore.ZeroCoef>
-5.4800

> <Gold.Chemscore.Hbond>
2.0300

> <Gold.Chemscore.Metal>
0.0000

> <Gold.Chemscore.Lipo>
90.7479

> <Gold.Chemscore.Internal_Hbond>
0.0000

> <Gold.Chemscore.DEClash>
2.1319

> <Gold.Chemscore.DEInternal>
1.1934

> <Gold.Chemscore.Rot>
1.5630

> <Gold.Chemscore.Internal.Correction>
   9.000000E+99

> <Gold.Chemscore.Hbonds>
donor molecule, donor type, donor heavy atom, donor atom, acceptor molecule, acceptor atom, score
      P1  H  7989  7998       L1     1  0.92
      P1  H  7997  8009       L1     4  0.25

> <Gold.Chemscore.Hbond.Weighted>
-6.7803

> <Gold.Chemscore.Metal.Weighted>
-0.0000

> <Gold.Chemscore.Lipo.Weighted>
-10.6175

> <Gold.Chemscore.Internal_Hbond.Weighted>
0.0000

> <Gold.Chemscore.DEClash.Weighted>
2.1319

> <Gold.Chemscore.DEInternal.Weighted>
1.1934

> <Gold.Chemscore.Rot.Weighted>
4.0013

> <Gold.Chemscore.Internal.Correction.Weighted>
   9.000000E+99

> <Gold.Protein.RotatedTorsions>
[ 6907 6896 6895 6894 ] final -178.86 input  -60.11 | X-H torsion
[ 7974 7965 7964 7962 ] final  112.25 input  175.53 | X-H torsion
[ 8008 7997 7996 7995 ] final -177.90 input   59.86 | X-H torsion
[ 10167 10162 10161 10158 ] final   40.44 input  -65.29 | X-H torsion
[ 10718 10713 10712 10709 ] final -163.79 input   66.30 | X-H torsion
[ 10763 10752 10751 10750 ] final  -56.24 input  -60.55 | X-H torsion
[ 11005 11000 10999 10996 ] final  -79.71 input  -57.11 | X-H torsion

> <Gold.Protein.ActiveResidues>
 VAL166  LYS551  ARG553  GLY616  TRP617  ASP618  TYR619  PRO620  LYS621  CYS622 
 ASP623  PHE694  ASN695  SER759  ASP760  ASP761  ALA762  ILE779  LEU786  VAL792 
 PHE793  MET794  SER795  GLU796  ALA797  LYS798  CYS799  TRP800  GLU811  SER814 

> <Gold.Protein.RotatedAtoms>
  151.6441  133.3324  159.3136 H   0  0  0  0  0  0  0  0  0  0  0  0  # atno 6907 bound_to 6896
  150.7993  134.7079  159.6596 H   0  0  0  0  0  0  0  0  0  0  0  0  # atno 6908 bound_to 6896
  152.4083  134.6172  160.0093 H   0  0  0  0  0  0  0  0  0  0  0  0  # atno 6909 bound_to 6896
  145.2320  139.2815  143.4163 H   0  0  0  0  0  0  0  0  0  0  0  0  # atno 7974 bound_to 7965
  156.0124  140.1243  157.0440 H   0  0  0  0  0  0  0  0  0  0  0  0  # atno 8008 bound_to 7997
  154.4281  140.1085  156.5918 H   0  0  0  0  0  0  0  0  0  0  0  0  # atno 8009 bound_to 7997
  155.6061  140.3471  155.4610 H   0  0  0  0  0  0  0  0  0  0  0  0  # atno 8010 bound_to 7997
  140.3741  144.2066  150.6132 H   0  0  0  0  0  0  0  0  0  0  0  0  # atno 10167 bound_to 10162
  156.6297  130.8925  151.2975 H   0  0  0  0  0  0  0  0  0  0  0  0  # atno 10718 bound_to 10713
  154.2034  135.6407  153.5094 H   0  0  0  0  0  0  0  0  0  0  0  0  # atno 10763 bound_to 10752
  153.0006  135.5457  154.6291 H   0  0  0  0  0  0  0  0  0  0  0  0  # atno 10764 bound_to 10752
  154.5710  135.2917  155.0801 H   0  0  0  0  0  0  0  0  0  0  0  0  # atno 10765 bound_to 10752
  141.1667  133.7118  156.8164 H   0  0  0  0  0  0  0  0  0  0  0  0  # atno 11005 bound_to 11000
  146.3350  140.2657  142.8604 LP  0  0  0  0  0  0  0  0  0  0  0  0  # atno 17320 bound_to 7965
  144.9668  140.8329  143.5480 LP  0  0  0  0  0  0  0  0  0  0  0  0  # atno 17321 bound_to 7965
  140.5004  143.2320  151.8687 LP  0  0  0  0  0  0  0  0  0  0  0  0  # atno 17342 bound_to 10162
  139.4801  144.5066  151.8989 LP  0  0  0  0  0  0  0  0  0  0  0  0  # atno 17343 bound_to 10162
  157.7203  130.9550  150.1414 LP  0  0  0  0  0  0  0  0  0  0  0  0  # atno 17370 bound_to 10713
  156.2244  130.3676  149.8518 LP  0  0  0  0  0  0  0  0  0  0  0  0  # atno 17371 bound_to 10713
  140.2151  134.8799  157.3316 LP  0  0  0  0  0  0  0  0  0  0  0  0  # atno 17394 bound_to 11000
  140.2046  134.4212  155.7644 LP  0  0  0  0  0  0  0  0  0  0  0  0  # atno 17395 bound_to 11000

$$$$
