#       Name:                AV-unprocessed.smi:49
#       Creating user name   scv26
#       Creation time:       Thu Mar 26 16:33:50 2020


#       File generated by GOLD software.
#

@<TRIPOS>MOLECULE
AV-unprocessed.smi:49
    32    33     1
SMALL
NO_CHARGES


@<TRIPOS>ATOM
      1 ****        -3.7047   1.1373  -1.9776 C.3            1 S1                 0.0000
      2 ****        -3.3449  -0.2029  -1.3267 C.3            1 S1                 0.0000
      3 ****        -1.8717  -0.4445  -1.3070 C.2            1 S1                 0.0000
      4 ****        -1.0641  -0.0102  -0.2927 N.2            1 S1                 0.0000
      5 ****         0.1224  -0.4136  -0.7435 C.2            1 S1                 0.0000
      6 ****         1.4379  -0.2419  -0.0439 C.3            1 S1                 0.0000
      7 ****         1.6627  -1.1750   1.1477 C.3            1 S1                 0.0000
      8 ****         2.5360  -0.3228   2.0633 C.3            1 S1                 0.0000
      9 ****         2.4700  -0.7481   3.4077 O.3            1 S1                 0.0000
     10 ****         1.9707   1.0897   1.8738 C.3            1 S1                 0.0000
     11 ****         1.4163   1.1302   0.5054 N.4            1 S1                 1.0000
     12 ****         0.0312  -1.0301  -1.9242 N.pl3          1 S1                 0.0000
     13 ****        -1.2583  -1.0522  -2.3209 N.2            1 S1                 0.0000
     14 ****         2.2624  -0.3212  -0.7541 H              1 S1                 0.0000
     15 ****         3.5711  -0.3559   1.7205 H              1 S1                 0.0000
     16 ****         0.7813  -1.4274  -2.4719 H              1 S1                 0.0000
     17 ****        -4.7845   1.2884  -1.9837 H              1 S1                 0.0000
     18 ****        -3.3568   1.1798  -3.0102 H              1 S1                 0.0000
     19 ****        -3.2548   1.9705  -1.4370 H              1 S1                 0.0000
     20 ****        -3.7242  -0.2317  -0.3046 H              1 S1                 0.0000
     21 ****        -3.8358  -1.0173  -1.8612 H              1 S1                 0.0000
     22 ****         0.7129  -1.3850   1.6435 H              1 S1                 0.0000
     23 ****         2.1139  -2.1279   0.8689 H              1 S1                 0.0000
     24 ****         2.8187  -1.6249   3.4671 H              1 S1                 0.0000
     25 ****         1.1510   1.2747   2.5698 H              1 S1                 0.0000
     26 ****         2.7231   1.8636   2.0272 H              1 S1                 0.0000
     27 ****         1.9584   1.7452  -0.0844 H              1 S1                 0.0000
     28 ****         0.4602   1.4544   0.5498 H              1 S1                 0.0000
     29 ****        -1.2984   0.4740   0.5503 LP             1 S1                 0.0000
     30 ****         1.5186  -0.7432   3.7155 LP             1 S1                 0.0000
     31 ****         3.0093  -0.1323   3.9819 LP             1 S1                 0.0000
     32 ****        -1.6519  -1.4280  -3.1599 LP             1 S1                 0.0000
@<TRIPOS>BOND
    1    1    2 1     
    2    1   17 1     
    3    1   18 1     
    4    1   19 1     
    5    2   20 1     
    6    2   21 1     
    7    2    3 1     
    8    3    4 1     
    9    3   13 2     
   10    4    5 2     
   11    5    6 1     
   12    5   12 1     
   13    6   14 1     
   14    6   11 1     
   15    6    7 1     
   16    7    8 1     
   17    7   22 1     
   18    7   23 1     
   19    8   15 1     
   20    8    9 1     
   21    8   10 1     
   22    9   24 1     
   23   10   11 1     
   24   10   25 1     
   25   10   26 1     
   26   11   27 1     
   27   11   28 1     
   28   12   13 1     
   29   12   16 1     
   30    4   29 1     
   31    9   30 1     
   32    9   31 1     
   33   13   32 1     
@<TRIPOS>SUBSTRUCTURE
      1 S1             1
@<TRIPOS>SET
LONE_PAIRS      STATIC     ATOMS    <user>   **** ""
4 29 30 31 32
DONOR_HYDROGENS      STATIC     ATOMS    <user>   **** ""
4 24 27 28 16
ATOM$BLUE        STATIC     ATOMS    COLORGROUP SYSTEM
4 29 30 31 32
ATOM$RED        STATIC     ATOMS    COLORGROUP SYSTEM
4 24 27 28 16
