AV-unprocessed.smi:1381|AV-procd|sdf|5605|dock3
  -GOLD-   22720 5213D 1   1.00000     0.00000
 Structure written by MMmdl.
 43 44  0  0  0  0  0  0  0  0  2 V2000
  150.2607  142.1190  157.7828 C   0  0  0  0  0  0  0  0  0  0  0  0
  150.1586  141.3236  156.5267 C   0  0  0  0  0  0  0  0  0  0  0  0
  149.1056  140.9770  155.7276 C   0  0  0  0  0  0  0  0  0  0  0  0
  149.7212  140.2119  154.7017 C   0  0  0  0  0  0  0  0  0  0  0  0
  148.9523  139.6544  153.6483 N   0  0  0  0  0  0  0  0  0  0  0  0
  147.7923  138.9833  153.7493 C   0  0  0  0  0  0  0  0  0  0  0  0
  147.1985  138.7445  154.8015 O   0  0  0  0  0  0  0  0  0  0  0  0
  147.3453  138.5925  152.5470 N   0  0  0  0  0  0  0  0  0  0  0  0
  146.1088  137.8531  152.3212 C   0  0  0  0  0  0  0  0  0  0  0  0
  146.0217  136.6069  153.2232 C   0  0  0  0  0  0  0  0  0  0  0  0
  146.6903  135.4257  152.6230 N   0  3  1  0  0  0  0  0  0  0  0  0
  147.2217  134.4966  153.6483 C   0  0  0  0  0  0  0  0  0  0  0  0
  147.9572  133.3183  152.9827 C   0  0  1  0  0  0  0  0  0  0  0  0
  148.4572  132.2951  154.0086 C   0  0  0  0  0  0  0  0  0  0  0  0
  147.0642  132.6569  152.0935 O   0  0  0  0  0  0  0  0  0  0  0  0
  146.6066  133.5051  151.0462 C   0  0  1  0  0  0  0  0  0  0  0  0
  145.7307  132.6715  150.1045 C   0  0  0  0  0  0  0  0  0  0  0  0
  145.8363  134.6911  151.6570 C   0  0  0  0  0  0  0  0  0  0  0  0
  151.0314  140.1028  154.8589 N   0  0  0  0  0  0  0  0  0  0  0  0
  151.3184  140.8140  156.0300 O   0  0  0  0  0  0  0  0  0  0  0  0
  149.3111  142.6003  158.0171 H   0  0  0  0  0  0  0  0  0  0  0  0
  151.0191  142.8962  157.6881 H   0  0  0  0  0  0  0  0  0  0  0  0
  150.5323  141.4802  158.6231 H   0  0  0  0  0  0  0  0  0  0  0  0
  148.0643  141.2308  155.8596 H   0  0  0  0  0  0  0  0  0  0  0  0
  149.3256  139.7825  152.7196 H   0  0  0  0  0  0  0  0  0  0  0  0
  147.8924  138.8307  151.7323 H   0  0  0  0  0  0  0  0  0  0  0  0
  145.2620  138.5218  152.4782 H   0  0  0  0  0  0  0  0  0  0  0  0
  146.0786  137.5553  151.2729 H   0  0  0  0  0  0  0  0  0  0  0  0
  146.5010  136.8451  154.1740 H   0  0  0  0  0  0  0  0  0  0  0  0
  144.9851  136.3588  153.4560 H   0  0  0  0  0  0  0  0  0  0  0  0
  147.9072  135.0299  154.3083 H   0  0  0  0  0  0  0  0  0  0  0  0
  146.4008  134.1297  154.2671 H   0  0  0  0  0  0  0  0  0  0  0  0
  148.8145  133.6907  152.4190 H   0  0  0  0  0  0  0  0  0  0  0  0
  149.1549  132.7516  154.7113 H   0  0  0  0  0  0  0  0  0  0  0  0
  148.9742  131.4708  153.5167 H   0  0  0  0  0  0  0  0  0  0  0  0
  147.6312  131.8741  154.5828 H   0  0  0  0  0  0  0  0  0  0  0  0
  147.4652  133.8754  150.4832 H   0  0  0  0  0  0  0  0  0  0  0  0
  145.3632  133.2742  149.2737 H   0  0  0  0  0  0  0  0  0  0  0  0
  144.8667  132.2610  150.6282 H   0  0  0  0  0  0  0  0  0  0  0  0
  146.2933  131.8368  149.6858 H   0  0  0  0  0  0  0  0  0  0  0  0
  144.9378  134.3344  152.1637 H   0  0  0  0  0  0  0  0  0  0  0  0
  145.5082  135.3554  150.8585 H   0  0  0  0  0  0  0  0  0  0  0  0
  147.4895  135.7718  152.1116 H   0  0  0  0  0  0  0  0  0  0  0  0
  1  2  1  0  0  0  0
  1 21  1  0  0  0  0
  1 22  1  0  0  0  0
  1 23  1  0  0  0  0
  2 20  1  0  0  0  0
  2  3  2  0  0  0  0
  3  4  1  0  0  0  0
  3 24  1  0  0  0  0
  4  5  1  0  0  0  0
  4 19  2  0  0  0  0
  5  6  1  0  0  0  0
  5 25  1  0  0  0  0
  6  7  2  0  0  0  0
  6  8  1  0  0  0  0
  8  9  1  0  0  0  0
  8 26  1  0  0  0  0
  9 10  1  0  0  0  0
  9 27  1  0  0  0  0
  9 28  1  0  0  0  0
 10 11  1  0  0  0  0
 10 29  1  0  0  0  0
 10 30  1  0  0  0  0
 11 18  1  0  0  0  0
 11 12  1  0  0  0  0
 11 43  1  0  0  0  0
 12 13  1  0  0  0  0
 12 31  1  0  0  0  0
 12 32  1  0  0  0  0
 13 14  1  0  0  0  0
 13 15  1  0  0  0  0
 13 33  1  0  0  0  0
 14 34  1  0  0  0  0
 14 35  1  0  0  0  0
 14 36  1  0  0  0  0
 15 16  1  0  0  0  0
 16 17  1  0  0  0  0
 16 18  1  0  0  0  0
 16 37  1  0  0  0  0
 17 38  1  0  0  0  0
 17 39  1  0  0  0  0
 17 40  1  0  0  0  0
 18 41  1  0  0  0  0
 18 42  1  0  0  0  0
 19 20  1  0  0  0  0
M  CHG  1  11   1
M  END
> <s_m_source_file>
AV-unprocessed.smi

> <i_m_source_file_index>
1381

> <i_lp_mmshare_version>
43012

> <i_f3d_flags>
0

> <s_epik_input>
W0NIM11jMVtjSF1jKG5vMSlbTkhdQyg9TylbTkhdW0NIMl1bQ0gyXU4yW0NIMl1bQ0BASF0oW0NIM10pT1tDQEBIXShbQ0gzXSlbQ0gyXTI=

> <s_epik_cmdline>
J2VwaWtfcHl0aG9uJywgJy1waCcsICc3LjAnLCAnLXRuJywgJzgnLCAnLW1hJywgJzIwMCcsICctbWV0YWxfYmluZGluZycsICctaW1hZScsICc8aW5maWxlLm1hZT4nLCAnLW9tYWUnLCAnPG91dGZpbGUubWFlPic=

> <r_epik_Ionization_Penalty>
0.707076

> <r_epik_Ionization_Penalty_Charging>
0.707039

> <r_epik_Ionization_Penalty_Neutral>
3.6548e-05

> <r_epik_State_Penalty>
0.730276

> <r_epik_Charging_Adjusted_Penalty>
1.43732

> <i_epik_Tot_Q>
1

> <i_epik_Tot_abs_Q>
1

> <r_epik_Metal_State_Penalty>
0.743132

> <b_epik_Metal_Only>
0

> <s_lp_Force_Field>
OPLS_2005

> <r_lp_Energy>
11.2606

> <b_lp_Chiralities_Consistent>
1

> <s_lp_Variant>
AV-unprocessed.smi:1381-4

> <Gold.Version>
5.8.1

> <Gold.Id.Protein>
6NUR|6NUR_protein|mol2

> <Gold.PLP.Fitness>
44.7181

> <Gold.PLP.PLP>
-32.0153

> <Gold.PLP.part.hbond>
-4.9185

> <Gold.PLP.part.metal>
0.0000

> <Gold.PLP.part.buried>
-4.0325

> <Gold.PLP.part.nonpolar>
-24.2901

> <Gold.PLP.part.repulsive>
0.5214

> <Gold.PLP.ligand.clash>
0.0000

> <Gold.PLP.ligand.torsion>
0.8805

> <Gold.PLP.Chemscore.Hbond>
4.8160

> <Gold.PLP.Chemscore.CHOScore>
0.0000

> <Gold.PLP.Chemscore.Metal>
0.0000

> <Gold.Chemscore.Hbonds>
donor molecule, donor type, donor heavy atom, donor atom, acceptor molecule, acceptor atom, score
      L1  H     5    25       P1  7957  1.00
      L1  H     8    26       P1  7957  0.62
      L1  H    11    43       P1  7948  1.98
      P1  H  7989  7998       L1    19  1.00

> <Gold.PLP.Chemscore.Internal.Correction>
0.0158

> <Gold.Rescore>
     Score         DG    S(hbond)    S(metal)    S(lipo)     H(rot)  DE(clash)    DE(int)     intcor
     17.02     -19.29       3.24        0.00      60.57       1.61       0.08       2.19       ----

> <Gold.Chemscore.Fitness>
17.0199

> <Gold.Chemscore.DG>
-19.2863

> <Gold.Chemscore.ZeroCoef>
-5.4800

> <Gold.Chemscore.Hbond>
3.2445

> <Gold.Chemscore.Metal>
0.0000

> <Gold.Chemscore.Lipo>
60.5684

> <Gold.Chemscore.Internal_Hbond>
0.0000

> <Gold.Chemscore.DEClash>
0.0798

> <Gold.Chemscore.DEInternal>
2.1866

> <Gold.Chemscore.Rot>
1.6081

> <Gold.Chemscore.Internal.Correction>
   9.000000E+99

> <Gold.Chemscore.Hbonds>
donor molecule, donor type, donor heavy atom, donor atom, acceptor molecule, acceptor atom, score
      L1  H     5    25       P1  7957  0.99
      L1  H     8    26       P1  7957  0.53
      L1  H    11    43       P1  7948  0.93
      P1  H  7989  7998       L1    19  0.33

> <Gold.Chemscore.Hbond.Weighted>
-10.8365

> <Gold.Chemscore.Metal.Weighted>
-0.0000

> <Gold.Chemscore.Lipo.Weighted>
-7.0865

> <Gold.Chemscore.Internal_Hbond.Weighted>
0.0000

> <Gold.Chemscore.DEClash.Weighted>
0.0798

> <Gold.Chemscore.DEInternal.Weighted>
2.1866

> <Gold.Chemscore.Rot.Weighted>
4.1167

> <Gold.Chemscore.Internal.Correction.Weighted>
   9.000000E+99

> <Gold.Protein.RotatedTorsions>
[ 6907 6896 6895 6894 ] final -131.46 input  -60.11 | X-H torsion
[ 7974 7965 7964 7962 ] final   93.90 input  175.53 | X-H torsion
[ 8008 7997 7996 7995 ] final  117.48 input   59.86 | X-H torsion
[ 10167 10162 10161 10158 ] final   43.64 input  -65.29 | X-H torsion
[ 10718 10713 10712 10709 ] final  150.92 input   66.30 | X-H torsion
[ 10763 10752 10751 10750 ] final  -64.17 input  -60.55 | X-H torsion
[ 11005 11000 10999 10996 ] final  117.98 input  -57.11 | X-H torsion

> <Gold.Protein.ActiveResidues>
 VAL166  LYS551  ARG553  GLY616  TRP617  ASP618  TYR619  PRO620  LYS621  CYS622 
 ASP623  PHE694  ASN695  SER759  ASP760  ASP761  ALA762  ILE779  LEU786  VAL792 
 PHE793  MET794  SER795  GLU796  ALA797  LYS798  CYS799  TRP800  GLU811  SER814 

> <Gold.Protein.RotatedAtoms>
  150.9512  133.6547  159.2771 H   0  0  0  0  0  0  0  0  0  0  0  0  # atno 6907 bound_to 6896
  151.3902  135.0953  159.9533 H   0  0  0  0  0  0  0  0  0  0  0  0  # atno 6908 bound_to 6896
  152.5111  133.9029  159.7504 H   0  0  0  0  0  0  0  0  0  0  0  0  # atno 6909 bound_to 6896
  145.4728  139.2281  143.2926 H   0  0  0  0  0  0  0  0  0  0  0  0  # atno 7974 bound_to 7965
  156.2496  140.2895  156.0685 H   0  0  0  0  0  0  0  0  0  0  0  0  # atno 8008 bound_to 7997
  155.1697  140.0401  157.2877 H   0  0  0  0  0  0  0  0  0  0  0  0  # atno 8009 bound_to 7997
  154.6334  140.2505  155.7413 H   0  0  0  0  0  0  0  0  0  0  0  0  # atno 8010 bound_to 7997
  140.3423  144.2454  150.6154 H   0  0  0  0  0  0  0  0  0  0  0  0  # atno 10167 bound_to 10162
  157.2773  131.0828  151.1557 H   0  0  0  0  0  0  0  0  0  0  0  0  # atno 10718 bound_to 10713
  154.3261  135.6186  153.5529 H   0  0  0  0  0  0  0  0  0  0  0  0  # atno 10763 bound_to 10752
  152.9815  135.5735  154.5015 H   0  0  0  0  0  0  0  0  0  0  0  0  # atno 10764 bound_to 10752
  154.4693  135.2858  155.1632 H   0  0  0  0  0  0  0  0  0  0  0  0  # atno 10765 bound_to 10752
  139.9093  134.9616  156.7433 H   0  0  0  0  0  0  0  0  0  0  0  0  # atno 11005 bound_to 11000
  146.2387  140.5507  142.8943 LP  0  0  0  0  0  0  0  0  0  0  0  0  # atno 17320 bound_to 7965
  144.7935  140.6078  143.6525 LP  0  0  0  0  0  0  0  0  0  0  0  0  # atno 17321 bound_to 7965
  140.5297  143.2246  151.8258 LP  0  0  0  0  0  0  0  0  0  0  0  0  # atno 17342 bound_to 10162
  139.4838  144.4736  151.9395 LP  0  0  0  0  0  0  0  0  0  0  0  0  # atno 17343 bound_to 10162
  157.3005  130.6840  149.6161 LP  0  0  0  0  0  0  0  0  0  0  0  0  # atno 17370 bound_to 10713
  155.9664  130.4393  150.5255 LP  0  0  0  0  0  0  0  0  0  0  0  0  # atno 17371 bound_to 10713
  140.6832  133.9456  155.7922 LP  0  0  0  0  0  0  0  0  0  0  0  0  # atno 17394 bound_to 11000
  141.0495  134.0505  157.3801 LP  0  0  0  0  0  0  0  0  0  0  0  0  # atno 17395 bound_to 11000

$$$$
