AV-unprocessed.smi:3047|AV-procd|sdf|11623|dock10
  -GOLD-   2272017 13D 1   1.00000     0.00000
 Structure written by MMmdl.
 37 38  0  0  0  0  0  0  0  0  1 V2000
  148.0775  132.8269  159.5238 C   0  0  0  0  0  0  0  0  0  0  0  0
  148.2378  134.1471  158.2544 S   0  0  0  0  0  0  0  0  0  0  0  0
  146.8991  134.6980  157.9930 O   0  0  0  0  0  0  0  0  0  0  0  0
  149.3411  135.0457  158.6267 O   0  0  0  0  0  0  0  0  0  0  0  0
  148.7236  133.2672  156.8460 N   0  0  0  0  0  0  0  0  0  0  0  0
  149.8560  132.3360  156.9460 C   0  0  0  0  0  0  0  0  0  0  0  0
  150.4152  132.2126  155.5307 C   0  0  0  0  0  0  0  0  0  0  0  0
  150.0988  133.5690  154.9155 C   0  0  0  0  0  0  0  0  0  0  0  0
  148.7552  133.9657  155.5512 C   0  0  1  0  0  0  0  0  0  0  0  0
  147.5430  133.6265  154.6724 C   0  0  0  0  0  0  0  0  0  0  0  0
  146.6469  132.8937  155.0933 O   0  0  0  0  0  0  0  0  0  0  0  0
  147.5206  134.1842  153.4521 N   0  0  0  0  0  0  0  0  0  0  0  0
  146.4496  134.0213  152.4769 C   0  0  0  0  0  0  0  0  0  0  0  0
  146.3667  132.5766  151.9569 C   0  0  0  0  0  0  0  0  0  0  0  0
  145.3916  132.4525  150.8928 N   0  0  0  0  0  0  0  0  0  0  0  0
  144.0199  132.6456  150.9901 C   0  0  0  0  0  0  0  0  0  0  0  0
  143.5022  132.4237  149.7340 C   0  0  0  0  0  0  0  0  0  0  0  0
  144.5311  132.0945  148.8542 N   0  0  0  0  0  0  0  0  0  0  0  0
  145.6197  132.1317  149.6119 C   0  0  0  0  0  0  0  0  0  0  0  0
  147.7412  133.2669  160.4621 H   0  0  0  0  0  0  0  0  0  0  0  0
  149.0422  132.3442  159.6777 H   0  0  0  0  0  0  0  0  0  0  0  0
  147.3498  132.0876  159.1894 H   0  0  0  0  0  0  0  0  0  0  0  0
  150.6127  132.7531  157.6115 H   0  0  0  0  0  0  0  0  0  0  0  0
  149.5353  131.3762  157.3513 H   0  0  0  0  0  0  0  0  0  0  0  0
  151.4800  131.9790  155.5155 H   0  0  0  0  0  0  0  0  0  0  0  0
  149.8897  131.4245  154.9897 H   0  0  0  0  0  0  0  0  0  0  0  0
  150.8648  134.2912  155.2013 H   0  0  0  0  0  0  0  0  0  0  0  0
  150.0779  133.5342  153.8252 H   0  0  0  0  0  0  0  0  0  0  0  0
  148.7635  135.0439  155.7217 H   0  0  0  0  0  0  0  0  0  0  0  0
  148.2899  134.7844  153.1910 H   0  0  0  0  0  0  0  0  0  0  0  0
  145.4986  134.3270  152.9170 H   0  0  0  0  0  0  0  0  0  0  0  0
  146.6409  134.7043  151.6488 H   0  0  0  0  0  0  0  0  0  0  0  0
  147.3375  132.2478  151.5833 H   0  0  0  0  0  0  0  0  0  0  0  0
  146.0855  131.8915  152.7579 H   0  0  0  0  0  0  0  0  0  0  0  0
  143.5398  132.9184  151.9185 H   0  0  0  0  0  0  0  0  0  0  0  0
  142.4770  132.4755  149.3981 H   0  0  0  0  0  0  0  0  0  0  0  0
  146.6061  131.9212  149.2249 H   0  0  0  0  0  0  0  0  0  0  0  0
  1  2  1  0  0  0  0
  1 20  1  0  0  0  0
  1 21  1  0  0  0  0
  1 22  1  0  0  0  0
  2  3  2  0  0  0  0
  2  4  2  0  0  0  0
  2  5  1  0  0  0  0
  5  9  1  0  0  0  0
  5  6  1  0  0  0  0
  6  7  1  0  0  0  0
  6 23  1  0  0  0  0
  6 24  1  0  0  0  0
  7  8  1  0  0  0  0
  7 25  1  0  0  0  0
  7 26  1  0  0  0  0
  8  9  1  0  0  0  0
  8 27  1  0  0  0  0
  8 28  1  0  0  0  0
  9 10  1  0  0  0  0
  9 29  1  0  0  0  0
 10 11  2  0  0  0  0
 10 12  1  0  0  0  0
 12 13  1  0  0  0  0
 12 30  1  0  0  0  0
 13 14  1  0  0  0  0
 13 31  1  0  0  0  0
 13 32  1  0  0  0  0
 14 15  1  0  0  0  0
 14 33  1  0  0  0  0
 14 34  1  0  0  0  0
 15 19  1  0  0  0  0
 15 16  1  0  0  0  0
 16 17  2  0  0  0  0
 16 35  1  0  0  0  0
 17 18  1  0  0  0  0
 17 36  1  0  0  0  0
 18 19  2  0  0  0  0
 19 37  1  0  0  0  0
M  END
> <s_m_source_file>
AV-unprocessed.smi

> <i_m_source_file_index>
3047

> <i_lp_mmshare_version>
43012

> <i_f3d_flags>
0

> <s_epik_input>
W0NIM11TKD1PKSg9TylOMVtDSDJdW0NIMl1bQ0gyXVtDQEhdMUMoPU8pW05IXVtDSDJdW0NIMl1uMltjSF1bY0hdbltjSF0y

> <s_epik_cmdline>
J2VwaWtfcHl0aG9uJywgJy1waCcsICc3LjAnLCAnLXRuJywgJzgnLCAnLW1hJywgJzIwMCcsICctbWV0YWxfYmluZGluZycsICctaW1hZScsICc8aW5maWxlLm1hZT4nLCAnLW9tYWUnLCAnPG91dGZpbGUubWFlPic=

> <r_lp_tautomer_probability>
1

> <r_epik_Ionization_Penalty>
0.575721

> <r_epik_Ionization_Penalty_Charging>
0.575721

> <r_epik_Ionization_Penalty_Neutral>
1.33078e-07

> <r_epik_State_Penalty>
0.588056

> <r_epik_Charging_Adjusted_Penalty>
1.16378

> <i_epik_Tot_Q>
0

> <i_epik_Tot_abs_Q>
0

> <r_epik_Metal_State_Penalty>
0.294357

> <b_epik_Metal_Only>
0

> <s_lp_Force_Field>
OPLS_2005

> <r_lp_Energy>
8.50144

> <b_lp_Chiralities_Consistent>
1

> <s_lp_Variant>
AV-unprocessed.smi:3047-3

> <Gold.Version>
5.8.1

> <Gold.Id.Protein>
6NUR|6NUR_protein|mol2

> <Gold.PLP.Fitness>
39.6692

> <Gold.PLP.PLP>
-28.0708

> <Gold.PLP.part.hbond>
-3.0000

> <Gold.PLP.part.metal>
0.0000

> <Gold.PLP.part.buried>
-4.6400

> <Gold.PLP.part.nonpolar>
-21.8303

> <Gold.PLP.part.repulsive>
0.2581

> <Gold.PLP.ligand.clash>
0.0000

> <Gold.PLP.ligand.torsion>
0.3485

> <Gold.PLP.Chemscore.Hbond>
1.9280

> <Gold.PLP.Chemscore.CHOScore>
1.9802

> <Gold.PLP.Chemscore.Metal>
0.0000

> <Gold.Chemscore.Hbonds>
donor molecule, donor type, donor heavy atom, donor atom, acceptor molecule, acceptor atom, score
      L1  H    12    30       P1  7948  0.89
      P1  H  6896  6908       L1     4  1.00
      L1  C    17    36       P1 10186  0.94
      L1  C    17    36       P1 10952  0.51
      L1  C    19    37       P1 10747  0.38

> <Gold.PLP.Chemscore.Internal.Correction>
0.5711

> <Gold.Rescore>
     Score         DG    S(hbond)    S(metal)    S(lipo)     H(rot)  DE(clash)    DE(int)     intcor
     11.61     -12.09       1.92        0.00      53.82       2.39       0.03       0.44       ----

> <Gold.Chemscore.Fitness>
11.6143

> <Gold.Chemscore.DG>
-12.0863

> <Gold.Chemscore.ZeroCoef>
-5.4800

> <Gold.Chemscore.Hbond>
1.9210

> <Gold.Chemscore.Metal>
0.0000

> <Gold.Chemscore.Lipo>
53.8240

> <Gold.Chemscore.Internal_Hbond>
0.0000

> <Gold.Chemscore.DEClash>
0.0323

> <Gold.Chemscore.DEInternal>
0.4397

> <Gold.Chemscore.Rot>
2.3857

> <Gold.Chemscore.Internal.Correction>
   9.000000E+99

> <Gold.Chemscore.Hbonds>
donor molecule, donor type, donor heavy atom, donor atom, acceptor molecule, acceptor atom, score
      L1  H    12    30       P1  7948  0.64
      P1  H  6896  6908       L1     4  0.94

> <Gold.Chemscore.Hbond.Weighted>
-6.4163

> <Gold.Chemscore.Metal.Weighted>
-0.0000

> <Gold.Chemscore.Lipo.Weighted>
-6.2974

> <Gold.Chemscore.Internal_Hbond.Weighted>
0.0000

> <Gold.Chemscore.DEClash.Weighted>
0.0323

> <Gold.Chemscore.DEInternal.Weighted>
0.4397

> <Gold.Chemscore.Rot.Weighted>
6.1074

> <Gold.Chemscore.Internal.Correction.Weighted>
   9.000000E+99

> <Gold.Protein.RotatedTorsions>
[ 6907 6896 6895 6894 ] final  155.12 input  -60.11 | X-H torsion
[ 7974 7965 7964 7962 ] final  -18.01 input  175.53 | X-H torsion
[ 8008 7997 7996 7995 ] final   13.73 input   59.86 | X-H torsion
[ 10167 10162 10161 10158 ] final -127.04 input  -65.29 | X-H torsion
[ 10718 10713 10712 10709 ] final  165.95 input   66.30 | X-H torsion
[ 10763 10752 10751 10750 ] final  162.51 input  -60.55 | X-H torsion
[ 11005 11000 10999 10996 ] final   43.35 input  -57.11 | X-H torsion

> <Gold.Protein.ActiveResidues>
 VAL166  LYS551  ARG553  GLY616  TRP617  ASP618  TYR619  PRO620  LYS621  CYS622 
 ASP623  PHE694  ASN695  SER759  ASP760  ASP761  ALA762  ILE779  LEU786  VAL792 
 PHE793  MET794  SER795  GLU796  ALA797  LYS798  CYS799  TRP800  GLU811  SER814 

> <Gold.Protein.RotatedAtoms>
  152.0487  133.4009  159.4367 H   0  0  0  0  0  0  0  0  0  0  0  0  # atno 6907 bound_to 6896
  150.6871  134.3332  159.4845 H   0  0  0  0  0  0  0  0  0  0  0  0  # atno 6908 bound_to 6896
  152.1140  134.9254  160.0616 H   0  0  0  0  0  0  0  0  0  0  0  0  # atno 6909 bound_to 6896
  146.1913  140.3860  142.8457 H   0  0  0  0  0  0  0  0  0  0  0  0  # atno 7974 bound_to 7965
  154.8385  140.2911  155.5675 H   0  0  0  0  0  0  0  0  0  0  0  0  # atno 8008 bound_to 7997
  156.3010  140.2518  156.3255 H   0  0  0  0  0  0  0  0  0  0  0  0  # atno 8009 bound_to 7997
  154.9151  140.0387  157.1957 H   0  0  0  0  0  0  0  0  0  0  0  0  # atno 8010 bound_to 7997
  139.9651  143.5907  152.2432 H   0  0  0  0  0  0  0  0  0  0  0  0  # atno 10167 bound_to 10162
  157.0728  131.0371  151.2605 H   0  0  0  0  0  0  0  0  0  0  0  0  # atno 10718 bound_to 10713
  154.2795  135.2763  155.2703 H   0  0  0  0  0  0  0  0  0  0  0  0  # atno 10763 bound_to 10752
  154.5231  135.5751  153.6700 H   0  0  0  0  0  0  0  0  0  0  0  0  # atno 10764 bound_to 10752
  152.9931  135.6209  154.2953 H   0  0  0  0  0  0  0  0  0  0  0  0  # atno 10765 bound_to 10752
  140.1653  134.4290  155.8291 H   0  0  0  0  0  0  0  0  0  0  0  0  # atno 11005 bound_to 11000
  144.8493  140.6977  143.6179 LP  0  0  0  0  0  0  0  0  0  0  0  0  # atno 17320 bound_to 7965
  145.3783  139.1643  143.4295 LP  0  0  0  0  0  0  0  0  0  0  0  0  # atno 17321 bound_to 7965
  139.6524  144.7661  151.2122 LP  0  0  0  0  0  0  0  0  0  0  0  0  # atno 17342 bound_to 10162
  140.7540  143.6140  150.8578 LP  0  0  0  0  0  0  0  0  0  0  0  0  # atno 17343 bound_to 10162
  157.4864  130.7795  149.7464 LP  0  0  0  0  0  0  0  0  0  0  0  0  # atno 17370 bound_to 10713
  155.9945  130.3917  150.2855 LP  0  0  0  0  0  0  0  0  0  0  0  0  # atno 17371 bound_to 10713
  141.2213  133.6931  156.7667 LP  0  0  0  0  0  0  0  0  0  0  0  0  # atno 17394 bound_to 11000
  140.2441  134.8591  157.3603 LP  0  0  0  0  0  0  0  0  0  0  0  0  # atno 17395 bound_to 11000

$$$$
