AV-unprocessed.smi:2923|AV-procd|sdf|11216|dock9
  -GOLD-   2272016103D 1   1.00000     0.00000
 Structure written by MMmdl.
 46 48  0  0  0  0  0  0  0  0  1 V2000
  147.0969  128.3679  153.1204 C   0  0  0  0  0  0  0  0  0  0  0  0
  148.3758  128.8818  153.5945 N   0  0  0  0  0  0  0  0  0  0  0  0
  149.4479  127.9552  153.9436 C   0  0  0  0  0  0  0  0  0  0  0  0
  148.5704  130.2736  153.7489 C   0  0  0  0  0  0  0  0  0  0  0  0
  149.6241  130.7898  154.5432 C   0  0  0  0  0  0  0  0  0  0  0  0
  149.7802  132.1841  154.6635 C   0  0  0  0  0  0  0  0  0  0  0  0
  148.8738  133.0368  153.9927 C   0  0  0  0  0  0  0  0  0  0  0  0
  148.9389  134.4566  154.0131 N   0  0  0  0  0  0  0  0  0  0  0  0
  149.2805  135.2677  155.0287 C   0  0  0  0  0  0  0  0  0  0  0  0
  149.5341  134.9057  156.1774 O   0  0  0  0  0  0  0  0  0  0  0  0
  149.2983  136.5491  154.6395 N   0  0  0  0  0  0  0  0  0  0  0  0
  149.6571  137.6668  155.5044 C   0  0  2  0  0  0  0  0  0  0  0  0
  149.3937  139.0224  154.8486 C   0  0  1  0  0  0  0  0  0  0  0  0
  148.4611  140.1493  155.1160 C   0  0  0  0  0  0  0  0  0  0  0  0
  149.4876  141.3074  154.9942 C   0  0  0  0  0  0  0  0  0  0  0  0
  150.7925  140.6797  154.9573 O   0  0  0  0  0  0  0  0  0  0  0  0
  150.6003  139.4652  155.6528 C   0  0  2  0  0  0  0  0  0  0  0  0
  151.1826  138.0548  155.4332 C   0  0  0  0  0  0  0  0  0  0  0  0
  152.0469  137.5218  156.5763 C   0  0  0  0  0  0  0  0  0  0  0  0
  151.9771  137.8006  154.1357 C   0  0  0  0  0  0  0  0  0  0  0  0
  147.8643  132.4327  153.2187 C   0  0  0  0  0  0  0  0  0  0  0  0
  147.7110  131.0975  153.1010 N   0  0  0  0  0  0  0  0  0  0  0  0
  146.2918  128.6646  153.7931 H   0  0  0  0  0  0  0  0  0  0  0  0
  147.1007  127.2791  153.0676 H   0  0  0  0  0  0  0  0  0  0  0  0
  146.8772  128.7480  152.1224 H   0  0  0  0  0  0  0  0  0  0  0  0
  149.7140  128.0566  154.9962 H   0  0  0  0  0  0  0  0  0  0  0  0
  150.3349  128.1518  153.3403 H   0  0  0  0  0  0  0  0  0  0  0  0
  149.1519  126.9201  153.7730 H   0  0  0  0  0  0  0  0  0  0  0  0
  150.3203  130.1463  155.0589 H   0  0  0  0  0  0  0  0  0  0  0  0
  150.5990  132.5645  155.2533 H   0  0  0  0  0  0  0  0  0  0  0  0
  148.6711  134.9125  153.1531 H   0  0  0  0  0  0  0  0  0  0  0  0
  149.0691  136.7650  153.6805 H   0  0  0  0  0  0  0  0  0  0  0  0
  149.2562  137.5964  156.5199 H   0  0  0  0  0  0  0  0  0  0  0  0
  149.5903  138.9687  153.7752 H   0  0  0  0  0  0  0  0  0  0  0  0
  147.6595  140.2210  154.3808 H   0  0  0  0  0  0  0  0  0  0  0  0
  148.0260  140.0913  156.1148 H   0  0  0  0  0  0  0  0  0  0  0  0
  149.3381  141.8902  154.0851 H   0  0  0  0  0  0  0  0  0  0  0  0
  149.4133  141.9837  155.8466 H   0  0  0  0  0  0  0  0  0  0  0  0
  150.3821  139.6567  156.7097 H   0  0  0  0  0  0  0  0  0  0  0  0
  152.9963  138.0540  156.6412 H   0  0  0  0  0  0  0  0  0  0  0  0
  152.2694  136.4618  156.4512 H   0  0  0  0  0  0  0  0  0  0  0  0
  151.5489  137.6318  157.5401 H   0  0  0  0  0  0  0  0  0  0  0  0
  152.9283  138.3334  154.1484 H   0  0  0  0  0  0  0  0  0  0  0  0
  151.4572  138.1161  153.2333 H   0  0  0  0  0  0  0  0  0  0  0  0
  152.2031  136.7411  154.0108 H   0  0  0  0  0  0  0  0  0  0  0  0
  147.1535  133.0378  152.6753 H   0  0  0  0  0  0  0  0  0  0  0  0
  1  2  1  0  0  0  0
  1 23  1  0  0  0  0
  1 24  1  0  0  0  0
  1 25  1  0  0  0  0
  2  3  1  0  0  0  0
  2  4  1  0  0  0  0
  3 26  1  0  0  0  0
  3 27  1  0  0  0  0
  3 28  1  0  0  0  0
  4 22  1  0  0  0  0
  4  5  2  0  0  0  0
  5  6  1  0  0  0  0
  5 29  1  0  0  0  0
  6  7  2  0  0  0  0
  6 30  1  0  0  0  0
  7  8  1  0  0  0  0
  7 21  1  0  0  0  0
  8  9  1  0  0  0  0
  8 31  1  0  0  0  0
  9 10  2  0  0  0  0
  9 11  1  0  0  0  0
 11 12  1  0  0  0  0
 11 32  1  0  0  0  0
 12 18  1  0  0  0  0
 12 13  1  0  0  0  0
 12 33  1  0  0  0  0
 13 17  1  0  0  0  0
 13 14  1  0  0  0  0
 13 34  1  0  0  0  0
 14 15  1  0  0  0  0
 14 35  1  0  0  0  0
 14 36  1  0  0  0  0
 15 16  1  0  0  0  0
 15 37  1  0  0  0  0
 15 38  1  0  0  0  0
 16 17  1  0  0  0  0
 17 18  1  0  0  0  0
 17 39  1  0  0  0  0
 18 19  1  0  0  0  0
 18 20  1  0  0  0  0
 19 40  1  0  0  0  0
 19 41  1  0  0  0  0
 19 42  1  0  0  0  0
 20 43  1  0  0  0  0
 20 44  1  0  0  0  0
 20 45  1  0  0  0  0
 21 22  2  0  0  0  0
 21 46  1  0  0  0  0
M  END
> <s_m_source_file>
AV-unprocessed.smi

> <i_m_source_file_index>
2923

> <i_lp_mmshare_version>
43012

> <i_f3d_flags>
0

> <s_epik_input>
W0NIM11OKFtDSDNdKWMxW2NIXVtjSF1jKFtjSF1uMSlbTkhdQyg9TylbTkhdW0NASF0yQyhbQ0gzXSkoW0NIM10pW0NAQEhdKFtDQEhdMjMpT1tDSDJdW0NIMl0z

> <s_epik_cmdline>
J2VwaWtfcHl0aG9uJywgJy1waCcsICc3LjAnLCAnLXRuJywgJzgnLCAnLW1hJywgJzIwMCcsICctbWV0YWxfYmluZGluZycsICctaW1hZScsICc8aW5maWxlLm1hZT4nLCAnLW9tYWUnLCAnPG91dGZpbGUubWFlPic=

> <r_lp_tautomer_probability>
1

> <r_epik_Ionization_Penalty>
0.628785

> <r_epik_Ionization_Penalty_Charging>
0

> <r_epik_Ionization_Penalty_Neutral>
0.628785

> <r_epik_State_Penalty>
0.644286

> <r_epik_Charging_Adjusted_Penalty>
0.644286

> <i_epik_Tot_Q>
0

> <i_epik_Tot_abs_Q>
0

> <r_epik_Metal_State_Penalty>
0.308404

> <b_epik_Metal_Only>
0

> <s_lp_Force_Field>
OPLS_2005

> <r_lp_Energy>
62.6556

> <b_lp_Chiralities_Consistent>
1

> <s_lp_Variant>
AV-unprocessed.smi:2923-15

> <Gold.Version>
5.8.1

> <Gold.Id.Protein>
6NUR|6NUR_protein|mol2

> <Gold.PLP.Fitness>
40.3865

> <Gold.PLP.PLP>
-32.6326

> <Gold.PLP.part.hbond>
-3.0000

> <Gold.PLP.part.metal>
0.0000

> <Gold.PLP.part.buried>
-2.9911

> <Gold.PLP.part.nonpolar>
-27.9786

> <Gold.PLP.part.repulsive>
1.1265

> <Gold.PLP.ligand.clash>
0.0000

> <Gold.PLP.ligand.torsion>
0.6131

> <Gold.PLP.Chemscore.Hbond>
2.9040

> <Gold.PLP.Chemscore.CHOScore>
0.0000

> <Gold.PLP.Chemscore.Metal>
0.0000

> <Gold.Chemscore.Hbonds>
donor molecule, donor type, donor heavy atom, donor atom, acceptor molecule, acceptor atom, score
      L1  H     8    31       P1  7948  1.00
      L1  H    11    32       P1  7948  0.99
      P1  H  7989  7998       L1    16  0.93

> <Gold.PLP.Chemscore.Internal.Correction>
0.2682

> <Gold.Rescore>
     Score         DG    S(hbond)    S(metal)    S(lipo)     H(rot)  DE(clash)    DE(int)     intcor
     18.95     -19.70       2.38        0.00      75.49       1.00       0.03       0.72       ----

> <Gold.Chemscore.Fitness>
18.9456

> <Gold.Chemscore.DG>
-19.7014

> <Gold.Chemscore.ZeroCoef>
-5.4800

> <Gold.Chemscore.Hbond>
2.3800

> <Gold.Chemscore.Metal>
0.0000

> <Gold.Chemscore.Lipo>
75.4878

> <Gold.Chemscore.Internal_Hbond>
0.0000

> <Gold.Chemscore.DEClash>
0.0339

> <Gold.Chemscore.DEInternal>
0.7219

> <Gold.Chemscore.Rot>
1.0000

> <Gold.Chemscore.Internal.Correction>
   9.000000E+99

> <Gold.Chemscore.Hbonds>
donor molecule, donor type, donor heavy atom, donor atom, acceptor molecule, acceptor atom, score
      L1  H     8    31       P1  7948  0.42
      L1  H    11    32       P1  7948  0.93
      P1  H  7989  7998       L1    16  0.79

> <Gold.Chemscore.Hbond.Weighted>
-7.9493

> <Gold.Chemscore.Metal.Weighted>
-0.0000

> <Gold.Chemscore.Lipo.Weighted>
-8.8321

> <Gold.Chemscore.Internal_Hbond.Weighted>
0.0000

> <Gold.Chemscore.DEClash.Weighted>
0.0339

> <Gold.Chemscore.DEInternal.Weighted>
0.7219

> <Gold.Chemscore.Rot.Weighted>
2.5600

> <Gold.Chemscore.Internal.Correction.Weighted>
   9.000000E+99

> <Gold.Protein.RotatedTorsions>
[ 6907 6896 6895 6894 ] final  -88.79 input  -60.11 | X-H torsion
[ 7974 7965 7964 7962 ] final   19.35 input  175.53 | X-H torsion
[ 8008 7997 7996 7995 ] final   13.13 input   59.86 | X-H torsion
[ 10167 10162 10161 10158 ] final -154.87 input  -65.29 | X-H torsion
[ 10718 10713 10712 10709 ] final   23.02 input   66.30 | X-H torsion
[ 10763 10752 10751 10750 ] final  -95.68 input  -60.55 | X-H torsion
[ 11005 11000 10999 10996 ] final  102.83 input  -57.11 | X-H torsion

> <Gold.Protein.ActiveResidues>
 VAL166  LYS551  ARG553  GLY616  TRP617  ASP618  TYR619  PRO620  LYS621  CYS622 
 ASP623  PHE694  ASN695  SER759  ASP760  ASP761  ALA762  ILE779  LEU786  VAL792 
 PHE793  MET794  SER795  GLU796  ALA797  LYS798  CYS799  TRP800  GLU811  SER814 

> <Gold.Protein.RotatedAtoms>
  150.6870  134.2687  159.4578 H   0  0  0  0  0  0  0  0  0  0  0  0  # atno 6907 bound_to 6896
  152.0611  134.9591  160.0584 H   0  0  0  0  0  0  0  0  0  0  0  0  # atno 6908 bound_to 6896
  152.1018  133.4219  159.4627 H   0  0  0  0  0  0  0  0  0  0  0  0  # atno 6909 bound_to 6896
  146.2152  139.8325  142.8657 H   0  0  0  0  0  0  0  0  0  0  0  0  # atno 7974 bound_to 7965
  154.8302  140.2898  155.5728 H   0  0  0  0  0  0  0  0  0  0  0  0  # atno 8008 bound_to 7997
  156.3005  140.2533  156.3156 H   0  0  0  0  0  0  0  0  0  0  0  0  # atno 8009 bound_to 7997
  154.9240  140.0385  157.2002 H   0  0  0  0  0  0  0  0  0  0  0  0  # atno 8010 bound_to 7997
  139.6978  143.9314  152.2415 H   0  0  0  0  0  0  0  0  0  0  0  0  # atno 10167 bound_to 10162
  157.1603  130.6714  149.6042 H   0  0  0  0  0  0  0  0  0  0  0  0  # atno 10718 bound_to 10713
  154.7170  135.5112  153.8753 H   0  0  0  0  0  0  0  0  0  0  0  0  # atno 10763 bound_to 10752
  153.0829  135.6637  154.0017 H   0  0  0  0  0  0  0  0  0  0  0  0  # atno 10764 bound_to 10752
  153.9847  135.3025  155.3396 H   0  0  0  0  0  0  0  0  0  0  0  0  # atno 10765 bound_to 10752
  139.8780  134.9239  156.5117 H   0  0  0  0  0  0  0  0  0  0  0  0  # atno 11005 bound_to 11000
  145.2982  141.0187  143.3624 LP  0  0  0  0  0  0  0  0  0  0  0  0  # atno 17320 bound_to 7965
  144.9026  139.4630  143.6625 LP  0  0  0  0  0  0  0  0  0  0  0  0  # atno 17321 bound_to 7965
  139.9148  144.6835  150.8524 LP  0  0  0  0  0  0  0  0  0  0  0  0  # atno 17342 bound_to 10162
  140.7701  143.3417  151.2194 LP  0  0  0  0  0  0  0  0  0  0  0  0  # atno 17343 bound_to 10162
  155.9755  130.4714  150.6462 LP  0  0  0  0  0  0  0  0  0  0  0  0  # atno 17370 bound_to 10713
  157.4138  131.0827  151.1196 LP  0  0  0  0  0  0  0  0  0  0  0  0  # atno 17371 bound_to 10713
  140.8515  133.8128  155.9173 LP  0  0  0  0  0  0  0  0  0  0  0  0  # atno 17394 bound_to 11000
  140.9139  134.2225  157.4968 LP  0  0  0  0  0  0  0  0  0  0  0  0  # atno 17395 bound_to 11000

$$$$
