AV-unprocessed.smi:2175|AV-procd|sdf|8844|dock6
  -GOLD-   2272012 33D 1   1.00000     0.00000
 Structure written by MMmdl.
 34 35  0  0  0  0  0  0  0  0  1 V2000
  146.2631  138.0966  152.4111 C   0  0  0  0  0  0  0  0  0  0  0  0
  147.1144  139.1436  153.0957 C   0  0  0  0  0  0  0  0  0  0  0  0
  146.4316  140.3136  153.3835 N   0  0  0  0  0  0  0  0  0  0  0  0
  147.1265  141.3302  154.0143 C   0  0  0  0  0  0  0  0  0  0  0  0
  146.3042  142.5755  154.2964 C   0  0  0  0  0  0  0  0  0  0  0  0
  148.4373  141.1902  154.3375 C   0  0  0  0  0  0  0  0  0  0  0  0
  149.2379  142.2903  155.0326 C   0  0  0  0  0  0  0  0  0  0  0  0
  149.8809  141.8991  156.3654 C   0  0  0  0  0  0  0  0  0  0  0  0
  149.9108  140.7196  156.7168 O   0  0  0  0  0  0  0  0  0  0  0  0
  150.3953  142.8994  157.0967 N   0  0  0  0  0  0  0  0  0  0  0  0
  151.0484  142.7396  158.3895 C   0  0  0  0  0  0  0  0  0  0  0  0
  151.9511  143.8893  158.7957 C   0  0  0  0  0  0  0  0  0  0  0  0
  152.8513  143.7828  160.0042 C   0  0  0  0  0  0  0  0  0  0  0  0
  151.6498  144.6969  160.0360 C   0  0  0  0  0  0  0  0  0  0  0  0
  149.1168  139.9182  153.9953 C   0  0  0  0  0  0  0  0  0  0  0  0
  150.3069  139.7354  154.2476 O   0  0  0  0  0  0  0  0  0  0  0  0
  148.3641  138.9148  153.3633 N   0  0  0  0  0  0  0  0  0  0  0  0
  145.4579  140.4603  153.1596 H   0  0  0  0  0  0  0  0  0  0  0  0
  146.8065  137.1561  152.3114 H   0  0  0  0  0  0  0  0  0  0  0  0
  145.9780  138.4340  151.4142 H   0  0  0  0  0  0  0  0  0  0  0  0
  145.3560  137.9059  152.9854 H   0  0  0  0  0  0  0  0  0  0  0  0
  146.2555  142.7655  155.3686 H   0  0  0  0  0  0  0  0  0  0  0  0
  145.2825  142.4745  153.9282 H   0  0  0  0  0  0  0  0  0  0  0  0
  146.7488  143.4447  153.8111 H   0  0  0  0  0  0  0  0  0  0  0  0
  148.6189  143.1723  155.1993 H   0  0  0  0  0  0  0  0  0  0  0  0
  150.0181  142.6270  154.3491 H   0  0  0  0  0  0  0  0  0  0  0  0
  150.3269  143.8386  156.7324 H   0  0  0  0  0  0  0  0  0  0  0  0
  150.2938  142.5973  159.1649 H   0  0  0  0  0  0  0  0  0  0  0  0
  151.6318  141.8190  158.3618 H   0  0  0  0  0  0  0  0  0  0  0  0
  152.3421  144.4591  157.9548 H   0  0  0  0  0  0  0  0  0  0  0  0
  152.8032  142.8694  160.5939 H   0  0  0  0  0  0  0  0  0  0  0  0
  153.8341  144.2449  159.9398 H   0  0  0  0  0  0  0  0  0  0  0  0
  151.8322  145.7687  159.9931 H   0  0  0  0  0  0  0  0  0  0  0  0
  150.8037  144.3915  160.6483 H   0  0  0  0  0  0  0  0  0  0  0  0
  1 19  1  0  0  0  0
  1 20  1  0  0  0  0
  1 21  1  0  0  0  0
  1  2  1  0  0  0  0
  2  3  1  0  0  0  0
  2 17  2  0  0  0  0
  3  4  1  0  0  0  0
  3 18  1  0  0  0  0
  4  6  2  0  0  0  0
  4  5  1  0  0  0  0
  5 22  1  0  0  0  0
  5 23  1  0  0  0  0
  5 24  1  0  0  0  0
  6 15  1  0  0  0  0
  6  7  1  0  0  0  0
  7  8  1  0  0  0  0
  7 25  1  0  0  0  0
  7 26  1  0  0  0  0
  8  9  2  0  0  0  0
  8 10  1  0  0  0  0
 10 11  1  0  0  0  0
 10 27  1  0  0  0  0
 11 12  1  0  0  0  0
 11 28  1  0  0  0  0
 11 29  1  0  0  0  0
 12 14  1  0  0  0  0
 12 13  1  0  0  0  0
 12 30  1  0  0  0  0
 13 14  1  0  0  0  0
 13 31  1  0  0  0  0
 13 32  1  0  0  0  0
 14 33  1  0  0  0  0
 14 34  1  0  0  0  0
 15 16  2  0  0  0  0
 15 17  1  0  0  0  0
M  END
> <s_m_source_file>
AV-unprocessed.smi

> <i_m_source_file_index>
2175

> <i_lp_mmshare_version>
43012

> <i_f3d_flags>
0

> <s_epik_input>
W0NIM11jMW5jKFtDSDNdKWMoYyg9TylbbkhdMSlbQ0gyXUMoPU8pW05IXVtDSDJdW0NIXTJbQ0gyXVtDSDJdMg==

> <s_epik_cmdline>
J2VwaWtfcHl0aG9uJywgJy1waCcsICc3LjAnLCAnLXRuJywgJzgnLCAnLW1hJywgJzIwMCcsICctbWV0YWxfYmluZGluZycsICctaW1hZScsICc8aW5maWxlLm1hZT4nLCAnLW9tYWUnLCAnPG91dGZpbGUubWFlPic=

> <r_lp_tautomer_probability>
0.156392

> <r_epik_Ionization_Penalty>
0.0142343

> <r_epik_Ionization_Penalty_Charging>
0.0141145

> <r_epik_Ionization_Penalty_Neutral>
0.000119779

> <r_epik_State_Penalty>
1.52879

> <r_epik_Charging_Adjusted_Penalty>
1.5429

> <i_epik_Tot_Q>
0

> <i_epik_Tot_abs_Q>
0

> <r_epik_Metal_State_Penalty>
1.70685

> <b_epik_Metal_Only>
0

> <s_lp_Force_Field>
OPLS_2005

> <r_lp_Energy>
17.5363

> <b_lp_Chiralities_Consistent>
1

> <s_lp_Variant>
AV-unprocessed.smi:2175-2

> <Gold.Version>
5.8.1

> <Gold.Id.Protein>
6NUR|6NUR_protein|mol2

> <Gold.PLP.Fitness>
40.1789

> <Gold.PLP.PLP>
-33.2564

> <Gold.PLP.part.hbond>
-3.0000

> <Gold.PLP.part.metal>
0.0000

> <Gold.PLP.part.buried>
1.2393

> <Gold.PLP.part.nonpolar>
-33.5184

> <Gold.PLP.part.repulsive>
2.3303

> <Gold.PLP.ligand.clash>
0.0000

> <Gold.PLP.ligand.torsion>
0.6499

> <Gold.PLP.Chemscore.Hbond>
2.5622

> <Gold.PLP.Chemscore.CHOScore>
0.0000

> <Gold.PLP.Chemscore.Metal>
0.0000

> <Gold.Chemscore.Hbonds>
donor molecule, donor type, donor heavy atom, donor atom, acceptor molecule, acceptor atom, score
      L1  H     3    18       P1 10175  1.00
      L1  H    10    27       P1  8028  0.64
      P1  H  7989  7998       L1    16  1.00

> <Gold.PLP.Chemscore.Internal.Correction>
0.5356

> <Gold.Rescore>
     Score         DG    S(hbond)    S(metal)    S(lipo)     H(rot)  DE(clash)    DE(int)     intcor
     13.23     -16.02       1.75        0.00      78.40       1.75       1.07       1.72       ----

> <Gold.Chemscore.Fitness>
13.2323

> <Gold.Chemscore.DG>
-16.0218

> <Gold.Chemscore.ZeroCoef>
-5.4800

> <Gold.Chemscore.Hbond>
1.7508

> <Gold.Chemscore.Metal>
0.0000

> <Gold.Chemscore.Lipo>
78.4037

> <Gold.Chemscore.Internal_Hbond>
0.0000

> <Gold.Chemscore.DEClash>
1.0657

> <Gold.Chemscore.DEInternal>
1.7238

> <Gold.Chemscore.Rot>
1.7497

> <Gold.Chemscore.Internal.Correction>
   9.000000E+99

> <Gold.Chemscore.Hbonds>
donor molecule, donor type, donor heavy atom, donor atom, acceptor molecule, acceptor atom, score
      L1  H     3    18       P1 10175  0.94
      L1  H    10    27       P1  8028  0.62
      P1  H  7989  7998       L1    16  0.97

> <Gold.Chemscore.Hbond.Weighted>
-5.8477

> <Gold.Chemscore.Metal.Weighted>
-0.0000

> <Gold.Chemscore.Lipo.Weighted>
-9.1732

> <Gold.Chemscore.Internal_Hbond.Weighted>
0.0000

> <Gold.Chemscore.DEClash.Weighted>
1.0657

> <Gold.Chemscore.DEInternal.Weighted>
1.7238

> <Gold.Chemscore.Rot.Weighted>
4.4791

> <Gold.Chemscore.Internal.Correction.Weighted>
   9.000000E+99

> <Gold.Protein.RotatedTorsions>
[ 6907 6896 6895 6894 ] final   10.57 input  -60.11 | X-H torsion
[ 7974 7965 7964 7962 ] final -115.81 input  175.53 | X-H torsion
[ 8008 7997 7996 7995 ] final  116.22 input   59.86 | X-H torsion
[ 10167 10162 10161 10158 ] final  -68.91 input  -65.29 | X-H torsion
[ 10718 10713 10712 10709 ] final -154.02 input   66.30 | X-H torsion
[ 10763 10752 10751 10750 ] final   25.52 input  -60.55 | X-H torsion
[ 11005 11000 10999 10996 ] final   47.04 input  -57.11 | X-H torsion

> <Gold.Protein.ActiveResidues>
 VAL166  LYS551  ARG553  GLY616  TRP617  ASP618  TYR619  PRO620  LYS621  CYS622 
 ASP623  PHE694  ASN695  SER759  ASP760  ASP761  ALA762  ILE779  LEU786  VAL792 
 PHE793  MET794  SER795  GLU796  ALA797  LYS798  CYS799  TRP800  GLU811  SER814 

> <Gold.Protein.RotatedAtoms>
  151.7405  135.0855  160.0314 H   0  0  0  0  0  0  0  0  0  0  0  0  # atno 6907 bound_to 6896
  152.3483  133.6144  159.5934 H   0  0  0  0  0  0  0  0  0  0  0  0  # atno 6908 bound_to 6896
  150.7523  133.9531  159.3533 H   0  0  0  0  0  0  0  0  0  0  0  0  # atno 6909 bound_to 6896
  145.1041  140.8570  143.3909 H   0  0  0  0  0  0  0  0  0  0  0  0  # atno 7974 bound_to 7965
  156.2427  140.2922  156.0490 H   0  0  0  0  0  0  0  0  0  0  0  0  # atno 8008 bound_to 7997
  155.1903  140.0406  157.2916 H   0  0  0  0  0  0  0  0  0  0  0  0  # atno 8009 bound_to 7997
  154.6199  140.2473  155.7569 H   0  0  0  0  0  0  0  0  0  0  0  0  # atno 8010 bound_to 7997
  140.5471  143.2313  151.6981 H   0  0  0  0  0  0  0  0  0  0  0  0  # atno 10167 bound_to 10162
  156.4937  130.8359  151.2581 H   0  0  0  0  0  0  0  0  0  0  0  0  # atno 10718 bound_to 10713
  153.0686  135.6581  154.0298 H   0  0  0  0  0  0  0  0  0  0  0  0  # atno 10763 bound_to 10752
  153.9949  135.2942  155.3410 H   0  0  0  0  0  0  0  0  0  0  0  0  # atno 10764 bound_to 10752
  154.7053  135.5228  153.8655 H   0  0  0  0  0  0  0  0  0  0  0  0  # atno 10765 bound_to 10752
  140.1314  134.4700  155.8518 H   0  0  0  0  0  0  0  0  0  0  0  0  # atno 11005 bound_to 11000
  145.0922  139.2882  143.5729 LP  0  0  0  0  0  0  0  0  0  0  0  0  # atno 17320 bound_to 7965
  146.3529  140.0463  142.8639 LP  0  0  0  0  0  0  0  0  0  0  0  0  # atno 17321 bound_to 7965
  139.5012  144.3877  152.0312 LP  0  0  0  0  0  0  0  0  0  0  0  0  # atno 17342 bound_to 10162
  140.2991  144.3667  150.6065 LP  0  0  0  0  0  0  0  0  0  0  0  0  # atno 17343 bound_to 10162
  157.7471  131.0005  150.2928 LP  0  0  0  0  0  0  0  0  0  0  0  0  # atno 17370 bound_to 10713
  156.3401  130.3814  149.7416 LP  0  0  0  0  0  0  0  0  0  0  0  0  # atno 17371 bound_to 10713
  141.2171  133.6797  156.7077 LP  0  0  0  0  0  0  0  0  0  0  0  0  # atno 17394 bound_to 11000
  140.2837  134.8296  157.3956 LP  0  0  0  0  0  0  0  0  0  0  0  0  # atno 17395 bound_to 11000

$$$$
