AV-unprocessed.smi:496|AV-procd|sdf|2716|dock10
  -GOLD-   2262023163D 1   1.00000     0.00000
 Structure written by MMmdl.
 42 44  0  0  0  0  0  0  0  0  1 V2000
  154.9950  139.4773  159.6425 C   0  0  0  0  0  0  0  0  0  0  0  0
  154.4746  138.7144  158.5680 O   0  0  0  0  0  0  0  0  0  0  0  0
  153.4728  137.8034  158.9853 C   0  0  0  0  0  0  0  0  0  0  0  0
  152.3932  138.5731  159.7561 C   0  0  0  0  0  0  0  0  0  0  0  0
  151.6525  139.4778  158.8894 N   0  0  0  0  0  0  0  0  0  0  0  0
  150.6211  139.1976  158.0496 C   0  0  0  0  0  0  0  0  0  0  0  0
  150.0594  137.8079  157.8780 C   0  0  2  0  0  0  0  0  0  0  0  0
  149.1580  137.6970  156.6406 C   0  0  0  0  0  0  0  0  0  0  0  0
  149.3101  137.4604  159.0828 N   0  0  0  0  0  0  0  0  0  0  0  0
  148.7615  136.2613  159.3355 C   0  0  0  0  0  0  0  0  0  0  0  0
  148.8128  135.3130  158.5522 O   0  0  0  0  0  0  0  0  0  0  0  0
  148.0586  136.1374  160.6262 C   0  0  0  0  0  0  0  0  0  0  0  0
  147.5860  135.0407  161.2986 C   0  0  0  0  0  0  0  0  0  0  0  0
  146.9773  135.5244  162.4897 C   0  0  0  0  0  0  0  0  0  0  0  0
  147.1156  136.8824  162.4571 C   0  0  0  0  0  0  0  0  0  0  0  0
  147.7661  137.2717  161.3271 O   0  0  0  0  0  0  0  0  0  0  0  0
  150.1239  140.2427  157.3822 N   0  0  0  0  0  0  0  0  0  0  0  0
  150.9117  141.2892  157.8160 C   0  0  0  0  0  0  0  0  0  0  0  0
  150.8889  142.6593  157.4699 C   0  0  0  0  0  0  0  0  0  0  0  0
  151.8113  143.5564  158.0472 C   0  0  0  0  0  0  0  0  0  0  0  0
  152.7666  143.0974  158.9769 C   0  0  0  0  0  0  0  0  0  0  0  0
  152.8046  141.7363  159.3365 C   0  0  0  0  0  0  0  0  0  0  0  0
  151.8814  140.8444  158.7575 C   0  0  0  0  0  0  0  0  0  0  0  0
  155.7586  140.1605  159.2706 H   0  0  0  0  0  0  0  0  0  0  0  0
  155.4551  138.8360  160.3954 H   0  0  0  0  0  0  0  0  0  0  0  0
  154.2142  140.0720  160.1186 H   0  0  0  0  0  0  0  0  0  0  0  0
  153.0314  137.3107  158.1171 H   0  0  0  0  0  0  0  0  0  0  0  0
  153.9130  137.0293  159.6153 H   0  0  0  0  0  0  0  0  0  0  0  0
  151.7002  137.8931  160.2509 H   0  0  0  0  0  0  0  0  0  0  0  0
  152.8557  139.1548  160.5538 H   0  0  0  0  0  0  0  0  0  0  0  0
  150.8624  137.0832  157.7518 H   0  0  0  0  0  0  0  0  0  0  0  0
  149.7090  137.9459  155.7333 H   0  0  0  0  0  0  0  0  0  0  0  0
  148.3039  138.3720  156.7055 H   0  0  0  0  0  0  0  0  0  0  0  0
  148.7731  136.6834  156.5254 H   0  0  0  0  0  0  0  0  0  0  0  0
  149.2188  138.1799  159.7849 H   0  0  0  0  0  0  0  0  0  0  0  0
  147.6667  134.0134  160.9742 H   0  0  0  0  0  0  0  0  0  0  0  0
  146.4972  134.9519  163.2697 H   0  0  0  0  0  0  0  0  0  0  0  0
  146.8227  137.6831  163.1204 H   0  0  0  0  0  0  0  0  0  0  0  0
  150.1615  143.0203  156.7581 H   0  0  0  0  0  0  0  0  0  0  0  0
  151.7862  144.6014  157.7749 H   0  0  0  0  0  0  0  0  0  0  0  0
  153.4703  143.7907  159.4141 H   0  0  0  0  0  0  0  0  0  0  0  0
  153.5364  141.3837  160.0477 H   0  0  0  0  0  0  0  0  0  0  0  0
  1  2  1  0  0  0  0
  1 24  1  0  0  0  0
  1 25  1  0  0  0  0
  1 26  1  0  0  0  0
  2  3  1  0  0  0  0
  3  4  1  0  0  0  0
  3 27  1  0  0  0  0
  3 28  1  0  0  0  0
  4  5  1  0  0  0  0
  4 29  1  0  0  0  0
  4 30  1  0  0  0  0
  5 23  1  0  0  0  0
  5  6  1  0  0  0  0
  6  7  1  0  0  0  0
  6 17  2  0  0  0  0
  7  8  1  0  0  0  0
  7  9  1  0  0  0  0
  7 31  1  0  0  0  0
  8 32  1  0  0  0  0
  8 33  1  0  0  0  0
  8 34  1  0  0  0  0
  9 10  1  0  0  0  0
  9 35  1  0  0  0  0
 10 11  2  0  0  0  0
 10 12  1  0  0  0  0
 12 16  1  0  0  0  0
 12 13  2  0  0  0  0
 13 14  1  0  0  0  0
 13 36  1  0  0  0  0
 14 15  2  0  0  0  0
 14 37  1  0  0  0  0
 15 16  1  0  0  0  0
 15 38  1  0  0  0  0
 17 18  1  0  0  0  0
 18 23  2  0  0  0  0
 18 19  1  0  0  0  0
 19 20  2  0  0  0  0
 19 39  1  0  0  0  0
 20 21  1  0  0  0  0
 20 40  1  0  0  0  0
 21 22  2  0  0  0  0
 21 41  1  0  0  0  0
 22 23  1  0  0  0  0
 22 42  1  0  0  0  0
M  END
> <s_m_source_file>
AV-unprocessed.smi

> <i_m_source_file_index>
496

> <i_lp_mmshare_version>
43012

> <i_f3d_flags>
0

> <s_epik_input>
W2NIXTFbY0hdW2NIXVtjSF1jKGMxMiluKFtDSDJdW0NIMl1PW0NIM10pYyhuMilbQ0BIXShbQ0gzXSlbTkhdQyg9TyljM1tjSF1bY0hdW2NIXW8z

> <s_epik_cmdline>
J2VwaWtfcHl0aG9uJywgJy1waCcsICc3LjAnLCAnLXRuJywgJzgnLCAnLW1hJywgJzIwMCcsICctbWV0YWxfYmluZGluZycsICctaW1hZScsICc8aW5maWxlLm1hZT4nLCAnLW9tYWUnLCAnPG91dGZpbGUubWFlPic=

> <r_epik_Ionization_Penalty>
0.116528

> <r_epik_Ionization_Penalty_Charging>
0

> <r_epik_Ionization_Penalty_Neutral>
0.116528

> <r_epik_State_Penalty>
0.106132

> <r_epik_Charging_Adjusted_Penalty>
0.106132

> <i_epik_Tot_Q>
0

> <i_epik_Tot_abs_Q>
0

> <r_epik_Metal_State_Penalty>
0.0963468

> <b_epik_Metal_Only>
0

> <s_lp_Force_Field>
OPLS_2005

> <r_lp_Energy>
7.66614

> <b_lp_Chiralities_Consistent>
1

> <s_lp_Variant>
AV-unprocessed.smi:496-1

> <Gold.Version>
5.8.1

> <Gold.Id.Protein>
6NUR|6NUR_protein|mol2

> <Gold.PLP.Fitness>
50.9467

> <Gold.PLP.PLP>
-41.1611

> <Gold.PLP.part.hbond>
-4.0000

> <Gold.PLP.part.metal>
0.0000

> <Gold.PLP.part.buried>
-4.8956

> <Gold.PLP.part.nonpolar>
-33.1969

> <Gold.PLP.part.repulsive>
0.2132

> <Gold.PLP.ligand.clash>
0.0000

> <Gold.PLP.ligand.torsion>
0.7363

> <Gold.PLP.Chemscore.Hbond>
3.7360

> <Gold.PLP.Chemscore.CHOScore>
0.0000

> <Gold.PLP.Chemscore.Metal>
0.0000

> <Gold.Chemscore.Hbonds>
donor molecule, donor type, donor heavy atom, donor atom, acceptor molecule, acceptor atom, score
      P1  H  6896  6908       L1    11  0.34
      P1  H  6931  6943       L1    16  0.96
      P1  H  6934  6947       L1    16  0.77
      P1  H  7997  8008       L1     2  0.60

> <Gold.PLP.Chemscore.Internal.Correction>
0.0501

> <Gold.Rescore>
     Score         DG    S(hbond)    S(metal)    S(lipo)     H(rot)  DE(clash)    DE(int)     intcor
     22.38     -23.44       2.86        0.00     112.13       1.85       0.21       0.84       ----

> <Gold.Chemscore.Fitness>
22.3826

> <Gold.Chemscore.DG>
-23.4374

> <Gold.Chemscore.ZeroCoef>
-5.4800

> <Gold.Chemscore.Hbond>
2.8648

> <Gold.Chemscore.Metal>
0.0000

> <Gold.Chemscore.Lipo>
112.1344

> <Gold.Chemscore.Internal_Hbond>
0.0000

> <Gold.Chemscore.DEClash>
0.2118

> <Gold.Chemscore.DEInternal>
0.8430

> <Gold.Chemscore.Rot>
1.8480

> <Gold.Chemscore.Internal.Correction>
   9.000000E+99

> <Gold.Chemscore.Hbonds>
donor molecule, donor type, donor heavy atom, donor atom, acceptor molecule, acceptor atom, score
      P1  H  6896  6908       L1    11  0.08
      P1  H  6931  6943       L1    16  0.40
      P1  H  6934  6947       L1    16  0.47
      P1  H  7997  8008       L1     2  0.04

> <Gold.Chemscore.Hbond.Weighted>
-9.5685

> <Gold.Chemscore.Metal.Weighted>
-0.0000

> <Gold.Chemscore.Lipo.Weighted>
-13.1197

> <Gold.Chemscore.Internal_Hbond.Weighted>
0.0000

> <Gold.Chemscore.DEClash.Weighted>
0.2118

> <Gold.Chemscore.DEInternal.Weighted>
0.8430

> <Gold.Chemscore.Rot.Weighted>
4.7308

> <Gold.Chemscore.Internal.Correction.Weighted>
   9.000000E+99

> <Gold.Protein.RotatedTorsions>
[ 6907 6896 6895 6894 ] final  146.38 input  -60.11 | X-H torsion
[ 7974 7965 7964 7962 ] final   46.65 input  175.53 | X-H torsion
[ 8008 7997 7996 7995 ] final -114.60 input   59.86 | X-H torsion
[ 10167 10162 10161 10158 ] final   -9.08 input  -65.29 | X-H torsion
[ 10718 10713 10712 10709 ] final   83.65 input   66.30 | X-H torsion
[ 10763 10752 10751 10750 ] final  -88.29 input  -60.55 | X-H torsion
[ 11005 11000 10999 10996 ] final -167.48 input  -57.11 | X-H torsion

> <Gold.Protein.ActiveResidues>
 VAL166  LYS551  ARG553  GLY616  TRP617  ASP618  TYR619  PRO620  LYS621  CYS622 
 ASP623  PHE694  ASN695  SER759  ASP760  ASP761  ALA762  ILE779  LEU786  VAL792 
 PHE793  MET794  SER795  GLU796  ALA797  LYS798  CYS799  TRP800  GLU811  SER814 

> <Gold.Protein.RotatedAtoms>
  152.1686  133.4629  159.4897 H   0  0  0  0  0  0  0  0  0  0  0  0  # atno 6907 bound_to 6896
  150.6916  134.1981  159.4320 H   0  0  0  0  0  0  0  0  0  0  0  0  # atno 6908 bound_to 6896
  151.9887  134.9990  160.0611 H   0  0  0  0  0  0  0  0  0  0  0  0  # atno 6909 bound_to 6896
  146.0370  139.4833  142.9802 H   0  0  0  0  0  0  0  0  0  0  0  0  # atno 7974 bound_to 7965
  155.0389  140.0392  157.2502 H   0  0  0  0  0  0  0  0  0  0  0  0  # atno 8008 bound_to 7997
  154.7233  140.2716  155.6498 H   0  0  0  0  0  0  0  0  0  0  0  0  # atno 8009 bound_to 7997
  156.2822  140.2698  156.1911 H   0  0  0  0  0  0  0  0  0  0  0  0  # atno 8010 bound_to 7997
  140.7077  143.5897  150.8906 H   0  0  0  0  0  0  0  0  0  0  0  0  # atno 10167 bound_to 10162
  157.6883  131.0100  150.2555 H   0  0  0  0  0  0  0  0  0  0  0  0  # atno 10718 bound_to 10713
  154.6429  135.5382  153.7811 H   0  0  0  0  0  0  0  0  0  0  0  0  # atno 10763 bound_to 10752
  153.0344  135.6463  154.1132 H   0  0  0  0  0  0  0  0  0  0  0  0  # atno 10764 bound_to 10752
  154.1055  135.2930  155.3222 H   0  0  0  0  0  0  0  0  0  0  0  0  # atno 10765 bound_to 10752
  140.5527  134.5412  157.5126 H   0  0  0  0  0  0  0  0  0  0  0  0  # atno 11005 bound_to 11000
  145.6947  141.0154  143.1536 LP  0  0  0  0  0  0  0  0  0  0  0  0  # atno 17320 bound_to 7965
  144.7056  139.8574  143.7431 LP  0  0  0  0  0  0  0  0  0  0  0  0  # atno 17321 bound_to 7965
  139.9623  143.6150  152.2998 LP  0  0  0  0  0  0  0  0  0  0  0  0  # atno 17342 bound_to 10162
  139.6707  144.7661  151.1789 LP  0  0  0  0  0  0  0  0  0  0  0  0  # atno 17343 bound_to 10162
  156.3143  130.3776  149.7632 LP  0  0  0  0  0  0  0  0  0  0  0  0  # atno 17370 bound_to 10713
  156.5223  130.8220  151.3208 LP  0  0  0  0  0  0  0  0  0  0  0  0  # atno 17371 bound_to 10713
  139.9447  134.7724  156.0592 LP  0  0  0  0  0  0  0  0  0  0  0  0  # atno 17394 bound_to 11000
  141.1162  133.6627  156.3099 LP  0  0  0  0  0  0  0  0  0  0  0  0  # atno 17395 bound_to 11000

$$$$
