AV-unprocessed.smi:105|AV-procd|sdf|1009|dock10
  -GOLD-   2262018 03D 1   1.00000     0.00000
 Structure written by MMmdl.
 42 45  0  0  0  0  0  0  0  0  1 V2000
  149.9380  131.5343  154.6869 C   0  0  0  0  0  0  0  0  0  0  0  0
  150.5435  132.0880  155.8315 C   0  0  0  0  0  0  0  0  0  0  0  0
  150.3845  133.4574  156.1207 C   0  0  0  0  0  0  0  0  0  0  0  0
  149.6218  134.2795  155.2651 C   0  0  0  0  0  0  0  0  0  0  0  0
  149.4489  135.7557  155.5867 C   0  0  0  0  0  0  0  0  0  0  0  0
  149.9580  136.6725  154.5718 N   0  0  0  0  0  0  0  0  0  0  0  0
  150.8864  137.6019  154.8884 C   0  0  0  0  0  0  0  0  0  0  0  0
  152.1558  137.5171  154.4105 N   0  0  0  0  0  0  0  0  0  0  0  0
  153.0601  138.4424  154.7462 C   0  0  0  0  0  0  0  0  0  0  0  0
  152.9097  139.5100  155.5335 N   0  0  0  0  0  0  0  0  0  0  0  0
  151.6360  139.5970  156.0153 C   0  0  0  0  0  0  0  0  0  0  0  0
  150.5732  138.6901  155.7435 C   0  0  0  0  0  0  0  0  0  0  0  0
  149.4210  139.0908  156.4067 N   0  0  0  0  0  0  0  0  0  0  0  0
  149.7826  140.1734  157.0403 C   0  0  0  0  0  0  0  0  0  0  0  0
  151.0941  140.5540  156.8590 N   0  0  0  0  0  0  0  0  0  0  0  0
  151.7473  141.7050  157.4604 C   0  0  2  0  0  0  0  0  0  0  0  0
  151.8184  141.6000  158.9980 C   0  0  0  0  0  0  0  0  0  0  0  0
  152.5112  142.8581  159.5352 C   0  0  0  0  0  0  0  0  0  0  0  0
  151.7570  144.1002  159.0493 C   0  0  0  0  0  0  0  0  0  0  0  0
  151.6257  144.0642  157.5176 C   0  0  0  0  0  0  0  0  0  0  0  0
  151.0137  142.8426  157.1117 O   0  0  0  0  0  0  0  0  0  0  0  0
  149.0135  133.7198  154.1207 C   0  0  0  0  0  0  0  0  0  0  0  0
  149.1725  132.3505  153.8318 C   0  0  0  0  0  0  0  0  0  0  0  0
  150.0596  130.4843  154.4654 H   0  0  0  0  0  0  0  0  0  0  0  0
  151.1299  131.4622  156.4880 H   0  0  0  0  0  0  0  0  0  0  0  0
  150.8529  133.8747  157.0002 H   0  0  0  0  0  0  0  0  0  0  0  0
  148.3837  135.9506  155.7113 H   0  0  0  0  0  0  0  0  0  0  0  0
  149.9136  135.9847  156.5466 H   0  0  0  0  0  0  0  0  0  0  0  0
  149.7031  136.4577  153.6185 H   0  0  0  0  0  0  0  0  0  0  0  0
  154.0453  138.3067  154.3253 H   0  0  0  0  0  0  0  0  0  0  0  0
  149.0945  140.7273  157.6625 H   0  0  0  0  0  0  0  0  0  0  0  0
  152.7462  141.7818  157.0264 H   0  0  0  0  0  0  0  0  0  0  0  0
  150.8123  141.5102  159.4084 H   0  0  0  0  0  0  0  0  0  0  0  0
  152.3732  140.7023  159.2720 H   0  0  0  0  0  0  0  0  0  0  0  0
  152.5412  142.8365  160.6249 H   0  0  0  0  0  0  0  0  0  0  0  0
  153.5461  142.8909  159.1925 H   0  0  0  0  0  0  0  0  0  0  0  0
  150.7646  144.1287  159.5009 H   0  0  0  0  0  0  0  0  0  0  0  0
  152.2732  145.0072  159.3648 H   0  0  0  0  0  0  0  0  0  0  0  0
  151.0125  144.8974  157.1739 H   0  0  0  0  0  0  0  0  0  0  0  0
  152.6014  144.1699  157.0407 H   0  0  0  0  0  0  0  0  0  0  0  0
  148.4234  134.3385  153.4604 H   0  0  0  0  0  0  0  0  0  0  0  0
  148.7066  131.9263  152.9547 H   0  0  0  0  0  0  0  0  0  0  0  0
  1 23  1  0  0  0  0
  1  2  2  0  0  0  0
  1 24  1  0  0  0  0
  2  3  1  0  0  0  0
  2 25  1  0  0  0  0
  3  4  2  0  0  0  0
  3 26  1  0  0  0  0
  4  5  1  0  0  0  0
  4 22  1  0  0  0  0
  5  6  1  0  0  0  0
  5 27  1  0  0  0  0
  5 28  1  0  0  0  0
  6  7  1  0  0  0  0
  6 29  1  0  0  0  0
  7 12  1  0  0  0  0
  7  8  2  0  0  0  0
  8  9  1  0  0  0  0
  9 10  2  0  0  0  0
  9 30  1  0  0  0  0
 10 11  1  0  0  0  0
 11 15  1  0  0  0  0
 11 12  2  0  0  0  0
 12 13  1  0  0  0  0
 13 14  2  0  0  0  0
 14 15  1  0  0  0  0
 14 31  1  0  0  0  0
 15 16  1  0  0  0  0
 16 21  1  0  0  0  0
 16 17  1  0  0  0  0
 16 32  1  0  0  0  0
 17 18  1  0  0  0  0
 17 33  1  0  0  0  0
 17 34  1  0  0  0  0
 18 19  1  0  0  0  0
 18 35  1  0  0  0  0
 18 36  1  0  0  0  0
 19 20  1  0  0  0  0
 19 37  1  0  0  0  0
 19 38  1  0  0  0  0
 20 21  1  0  0  0  0
 20 39  1  0  0  0  0
 20 40  1  0  0  0  0
 22 23  2  0  0  0  0
 22 41  1  0  0  0  0
 23 42  1  0  0  0  0
M  END
> <s_m_source_file>
AV-unprocessed.smi

> <i_m_source_file_index>
105

> <i_lp_mmshare_version>
43012

> <i_f3d_flags>
0

> <s_epik_input>
W2NIXTFbY0hdW2NIXVtjSF1bY0hdYzFbQ0gyXVtOSF1jKG5bY0hdbjIpYyhjMjMpbltjSF1uM1tDQEBIXTRbQ0gyXVtDSDJdW0NIMl1bQ0gyXU80

> <s_epik_cmdline>
J2VwaWtfcHl0aG9uJywgJy1waCcsICc3LjAnLCAnLXRuJywgJzgnLCAnLW1hJywgJzIwMCcsICctbWV0YWxfYmluZGluZycsICctaW1hZScsICc8aW5maWxlLm1hZT4nLCAnLW9tYWUnLCAnPG91dGZpbGUubWFlPic=

> <r_lp_tautomer_probability>
1

> <r_epik_Ionization_Penalty>
0.000653933

> <r_epik_Ionization_Penalty_Charging>
0

> <r_epik_Ionization_Penalty_Neutral>
0.000653933

> <r_epik_State_Penalty>
-0

> <r_epik_Charging_Adjusted_Penalty>
0

> <i_epik_Tot_Q>
0

> <i_epik_Tot_abs_Q>
0

> <r_epik_Metal_State_Penalty>
-0

> <b_epik_Metal_Only>
0

> <s_epik_Chemistry_Notes>
This compound contains an acetal/aminal-like group ( X-CH(R)-Y where X, Y are N, S, or O) that may be acid/base labile, releasing an aldehyde.

> <s_lp_Force_Field>
OPLS_2005

> <r_lp_Energy>
24.2362

> <b_lp_Chiralities_Consistent>
1

> <s_lp_Variant>
AV-unprocessed.smi:105-1

> <Gold.Version>
5.8.1

> <Gold.Id.Protein>
6NUR|6NUR_protein|mol2

> <Gold.PLP.Fitness>
52.7799

> <Gold.PLP.PLP>
-45.7588

> <Gold.PLP.part.hbond>
-3.0000

> <Gold.PLP.part.metal>
0.0000

> <Gold.PLP.part.buried>
-7.5802

> <Gold.PLP.part.nonpolar>
-37.0801

> <Gold.PLP.part.repulsive>
0.3053

> <Gold.PLP.ligand.clash>
0.0000

> <Gold.PLP.ligand.torsion>
0.6872

> <Gold.PLP.Chemscore.Hbond>
2.7930

> <Gold.PLP.Chemscore.CHOScore>
0.0000

> <Gold.PLP.Chemscore.Metal>
0.0000

> <Gold.Chemscore.Hbonds>
donor molecule, donor type, donor heavy atom, donor atom, acceptor molecule, acceptor atom, score
      L1  H     6    29       P1  7948  1.00
      P1  H  7997  8008       L1    10  1.00
      P1  H 10752 10764       L1     8  0.80

> <Gold.PLP.Chemscore.Internal.Correction>
0.0165

> <Gold.Rescore>
     Score         DG    S(hbond)    S(metal)    S(lipo)     H(rot)  DE(clash)    DE(int)     intcor
     17.91     -18.72       2.15        0.00      85.84       1.55       0.14       0.66       ----

> <Gold.Chemscore.Fitness>
17.9113

> <Gold.Chemscore.DG>
-18.7175

> <Gold.Chemscore.ZeroCoef>
-5.4800

> <Gold.Chemscore.Hbond>
2.1478

> <Gold.Chemscore.Metal>
0.0000

> <Gold.Chemscore.Lipo>
85.8448

> <Gold.Chemscore.Internal_Hbond>
0.0000

> <Gold.Chemscore.DEClash>
0.1436

> <Gold.Chemscore.DEInternal>
0.6626

> <Gold.Chemscore.Rot>
1.5547

> <Gold.Chemscore.Internal.Correction>
   9.000000E+99

> <Gold.Chemscore.Hbonds>
donor molecule, donor type, donor heavy atom, donor atom, acceptor molecule, acceptor atom, score
      L1  H     6    29       P1  7948  0.45
      P1  H  7997  8008       L1    10  0.93
      P1  H 10752 10764       L1     8  0.60

> <Gold.Chemscore.Hbond.Weighted>
-7.1736

> <Gold.Chemscore.Metal.Weighted>
-0.0000

> <Gold.Chemscore.Lipo.Weighted>
-10.0438

> <Gold.Chemscore.Internal_Hbond.Weighted>
0.0000

> <Gold.Chemscore.DEClash.Weighted>
0.1436

> <Gold.Chemscore.DEInternal.Weighted>
0.6626

> <Gold.Chemscore.Rot.Weighted>
3.9800

> <Gold.Chemscore.Internal.Correction.Weighted>
   9.000000E+99

> <Gold.Protein.RotatedTorsions>
[ 6907 6896 6895 6894 ] final  103.08 input  -60.11 | X-H torsion
[ 7974 7965 7964 7962 ] final  -21.94 input  175.53 | X-H torsion
[ 8008 7997 7996 7995 ] final  -44.13 input   59.86 | X-H torsion
[ 10167 10162 10161 10158 ] final  -58.22 input  -65.29 | X-H torsion
[ 10718 10713 10712 10709 ] final  150.82 input   66.30 | X-H torsion
[ 10763 10752 10751 10750 ] final  -83.76 input  -60.55 | X-H torsion
[ 11005 11000 10999 10996 ] final   18.37 input  -57.11 | X-H torsion

> <Gold.Protein.ActiveResidues>
 VAL166  LYS551  ARG553  GLY616  TRP617  ASP618  TYR619  PRO620  LYS621  CYS622 
 ASP623  PHE694  ASN695  SER759  ASP760  ASP761  ALA762  ILE779  LEU786  VAL792 
 PHE793  MET794  SER795  GLU796  ALA797  LYS798  CYS799  TRP800  GLU811  SER814 

> <Gold.Protein.RotatedAtoms>
  152.5306  133.9879  159.7836 H   0  0  0  0  0  0  0  0  0  0  0  0  # atno 6907 bound_to 6896
  151.0120  133.5948  159.2688 H   0  0  0  0  0  0  0  0  0  0  0  0  # atno 6908 bound_to 6896
  151.3019  135.0777  159.9295 H   0  0  0  0  0  0  0  0  0  0  0  0  # atno 6909 bound_to 6896
  146.1704  140.4411  142.8535 H   0  0  0  0  0  0  0  0  0  0  0  0  # atno 7974 bound_to 7965
  154.3997  140.1430  156.3633 H   0  0  0  0  0  0  0  0  0  0  0  0  # atno 8008 bound_to 7997
  155.8160  140.3471  155.5465 H   0  0  0  0  0  0  0  0  0  0  0  0  # atno 8009 bound_to 7997
  155.8337  140.0916  157.1767 H   0  0  0  0  0  0  0  0  0  0  0  0  # atno 8010 bound_to 7997
  140.6211  143.2420  151.5479 H   0  0  0  0  0  0  0  0  0  0  0  0  # atno 10167 bound_to 10162
  157.2786  131.0831  151.1548 H   0  0  0  0  0  0  0  0  0  0  0  0  # atno 10718 bound_to 10713
  154.5915  135.5544  153.7283 H   0  0  0  0  0  0  0  0  0  0  0  0  # atno 10763 bound_to 10752
  153.0119  135.6344  154.1842 H   0  0  0  0  0  0  0  0  0  0  0  0  # atno 10764 bound_to 10752
  154.1783  135.2888  155.3040 H   0  0  0  0  0  0  0  0  0  0  0  0  # atno 10765 bound_to 10752
  140.4256  134.1473  155.7676 H   0  0  0  0  0  0  0  0  0  0  0  0  # atno 11005 bound_to 11000
  144.8154  140.6459  143.6387 LP  0  0  0  0  0  0  0  0  0  0  0  0  # atno 17320 bound_to 7965
  145.4355  139.1543  143.3999 LP  0  0  0  0  0  0  0  0  0  0  0  0  # atno 17321 bound_to 7965
  139.5439  144.2573  152.1405 LP  0  0  0  0  0  0  0  0  0  0  0  0  # atno 17342 bound_to 10162
  140.1793  144.4860  150.6537 LP  0  0  0  0  0  0  0  0  0  0  0  0  # atno 17343 bound_to 10162
  157.2992  130.6834  149.6155 LP  0  0  0  0  0  0  0  0  0  0  0  0  # atno 17370 bound_to 10713
  155.9664  130.4397  150.5270 LP  0  0  0  0  0  0  0  0  0  0  0  0  # atno 17371 bound_to 10713
  141.1766  133.8500  157.1399 LP  0  0  0  0  0  0  0  0  0  0  0  0  # atno 17394 bound_to 11000
  140.0170  134.9963  157.0513 LP  0  0  0  0  0  0  0  0  0  0  0  0  # atno 17395 bound_to 11000

$$$$
