AV-unprocessed.smi:148|AV-procd|sdf|1226|dock6
  -GOLD-   2262018423D 1   1.00000     0.00000
 Structure written by MMmdl.
 63 67  0  0  0  0  0  0  0  0  1 V2000
  154.3376  139.7776  159.0560 O   0  0  0  0  0  0  0  0  0  0  0  0
  153.1961  139.8882  159.8814 C   0  0  0  0  0  0  0  0  0  0  0  0
  152.0882  140.7318  159.2042 C   0  0  2  0  0  0  0  0  0  0  0  0
  151.5598  140.0871  157.8986 C   0  0  0  0  0  0  0  0  0  0  0  0
  151.1572  138.7011  158.0644 N   0  0  0  0  0  0  0  0  0  0  0  0
  151.9846  137.6306  158.3200 C   0  0  0  0  0  0  0  0  0  0  0  0
  151.3847  136.4765  158.4319 N   0  0  0  0  0  0  0  0  0  0  0  0
  150.0421  136.7788  158.2469 C   0  0  0  0  0  0  0  0  0  0  0  0
  148.8485  136.0110  158.2534 C   0  0  0  0  0  0  0  0  0  0  0  0
  148.8587  134.6771  158.4660 N   0  0  0  0  0  0  0  0  0  0  0  0
  148.8348  133.9687  157.1839 C   0  0  0  0  0  0  0  0  0  0  0  0
  149.1351  132.4775  157.3617 C   0  0  0  0  0  0  0  0  0  0  0  0
  148.1497  131.8674  158.3595 C   0  0  0  0  0  0  0  0  0  0  0  0
  148.2062  132.6379  159.6848 C   0  0  0  0  0  0  0  0  0  0  0  0
  147.9482  134.1594  159.5090 C   0  0  1  0  0  0  0  0  0  0  0  0
  148.0794  134.8982  160.8879 C   0  0  2  0  0  0  0  0  0  0  0  0
  147.3254  134.2384  162.0583 C   0  0  0  0  0  0  0  0  0  0  0  0
  147.2174  135.2992  163.1587 C   0  0  0  0  0  0  0  0  0  0  0  0
  147.4650  136.6487  162.4757 C   0  0  0  0  0  0  0  0  0  0  0  0
  147.5706  136.3564  160.9746 C   0  0  2  0  0  0  0  0  0  0  0  0
  146.2876  136.4897  160.3919 O   0  0  0  0  0  0  0  0  0  0  0  0
  147.6720  136.6556  158.0328 N   0  0  0  0  0  0  0  0  0  0  0  0
  147.6660  137.9764  157.8270 C   0  0  0  0  0  0  0  0  0  0  0  0
  148.6989  138.8220  157.8009 N   0  0  0  0  0  0  0  0  0  0  0  0
  149.8791  138.1729  158.0174 C   0  0  0  0  0  0  0  0  0  0  0  0
  152.5277  142.2006  158.9790 C   0  0  1  0  0  0  0  0  0  0  0  0
  151.4819  143.0898  158.3297 C   0  0  0  0  0  0  0  0  0  0  0  0
  151.9991  144.4838  158.6638 C   0  0  0  0  0  0  0  0  0  0  0  0
  152.6067  144.3648  159.9446 O   0  0  0  0  0  0  0  0  0  0  0  0
  152.8090  142.9907  160.2621 C   0  0  0  0  0  0  0  0  0  0  0  0
  154.5330  140.6290  158.6954 H   0  0  0  0  0  0  0  0  0  0  0  0
  152.8374  138.8865  160.1182 H   0  0  0  0  0  0  0  0  0  0  0  0
  153.4947  140.3305  160.8317 H   0  0  0  0  0  0  0  0  0  0  0  0
  151.2513  140.7529  159.9038 H   0  0  0  0  0  0  0  0  0  0  0  0
  150.6959  140.6349  157.5220 H   0  0  0  0  0  0  0  0  0  0  0  0
  152.3200  140.1401  157.1182 H   0  0  0  0  0  0  0  0  0  0  0  0
  153.0556  137.7342  158.4187 H   0  0  0  0  0  0  0  0  0  0  0  0
  147.8550  134.0884  156.7184 H   0  0  0  0  0  0  0  0  0  0  0  0
  149.5661  134.4057  156.5018 H   0  0  0  0  0  0  0  0  0  0  0  0
  149.0674  131.9641  156.4024 H   0  0  0  0  0  0  0  0  0  0  0  0
  150.1572  132.3450  157.7188 H   0  0  0  0  0  0  0  0  0  0  0  0
  147.1382  131.9045  157.9529 H   0  0  0  0  0  0  0  0  0  0  0  0
  148.3835  130.8155  158.5247 H   0  0  0  0  0  0  0  0  0  0  0  0
  147.4715  132.1940  160.3557 H   0  0  0  0  0  0  0  0  0  0  0  0
  149.1821  132.4838  160.1479 H   0  0  0  0  0  0  0  0  0  0  0  0
  146.9272  134.2706  159.1422 H   0  0  0  0  0  0  0  0  0  0  0  0
  149.1358  134.9004  161.1635 H   0  0  0  0  0  0  0  0  0  0  0  0
  146.3211  133.9555  161.7388 H   0  0  0  0  0  0  0  0  0  0  0  0
  147.8214  133.3377  162.4216 H   0  0  0  0  0  0  0  0  0  0  0  0
  146.2381  135.2640  163.6372 H   0  0  0  0  0  0  0  0  0  0  0  0
  147.9664  135.1289  163.9332 H   0  0  0  0  0  0  0  0  0  0  0  0
  146.6942  137.3842  162.7103 H   0  0  0  0  0  0  0  0  0  0  0  0
  148.4125  137.0570  162.8299 H   0  0  0  0  0  0  0  0  0  0  0  0
  148.2408  137.0756  160.5088 H   0  0  0  0  0  0  0  0  0  0  0  0
  146.3703  137.0037  159.6026 H   0  0  0  0  0  0  0  0  0  0  0  0
  146.6949  138.4193  157.6626 H   0  0  0  0  0  0  0  0  0  0  0  0
  153.4237  142.2218  158.3562 H   0  0  0  0  0  0  0  0  0  0  0  0
  151.3854  142.9294  157.2556 H   0  0  0  0  0  0  0  0  0  0  0  0
  150.5051  142.9325  158.7898 H   0  0  0  0  0  0  0  0  0  0  0  0
  152.7608  144.7885  157.9448 H   0  0  0  0  0  0  0  0  0  0  0  0
  151.2098  145.2358  158.6619 H   0  0  0  0  0  0  0  0  0  0  0  0
  152.1046  142.7175  161.0489 H   0  0  0  0  0  0  0  0  0  0  0  0
  153.8176  142.8219  160.6405 H   0  0  0  0  0  0  0  0  0  0  0  0
  1  2  1  0  0  0  0
  1 31  1  0  0  0  0
  2  3  1  0  0  0  0
  2 32  1  0  0  0  0
  2 33  1  0  0  0  0
  3  4  1  0  0  0  0
  3 26  1  0  0  0  0
  3 34  1  0  0  0  0
  4  5  1  0  0  0  0
  4 35  1  0  0  0  0
  4 36  1  0  0  0  0
  5 25  1  0  0  0  0
  5  6  1  0  0  0  0
  6  7  2  0  0  0  0
  6 37  1  0  0  0  0
  7  8  1  0  0  0  0
  8 25  2  0  0  0  0
  8  9  1  0  0  0  0
  9 10  1  0  0  0  0
  9 22  2  0  0  0  0
 10 15  1  0  0  0  0
 10 11  1  0  0  0  0
 11 12  1  0  0  0  0
 11 38  1  0  0  0  0
 11 39  1  0  0  0  0
 12 13  1  0  0  0  0
 12 40  1  0  0  0  0
 12 41  1  0  0  0  0
 13 14  1  0  0  0  0
 13 42  1  0  0  0  0
 13 43  1  0  0  0  0
 14 15  1  0  0  0  0
 14 44  1  0  0  0  0
 14 45  1  0  0  0  0
 15 16  1  0  0  0  0
 15 46  1  0  0  0  0
 16 20  1  0  0  0  0
 16 17  1  0  0  0  0
 16 47  1  0  0  0  0
 17 18  1  0  0  0  0
 17 48  1  0  0  0  0
 17 49  1  0  0  0  0
 18 19  1  0  0  0  0
 18 50  1  0  0  0  0
 18 51  1  0  0  0  0
 19 20  1  0  0  0  0
 19 52  1  0  0  0  0
 19 53  1  0  0  0  0
 20 21  1  0  0  0  0
 20 54  1  0  0  0  0
 21 55  1  0  0  0  0
 22 23  1  0  0  0  0
 23 24  2  0  0  0  0
 23 56  1  0  0  0  0
 24 25  1  0  0  0  0
 26 30  1  0  0  0  0
 26 27  1  0  0  0  0
 26 57  1  0  0  0  0
 27 28  1  0  0  0  0
 27 58  1  0  0  0  0
 27 59  1  0  0  0  0
 28 29  1  0  0  0  0
 28 60  1  0  0  0  0
 28 61  1  0  0  0  0
 29 30  1  0  0  0  0
 30 62  1  0  0  0  0
 30 63  1  0  0  0  0
M  END
> <s_m_source_file>
AV-unprocessed.smi

> <i_m_source_file_index>
148

> <i_lp_mmshare_version>
43012

> <i_f3d_flags>
0

> <s_epik_input>
W0NIMl0xT1tDSDJdW0NIMl1bQ0BIXTFbQ0BIXShbQ0gyXVtPSF0pW0NIMl1uKFtjSF1uMiljKGMyMyluW2NIXW5jM040W0NIMl1bQ0gyXVtDSDJdW0NIMl1bQ0BIXTRbQ0BASF01W0NIMl1bQ0gyXVtDSDJdW0NASF01W09IXQ==

> <s_epik_cmdline>
J2VwaWtfcHl0aG9uJywgJy1waCcsICc3LjAnLCAnLXRuJywgJzgnLCAnLW1hJywgJzIwMCcsICctbWV0YWxfYmluZGluZycsICctaW1hZScsICc8aW5maWxlLm1hZT4nLCAnLW9tYWUnLCAnPG91dGZpbGUubWFlPic=

> <r_lp_tautomer_probability>
1

> <r_epik_Ionization_Penalty>
0.00556303

> <r_epik_Ionization_Penalty_Charging>
0

> <r_epik_Ionization_Penalty_Neutral>
0.00556303

> <r_epik_State_Penalty>
0.00401767

> <r_epik_Charging_Adjusted_Penalty>
0.00401767

> <i_epik_Tot_Q>
0

> <i_epik_Tot_abs_Q>
0

> <r_epik_Metal_State_Penalty>
-0

> <b_epik_Metal_Only>
0

> <s_lp_Force_Field>
OPLS_2005

> <r_lp_Energy>
70.5735

> <b_lp_Chiralities_Consistent>
1

> <s_lp_Variant>
AV-unprocessed.smi:148-25

> <Gold.Version>
5.8.1

> <Gold.Id.Protein>
6NUR|6NUR_protein|mol2

> <Gold.PLP.Fitness>
50.2900

> <Gold.PLP.PLP>
-46.6011

> <Gold.PLP.part.hbond>
-3.0000

> <Gold.PLP.part.metal>
0.0000

> <Gold.PLP.part.buried>
-6.1448

> <Gold.PLP.part.nonpolar>
-37.8042

> <Gold.PLP.part.repulsive>
0.0189

> <Gold.PLP.ligand.clash>
0.0000

> <Gold.PLP.ligand.torsion>
0.6640

> <Gold.PLP.Chemscore.Hbond>
1.4553

> <Gold.PLP.Chemscore.CHOScore>
0.0000

> <Gold.PLP.Chemscore.Metal>
0.0000

> <Gold.Chemscore.Hbonds>
donor molecule, donor type, donor heavy atom, donor atom, acceptor molecule, acceptor atom, score
      P1  H  6896  6907       L1    10  0.64
      P1  H  6896  6908       L1     7  0.40

> <Gold.PLP.Chemscore.Internal.Correction>
0.6512

> <Gold.Rescore>
     Score         DG    S(hbond)    S(metal)    S(lipo)     H(rot)  DE(clash)    DE(int)     intcor
     12.34     -13.26       0.55        0.00     123.53       3.32       0.05       0.87       ----

> <Gold.Chemscore.Fitness>
12.3389

> <Gold.Chemscore.DG>
-13.2588

> <Gold.Chemscore.ZeroCoef>
-5.4800

> <Gold.Chemscore.Hbond>
0.5466

> <Gold.Chemscore.Metal>
0.0000

> <Gold.Chemscore.Lipo>
123.5305

> <Gold.Chemscore.Internal_Hbond>
0.0000

> <Gold.Chemscore.DEClash>
0.0491

> <Gold.Chemscore.DEInternal>
0.8708

> <Gold.Chemscore.Rot>
3.3203

> <Gold.Chemscore.Internal.Correction>
   9.000000E+99

> <Gold.Chemscore.Hbonds>
donor molecule, donor type, donor heavy atom, donor atom, acceptor molecule, acceptor atom, score
      P1  H  6896  6907       L1    10  0.04
      P1  H  6896  6908       L1     7  0.34

> <Gold.Chemscore.Hbond.Weighted>
-1.8257

> <Gold.Chemscore.Metal.Weighted>
-0.0000

> <Gold.Chemscore.Lipo.Weighted>
-14.4531

> <Gold.Chemscore.Internal_Hbond.Weighted>
0.0000

> <Gold.Chemscore.DEClash.Weighted>
0.0491

> <Gold.Chemscore.DEInternal.Weighted>
0.8708

> <Gold.Chemscore.Rot.Weighted>
8.5000

> <Gold.Chemscore.Internal.Correction.Weighted>
   9.000000E+99

> <Gold.Protein.RotatedTorsions>
[ 6907 6896 6895 6894 ] final -109.01 input  -60.11 | X-H torsion
[ 7974 7965 7964 7962 ] final    5.24 input  175.53 | X-H torsion
[ 8008 7997 7996 7995 ] final  -83.65 input   59.86 | X-H torsion
[ 10167 10162 10161 10158 ] final  154.25 input  -65.29 | X-H torsion
[ 10718 10713 10712 10709 ] final   54.87 input   66.30 | X-H torsion
[ 10763 10752 10751 10750 ] final  -32.41 input  -60.55 | X-H torsion
[ 11005 11000 10999 10996 ] final -155.89 input  -57.11 | X-H torsion

> <Gold.Protein.ActiveResidues>
 VAL166  LYS551  ARG553  GLY616  TRP617  ASP618  TYR619  PRO620  LYS621  CYS622 
 ASP623  PHE694  ASN695  SER759  ASP760  ASP761  ALA762  ILE779  LEU786  VAL792 
 PHE793  MET794  SER795  GLU796  ALA797  LYS798  CYS799  TRP800  GLU811  SER814 

> <Gold.Protein.RotatedAtoms>
  150.7536  133.9593  159.3510 H   0  0  0  0  0  0  0  0  0  0  0  0  # atno 6907 bound_to 6896
  151.7517  135.0829  160.0341 H   0  0  0  0  0  0  0  0  0  0  0  0  # atno 6908 bound_to 6896
  152.3461  133.6087  159.5947 H   0  0  0  0  0  0  0  0  0  0  0  0  # atno 6909 bound_to 6896
  146.2441  140.0413  142.8382 H   0  0  0  0  0  0  0  0  0  0  0  0  # atno 7974 bound_to 7965
  154.6214  140.0616  156.9619 H   0  0  0  0  0  0  0  0  0  0  0  0  # atno 8008 bound_to 7997
  155.1812  140.3299  155.4356 H   0  0  0  0  0  0  0  0  0  0  0  0  # atno 8009 bound_to 7997
  156.2433  140.1897  156.6908 H   0  0  0  0  0  0  0  0  0  0  0  0  # atno 8010 bound_to 7997
  139.4824  144.5203  151.7886 H   0  0  0  0  0  0  0  0  0  0  0  0  # atno 10167 bound_to 10162
  157.5295  130.8620  149.8667 H   0  0  0  0  0  0  0  0  0  0  0  0  # atno 10718 bound_to 10713
  153.8133  135.6880  153.4837 H   0  0  0  0  0  0  0  0  0  0  0  0  # atno 10763 bound_to 10752
  153.1614  135.4578  154.9776 H   0  0  0  0  0  0  0  0  0  0  0  0  # atno 10764 bound_to 10752
  154.7958  135.3318  154.7612 H   0  0  0  0  0  0  0  0  0  0  0  0  # atno 10765 bound_to 10752
  140.6816  134.4139  157.5226 H   0  0  0  0  0  0  0  0  0  0  0  0  # atno 11005 bound_to 11000
  145.1067  140.9379  143.4681 LP  0  0  0  0  0  0  0  0  0  0  0  0  # atno 17320 bound_to 7965
  145.0618  139.3100  143.5877 LP  0  0  0  0  0  0  0  0  0  0  0  0  # atno 17321 bound_to 7965
  140.4716  144.1578  150.5919 LP  0  0  0  0  0  0  0  0  0  0  0  0  # atno 17342 bound_to 10162
  140.4375  143.2541  151.9515 LP  0  0  0  0  0  0  0  0  0  0  0  0  # atno 17343 bound_to 10162
  156.0412  130.3738  150.1432 LP  0  0  0  0  0  0  0  0  0  0  0  0  # atno 17370 bound_to 10713
  156.9617  130.9807  151.3477 LP  0  0  0  0  0  0  0  0  0  0  0  0  # atno 17371 bound_to 10713
  139.8950  134.8693  156.2151 LP  0  0  0  0  0  0  0  0  0  0  0  0  # atno 17394 bound_to 11000
  141.0313  133.6987  156.1435 LP  0  0  0  0  0  0  0  0  0  0  0  0  # atno 17395 bound_to 11000

$$$$
