#       Name:                AV-unprocessed.smi:148
#       Creating user name   scv26
#       Creation time:       Thu Mar 26 18:41:56 2020


#       File generated by GOLD software.
#

@<TRIPOS>MOLECULE
AV-unprocessed.smi:148
    73    77     1
SMALL
NO_CHARGES


@<TRIPOS>ATOM
      1 ****        -4.3370  -3.1604   0.6269 O.3            1 S1                 0.0000
      2 ****        -2.9471  -3.2810   0.8439 C.3            1 S1                 0.0000
      3 ****        -2.4857  -2.4921   2.0972 C.3            1 S1                 0.0000
      4 ****        -0.9518  -2.2616   2.0875 C.3            1 S1                 0.0000
      5 ****        -0.4652  -1.6142   0.8814 N.pl3          1 S1                 0.0000
      6 ****         0.3085  -2.1834  -0.1058 C.2            1 S1                 0.0000
      7 ****         0.6207  -1.3915  -1.0953 N.2            1 S1                 0.0000
      8 ****         0.0234  -0.1844  -0.7578 C.ar           1 S1                 0.0000
      9 ****        -0.0318   1.0932  -1.3724 C.ar           1 S1                 0.0000
     10 ****         0.5754   1.3422  -2.5529 N.3            1 S1                 0.0000
     11 ****        -0.4241   1.6414  -3.5808 C.3            1 S1                 0.0000
     12 ****         0.1931   1.6195  -4.9823 C.3            1 S1                 0.0000
     13 ****         1.3706   2.5933  -5.0427 C.3            1 S1                 0.0000
     14 ****         2.3890   2.2499  -3.9479 C.3            1 S1                 0.0000
     15 ****         1.7611   2.2236  -2.5273 C.3            1 S1                 0.0000
     16 ****         2.8363   1.8110  -1.4606 C.3            1 S1                 0.0000
     17 ****         4.2309   2.4360  -1.6581 C.3            1 S1                 0.0000
     18 ****         4.9713   2.2795  -0.3249 C.3            1 S1                 0.0000
     19 ****         3.8969   1.9886   0.7285 C.3            1 S1                 0.0000
     20 ****         2.5491   2.1573   0.0192 C.3            1 S1                 0.0000
     21 ****         2.1245   3.5002   0.1604 O.3            1 S1                 0.0000
     22 ****        -0.7273   2.0766  -0.7423 N.ar           1 S1                 0.0000
     23 ****        -1.3216   1.8246   0.4284 C.ar           1 S1                 0.0000
     24 ****        -1.3484   0.6848   1.1241 N.ar           1 S1                 0.0000
     25 ****        -0.6582  -0.3030   0.4847 C.ar           1 S1                 0.0000
     26 ****        -2.9168  -3.1858   3.4196 C.3            1 S1                 0.0000
     27 ****        -2.5250  -2.4456   4.6883 C.3            1 S1                 0.0000
     28 ****        -3.4324  -3.0809   5.7358 C.3            1 S1                 0.0000
     29 ****        -4.6210  -3.4467   5.0458 O.3            1 S1                 0.0000
     30 ****        -4.4289  -3.3083   3.6420 C.3            1 S1                 0.0000
     31 ****        -4.5636  -3.6459  -0.1517 H              1 S1                 0.0000
     32 ****        -2.6803  -4.3347   0.9292 H              1 S1                 0.0000
     33 ****        -2.4718  -2.9102  -0.0628 H              1 S1                 0.0000
     34 ****        -2.9559  -1.5083   2.0611 H              1 S1                 0.0000
     35 ****        -0.6490  -1.6372   2.9280 H              1 S1                 0.0000
     36 ****        -0.4298  -3.2123   2.2039 H              1 S1                 0.0000
     37 ****         0.6304  -3.2140  -0.0724 H              1 S1                 0.0000
     38 ****        -1.2389   0.9169  -3.5331 H              1 S1                 0.0000
     39 ****        -0.8598   2.6234  -3.3903 H              1 S1                 0.0000
     40 ****         0.5311   0.6106  -5.2227 H              1 S1                 0.0000
     41 ****        -0.5565   1.8863  -5.7275 H              1 S1                 0.0000
     42 ****         1.8436   2.5516  -6.0242 H              1 S1                 0.0000
     43 ****         1.0138   3.6153  -4.9084 H              1 S1                 0.0000
     44 ****         2.8364   1.2792  -4.1672 H              1 S1                 0.0000
     45 ****         3.1943   2.9814  -4.0040 H              1 S1                 0.0000
     46 ****         1.4156   3.2346  -2.3093 H              1 S1                 0.0000
     47 ****         2.9713   0.7297  -1.5268 H              1 S1                 0.0000
     48 ****         4.7836   1.9751  -2.4774 H              1 S1                 0.0000
     49 ****         4.1315   3.4984  -1.8853 H              1 S1                 0.0000
     50 ****         5.6848   1.4559  -0.3715 H              1 S1                 0.0000
     51 ****         5.5317   3.1837  -0.0858 H              1 S1                 0.0000
     52 ****         3.9992   0.9553   1.0627 H              1 S1                 0.0000
     53 ****         3.9935   2.6208   1.6126 H              1 S1                 0.0000
     54 ****         1.8080   1.5075   0.4794 H              1 S1                 0.0000
     55 ****         2.7827   4.0639  -0.2163 H              1 S1                 0.0000
     56 ****        -1.8503   2.6558   0.8709 H              1 S1                 0.0000
     57 ****        -2.4803  -4.1853   3.4602 H              1 S1                 0.0000
     58 ****        -1.4699  -2.5493   4.9428 H              1 S1                 0.0000
     59 ****        -2.7507  -1.3823   4.5933 H              1 S1                 0.0000
     60 ****        -2.9739  -3.9848   6.1387 H              1 S1                 0.0000
     61 ****        -3.6438  -2.4079   6.5670 H              1 S1                 0.0000
     62 ****        -4.9423  -2.4023   3.3163 H              1 S1                 0.0000
     63 ****        -4.8634  -4.1545   3.1095 H              1 S1                 0.0000
     64 ****        -4.5767  -2.1972   0.5051 LP             1 S1                 0.0000
     65 ****        -4.8340  -3.5309   1.4116 LP             1 S1                 0.0000
     66 ****         1.1637  -1.6046  -1.9075 LP             1 S1                 0.0000
     67 ****         1.0305   0.4911  -2.8146 LP             1 S1                 0.0000
     68 ****         2.0090   3.7173   1.1297 LP             1 S1                 0.0000
     69 ****         1.2553   3.6311  -0.3164 LP             1 S1                 0.0000
     70 ****        -0.7942   2.9858  -1.1533 LP             1 S1                 0.0000
     71 ****        -1.8147   0.5702   2.0013 LP             1 S1                 0.0000
     72 ****        -5.3702  -2.8524   5.3380 LP             1 S1                 0.0000
     73 ****        -4.8478  -4.3974   5.2572 LP             1 S1                 0.0000
@<TRIPOS>BOND
    1    1    2 1     
    2    1   31 1     
    3    2    3 1     
    4    2   32 1     
    5    2   33 1     
    6    3    4 1     
    7    3   26 1     
    8    3   34 1     
    9    4    5 1     
   10    4   35 1     
   11    4   36 1     
   12    5   25 1     
   13    5    6 1     
   14    6    7 2     
   15    6   37 1     
   16    7    8 1     
   17    8   25 ar    
   18    8    9 ar    
   19    9   10 1     
   20    9   22 ar    
   21   10   15 1     
   22   10   11 1     
   23   11   12 1     
   24   11   38 1     
   25   11   39 1     
   26   12   13 1     
   27   12   40 1     
   28   12   41 1     
   29   13   14 1     
   30   13   42 1     
   31   13   43 1     
   32   14   15 1     
   33   14   44 1     
   34   14   45 1     
   35   15   16 1     
   36   15   46 1     
   37   16   20 1     
   38   16   17 1     
   39   16   47 1     
   40   17   18 1     
   41   17   48 1     
   42   17   49 1     
   43   18   19 1     
   44   18   50 1     
   45   18   51 1     
   46   19   20 1     
   47   19   52 1     
   48   19   53 1     
   49   20   21 1     
   50   20   54 1     
   51   21   55 1     
   52   22   23 ar    
   53   23   24 ar    
   54   23   56 1     
   55   24   25 ar    
   56   26   30 1     
   57   26   27 1     
   58   26   57 1     
   59   27   28 1     
   60   27   58 1     
   61   27   59 1     
   62   28   29 1     
   63   28   60 1     
   64   28   61 1     
   65   29   30 1     
   66   30   62 1     
   67   30   63 1     
   68    1   64 1     
   69    1   65 1     
   70    7   66 1     
   71   10   67 1     
   72   21   68 1     
   73   21   69 1     
   74   22   70 1     
   75   24   71 1     
   76   29   72 1     
   77   29   73 1     
@<TRIPOS>SUBSTRUCTURE
      1 S1             1
@<TRIPOS>SET
LONE_PAIRS      STATIC     ATOMS    <user>   **** ""
10 64 65 66 67 68 69 70 71 72 73
DONOR_HYDROGENS      STATIC     ATOMS    <user>   **** ""
2 31 55
ATOM$BLUE        STATIC     ATOMS    COLORGROUP SYSTEM
10 64 65 66 67 68 69 70 71 72 73
ATOM$RED        STATIC     ATOMS    COLORGROUP SYSTEM
2 31 55
