#       Name:                AV-unprocessed.smi:52
#       Creating user name   scv26
#       Creation time:       Thu Mar 26 16:38:25 2020


#       File generated by GOLD software.
#

@<TRIPOS>MOLECULE
AV-unprocessed.smi:52
    36    37     1
SMALL
NO_CHARGES


@<TRIPOS>ATOM
      1 ****        -5.6089  -0.7878   1.3642 O.co2          1 S1                 0.0000
      2 ****        -4.5243  -1.4093   1.3147 C.2            1 S1                 0.0000
      3 ****        -4.4821  -2.6578   1.2514 O.co2          1 S1                -1.0000
      4 ****        -3.2516  -0.6421   1.3314 C.2            1 S1                 0.0000
      5 ****        -3.1160   0.7218   1.3926 C.2            1 S1                 0.0000
      6 ****        -1.7855   1.0429   1.3891 O.3            1 S1                 0.0000
      7 ****        -1.1514  -0.1592   1.3230 C.2            1 S1                 0.0000
      8 ****         0.3411  -0.1914   1.2892 C.3            1 S1                 0.0000
      9 ****         0.9003   0.4538   0.1061 N.3            1 S1                 0.0000
     10 ****         0.5845  -0.2275  -1.1391 C.3            1 S1                 0.0000
     11 ****         1.6195   0.2450  -2.1697 C.3            1 S1                 0.0000
     12 ****         2.7320   0.8779  -1.3177 C.3            1 S1                 0.0000
     13 ****         4.0189   0.4075  -1.6584 O.3            1 S1                 0.0000
     14 ****         2.3473   0.5006   0.1133 C.3            1 S1                 0.0000
     15 ****        -1.9799  -1.2003   1.2865 N.2            1 S1                 0.0000
     16 ****         2.7060   1.9627  -1.4290 H              1 S1                 0.0000
     17 ****        -3.8168   1.5420   1.4397 H              1 S1                 0.0000
     18 ****         0.7055   0.3103   2.1861 H              1 S1                 0.0000
     19 ****         0.6747  -1.2282   1.3524 H              1 S1                 0.0000
     20 ****         0.6818  -1.3066  -1.0077 H              1 S1                 0.0000
     21 ****        -0.4389  -0.0258  -1.4569 H              1 S1                 0.0000
     22 ****         1.9746  -0.5948  -2.7685 H              1 S1                 0.0000
     23 ****         1.1920   0.9830  -2.8493 H              1 S1                 0.0000
     24 ****         4.2013   0.6549  -2.5520 H              1 S1                 0.0000
     25 ****         2.7261   1.2118   0.8480 H              1 S1                 0.0000
     26 ****         2.7491  -0.4842   0.3601 H              1 S1                 0.0000
     27 ****        -6.4737  -1.2897   1.3537 LP             1 S1                 0.0000
     28 ****        -5.6110   0.2110   1.4143 LP             1 S1                 0.0000
     29 ****        -5.3306  -3.1868   1.2393 LP             1 S1                 0.0000
     30 ****        -3.5998  -3.1269   1.2130 LP             1 S1                 0.0000
     31 ****        -1.5361   1.5298   2.2262 LP             1 S1                 0.0000
     32 ****        -1.5591   1.6073   0.5953 LP             1 S1                 0.0000
     33 ****         0.4871   1.3635   0.1480 LP             1 S1                 0.0000
     34 ****         4.0482  -0.5882  -1.5713 LP             1 S1                 0.0000
     35 ****         4.6994   0.8155  -1.0497 LP             1 S1                 0.0000
     36 ****        -1.7401  -2.1699   1.2376 LP             1 S1                 0.0000
@<TRIPOS>BOND
    1    1    2 ar    
    2    2    3 ar    
    3    2    4 1     
    4    4   15 1     
    5    4    5 2     
    6    5    6 1     
    7    5   17 1     
    8    6    7 1     
    9    7    8 1     
   10    7   15 2     
   11    8    9 1     
   12    8   18 1     
   13    8   19 1     
   14    9   14 1     
   15    9   10 1     
   16   10   11 1     
   17   10   20 1     
   18   10   21 1     
   19   11   12 1     
   20   11   22 1     
   21   11   23 1     
   22   12   16 1     
   23   12   13 1     
   24   12   14 1     
   25   13   24 1     
   26   14   25 1     
   27   14   26 1     
   28    1   27 1     
   29    1   28 1     
   30    3   29 1     
   31    3   30 1     
   32    6   31 1     
   33    6   32 1     
   34    9   33 1     
   35   13   34 1     
   36   13   35 1     
   37   15   36 1     
@<TRIPOS>SUBSTRUCTURE
      1 S1             1
@<TRIPOS>SET
LONE_PAIRS      STATIC     ATOMS    <user>   **** ""
10 27 28 29 30 31 32 33 34 35 36
DONOR_HYDROGENS      STATIC     ATOMS    <user>   **** ""
1 24
ATOM$BLUE        STATIC     ATOMS    COLORGROUP SYSTEM
10 27 28 29 30 31 32 33 34 35 36
ATOM$RED        STATIC     ATOMS    COLORGROUP SYSTEM
1 24
