AV-unprocessed.smi:187|AV-procd|sdf|1469|dock4
  -GOLD-   2262019283D 1   1.00000     0.00000
 Structure written by MMmdl.
 53 56  0  0  0  0  0  0  0  0  1 V2000
  145.7532  139.0038  157.2689 C   0  0  0  0  0  0  0  0  0  0  0  0
  146.0124  139.8135  155.9809 C   0  0  1  0  0  0  0  0  0  0  0  0
  146.4379  141.2480  156.3599 C   0  0  0  0  0  0  0  0  0  0  0  0
  146.8043  142.0893  155.1258 C   0  0  0  0  0  0  0  0  0  0  0  0
  147.8506  141.3896  154.2337 C   0  0  1  0  0  0  0  0  0  0  0  0
  149.2680  141.4253  154.8375 C   0  0  0  0  0  0  0  0  0  0  0  0
  149.5516  142.4445  155.6527 N   0  0  0  0  0  0  0  0  0  0  0  0
  150.1017  140.5621  154.5696 O   0  0  0  0  0  0  0  0  0  0  0  0
  147.3809  139.9547  153.9142 C   0  0  0  0  0  0  0  0  0  0  0  0
  147.0282  139.1947  155.1151 N   0  0  0  0  0  0  0  0  0  0  0  0
  146.8684  137.8875  154.8042 C   0  0  0  0  0  0  0  0  0  0  0  0
  147.5634  136.9316  155.4765 N   0  0  0  0  0  0  0  0  0  0  0  0
  147.3858  135.6418  155.1738 C   0  0  0  0  0  0  0  0  0  0  0  0
  146.5733  135.1014  154.2622 N   0  0  0  0  0  0  0  0  0  0  0  0
  145.8656  136.0604  153.5982 C   0  0  0  0  0  0  0  0  0  0  0  0
  145.9533  137.4646  153.8052 C   0  0  0  0  0  0  0  0  0  0  0  0
  145.0938  138.1302  152.9414 N   0  0  0  0  0  0  0  0  0  0  0  0
  144.5351  137.1720  152.2531 C   0  0  0  0  0  0  0  0  0  0  0  0
  144.9229  135.8959  152.5990 N   0  0  0  0  0  0  0  0  0  0  0  0
  144.4999  134.6663  151.9959 C   0  0  0  0  0  0  0  0  0  0  0  0
  145.3335  133.3868  152.1021 C   0  0  0  0  0  0  0  0  0  0  0  0
  144.8416  132.9611  150.6995 C   0  0  0  0  0  0  0  0  0  0  0  0
  145.9090  132.3381  149.7843 C   0  0  0  0  0  0  0  0  0  0  0  0
  147.1982  132.8286  150.0919 O   0  0  0  0  0  0  0  0  0  0  0  0
  143.5805  132.0736  150.6823 C   0  0  0  0  0  0  0  0  0  0  0  0
  143.0311  131.9823  149.3835 O   0  0  0  0  0  0  0  0  0  0  0  0
  144.5846  134.4688  150.4814 C   0  0  0  0  0  0  0  0  0  0  0  0
  145.0330  139.5137  157.9091 H   0  0  0  0  0  0  0  0  0  0  0  0
  146.6707  138.8724  157.8437 H   0  0  0  0  0  0  0  0  0  0  0  0
  145.3462  138.0142  157.0625 H   0  0  0  0  0  0  0  0  0  0  0  0
  145.0813  139.8751  155.4157 H   0  0  0  0  0  0  0  0  0  0  0  0
  145.6335  141.7404  156.9072 H   0  0  0  0  0  0  0  0  0  0  0  0
  147.2862  141.2130  157.0441 H   0  0  0  0  0  0  0  0  0  0  0  0
  145.9027  142.2716  154.5396 H   0  0  0  0  0  0  0  0  0  0  0  0
  147.1631  143.0706  155.4390 H   0  0  0  0  0  0  0  0  0  0  0  0
  147.8947  141.9332  153.2884 H   0  0  0  0  0  0  0  0  0  0  0  0
  150.4652  142.5138  156.0765 H   0  0  0  0  0  0  0  0  0  0  0  0
  148.8472  143.1422  155.8436 H   0  0  0  0  0  0  0  0  0  0  0  0
  146.5100  139.9966  153.2580 H   0  0  0  0  0  0  0  0  0  0  0  0
  148.1608  139.4324  153.3568 H   0  0  0  0  0  0  0  0  0  0  0  0
  147.9776  134.9422  155.7457 H   0  0  0  0  0  0  0  0  0  0  0  0
  143.8162  137.3753  151.4729 H   0  0  0  0  0  0  0  0  0  0  0  0
  143.4827  134.4930  152.3513 H   0  0  0  0  0  0  0  0  0  0  0  0
  146.4064  133.5859  152.1317 H   0  0  0  0  0  0  0  0  0  0  0  0
  145.0388  132.7271  152.9187 H   0  0  0  0  0  0  0  0  0  0  0  0
  145.9311  131.2538  149.8973 H   0  0  0  0  0  0  0  0  0  0  0  0
  145.6986  132.5306  148.7319 H   0  0  0  0  0  0  0  0  0  0  0  0
  147.8370  132.1896  149.8144 H   0  0  0  0  0  0  0  0  0  0  0  0
  143.8040  131.0616  151.0201 H   0  0  0  0  0  0  0  0  0  0  0  0
  142.8159  132.4541  151.3600 H   0  0  0  0  0  0  0  0  0  0  0  0
  142.3181  132.5987  149.3154 H   0  0  0  0  0  0  0  0  0  0  0  0
  143.6663  134.7051  149.9428 H   0  0  0  0  0  0  0  0  0  0  0  0
  145.4386  134.9878  150.0416 H   0  0  0  0  0  0  0  0  0  0  0  0
  1  2  1  0  0  0  0
  1 28  1  0  0  0  0
  1 29  1  0  0  0  0
  1 30  1  0  0  0  0
  2 10  1  0  0  0  0
  2  3  1  0  0  0  0
  2 31  1  0  0  0  0
  3  4  1  0  0  0  0
  3 32  1  0  0  0  0
  3 33  1  0  0  0  0
  4  5  1  0  0  0  0
  4 34  1  0  0  0  0
  4 35  1  0  0  0  0
  5  6  1  0  0  0  0
  5  9  1  0  0  0  0
  5 36  1  0  0  0  0
  6  7  1  0  0  0  0
  6  8  2  0  0  0  0
  7 37  1  0  0  0  0
  7 38  1  0  0  0  0
  9 10  1  0  0  0  0
  9 39  1  0  0  0  0
  9 40  1  0  0  0  0
 10 11  1  0  0  0  0
 11 16  1  0  0  0  0
 11 12  2  0  0  0  0
 12 13  1  0  0  0  0
 13 14  2  0  0  0  0
 13 41  1  0  0  0  0
 14 15  1  0  0  0  0
 15 19  1  0  0  0  0
 15 16  2  0  0  0  0
 16 17  1  0  0  0  0
 17 18  2  0  0  0  0
 18 19  1  0  0  0  0
 18 42  1  0  0  0  0
 19 20  1  0  0  0  0
 20 27  1  0  0  0  0
 20 21  1  0  0  0  0
 20 43  1  0  0  0  0
 21 22  1  0  0  0  0
 21 44  1  0  0  0  0
 21 45  1  0  0  0  0
 22 23  1  0  0  0  0
 22 25  1  0  0  0  0
 22 27  1  0  0  0  0
 23 24  1  0  0  0  0
 23 46  1  0  0  0  0
 23 47  1  0  0  0  0
 24 48  1  0  0  0  0
 25 26  1  0  0  0  0
 25 49  1  0  0  0  0
 25 50  1  0  0  0  0
 26 51  1  0  0  0  0
 27 52  1  0  0  0  0
 27 53  1  0  0  0  0
M  END
> <s_m_source_file>
AV-unprocessed.smi

> <i_m_source_file_index>
187

> <i_lp_mmshare_version>
43012

> <i_f3d_flags>
0

> <s_epik_input>
W0NIM11bQ0BASF0xW0NIMl1bQ0gyXVtDQEBIXShDKD1PKVtOSDJdKVtDSDJdTjFjKG5bY0hdbjIpYyhjMjMpbltjSF1uM1tDSF0oW0NIMl00KVtDSDJdQzQoW0NIMl1bT0hdKVtDSDJdW09IXQ==

> <s_epik_cmdline>
J2VwaWtfcHl0aG9uJywgJy1waCcsICc3LjAnLCAnLXRuJywgJzgnLCAnLW1hJywgJzIwMCcsICctbWV0YWxfYmluZGluZycsICctaW1hZScsICc8aW5maWxlLm1hZT4nLCAnLW9tYWUnLCAnPG91dGZpbGUubWFlPic=

> <r_lp_tautomer_probability>
1

> <r_epik_Ionization_Penalty>
0.0017711

> <r_epik_Ionization_Penalty_Charging>
0

> <r_epik_Ionization_Penalty_Neutral>
0.0017711

> <r_epik_State_Penalty>
0.00107211

> <r_epik_Charging_Adjusted_Penalty>
0.00107211

> <i_epik_Tot_Q>
0

> <i_epik_Tot_abs_Q>
0

> <r_epik_Metal_State_Penalty>
-0

> <b_epik_Metal_Only>
0

> <s_lp_Force_Field>
OPLS_2005

> <r_lp_Energy>
37.2201

> <b_lp_Chiralities_Consistent>
1

> <s_lp_Variant>
AV-unprocessed.smi:187-2

> <Gold.Version>
5.8.1

> <Gold.Id.Protein>
6NUR|6NUR_protein|mol2

> <Gold.PLP.Fitness>
49.4260

> <Gold.PLP.PLP>
-35.0427

> <Gold.PLP.part.hbond>
-6.4438

> <Gold.PLP.part.metal>
0.0000

> <Gold.PLP.part.buried>
-4.9647

> <Gold.PLP.part.nonpolar>
-25.4365

> <Gold.PLP.part.repulsive>
1.6961

> <Gold.PLP.ligand.clash>
0.0000

> <Gold.PLP.ligand.torsion>
1.7444

> <Gold.PLP.Chemscore.Hbond>
4.7148

> <Gold.PLP.Chemscore.CHOScore>
1.0000

> <Gold.PLP.Chemscore.Metal>
0.0000

> <Gold.Chemscore.Hbonds>
donor molecule, donor type, donor heavy atom, donor atom, acceptor molecule, acceptor atom, score
      L1  H     7    38       P1  8028  0.62
      L1  H    24    48       P1 10747  0.99
      L1  H    26    51       P1 10186  0.46
      P1  H  7989  7998       L1     8  0.86
      P1  H 10785 10796       L1    26  1.00
      L1  C    18    42       P1 10171  1.00

> <Gold.PLP.Chemscore.Internal.Correction>
0.7278

> <Gold.Rescore>
     Score         DG    S(hbond)    S(metal)    S(lipo)     H(rot)  DE(clash)    DE(int)     intcor
     12.55     -16.67       4.14        0.00      64.87       3.99       1.52       2.60       ----

> <Gold.Chemscore.Fitness>
12.5460

> <Gold.Chemscore.DG>
-16.6687

> <Gold.Chemscore.ZeroCoef>
-5.4800

> <Gold.Chemscore.Hbond>
4.1358

> <Gold.Chemscore.Metal>
0.0000

> <Gold.Chemscore.Lipo>
64.8714

> <Gold.Chemscore.Internal_Hbond>
0.0000

> <Gold.Chemscore.DEClash>
1.5243

> <Gold.Chemscore.DEInternal>
2.5984

> <Gold.Chemscore.Rot>
3.9902

> <Gold.Chemscore.Internal.Correction>
   9.000000E+99

> <Gold.Chemscore.Hbonds>
donor molecule, donor type, donor heavy atom, donor atom, acceptor molecule, acceptor atom, score
      L1  H     7    38       P1  8028  0.61
      L1  H    24    48       P1 10747  0.93
      L1  H    26    51       P1 10186  0.46
      P1  H  7989  7998       L1     8  0.86
      P1  H 10785 10796       L1    26  0.69

> <Gold.Chemscore.Hbond.Weighted>
-13.8136

> <Gold.Chemscore.Metal.Weighted>
-0.0000

> <Gold.Chemscore.Lipo.Weighted>
-7.5900

> <Gold.Chemscore.Internal_Hbond.Weighted>
0.0000

> <Gold.Chemscore.DEClash.Weighted>
1.5243

> <Gold.Chemscore.DEInternal.Weighted>
2.5984

> <Gold.Chemscore.Rot.Weighted>
10.2148

> <Gold.Chemscore.Internal.Correction.Weighted>
   9.000000E+99

> <Gold.Protein.RotatedTorsions>
[ 6907 6896 6895 6894 ] final -163.25 input  -60.11 | X-H torsion
[ 7974 7965 7964 7962 ] final  -83.37 input  175.53 | X-H torsion
[ 8008 7997 7996 7995 ] final  -47.81 input   59.86 | X-H torsion
[ 10167 10162 10161 10158 ] final  -66.43 input  -65.29 | X-H torsion
[ 10718 10713 10712 10709 ] final -162.37 input   66.30 | X-H torsion
[ 10763 10752 10751 10750 ] final  132.25 input  -60.55 | X-H torsion
[ 11005 11000 10999 10996 ] final  -34.09 input  -57.11 | X-H torsion

> <Gold.Protein.ActiveResidues>
 VAL166  LYS551  ARG553  GLY616  TRP617  ASP618  TYR619  PRO620  LYS621  CYS622 
 ASP623  PHE694  ASN695  SER759  ASP760  ASP761  ALA762  ILE779  LEU786  VAL792 
 PHE793  MET794  SER795  GLU796  ALA797  LYS798  CYS799  TRP800  GLU811  SER814 

> <Gold.Protein.RotatedAtoms>
  151.3931  133.3782  159.2723 H   0  0  0  0  0  0  0  0  0  0  0  0  # atno 6907 bound_to 6896
  150.9490  134.8893  159.7670 H   0  0  0  0  0  0  0  0  0  0  0  0  # atno 6908 bound_to 6896
  152.5104  134.3885  159.9428 H   0  0  0  0  0  0  0  0  0  0  0  0  # atno 6909 bound_to 6896
  145.5209  140.9531  143.1656 H   0  0  0  0  0  0  0  0  0  0  0  0  # atno 7974 bound_to 7965
  154.4021  140.1337  156.4236 H   0  0  0  0  0  0  0  0  0  0  0  0  # atno 8008 bound_to 7997
  155.7619  140.3486  155.5182 H   0  0  0  0  0  0  0  0  0  0  0  0  # atno 8009 bound_to 7997
  155.8851  140.0994  157.1448 H   0  0  0  0  0  0  0  0  0  0  0  0  # atno 8010 bound_to 7997
  140.5657  143.2314  151.6639 H   0  0  0  0  0  0  0  0  0  0  0  0  # atno 10167 bound_to 10162
  156.6095  130.8844  151.2933 H   0  0  0  0  0  0  0  0  0  0  0  0  # atno 10718 bound_to 10713
  153.7876  135.3159  155.3374 H   0  0  0  0  0  0  0  0  0  0  0  0  # atno 10763 bound_to 10752
  154.8138  135.4650  154.0590 H   0  0  0  0  0  0  0  0  0  0  0  0  # atno 10764 bound_to 10752
  153.1898  135.6906  153.8454 H   0  0  0  0  0  0  0  0  0  0  0  0  # atno 10765 bound_to 10752
  140.9688  133.7121  156.1489 H   0  0  0  0  0  0  0  0  0  0  0  0  # atno 11005 bound_to 11000
  144.7676  139.6808  143.7208 LP  0  0  0  0  0  0  0  0  0  0  0  0  # atno 17320 bound_to 7965
  146.2106  139.5461  142.9683 LP  0  0  0  0  0  0  0  0  0  0  0  0  # atno 17321 bound_to 7965
  139.5092  144.3586  152.0584 LP  0  0  0  0  0  0  0  0  0  0  0  0  # atno 17342 bound_to 10162
  140.2717  144.3956  150.6149 LP  0  0  0  0  0  0  0  0  0  0  0  0  # atno 17343 bound_to 10162
  157.7258  130.9621  150.1630 LP  0  0  0  0  0  0  0  0  0  0  0  0  # atno 17370 bound_to 10713
  156.2402  130.3690  149.8346 LP  0  0  0  0  0  0  0  0  0  0  0  0  # atno 17371 bound_to 10713
  140.7359  134.4203  157.5560 LP  0  0  0  0  0  0  0  0  0  0  0  0  # atno 17394 bound_to 11000
  139.8904  134.8805  156.2369 LP  0  0  0  0  0  0  0  0  0  0  0  0  # atno 17395 bound_to 11000

$$$$
