AV-unprocessed.smi:844|AV-procd|sdf|3925|dock9
  -GOLD-   22720 1383D 1   1.00000     0.00000
 Structure written by MMmdl.
 33 35  0  0  0  0  0  0  0  0  2 V2000
  151.0610  144.3001  156.7422 O   0  0  0  0  0  0  0  0  0  0  0  0
  151.2642  143.0330  157.3331 C   0  0  2  0  0  0  0  0  0  0  0  0
  149.9683  142.2142  157.1640 C   0  0  0  0  0  0  0  0  0  0  0  0
  149.9722  141.3974  155.9439 N   0  0  0  0  0  0  0  0  0  0  0  0
  149.2496  141.5315  154.7986 C   0  0  0  0  0  0  0  0  0  0  0  0
  149.6001  140.5091  153.9700 N   0  3  0  0  0  0  0  0  0  0  0  0
  150.5638  139.7132  154.5931 C   0  0  0  0  0  0  0  0  0  0  0  0
  151.2222  138.5676  154.1566 C   0  0  0  0  0  0  0  0  0  0  0  0
  152.1555  137.9962  155.0468 C   0  0  0  0  0  0  0  0  0  0  0  0
  152.4042  138.5621  156.3144 C   0  0  0  0  0  0  0  0  0  0  0  0
  151.7303  139.7232  156.7469 C   0  0  0  0  0  0  0  0  0  0  0  0
  150.8097  140.2808  155.8608 C   0  0  0  0  0  0  0  0  0  0  0  0
  151.6941  143.1344  158.7925 C   0  0  0  0  0  0  0  0  0  0  0  0
  152.6064  142.2008  159.3331 C   0  0  0  0  0  0  0  0  0  0  0  0
  153.0198  142.3038  160.6753 C   0  0  0  0  0  0  0  0  0  0  0  0
  152.5263  143.3430  161.4863 C   0  0  0  0  0  0  0  0  0  0  0  0
  152.9263  143.4446  162.7758 F   0  0  0  0  0  0  0  0  0  0  0  0
  151.6203  144.2795  160.9538 C   0  0  0  0  0  0  0  0  0  0  0  0
  151.2055  144.1785  159.6116 C   0  0  0  0  0  0  0  0  0  0  0  0
  150.3439  145.0975  159.1124 F   0  0  0  0  0  0  0  0  0  0  0  0
  150.1934  144.3212  156.3680 H   0  0  0  0  0  0  0  0  0  0  0  0
  152.0634  142.5624  156.7606 H   0  0  0  0  0  0  0  0  0  0  0  0
  149.8240  141.5430  158.0119 H   0  0  0  0  0  0  0  0  0  0  0  0
  149.0940  142.8660  157.1321 H   0  0  0  0  0  0  0  0  0  0  0  0
  148.5221  142.3028  154.5900 H   0  0  0  0  0  0  0  0  0  0  0  0
  151.0335  138.1315  153.1867 H   0  0  0  0  0  0  0  0  0  0  0  0
  152.6914  137.1058  154.7515 H   0  0  0  0  0  0  0  0  0  0  0  0
  153.1266  138.0963  156.9689 H   0  0  0  0  0  0  0  0  0  0  0  0
  151.9258  140.1491  157.7201 H   0  0  0  0  0  0  0  0  0  0  0  0
  152.9972  141.4031  158.7182 H   0  0  0  0  0  0  0  0  0  0  0  0
  153.7172  141.5863  161.0818 H   0  0  0  0  0  0  0  0  0  0  0  0
  151.2445  145.0790  161.5754 H   0  0  0  0  0  0  0  0  0  0  0  0
  149.2082  140.3672  153.0477 H   0  0  0  0  0  0  0  0  0  0  0  0
  1  2  1  0  0  0  0
  1 21  1  0  0  0  0
  2  3  1  0  0  0  0
  2 13  1  0  0  0  0
  2 22  1  0  0  0  0
  3  4  1  0  0  0  0
  3 23  1  0  0  0  0
  3 24  1  0  0  0  0
  4 12  1  0  0  0  0
  4  5  1  0  0  0  0
  5  6  2  0  0  0  0
  5 25  1  0  0  0  0
  6  7  1  0  0  0  0
  6 33  1  0  0  0  0
  7 12  2  0  0  0  0
  7  8  1  0  0  0  0
  8  9  2  0  0  0  0
  8 26  1  0  0  0  0
  9 10  1  0  0  0  0
  9 27  1  0  0  0  0
 10 11  2  0  0  0  0
 10 28  1  0  0  0  0
 11 12  1  0  0  0  0
 11 29  1  0  0  0  0
 13 19  1  0  0  0  0
 13 14  2  0  0  0  0
 14 15  1  0  0  0  0
 14 30  1  0  0  0  0
 15 16  2  0  0  0  0
 15 31  1  0  0  0  0
 16 17  1  0  0  0  0
 16 18  1  0  0  0  0
 18 19  2  0  0  0  0
 18 32  1  0  0  0  0
 19 20  1  0  0  0  0
M  CHG  1   6   1
M  END
> <s_m_source_file>
AV-unprocessed.smi

> <i_m_source_file_index>
844

> <i_lp_mmshare_version>
43012

> <i_f3d_flags>
0

> <s_epik_input>
RmMxW2NIXWMoRilbY0hdW2NIXWMxW0NASF0oW09IXSlbQ0gyXW4oW2NIXW4yKWMoYzIzKVtjSF1bY0hdW2NIXVtjSF0z

> <s_epik_cmdline>
J2VwaWtfcHl0aG9uJywgJy1waCcsICc3LjAnLCAnLXRuJywgJzgnLCAnLW1hJywgJzIwMCcsICctbWV0YWxfYmluZGluZycsICctaW1hZScsICc8aW5maWxlLm1hZT4nLCAnLW9tYWUnLCAnPG91dGZpbGUubWFlPic=

> <r_epik_Ionization_Penalty>
1.3029

> <r_epik_Ionization_Penalty_Charging>
1.3029

> <r_epik_Ionization_Penalty_Neutral>
1.79538e-06

> <r_epik_State_Penalty>
1.377

> <r_epik_Charging_Adjusted_Penalty>
2.6799

> <i_epik_Tot_Q>
1

> <i_epik_Tot_abs_Q>
1

> <r_epik_Metal_State_Penalty>
5.40879

> <b_epik_Metal_Only>
0

> <s_lp_Force_Field>
OPLS_2005

> <r_lp_Energy>
17.7817

> <b_lp_Chiralities_Consistent>
1

> <s_lp_Variant>
AV-unprocessed.smi:844-3

> <Gold.Version>
5.8.1

> <Gold.Id.Protein>
6NUR|6NUR_protein|mol2

> <Gold.PLP.Fitness>
57.8500

> <Gold.PLP.PLP>
-52.2893

> <Gold.PLP.part.hbond>
-2.0000

> <Gold.PLP.part.metal>
0.0000

> <Gold.PLP.part.buried>
-6.4216

> <Gold.PLP.part.nonpolar>
-44.8119

> <Gold.PLP.part.repulsive>
1.2937

> <Gold.PLP.ligand.clash>
0.0000

> <Gold.PLP.ligand.torsion>
1.2866

> <Gold.PLP.Chemscore.Hbond>
1.7930

> <Gold.PLP.Chemscore.CHOScore>
0.9145

> <Gold.PLP.Chemscore.Metal>
0.0000

> <Gold.Chemscore.Hbonds>
donor molecule, donor type, donor heavy atom, donor atom, acceptor molecule, acceptor atom, score
      L1  H     1    21       P1  8028  0.96
      L1  H     6    33       P1  7957  0.91
      L1  C     5    25       P1  8028  0.56

> <Gold.PLP.Chemscore.Internal.Correction>
0.0114

> <Gold.Rescore>
     Score         DG    S(hbond)    S(metal)    S(lipo)     H(rot)  DE(clash)    DE(int)     intcor
     17.77     -19.53       1.63        0.00     118.62       2.06       0.05       1.71       ----

> <Gold.Chemscore.Fitness>
17.7664

> <Gold.Chemscore.DG>
-19.5296

> <Gold.Chemscore.ZeroCoef>
-5.4800

> <Gold.Chemscore.Hbond>
1.6299

> <Gold.Chemscore.Metal>
0.0000

> <Gold.Chemscore.Lipo>
118.6204

> <Gold.Chemscore.Internal_Hbond>
0.0000

> <Gold.Chemscore.DEClash>
0.0528

> <Gold.Chemscore.DEInternal>
1.7104

> <Gold.Chemscore.Rot>
2.0597

> <Gold.Chemscore.Internal.Correction>
   9.000000E+99

> <Gold.Chemscore.Hbonds>
donor molecule, donor type, donor heavy atom, donor atom, acceptor molecule, acceptor atom, score
      L1  H     1    21       P1  8028  0.91
      L1  H     6    33       P1  7957  0.87

> <Gold.Chemscore.Hbond.Weighted>
-5.4438

> <Gold.Chemscore.Metal.Weighted>
-0.0000

> <Gold.Chemscore.Lipo.Weighted>
-13.8786

> <Gold.Chemscore.Internal_Hbond.Weighted>
0.0000

> <Gold.Chemscore.DEClash.Weighted>
0.0528

> <Gold.Chemscore.DEInternal.Weighted>
1.7104

> <Gold.Chemscore.Rot.Weighted>
5.2728

> <Gold.Chemscore.Internal.Correction.Weighted>
   9.000000E+99

> <Gold.Protein.RotatedTorsions>
[ 6907 6896 6895 6894 ] final   43.12 input  -60.11 | X-H torsion
[ 7974 7965 7964 7962 ] final  -45.45 input  175.53 | X-H torsion
[ 8008 7997 7996 7995 ] final  151.69 input   59.86 | X-H torsion
[ 10167 10162 10161 10158 ] final   -2.77 input  -65.29 | X-H torsion
[ 10718 10713 10712 10709 ] final   71.19 input   66.30 | X-H torsion
[ 10763 10752 10751 10750 ] final -103.19 input  -60.55 | X-H torsion
[ 11005 11000 10999 10996 ] final -174.34 input  -57.11 | X-H torsion

> <Gold.Protein.ActiveResidues>
 VAL166  LYS551  ARG553  GLY616  TRP617  ASP618  TYR619  PRO620  LYS621  CYS622 
 ASP623  PHE694  ASN695  SER759  ASP760  ASP761  ALA762  ILE779  LEU786  VAL792 
 PHE793  MET794  SER795  GLU796  ALA797  LYS798  CYS799  TRP800  GLU811  SER814 

> <Gold.Protein.RotatedAtoms>
  152.2163  134.8454  160.0491 H   0  0  0  0  0  0  0  0  0  0  0  0  # atno 6907 bound_to 6896
  151.9254  133.3591  159.3920 H   0  0  0  0  0  0  0  0  0  0  0  0  # atno 6908 bound_to 6896
  150.6989  134.4517  159.5383 H   0  0  0  0  0  0  0  0  0  0  0  0  # atno 6909 bound_to 6896
  145.9819  140.7274  142.9359 H   0  0  0  0  0  0  0  0  0  0  0  0  # atno 7974 bound_to 7965
  156.2663  140.2041  156.6215 H   0  0  0  0  0  0  0  0  0  0  0  0  # atno 8008 bound_to 7997
  154.6753  140.0546  157.0233 H   0  0  0  0  0  0  0  0  0  0  0  0  # atno 8009 bound_to 7997
  155.1078  140.3212  155.4532 H   0  0  0  0  0  0  0  0  0  0  0  0  # atno 8010 bound_to 7997
  140.6864  143.6618  150.8260 H   0  0  0  0  0  0  0  0  0  0  0  0  # atno 10167 bound_to 10162
  157.6439  130.9515  150.0755 H   0  0  0  0  0  0  0  0  0  0  0  0  # atno 10718 bound_to 10713
  154.7789  135.4832  153.9803 H   0  0  0  0  0  0  0  0  0  0  0  0  # atno 10763 bound_to 10752
  153.1467  135.6783  153.8951 H   0  0  0  0  0  0  0  0  0  0  0  0  # atno 10764 bound_to 10752
  153.8608  135.3155  155.3416 H   0  0  0  0  0  0  0  0  0  0  0  0  # atno 10765 bound_to 10752
  140.4756  134.6124  157.4899 H   0  0  0  0  0  0  0  0  0  0  0  0  # atno 11005 bound_to 11000
  144.6864  140.2923  143.7276 LP  0  0  0  0  0  0  0  0  0  0  0  0  # atno 17320 bound_to 7965
  145.7757  139.1873  143.2187 LP  0  0  0  0  0  0  0  0  0  0  0  0  # atno 17321 bound_to 7965
  140.0325  143.5428  152.2753 LP  0  0  0  0  0  0  0  0  0  0  0  0  # atno 17342 bound_to 10162
  139.6226  144.7632  151.2706 LP  0  0  0  0  0  0  0  0  0  0  0  0  # atno 17343 bound_to 10162
  156.1746  130.3647  149.9118 LP  0  0  0  0  0  0  0  0  0  0  0  0  # atno 17370 bound_to 10713
  156.7085  130.8961  151.3607 LP  0  0  0  0  0  0  0  0  0  0  0  0  # atno 17371 bound_to 10713
  139.9858  134.7064  155.9777 LP  0  0  0  0  0  0  0  0  0  0  0  0  # atno 17394 bound_to 11000
  141.1556  133.6543  156.4151 LP  0  0  0  0  0  0  0  0  0  0  0  0  # atno 17395 bound_to 11000

$$$$
