AV-unprocessed.smi:2447|AV-procd|sdf|9650|dock6
  -GOLD-   2272013283D 1   1.00000     0.00000
 Structure written by MMmdl.
 29 30  0  0  0  0  0  0  0  0  2 V2000
  149.7282  138.6179  153.1846 N   0  0  0  0  0  0  0  0  0  0  0  0
  150.1133  138.7812  154.4497 C   0  0  0  0  0  0  0  0  0  0  0  0
  149.9750  137.8338  155.2230 O   0  0  0  0  0  0  0  0  0  0  0  0
  150.6207  140.0112  154.7154 N   0  5  0  0  0  0  0  0  0  0  0  0
  150.9457  140.4604  155.9452 C   0  0  0  0  0  0  0  0  0  0  0  0
  150.7209  139.6224  157.0052 N   0  0  0  0  0  0  0  0  0  0  0  0
  151.1449  140.3747  158.0092 C   0  0  0  0  0  0  0  0  0  0  0  0
  151.5937  141.5683  157.6311 N   0  0  0  0  0  0  0  0  0  0  0  0
  152.1350  142.6644  158.4194 C   0  0  0  0  0  0  0  0  0  0  0  0
  152.0980  142.3479  159.9290 C   0  0  0  0  0  0  0  0  0  0  0  0
  152.6814  143.5054  160.7557 C   0  0  0  0  0  0  0  0  0  0  0  0
  151.9574  144.8269  160.4506 C   0  0  0  0  0  0  0  0  0  0  0  0
  151.9908  145.1471  158.9474 C   0  0  0  0  0  0  0  0  0  0  0  0
  151.4068  143.9908  158.1193 C   0  0  0  0  0  0  0  0  0  0  0  0
  151.4724  141.6453  156.2855 N   0  0  0  0  0  0  0  0  0  0  0  0
  149.3370  137.7363  152.8885 H   0  0  0  0  0  0  0  0  0  0  0  0
  149.8320  139.3811  152.5326 H   0  0  0  0  0  0  0  0  0  0  0  0
  151.1270  140.0474  159.0381 H   0  0  0  0  0  0  0  0  0  0  0  0
  153.1797  142.7804  158.1258 H   0  0  0  0  0  0  0  0  0  0  0  0
  151.0713  142.1621  160.2480 H   0  0  0  0  0  0  0  0  0  0  0  0
  152.6548  141.4326  160.1324 H   0  0  0  0  0  0  0  0  0  0  0  0
  152.6058  143.2766  161.8189 H   0  0  0  0  0  0  0  0  0  0  0  0
  153.7448  143.6115  160.5369 H   0  0  0  0  0  0  0  0  0  0  0  0
  150.9215  144.7602  160.7857 H   0  0  0  0  0  0  0  0  0  0  0  0
  152.4137  145.6406  161.0150 H   0  0  0  0  0  0  0  0  0  0  0  0
  151.4334  146.0632  158.7497 H   0  0  0  0  0  0  0  0  0  0  0  0
  153.0187  145.3372  158.6362 H   0  0  0  0  0  0  0  0  0  0  0  0
  151.4802  144.2249  157.0567 H   0  0  0  0  0  0  0  0  0  0  0  0
  150.3431  143.8932  158.3413 H   0  0  0  0  0  0  0  0  0  0  0  0
  1  2  1  0  0  0  0
  1 16  1  0  0  0  0
  1 17  1  0  0  0  0
  2  3  2  0  0  0  0
  2  4  1  0  0  0  0
  4  5  1  0  0  0  0
  5 15  2  0  0  0  0
  5  6  1  0  0  0  0
  6  7  2  0  0  0  0
  7  8  1  0  0  0  0
  7 18  1  0  0  0  0
  8  9  1  0  0  0  0
  8 15  1  0  0  0  0
  9 14  1  0  0  0  0
  9 10  1  0  0  0  0
  9 19  1  0  0  0  0
 10 11  1  0  0  0  0
 10 20  1  0  0  0  0
 10 21  1  0  0  0  0
 11 12  1  0  0  0  0
 11 22  1  0  0  0  0
 11 23  1  0  0  0  0
 12 13  1  0  0  0  0
 12 24  1  0  0  0  0
 12 25  1  0  0  0  0
 13 14  1  0  0  0  0
 13 26  1  0  0  0  0
 13 27  1  0  0  0  0
 14 28  1  0  0  0  0
 14 29  1  0  0  0  0
M  CHG  1   4  -1
M  END
> <s_m_source_file>
AV-unprocessed.smi

> <i_m_source_file_index>
2447

> <i_lp_mmshare_version>
43012

> <i_f3d_flags>
0

> <s_epik_input>
W05IMl1DKD1PKVtOSF1jMW5bY0hdbihuMSlbQ0hdMltDSDJdW0NIMl1bQ0gyXVtDSDJdW0NIMl0y

> <s_epik_cmdline>
J2VwaWtfcHl0aG9uJywgJy1waCcsICc3LjAnLCAnLXRuJywgJzgnLCAnLW1hJywgJzIwMCcsICctbWV0YWxfYmluZGluZycsICctaW1hZScsICc8aW5maWxlLm1hZT4nLCAnLW9tYWUnLCAnPG91dGZpbGUubWFlPic=

> <r_epik_Ionization_Penalty>
6.34251

> <r_epik_Ionization_Penalty_Charging>
2.59949

> <r_epik_Ionization_Penalty_Neutral>
3.74302

> <r_epik_State_Penalty>
2.59208

> <r_epik_Charging_Adjusted_Penalty>
5.19156

> <i_epik_Tot_Q>
-1

> <i_epik_Tot_abs_Q>
1

> <r_epik_Metal_State_Penalty>
0.11953

> <b_epik_Metal_Only>
1

> <s_lp_Force_Field>
OPLS_2005

> <r_lp_Energy>
9.7345

> <b_lp_Chiralities_Consistent>
1

> <s_lp_Variant>
AV-unprocessed.smi:2447-2

> <Gold.Version>
5.8.1

> <Gold.Id.Protein>
6NUR|6NUR_protein|mol2

> <Gold.PLP.Fitness>
41.9963

> <Gold.PLP.PLP>
-33.1230

> <Gold.PLP.part.hbond>
-2.7726

> <Gold.PLP.part.metal>
0.0000

> <Gold.PLP.part.buried>
-3.6314

> <Gold.PLP.part.nonpolar>
-26.2147

> <Gold.PLP.part.repulsive>
0.3422

> <Gold.PLP.ligand.clash>
0.0000

> <Gold.PLP.ligand.torsion>
0.0739

> <Gold.PLP.Chemscore.Hbond>
3.0000

> <Gold.PLP.Chemscore.CHOScore>
0.0000

> <Gold.PLP.Chemscore.Metal>
0.0000

> <Gold.Chemscore.Hbonds>
donor molecule, donor type, donor heavy atom, donor atom, acceptor molecule, acceptor atom, score
      L1  H     1    16       P1  7948  1.00
      L1  H     1    17       P1  7957  0.99
      P1  H  7989  7998       L1     4  1.00

> <Gold.PLP.Chemscore.Internal.Correction>
0.0211

> <Gold.Rescore>
     Score         DG    S(hbond)    S(metal)    S(lipo)     H(rot)  DE(clash)    DE(int)     intcor
     17.81     -19.46       2.55        0.00      68.72       1.00       0.02       1.63       ----

> <Gold.Chemscore.Fitness>
17.8109

> <Gold.Chemscore.DG>
-19.4605

> <Gold.Chemscore.ZeroCoef>
-5.4800

> <Gold.Chemscore.Hbond>
2.5451

> <Gold.Chemscore.Metal>
0.0000

> <Gold.Chemscore.Lipo>
68.7185

> <Gold.Chemscore.Internal_Hbond>
0.0000

> <Gold.Chemscore.DEClash>
0.0234

> <Gold.Chemscore.DEInternal>
1.6262

> <Gold.Chemscore.Rot>
1.0000

> <Gold.Chemscore.Internal.Correction>
   9.000000E+99

> <Gold.Chemscore.Hbonds>
donor molecule, donor type, donor heavy atom, donor atom, acceptor molecule, acceptor atom, score
      L1  H     1    16       P1  7948  0.94
      L1  H     1    17       P1  7957  0.85
      P1  H  7989  7998       L1     4  0.69

> <Gold.Chemscore.Hbond.Weighted>
-8.5005

> <Gold.Chemscore.Metal.Weighted>
-0.0000

> <Gold.Chemscore.Lipo.Weighted>
-8.0401

> <Gold.Chemscore.Internal_Hbond.Weighted>
0.0000

> <Gold.Chemscore.DEClash.Weighted>
0.0234

> <Gold.Chemscore.DEInternal.Weighted>
1.6262

> <Gold.Chemscore.Rot.Weighted>
2.5600

> <Gold.Chemscore.Internal.Correction.Weighted>
   9.000000E+99

> <Gold.Protein.RotatedTorsions>
[ 6907 6896 6895 6894 ] final -161.51 input  -60.11 | X-H torsion
[ 7974 7965 7964 7962 ] final   63.32 input  175.53 | X-H torsion
[ 8008 7997 7996 7995 ] final   85.23 input   59.86 | X-H torsion
[ 10167 10162 10161 10158 ] final -152.24 input  -65.29 | X-H torsion
[ 10718 10713 10712 10709 ] final   27.58 input   66.30 | X-H torsion
[ 10763 10752 10751 10750 ] final -141.06 input  -60.55 | X-H torsion
[ 11005 11000 10999 10996 ] final -128.26 input  -57.11 | X-H torsion

> <Gold.Protein.ActiveResidues>
 VAL166  LYS551  ARG553  GLY616  TRP617  ASP618  TYR619  PRO620  LYS621  CYS622 
 ASP623  PHE694  ASN695  SER759  ASP760  ASP761  ALA762  ILE779  LEU786  VAL792 
 PHE793  MET794  SER795  GLU796  ALA797  LYS798  CYS799  TRP800  GLU811  SER814 

> <Gold.Protein.RotatedAtoms>
  151.3657  133.3873  159.2694 H   0  0  0  0  0  0  0  0  0  0  0  0  # atno 6907 bound_to 6896
  150.9690  134.9067  159.7787 H   0  0  0  0  0  0  0  0  0  0  0  0  # atno 6908 bound_to 6896
  152.5177  134.3619  159.9340 H   0  0  0  0  0  0  0  0  0  0  0  0  # atno 6909 bound_to 6896
  145.8632  139.3328  143.0806 H   0  0  0  0  0  0  0  0  0  0  0  0  # atno 7974 bound_to 7965
  155.9473  140.3403  155.6378 H   0  0  0  0  0  0  0  0  0  0  0  0  # atno 8008 bound_to 7997
  155.6964  140.0755  157.2446 H   0  0  0  0  0  0  0  0  0  0  0  0  # atno 8009 bound_to 7997
  154.4114  140.1648  156.2130 H   0  0  0  0  0  0  0  0  0  0  0  0  # atno 8010 bound_to 7997
  139.7199  143.8974  152.2499 H   0  0  0  0  0  0  0  0  0  0  0  0  # atno 10167 bound_to 10162
  157.2221  130.6983  149.6274 H   0  0  0  0  0  0  0  0  0  0  0  0  # atno 10718 bound_to 10713
  154.8558  135.3535  154.5808 H   0  0  0  0  0  0  0  0  0  0  0  0  # atno 10763 bound_to 10752
  153.6418  135.6998  153.5243 H   0  0  0  0  0  0  0  0  0  0  0  0  # atno 10764 bound_to 10752
  153.2964  135.4219  155.1172 H   0  0  0  0  0  0  0  0  0  0  0  0  # atno 10765 bound_to 10752
  140.9531  134.1039  157.4043 H   0  0  0  0  0  0  0  0  0  0  0  0  # atno 11005 bound_to 11000
  145.9224  140.9106  143.0398 LP  0  0  0  0  0  0  0  0  0  0  0  0  # atno 17320 bound_to 7965
  144.6726  140.1306  143.7444 LP  0  0  0  0  0  0  0  0  0  0  0  0  # atno 17321 bound_to 7965
  139.8867  144.6988  150.8816 LP  0  0  0  0  0  0  0  0  0  0  0  0  # atno 17342 bound_to 10162
  140.7751  143.3618  151.1814 LP  0  0  0  0  0  0  0  0  0  0  0  0  # atno 17343 bound_to 10162
  155.9681  130.4516  150.5744 LP  0  0  0  0  0  0  0  0  0  0  0  0  # atno 17370 bound_to 10713
  157.3565  131.0742  151.1671 LP  0  0  0  0  0  0  0  0  0  0  0  0  # atno 17371 bound_to 10713
  139.8853  135.0071  156.6429 LP  0  0  0  0  0  0  0  0  0  0  0  0  # atno 17394 bound_to 11000
  140.7574  133.8846  155.8392 LP  0  0  0  0  0  0  0  0  0  0  0  0  # atno 17395 bound_to 11000

$$$$
