#       Name:                AV-unprocessed.smi:542
#       Creating user name   scv26
#       Creation time:       Thu Mar 26 23:36:42 2020


#       File generated by GOLD software.
#

@<TRIPOS>MOLECULE
AV-unprocessed.smi:542
    53    55     1
SMALL
NO_CHARGES


@<TRIPOS>ATOM
      1 ****        -3.7958   2.9710  -1.3177 C.3            1 S1                 0.0000
      2 ****        -3.3058   1.6732  -1.0299 O.3            1 S1                 0.0000
      3 ****        -1.9413   1.5186  -1.3817 C.3            1 S1                 0.0000
      4 ****        -1.5056   0.0813  -1.0510 C.3            1 S1                 0.0000
      5 ****        -0.0722  -0.1255  -1.2415 N.pl3          1 S1                 0.0000
      6 ****         0.9150  -0.2244  -0.3034 C.2            1 S1                 0.0000
      7 ****         0.6925  -0.1120   1.0768 N.pl3          1 S1                 0.0000
      8 ****        -0.1221   0.8874   1.7730 C.3            1 S1                 0.0000
      9 ****        -1.0926   0.2456   2.7819 C.3            1 S1                 0.0000
     10 ****        -0.3265  -0.5860   3.8228 C.3            1 S1                 0.0000
     11 ****        -1.2741  -1.3049   4.7930 C.3            1 S1                 0.0000
     12 ****         0.6028  -1.5685   3.0918 C.3            1 S1                 0.0000
     13 ****         1.4898  -0.8321   2.0723 C.3            1 S1                 0.0000
     14 ****         2.1255  -0.4741  -0.8101 N.2            1 S1                 0.0000
     15 ****         1.9000  -0.5232  -2.1751 C.2            1 S1                 0.0000
     16 ****         0.5858  -0.3287  -2.4610 C.2            1 S1                 0.0000
     17 ****         0.0326  -0.3636  -3.8346 C.2            1 S1                 0.0000
     18 ****        -1.1699  -0.2146  -4.0410 O.2            1 S1                 0.0000
     19 ****         1.0026  -0.5781  -4.7789 N.pl3          1 S1                -1.0000
     20 ****         2.3449  -0.7691  -4.5325 C.2            1 S1                 0.0000
     21 ****         3.1531  -0.9554  -5.4431 O.2            1 S1                 0.0000
     22 ****         2.8087  -0.7540  -3.2436 N.am           1 S1                 0.0000
     23 ****         4.2296  -0.9625  -2.9503 C.3            1 S1                 0.0000
     24 ****        -4.8438   3.0403  -1.0261 H              1 S1                 0.0000
     25 ****        -3.7278   3.1904  -2.3841 H              1 S1                 0.0000
     26 ****        -3.2421   3.7326  -0.7673 H              1 S1                 0.0000
     27 ****        -1.8065   1.7270  -2.4430 H              1 S1                 0.0000
     28 ****        -1.3350   2.2447  -0.8404 H              1 S1                 0.0000
     29 ****        -1.7800  -0.1789  -0.0320 H              1 S1                 0.0000
     30 ****        -2.0487  -0.6300  -1.6727 H              1 S1                 0.0000
     31 ****         0.5446   1.5752   2.2949 H              1 S1                 0.0000
     32 ****        -0.6713   1.5018   1.0664 H              1 S1                 0.0000
     33 ****        -1.6727   1.0234   3.2792 H              1 S1                 0.0000
     34 ****        -1.8098  -0.3870   2.2583 H              1 S1                 0.0000
     35 ****         0.2953   0.0942   4.4068 H              1 S1                 0.0000
     36 ****        -1.9269  -2.0020   4.2667 H              1 S1                 0.0000
     37 ****        -1.9061  -0.5923   5.3236 H              1 S1                 0.0000
     38 ****        -0.7158  -1.8702   5.5395 H              1 S1                 0.0000
     39 ****         1.2295  -2.0967   3.8111 H              1 S1                 0.0000
     40 ****         0.0130  -2.3283   2.5769 H              1 S1                 0.0000
     41 ****         2.1355  -1.5581   1.5773 H              1 S1                 0.0000
     42 ****         2.1511  -0.1300   2.5815 H              1 S1                 0.0000
     43 ****         4.5623  -1.9266  -3.3367 H              1 S1                 0.0000
     44 ****         4.4456  -0.9500  -1.8824 H              1 S1                 0.0000
     45 ****         4.8332  -0.1817  -3.4148 H              1 S1                 0.0000
     46 ****        -3.8466   1.0054  -1.5412 LP             1 S1                 0.0000
     47 ****        -3.4057   1.5027  -0.0496 LP             1 S1                 0.0000
     48 ****         2.9887  -0.5964  -0.3202 LP             1 S1                 0.0000
     49 ****        -1.7943  -0.0665  -3.2740 LP             1 S1                 0.0000
     50 ****        -1.5239  -0.2414  -4.9759 LP             1 S1                 0.0000
     51 ****         0.7092  -0.5978  -5.7347 LP             1 S1                 0.0000
     52 ****         2.8411  -0.9711  -6.3930 LP             1 S1                 0.0000
     53 ****         4.1212  -1.0909  -5.2324 LP             1 S1                 0.0000
@<TRIPOS>BOND
    1    1    2 1     
    2    1   24 1     
    3    1   25 1     
    4    1   26 1     
    5    2    3 1     
    6    3    4 1     
    7    3   27 1     
    8    3   28 1     
    9    4    5 1     
   10    4   29 1     
   11    4   30 1     
   12    5   16 1     
   13    5    6 1     
   14    6    7 1     
   15    6   14 2     
   16    7   13 1     
   17    7    8 1     
   18    8    9 1     
   19    8   31 1     
   20    8   32 1     
   21    9   10 1     
   22    9   33 1     
   23    9   34 1     
   24   10   11 1     
   25   10   12 1     
   26   10   35 1     
   27   11   36 1     
   28   11   37 1     
   29   11   38 1     
   30   12   13 1     
   31   12   39 1     
   32   12   40 1     
   33   13   41 1     
   34   13   42 1     
   35   14   15 1     
   36   15   22 1     
   37   15   16 2     
   38   16   17 1     
   39   17   18 2     
   40   17   19 1     
   41   19   20 1     
   42   20   21 2     
   43   20   22 am    
   44   22   23 1     
   45   23   43 1     
   46   23   44 1     
   47   23   45 1     
   48    2   46 1     
   49    2   47 1     
   50   14   48 1     
   51   18   49 1     
   52   18   50 1     
   53   19   51 1     
   54   21   52 1     
   55   21   53 1     
@<TRIPOS>SUBSTRUCTURE
      1 S1             1
@<TRIPOS>SET
LONE_PAIRS      STATIC     ATOMS    <user>   **** ""
8 46 47 48 49 50 51 52 53
ATOM$BLUE        STATIC     ATOMS    COLORGROUP SYSTEM
8 46 47 48 49 50 51 52 53
