AV-unprocessed.smi:1502|AV-procd|sdf|6067|dock9
  -GOLD-   22720 6183D 1   1.00000     0.00000
 Structure written by MMmdl.
 40 41  0  0  0  0  0  0  0  0  1 V2000
  151.4941  140.6033  155.4790 O   0  0  0  0  0  0  0  0  0  0  0  0
  150.3198  140.8704  155.7316 C   0  0  0  0  0  0  0  0  0  0  0  0
  149.2224  140.4108  154.7550 C   0  0  0  0  0  0  0  0  0  0  0  0
  147.9343  141.1115  154.8923 N   0  0  0  0  0  0  0  0  0  0  0  0
  147.7779  142.1775  154.0236 N   0  0  0  0  0  0  0  0  0  0  0  0
  146.6952  142.8749  154.0632 C   0  0  0  0  0  0  0  0  0  0  0  0
  145.6240  142.5821  154.9896 C   0  0  0  0  0  0  0  0  0  0  0  0
  144.1947  143.5539  154.9971 Cl  0  0  0  0  0  0  0  0  0  0  0  0
  145.7855  141.5331  155.8347 C   0  0  0  0  0  0  0  0  0  0  0  0
  144.5483  141.1226  156.9725 Cl  0  0  0  0  0  0  0  0  0  0  0  0
  147.0068  140.7163  155.8187 C   0  0  0  0  0  0  0  0  0  0  0  0
  147.1952  139.7630  156.5748 O   0  0  0  0  0  0  0  0  0  0  0  0
  149.9466  141.5517  156.8289 N   0  0  0  0  0  0  0  0  0  0  0  0
  150.8338  142.0525  157.8759 C   0  0  0  0  0  0  0  0  0  0  0  0
  151.6576  143.2407  157.3273 C   0  0  0  0  0  0  0  0  0  0  0  0
  151.5258  144.5467  158.1340 C   0  0  0  0  0  0  0  0  0  0  0  0
  151.5923  144.4458  159.6725 C   0  0  0  0  0  0  0  0  0  0  0  0
  152.7971  143.6888  160.2581 C   0  0  0  0  0  0  0  0  0  0  0  0
  152.5722  142.1819  160.5118 C   0  0  0  0  0  0  0  0  0  0  0  0
  152.8916  141.2619  159.3203 C   0  0  0  0  0  0  0  0  0  0  0  0
  151.7071  140.8916  158.4037 C   0  0  0  0  0  0  0  0  0  0  0  0
  149.6057  140.5387  153.7410 H   0  0  0  0  0  0  0  0  0  0  0  0
  149.0805  139.3349  154.8723 H   0  0  0  0  0  0  0  0  0  0  0  0
  146.5288  143.7238  153.4000 H   0  0  0  0  0  0  0  0  0  0  0  0
  148.9604  141.7282  156.9535 H   0  0  0  0  0  0  0  0  0  0  0  0
  150.1980  142.4002  158.6889 H   0  0  0  0  0  0  0  0  0  0  0  0
  152.7103  142.9744  157.2455 H   0  0  0  0  0  0  0  0  0  0  0  0
  151.3652  143.4611  156.2993 H   0  0  0  0  0  0  0  0  0  0  0  0
  152.2963  145.2381  157.7913 H   0  0  0  0  0  0  0  0  0  0  0  0
  150.5772  145.0173  157.8733 H   0  0  0  0  0  0  0  0  0  0  0  0
  151.6278  145.4687  160.0493 H   0  0  0  0  0  0  0  0  0  0  0  0
  150.6649  144.0419  160.0778 H   0  0  0  0  0  0  0  0  0  0  0  0
  153.6947  143.8630  159.6641 H   0  0  0  0  0  0  0  0  0  0  0  0
  153.0073  144.1399  161.2288 H   0  0  0  0  0  0  0  0  0  0  0  0
  153.2494  141.8971  161.3180 H   0  0  0  0  0  0  0  0  0  0  0  0
  151.5716  141.9879  160.9001 H   0  0  0  0  0  0  0  0  0  0  0  0
  153.7167  141.6755  158.7411 H   0  0  0  0  0  0  0  0  0  0  0  0
  153.2833  140.3247  159.7175 H   0  0  0  0  0  0  0  0  0  0  0  0
  151.0636  140.1911  158.9375 H   0  0  0  0  0  0  0  0  0  0  0  0
  152.1084  140.3322  157.5575 H   0  0  0  0  0  0  0  0  0  0  0  0
  1  2  2  0  0  0  0
  2  3  1  0  0  0  0
  2 13  1  0  0  0  0
  3  4  1  0  0  0  0
  3 22  1  0  0  0  0
  3 23  1  0  0  0  0
  4 11  1  0  0  0  0
  4  5  1  0  0  0  0
  5  6  2  0  0  0  0
  6  7  1  0  0  0  0
  6 24  1  0  0  0  0
  7  8  1  0  0  0  0
  7  9  2  0  0  0  0
  9 10  1  0  0  0  0
  9 11  1  0  0  0  0
 11 12  2  0  0  0  0
 13 14  1  0  0  0  0
 13 25  1  0  0  0  0
 14 21  1  0  0  0  0
 14 15  1  0  0  0  0
 14 26  1  0  0  0  0
 15 16  1  0  0  0  0
 15 27  1  0  0  0  0
 15 28  1  0  0  0  0
 16 17  1  0  0  0  0
 16 29  1  0  0  0  0
 16 30  1  0  0  0  0
 17 18  1  0  0  0  0
 17 31  1  0  0  0  0
 17 32  1  0  0  0  0
 18 19  1  0  0  0  0
 18 33  1  0  0  0  0
 18 34  1  0  0  0  0
 19 20  1  0  0  0  0
 19 35  1  0  0  0  0
 19 36  1  0  0  0  0
 20 21  1  0  0  0  0
 20 37  1  0  0  0  0
 20 38  1  0  0  0  0
 21 39  1  0  0  0  0
 21 40  1  0  0  0  0
M  END
> <s_m_source_file>
AV-unprocessed.smi

> <i_m_source_file_index>
1502

> <i_lp_mmshare_version>
43012

> <i_f3d_flags>
0

> <s_epik_input>
Tz1jMWMoQ2wpYyhDbClbY0hdbm4xW0NIMl1DKD1PKVtOSF1bQ0hdMltDSDJdW0NIMl1bQ0gyXVtDSDJdW0NIMl1bQ0gyXVtDSDJdMg==

> <s_epik_cmdline>
J2VwaWtfcHl0aG9uJywgJy1waCcsICc3LjAnLCAnLXRuJywgJzgnLCAnLW1hJywgJzIwMCcsICctbWV0YWxfYmluZGluZycsICctaW1hZScsICc8aW5maWxlLm1hZT4nLCAnLW9tYWUnLCAnPG91dGZpbGUubWFlPic=

> <r_lp_tautomer_probability>
1

> <r_epik_Ionization_Penalty>
2.0245e-08

> <r_epik_Ionization_Penalty_Charging>
3.01779e-11

> <r_epik_Ionization_Penalty_Neutral>
2.02148e-08

> <r_epik_State_Penalty>
-0

> <r_epik_Charging_Adjusted_Penalty>
3.01779e-11

> <i_epik_Tot_Q>
0

> <i_epik_Tot_abs_Q>
0

> <r_epik_Metal_State_Penalty>
-0

> <b_epik_Metal_Only>
0

> <s_lp_Force_Field>
OPLS_2005

> <r_lp_Energy>
35.729

> <b_lp_Chiralities_Consistent>
1

> <s_lp_Variant>
AV-unprocessed.smi:1502-1

> <Gold.Version>
5.8.1

> <Gold.Id.Protein>
6NUR|6NUR_protein|mol2

> <Gold.PLP.Fitness>
41.2138

> <Gold.PLP.PLP>
-40.1994

> <Gold.PLP.part.hbond>
-1.5105

> <Gold.PLP.part.metal>
0.0000

> <Gold.PLP.part.buried>
-6.1388

> <Gold.PLP.part.nonpolar>
-33.7794

> <Gold.PLP.part.repulsive>
0.2028

> <Gold.PLP.ligand.clash>
0.0000

> <Gold.PLP.ligand.torsion>
0.6747

> <Gold.PLP.Chemscore.Hbond>
0.7840

> <Gold.PLP.Chemscore.CHOScore>
0.0000

> <Gold.PLP.Chemscore.Metal>
0.0000

> <Gold.Chemscore.Hbonds>
donor molecule, donor type, donor heavy atom, donor atom, acceptor molecule, acceptor atom, score
      P1  H  7989  7998       L1     1  0.78

> <Gold.PLP.Chemscore.Internal.Correction>
0.0119

> <Gold.Rescore>
     Score         DG    S(hbond)    S(metal)    S(lipo)     H(rot)  DE(clash)    DE(int)     intcor
     14.66     -16.53       0.82        0.00     103.64       1.49       0.04       1.83       ----

> <Gold.Chemscore.Fitness>
14.6616

> <Gold.Chemscore.DG>
-16.5299

> <Gold.Chemscore.ZeroCoef>
-5.4800

> <Gold.Chemscore.Hbond>
0.8173

> <Gold.Chemscore.Metal>
0.0000

> <Gold.Chemscore.Lipo>
103.6393

> <Gold.Chemscore.Internal_Hbond>
0.0000

> <Gold.Chemscore.DEClash>
0.0418

> <Gold.Chemscore.DEInternal>
1.8265

> <Gold.Chemscore.Rot>
1.4866

> <Gold.Chemscore.Internal.Correction>
   9.000000E+99

> <Gold.Chemscore.Hbonds>
donor molecule, donor type, donor heavy atom, donor atom, acceptor molecule, acceptor atom, score
      P1  H  7989  7998       L1     1  0.34

> <Gold.Chemscore.Hbond.Weighted>
-2.7297

> <Gold.Chemscore.Metal.Weighted>
-0.0000

> <Gold.Chemscore.Lipo.Weighted>
-12.1258

> <Gold.Chemscore.Internal_Hbond.Weighted>
0.0000

> <Gold.Chemscore.DEClash.Weighted>
0.0418

> <Gold.Chemscore.DEInternal.Weighted>
1.8265

> <Gold.Chemscore.Rot.Weighted>
3.8057

> <Gold.Chemscore.Internal.Correction.Weighted>
   9.000000E+99

> <Gold.Protein.RotatedTorsions>
[ 6907 6896 6895 6894 ] final   48.28 input  -60.11 | X-H torsion
[ 7974 7965 7964 7962 ] final  -81.81 input  175.53 | X-H torsion
[ 8008 7997 7996 7995 ] final    9.01 input   59.86 | X-H torsion
[ 10167 10162 10161 10158 ] final   14.44 input  -65.29 | X-H torsion
[ 10718 10713 10712 10709 ] final   37.56 input   66.30 | X-H torsion
[ 10763 10752 10751 10750 ] final -114.76 input  -60.55 | X-H torsion
[ 11005 11000 10999 10996 ] final  -47.87 input  -57.11 | X-H torsion

> <Gold.Protein.ActiveResidues>
 VAL166  LYS551  ARG553  GLY616  TRP617  ASP618  TYR619  PRO620  LYS621  CYS622 
 ASP623  PHE694  ASN695  SER759  ASP760  ASP761  ALA762  ILE779  LEU786  VAL792 
 PHE793  MET794  SER795  GLU796  ALA797  LYS798  CYS799  TRP800  GLU811  SER814 

> <Gold.Protein.RotatedAtoms>
  152.2777  134.7863  160.0402 H   0  0  0  0  0  0  0  0  0  0  0  0  # atno 6907 bound_to 6896
  151.8454  133.3425  159.3664 H   0  0  0  0  0  0  0  0  0  0  0  0  # atno 6908 bound_to 6896
  150.7177  134.5279  159.5730 H   0  0  0  0  0  0  0  0  0  0  0  0  # atno 6909 bound_to 6896
  145.5417  140.9509  143.1548 H   0  0  0  0  0  0  0  0  0  0  0  0  # atno 7974 bound_to 7965
  154.7744  140.2808  155.6112 H   0  0  0  0  0  0  0  0  0  0  0  0  # atno 8008 bound_to 7997
  156.2939  140.2635  156.2482 H   0  0  0  0  0  0  0  0  0  0  0  0  # atno 8009 bound_to 7997
  154.9860  140.0374  157.2288 H   0  0  0  0  0  0  0  0  0  0  0  0  # atno 8010 bound_to 7997
  140.5935  143.8747  150.6896 H   0  0  0  0  0  0  0  0  0  0  0  0  # atno 10167 bound_to 10162
  157.3484  130.7585  149.6961 H   0  0  0  0  0  0  0  0  0  0  0  0  # atno 10718 bound_to 10713
  154.8453  135.4406  154.1557 H   0  0  0  0  0  0  0  0  0  0  0  0  # atno 10763 bound_to 10752
  153.2706  135.6945  153.7490 H   0  0  0  0  0  0  0  0  0  0  0  0  # atno 10764 bound_to 10752
  153.6732  135.3415  155.3134 H   0  0  0  0  0  0  0  0  0  0  0  0  # atno 10765 bound_to 10752
  141.0667  133.6692  156.3359 H   0  0  0  0  0  0  0  0  0  0  0  0  # atno 11005 bound_to 11000
  144.7574  139.7041  143.7248 LP  0  0  0  0  0  0  0  0  0  0  0  0  # atno 17320 bound_to 7965
  146.1977  139.5253  142.9764 LP  0  0  0  0  0  0  0  0  0  0  0  0  # atno 17321 bound_to 7965
  140.2276  143.3760  152.1592 LP  0  0  0  0  0  0  0  0  0  0  0  0  # atno 17342 bound_to 10162
  139.5243  144.7082  151.5289 LP  0  0  0  0  0  0  0  0  0  0  0  0  # atno 17343 bound_to 10162
  155.9718  130.4147  150.4147 LP  0  0  0  0  0  0  0  0  0  0  0  0  # atno 17370 bound_to 10713
  157.2206  131.0481  151.2548 LP  0  0  0  0  0  0  0  0  0  0  0  0  # atno 17371 bound_to 10713
  140.5759  134.5794  157.5468 LP  0  0  0  0  0  0  0  0  0  0  0  0  # atno 17394 bound_to 11000
  139.9483  134.7663  156.0509 LP  0  0  0  0  0  0  0  0  0  0  0  0  # atno 17395 bound_to 11000

$$$$
