#       Name:                AV-unprocessed.smi:771
#       Creating user name   scv26
#       Creation time:       Fri Mar 27 01:10:05 2020


#       File generated by GOLD software.
#

@<TRIPOS>MOLECULE
AV-unprocessed.smi:771
    49    50     1
SMALL
NO_CHARGES


@<TRIPOS>ATOM
      1 ****        -0.0821   1.3609   1.2374 O.2            1 S1                 0.0000
      2 ****         0.6204   0.3916   1.5284 C.2            1 S1                 0.0000
      3 ****         2.1489   0.5143   1.6088 C.3            1 S1                 0.0000
      4 ****         2.6652   1.7686   1.0358 N.am           1 S1                 0.0000
      5 ****         2.9937   1.7514  -0.3341 C.2            1 S1                 0.0000
      6 ****         3.4656   2.8407  -0.9714 C.2            1 S1                 0.0000
      7 ****         3.7923   2.8057  -2.3800 N.pl3          1 S1                 1.0000
      8 ****         4.2297   3.8229  -2.9082 O.2            1 S1                 0.0000
      9 ****         3.6232   1.7625  -3.0046 O.2            1 S1                -1.0000
     10 ****         3.6321   4.0551  -0.1967 C.2            1 S1                 0.0000
     11 ****         3.3151   4.0795   1.1129 C.2            1 S1                 0.0000
     12 ****         2.7956   2.8941   1.8028 C.2            1 S1                 0.0000
     13 ****         2.4949   2.9129   2.9964 O.2            1 S1                 0.0000
     14 ****         0.1182  -0.8242   1.7910 N.am           1 S1                 0.0000
     15 ****        -1.2984  -1.1746   1.7488 C.3            1 S1                 0.0000
     16 ****        -1.8474  -1.2964   0.3055 C.3            1 S1                 0.0000
     17 ****        -1.0586  -2.3434  -0.5160 C.3            1 S1                 0.0000
     18 ****        -1.6090  -2.4951  -1.9421 C.3            1 S1                 0.0000
     19 ****        -3.1012  -2.8511  -1.9241 C.3            1 S1                 0.0000
     20 ****        -3.9009  -1.8046  -1.1365 C.3            1 S1                 0.0000
     21 ****        -3.3574  -1.6409   0.2952 C.3            1 S1                 0.0000
     22 ****        -4.1006  -0.6168   0.9254 O.3            1 S1                 0.0000
     23 ****         2.4536   0.4059   2.6511 H              1 S1                 0.0000
     24 ****         2.5959  -0.3378   1.0938 H              1 S1                 0.0000
     25 ****         2.8272   0.8013  -0.8215 H              1 S1                 0.0000
     26 ****         4.0111   4.9539  -0.6606 H              1 S1                 0.0000
     27 ****         3.4464   4.9954   1.6704 H              1 S1                 0.0000
     28 ****         0.7635  -1.5639   2.0283 H              1 S1                 0.0000
     29 ****        -1.4253  -2.1216   2.2741 H              1 S1                 0.0000
     30 ****        -1.8614  -0.4334   2.3181 H              1 S1                 0.0000
     31 ****        -1.7258  -0.3312  -0.1889 H              1 S1                 0.0000
     32 ****        -0.0053  -2.0681  -0.5749 H              1 S1                 0.0000
     33 ****        -1.0957  -3.3091  -0.0100 H              1 S1                 0.0000
     34 ****        -1.4596  -1.5655  -2.4931 H              1 S1                 0.0000
     35 ****        -1.0499  -3.2643  -2.4757 H              1 S1                 0.0000
     36 ****        -3.4803  -2.9203  -2.9440 H              1 S1                 0.0000
     37 ****        -3.2393  -3.8350  -1.4738 H              1 S1                 0.0000
     38 ****        -3.8563  -0.8493  -1.6620 H              1 S1                 0.0000
     39 ****        -4.9526  -2.0924  -1.1073 H              1 S1                 0.0000
     40 ****        -3.5231  -2.5662   0.8487 H              1 S1                 0.0000
     41 ****        -3.9639   0.1896   0.4517 H              1 S1                 0.0000
     42 ****         0.3416   2.2468   1.0487 LP             1 S1                 0.0000
     43 ****        -1.0760   1.2617   1.1899 LP             1 S1                 0.0000
     44 ****         4.3539   4.6540  -2.3661 LP             1 S1                 0.0000
     45 ****         4.4621   3.8209  -3.8808 LP             1 S1                 0.0000
     46 ****         2.1421   2.0870   3.4362 LP             1 S1                 0.0000
     47 ****         2.6035   3.7540   3.5262 LP             1 S1                 0.0000
     48 ****        -3.7917  -0.5091   1.8704 LP             1 S1                 0.0000
     49 ****        -5.0725  -0.8519   0.9172 LP             1 S1                 0.0000
@<TRIPOS>BOND
    1    1    2 2     
    2    2    3 1     
    3    2   14 am    
    4    3    4 1     
    5    3   23 1     
    6    3   24 1     
    7    4   12 am    
    8    4    5 1     
    9    5    6 2     
   10    5   25 1     
   11    6    7 1     
   12    6   10 1     
   13    7    8 2     
   14    7    9 1     
   15   10   11 2     
   16   10   26 1     
   17   11   12 1     
   18   11   27 1     
   19   12   13 2     
   20   14   15 1     
   21   14   28 1     
   22   15   16 1     
   23   15   29 1     
   24   15   30 1     
   25   16   21 1     
   26   16   17 1     
   27   16   31 1     
   28   17   18 1     
   29   17   32 1     
   30   17   33 1     
   31   18   19 1     
   32   18   34 1     
   33   18   35 1     
   34   19   20 1     
   35   19   36 1     
   36   19   37 1     
   37   20   21 1     
   38   20   38 1     
   39   20   39 1     
   40   21   22 1     
   41   21   40 1     
   42   22   41 1     
   43    1   42 1     
   44    1   43 1     
   45    8   44 1     
   46    8   45 1     
   47   13   46 1     
   48   13   47 1     
   49   22   48 1     
   50   22   49 1     
@<TRIPOS>SUBSTRUCTURE
      1 S1             1
@<TRIPOS>SET
LONE_PAIRS      STATIC     ATOMS    <user>   **** ""
9 42 43 44 45 9 46 47 48 49
DONOR_HYDROGENS      STATIC     ATOMS    <user>   **** ""
2 28 41
ATOM$BLUE        STATIC     ATOMS    COLORGROUP SYSTEM
9 42 43 44 45 9 46 47 48 49
ATOM$RED        STATIC     ATOMS    COLORGROUP SYSTEM
2 28 41
