AV-unprocessed.smi:2994|AV-procd|sdf|11404|dock2
  -GOLD-   2272016323D 1   1.00000     0.00000
 Structure written by MMmdl.
 47 49  0  0  0  0  0  0  0  0  1 V2000
  147.6410  132.9868  152.6849 C   0  0  0  0  0  0  0  0  0  0  0  0
  148.4956  133.2127  153.9431 C   0  0  2  0  0  0  0  0  0  0  0  0
  149.0643  134.5576  153.9244 N   0  0  0  0  0  0  0  0  0  0  0  0
  149.6617  135.1665  154.9593 C   0  0  0  0  0  0  0  0  0  0  0  0
  149.7932  134.6467  156.0670 O   0  0  0  0  0  0  0  0  0  0  0  0
  150.0712  136.4018  154.6218 N   0  0  0  0  0  0  0  0  0  0  0  0
  150.7110  137.3852  155.4256 C   0  0  0  0  0  0  0  0  0  0  0  0
  150.8797  138.7418  155.0577 C   0  0  0  0  0  0  0  0  0  0  0  0
  151.5284  139.6139  155.9525 C   0  0  0  0  0  0  0  0  0  0  0  0
  151.9891  139.1058  157.1877 C   0  0  0  0  0  0  0  0  0  0  0  0
  152.6668  140.0099  158.1756 C   0  0  0  0  0  0  0  0  0  0  0  0
  153.8040  139.7238  158.5529 O   0  0  0  0  0  0  0  0  0  0  0  0
  151.9887  141.0969  158.6233 N   0  0  0  0  0  0  0  0  0  0  0  0
  150.7827  141.6722  158.0058 C   0  0  0  0  0  0  0  0  0  0  0  0
  151.1583  142.9934  157.3087 C   0  0  0  0  0  0  0  0  0  0  0  0
  151.8269  143.9707  158.2930 C   0  0  0  0  0  0  0  0  0  0  0  0
  152.9805  143.2986  159.0592 C   0  0  0  0  0  0  0  0  0  0  0  0
  152.5224  141.9667  159.6803 C   0  0  0  0  0  0  0  0  0  0  0  0
  151.8080  137.8180  157.5557 N   0  0  0  0  0  0  0  0  0  0  0  0
  151.1871  136.9871  156.6922 C   0  0  0  0  0  0  0  0  0  0  0  0
  149.5575  132.1367  154.0712 C   0  0  0  0  0  0  0  0  0  0  0  0
  149.2395  130.8012  154.6999 C   0  0  0  0  0  0  0  0  0  0  0  0
  150.1493  131.7765  155.4127 C   0  0  0  0  0  0  0  0  0  0  0  0
  147.1828  131.9974  152.6959 H   0  0  0  0  0  0  0  0  0  0  0  0
  148.2412  133.0648  151.7778 H   0  0  0  0  0  0  0  0  0  0  0  0
  146.8337  133.7163  152.6139 H   0  0  0  0  0  0  0  0  0  0  0  0
  147.8424  133.1279  154.8139 H   0  0  0  0  0  0  0  0  0  0  0  0
  148.9989  135.0623  153.0527 H   0  0  0  0  0  0  0  0  0  0  0  0
  149.8449  136.6977  153.6835 H   0  0  0  0  0  0  0  0  0  0  0  0
  150.5197  139.1375  154.1216 H   0  0  0  0  0  0  0  0  0  0  0  0
  151.6669  140.6536  155.6933 H   0  0  0  0  0  0  0  0  0  0  0  0
  150.3021  141.0187  157.2801 H   0  0  0  0  0  0  0  0  0  0  0  0
  150.0358  141.8548  158.7795 H   0  0  0  0  0  0  0  0  0  0  0  0
  151.8383  142.7858  156.4813 H   0  0  0  0  0  0  0  0  0  0  0  0
  150.2714  143.4530  156.8718 H   0  0  0  0  0  0  0  0  0  0  0  0
  152.1879  144.8531  157.7637 H   0  0  0  0  0  0  0  0  0  0  0  0
  151.0816  144.3233  159.0071 H   0  0  0  0  0  0  0  0  0  0  0  0
  153.8148  143.1161  158.3803 H   0  0  0  0  0  0  0  0  0  0  0  0
  153.3527  143.9671  159.8360 H   0  0  0  0  0  0  0  0  0  0  0  0
  151.7432  142.1482  160.4220 H   0  0  0  0  0  0  0  0  0  0  0  0
  153.3468  141.5063  160.2268 H   0  0  0  0  0  0  0  0  0  0  0  0
  151.0700  135.9660  157.0252 H   0  0  0  0  0  0  0  0  0  0  0  0
  150.2438  132.1022  153.2267 H   0  0  0  0  0  0  0  0  0  0  0  0
  148.2412  130.6567  155.1085 H   0  0  0  0  0  0  0  0  0  0  0  0
  149.6949  129.9177  154.2572 H   0  0  0  0  0  0  0  0  0  0  0  0
  151.2110  131.5407  155.4465 H   0  0  0  0  0  0  0  0  0  0  0  0
  149.7546  132.2793  156.2933 H   0  0  0  0  0  0  0  0  0  0  0  0
  1  2  1  0  0  0  0
  1 24  1  0  0  0  0
  1 25  1  0  0  0  0
  1 26  1  0  0  0  0
  2  3  1  0  0  0  0
  2 21  1  0  0  0  0
  2 27  1  0  0  0  0
  3  4  1  0  0  0  0
  3 28  1  0  0  0  0
  4  5  2  0  0  0  0
  4  6  1  0  0  0  0
  6  7  1  0  0  0  0
  6 29  1  0  0  0  0
  7 20  1  0  0  0  0
  7  8  2  0  0  0  0
  8  9  1  0  0  0  0
  8 30  1  0  0  0  0
  9 10  2  0  0  0  0
  9 31  1  0  0  0  0
 10 11  1  0  0  0  0
 10 19  1  0  0  0  0
 11 12  2  0  0  0  0
 11 13  1  0  0  0  0
 13 18  1  0  0  0  0
 13 14  1  0  0  0  0
 14 15  1  0  0  0  0
 14 32  1  0  0  0  0
 14 33  1  0  0  0  0
 15 16  1  0  0  0  0
 15 34  1  0  0  0  0
 15 35  1  0  0  0  0
 16 17  1  0  0  0  0
 16 36  1  0  0  0  0
 16 37  1  0  0  0  0
 17 18  1  0  0  0  0
 17 38  1  0  0  0  0
 17 39  1  0  0  0  0
 18 40  1  0  0  0  0
 18 41  1  0  0  0  0
 19 20  2  0  0  0  0
 20 42  1  0  0  0  0
 21 23  1  0  0  0  0
 21 22  1  0  0  0  0
 21 43  1  0  0  0  0
 22 23  1  0  0  0  0
 22 44  1  0  0  0  0
 22 45  1  0  0  0  0
 23 46  1  0  0  0  0
 23 47  1  0  0  0  0
M  END
> <s_m_source_file>
AV-unprocessed.smi

> <i_m_source_file_index>
2994

> <i_lp_mmshare_version>
43012

> <i_f3d_flags>
0

> <s_epik_input>
W0NIMl0xW0NIMl1bQ0hdMVtDQEhdKFtDSDNdKVtOSF1DKD1PKVtOSF1jMltjSF1bY0hdYyhuW2NIXTIpQyg9TylOM1tDSDJdW0NIMl1bQ0gyXVtDSDJdW0NIMl0z

> <s_epik_cmdline>
J2VwaWtfcHl0aG9uJywgJy1waCcsICc3LjAnLCAnLXRuJywgJzgnLCAnLW1hJywgJzIwMCcsICctbWV0YWxfYmluZGluZycsICctaW1hZScsICc8aW5maWxlLm1hZT4nLCAnLW9tYWUnLCAnPG91dGZpbGUubWFlPic=

> <r_lp_tautomer_probability>
1

> <r_epik_Ionization_Penalty>
4.52104e-05

> <r_epik_Ionization_Penalty_Charging>
0

> <r_epik_Ionization_Penalty_Neutral>
4.52104e-05

> <r_epik_State_Penalty>
-0

> <r_epik_Charging_Adjusted_Penalty>
0

> <i_epik_Tot_Q>
0

> <i_epik_Tot_abs_Q>
0

> <r_epik_Metal_State_Penalty>
-0

> <b_epik_Metal_Only>
0

> <s_lp_Force_Field>
OPLS_2005

> <r_lp_Energy>
45.7479

> <b_lp_Chiralities_Consistent>
1

> <s_lp_Variant>
AV-unprocessed.smi:2994-1

> <Gold.Version>
5.8.1

> <Gold.Id.Protein>
6NUR|6NUR_protein|mol2

> <Gold.PLP.Fitness>
49.4981

> <Gold.PLP.PLP>
-42.4812

> <Gold.PLP.part.hbond>
-3.0000

> <Gold.PLP.part.metal>
0.0000

> <Gold.PLP.part.buried>
-2.8374

> <Gold.PLP.part.nonpolar>
-37.5085

> <Gold.PLP.part.repulsive>
0.0791

> <Gold.PLP.ligand.clash>
0.0000

> <Gold.PLP.ligand.torsion>
1.8098

> <Gold.PLP.Chemscore.Hbond>
2.8860

> <Gold.PLP.Chemscore.CHOScore>
0.0000

> <Gold.PLP.Chemscore.Metal>
0.0000

> <Gold.Chemscore.Hbonds>
donor molecule, donor type, donor heavy atom, donor atom, acceptor molecule, acceptor atom, score
      L1  H     3    28       P1  7948  0.90
      L1  H     6    29       P1  7948  0.92
      P1  H  7997  8010       L1    12  1.00

> <Gold.PLP.Chemscore.Internal.Correction>
1.9785

> <Gold.Rescore>
     Score         DG    S(hbond)    S(metal)    S(lipo)     H(rot)  DE(clash)    DE(int)     intcor
     18.88     -23.04       2.64        0.00      99.81       1.14       0.02       4.14       ----

> <Gold.Chemscore.Fitness>
18.8779

> <Gold.Chemscore.DG>
-23.0413

> <Gold.Chemscore.ZeroCoef>
-5.4800

> <Gold.Chemscore.Hbond>
2.6352

> <Gold.Chemscore.Metal>
0.0000

> <Gold.Chemscore.Lipo>
99.8090

> <Gold.Chemscore.Internal_Hbond>
0.0000

> <Gold.Chemscore.DEClash>
0.0207

> <Gold.Chemscore.DEInternal>
4.1427

> <Gold.Chemscore.Rot>
1.1399

> <Gold.Chemscore.Internal.Correction>
   9.000000E+99

> <Gold.Chemscore.Hbonds>
donor molecule, donor type, donor heavy atom, donor atom, acceptor molecule, acceptor atom, score
      L1  H     3    28       P1  7948  0.18
      L1  H     6    29       P1  7948  0.33
      P1  H  7997  8010       L1    12  0.40

> <Gold.Chemscore.Hbond.Weighted>
-8.8017

> <Gold.Chemscore.Metal.Weighted>
-0.0000

> <Gold.Chemscore.Lipo.Weighted>
-11.6777

> <Gold.Chemscore.Internal_Hbond.Weighted>
0.0000

> <Gold.Chemscore.DEClash.Weighted>
0.0207

> <Gold.Chemscore.DEInternal.Weighted>
4.1427

> <Gold.Chemscore.Rot.Weighted>
2.9180

> <Gold.Chemscore.Internal.Correction.Weighted>
   9.000000E+99

> <Gold.Protein.RotatedTorsions>
[ 6907 6896 6895 6894 ] final   68.34 input  -60.11 | X-H torsion
[ 7974 7965 7964 7962 ] final   20.48 input  175.53 | X-H torsion
[ 8008 7997 7996 7995 ] final   21.72 input   59.86 | X-H torsion
[ 10167 10162 10161 10158 ] final  -80.97 input  -65.29 | X-H torsion
[ 10718 10713 10712 10709 ] final  139.19 input   66.30 | X-H torsion
[ 10763 10752 10751 10750 ] final  -82.92 input  -60.55 | X-H torsion
[ 11005 11000 10999 10996 ] final -145.16 input  -57.11 | X-H torsion

> <Gold.Protein.ActiveResidues>
 VAL166  LYS551  ARG553  GLY616  TRP617  ASP618  TYR619  PRO620  LYS621  CYS622 
 ASP623  PHE694  ASN695  SER759  ASP760  ASP761  ALA762  ILE779  LEU786  VAL792 
 PHE793  MET794  SER795  GLU796  ALA797  LYS798  CYS799  TRP800  GLU811  SER814 

> <Gold.Protein.RotatedAtoms>
  152.4614  134.5176  159.9772 H   0  0  0  0  0  0  0  0  0  0  0  0  # atno 6907 bound_to 6896
  151.5224  133.3458  159.2911 H   0  0  0  0  0  0  0  0  0  0  0  0  # atno 6908 bound_to 6896
  150.8578  134.7952  159.7122 H   0  0  0  0  0  0  0  0  0  0  0  0  # atno 6909 bound_to 6896
  146.2109  139.8163  142.8689 H   0  0  0  0  0  0  0  0  0  0  0  0  # atno 7974 bound_to 7965
  154.9549  140.3070  155.5058 H   0  0  0  0  0  0  0  0  0  0  0  0  # atno 8008 bound_to 7997
  156.2983  140.2312  156.4568 H   0  0  0  0  0  0  0  0  0  0  0  0  # atno 8009 bound_to 7997
  154.8020  140.0433  157.1268 H   0  0  0  0  0  0  0  0  0  0  0  0  # atno 8010 bound_to 7997
  140.4455  143.2500  151.8565 H   0  0  0  0  0  0  0  0  0  0  0  0  # atno 10167 bound_to 10162
  157.4171  131.1034  151.0393 H   0  0  0  0  0  0  0  0  0  0  0  0  # atno 10718 bound_to 10713
  154.5815  135.5574  153.7190 H   0  0  0  0  0  0  0  0  0  0  0  0  # atno 10763 bound_to 10752
  153.0083  135.6321  154.1976 H   0  0  0  0  0  0  0  0  0  0  0  0  # atno 10764 bound_to 10752
  154.1917  135.2882  155.3000 H   0  0  0  0  0  0  0  0  0  0  0  0  # atno 10765 bound_to 10752
  140.7951  134.2923  157.4999 H   0  0  0  0  0  0  0  0  0  0  0  0  # atno 11005 bound_to 11000
  145.3143  141.0228  143.3537 LP  0  0  0  0  0  0  0  0  0  0  0  0  # atno 17320 bound_to 7965
  144.8913  139.4771  143.6676 LP  0  0  0  0  0  0  0  0  0  0  0  0  # atno 17321 bound_to 7965
  139.4792  144.5180  151.8840 LP  0  0  0  0  0  0  0  0  0  0  0  0  # atno 17342 bound_to 10162
  140.4269  144.2168  150.5887 LP  0  0  0  0  0  0  0  0  0  0  0  0  # atno 17343 bound_to 10162
  157.1336  130.6113  149.5536 LP  0  0  0  0  0  0  0  0  0  0  0  0  # atno 17370 bound_to 10713
  155.9869  130.4905  150.7099 LP  0  0  0  0  0  0  0  0  0  0  0  0  # atno 17371 bound_to 10713
  139.8727  134.9397  156.3749 LP  0  0  0  0  0  0  0  0  0  0  0  0  # atno 17394 bound_to 11000
  140.9351  133.7553  156.0074 LP  0  0  0  0  0  0  0  0  0  0  0  0  # atno 17395 bound_to 11000

$$$$
