#       Name:                AV-unprocessed.smi:11
#       Creating user name   scv26
#       Creation time:       Thu Mar 26 15:17:45 2020


#       File generated by GOLD software.
#

@<TRIPOS>MOLECULE
AV-unprocessed.smi:11
    37    39     1
SMALL
NO_CHARGES


@<TRIPOS>ATOM
      1 ****        -2.7222   1.6470  -1.7082 C.3            1 S1                 0.0000
      2 ****        -2.5337   0.1251  -1.5870 C.3            1 S1                 0.0000
      3 ****        -1.1697  -0.4151  -2.0843 C.3            1 S1                 0.0000
      4 ****        -1.0066  -0.0510  -3.4410 O.3            1 S1                 0.0000
      5 ****        -1.0848  -1.9417  -1.9450 C.3            1 S1                 0.0000
      6 ****        -0.5712  -2.1372  -0.5200 C.3            1 S1                 0.0000
      7 ****         0.3019  -0.9968  -0.2824 N.pl3          1 S1                 0.0000
      8 ****         0.7873  -0.7019   1.0076 C.ar           1 S1                 0.0000
      9 ****         0.4751  -1.5608   2.0171 N.ar           1 S1                 0.0000
     10 ****         0.8824  -1.3691   3.2798 C.ar           1 S1                 0.0000
     11 ****         1.6310  -0.3246   3.6467 N.pl3          1 S1                 1.0000
     12 ****         1.9787   0.5508   2.6699 C.ar           1 S1                 0.0000
     13 ****         2.7444   1.6932   2.7720 N.pl3          1 S1                 0.0000
     14 ****         2.8685   2.2917   1.5303 C.2            1 S1                 0.0000
     15 ****         2.1830   1.5460   0.6043 C.2            1 S1                 0.0000
     16 ****         1.5971   0.4321   1.3083 C.ar           1 S1                 0.0000
     17 ****         0.0248   0.0671  -1.2382 C.3            1 S1                 0.0000
     18 ****         3.1704   2.0627   3.6102 H              1 S1                 0.0000
     19 ****        -3.7164   1.9353  -1.3664 H              1 S1                 0.0000
     20 ****        -2.6242   1.9825  -2.7408 H              1 S1                 0.0000
     21 ****        -2.0014   2.1986  -1.1059 H              1 S1                 0.0000
     22 ****        -2.6829  -0.1607  -0.5453 H              1 S1                 0.0000
     23 ****        -3.3343  -0.3624  -2.1450 H              1 S1                 0.0000
     24 ****        -0.1931  -0.4153  -3.7547 H              1 S1                 0.0000
     25 ****        -2.0304  -2.4521  -2.1306 H              1 S1                 0.0000
     26 ****        -0.3499  -2.3452  -2.6440 H              1 S1                 0.0000
     27 ****        -1.4014  -2.1252   0.1877 H              1 S1                 0.0000
     28 ****        -0.0373  -3.0816  -0.4093 H              1 S1                 0.0000
     29 ****         0.6098  -2.0707   4.0545 H              1 S1                 0.0000
     30 ****         3.4389   3.2010   1.4049 H              1 S1                 0.0000
     31 ****         2.0985   1.7535  -0.4520 H              1 S1                 0.0000
     32 ****         0.9118   0.1988  -1.8592 H              1 S1                 0.0000
     33 ****        -0.1804   1.0156  -0.7441 H              1 S1                 0.0000
     34 ****         1.9357  -0.1886   4.6105 H              1 S1                 0.0000
     35 ****        -0.9831   0.9454  -3.5221 LP             1 S1                 0.0000
     36 ****        -1.7675  -0.4115  -3.9805 LP             1 S1                 0.0000
     37 ****        -0.0797  -2.3662   1.8083 LP             1 S1                 0.0000
@<TRIPOS>BOND
    1    1    2 1     
    2    1   19 1     
    3    1   20 1     
    4    1   21 1     
    5    2    3 1     
    6    2   22 1     
    7    2   23 1     
    8    3   17 1     
    9    3    4 1     
   10    3    5 1     
   11    4   24 1     
   12    5    6 1     
   13    5   25 1     
   14    5   26 1     
   15    6    7 1     
   16    6   27 1     
   17    6   28 1     
   18    7    8 1     
   19    7   17 1     
   20    8   16 ar    
   21    8    9 ar    
   22    9   10 ar    
   23   10   11 ar    
   24   10   29 1     
   25   11   12 ar    
   26   11   34 1     
   27   12   16 ar    
   28   12   13 1     
   29   13   18 1     
   30   13   14 1     
   31   14   15 2     
   32   14   30 1     
   33   15   16 1     
   34   15   31 1     
   35   17   32 1     
   36   17   33 1     
   37    4   35 1     
   38    4   36 1     
   39    9   37 1     
@<TRIPOS>SUBSTRUCTURE
      1 S1             1
@<TRIPOS>SET
LONE_PAIRS      STATIC     ATOMS    <user>   **** ""
3 35 36 37
DONOR_HYDROGENS      STATIC     ATOMS    <user>   **** ""
3 24 34 18
ATOM$BLUE        STATIC     ATOMS    COLORGROUP SYSTEM
3 35 36 37
ATOM$RED        STATIC     ATOMS    COLORGROUP SYSTEM
3 24 34 18
