AV-unprocessed.smi:2784|AV-procd|sdf|10743|dock6
  -GOLD-   2272015183D 1   1.00000     0.00000
 Structure written by MMmdl.
 30 31  0  0  0  0  0  0  0  0  2 V2000
  155.6544  140.4426  160.4399 C   0  0  0  0  0  0  0  0  0  0  0  0
  154.6148  141.2318  159.8855 O   0  0  0  0  0  0  0  0  0  0  0  0
  153.3857  141.1471  160.6014 C   0  0  1  0  0  0  0  0  0  0  0  0
  153.2982  142.3308  161.5706 C   0  0  0  0  0  0  0  0  0  0  0  0
  152.8167  143.4885  160.7005 C   0  0  0  0  0  0  0  0  0  0  0  0
  151.8343  142.8530  159.7129 C   0  0  0  0  0  0  0  0  0  0  0  0
  152.1928  141.3554  159.6400 C   0  0  1  0  0  0  0  0  0  0  0  0
  152.4806  140.9442  158.2666 N   0  0  0  0  0  0  0  0  0  0  0  0
  152.0707  139.8057  157.6890 C   0  0  0  0  0  0  0  0  0  0  0  0
  151.3868  139.0039  158.3297 O   0  0  0  0  0  0  0  0  0  0  0  0
  152.4822  139.6652  156.4087 N   0  5  0  0  0  0  0  0  0  0  0  0
  151.7432  138.9523  155.5436 C   0  0  0  0  0  0  0  0  0  0  0  0
  151.1636  139.4112  154.4330 N   0  0  0  0  0  0  0  0  0  0  0  0
  150.5213  138.3228  153.8633 C   0  0  0  0  0  0  0  0  0  0  0  0
  150.7496  137.2355  154.6616 C   0  0  0  0  0  0  0  0  0  0  0  0
  151.5218  137.6192  155.7229 O   0  0  0  0  0  0  0  0  0  0  0  0
  156.5622  140.5709  159.8509 H   0  0  0  0  0  0  0  0  0  0  0  0
  155.3926  139.3839  160.4227 H   0  0  0  0  0  0  0  0  0  0  0  0
  155.8766  140.7313  161.4671 H   0  0  0  0  0  0  0  0  0  0  0  0
  153.3002  140.1864  161.1128 H   0  0  0  0  0  0  0  0  0  0  0  0
  152.5523  142.1189  162.3379 H   0  0  0  0  0  0  0  0  0  0  0  0
  154.2375  142.5503  162.0778 H   0  0  0  0  0  0  0  0  0  0  0  0
  152.3652  144.2919  161.2828 H   0  0  0  0  0  0  0  0  0  0  0  0
  153.6627  143.9090  160.1550 H   0  0  0  0  0  0  0  0  0  0  0  0
  150.8134  142.9655  160.0795 H   0  0  0  0  0  0  0  0  0  0  0  0
  151.8807  143.3495  158.7424 H   0  0  0  0  0  0  0  0  0  0  0  0
  151.3356  140.7885  160.0081 H   0  0  0  0  0  0  0  0  0  0  0  0
  153.0448  141.5699  157.7109 H   0  0  0  0  0  0  0  0  0  0  0  0
  149.9609  138.4071  152.9442 H   0  0  0  0  0  0  0  0  0  0  0  0
  150.4587  136.1966  154.6206 H   0  0  0  0  0  0  0  0  0  0  0  0
  1  2  1  0  0  0  0
  1 17  1  0  0  0  0
  1 18  1  0  0  0  0
  1 19  1  0  0  0  0
  2  3  1  0  0  0  0
  3  7  1  0  0  0  0
  3  4  1  0  0  0  0
  3 20  1  0  0  0  0
  4  5  1  0  0  0  0
  4 21  1  0  0  0  0
  4 22  1  0  0  0  0
  5  6  1  0  0  0  0
  5 23  1  0  0  0  0
  5 24  1  0  0  0  0
  6  7  1  0  0  0  0
  6 25  1  0  0  0  0
  6 26  1  0  0  0  0
  7  8  1  0  0  0  0
  7 27  1  0  0  0  0
  8 28  1  0  0  0  0
  8  9  1  0  0  0  0
  9 11  1  0  0  0  0
  9 10  2  0  0  0  0
 11 12  1  0  0  0  0
 12 16  1  0  0  0  0
 12 13  2  0  0  0  0
 13 14  1  0  0  0  0
 14 29  1  0  0  0  0
 14 15  2  0  0  0  0
 15 30  1  0  0  0  0
 15 16  1  0  0  0  0
M  CHG  1  11  -1
M  END
> <s_m_source_file>
AV-unprocessed.smi

> <i_m_source_file_index>
2784

> <i_lp_mmshare_version>
43012

> <i_f3d_flags>
0

> <s_epik_input>
W0NIM11PW0NAQEhdMVtDSDJdW0NIMl1bQ0gyXVtDQEhdMVtOSF1DKD1PKVtOSF1jMm5bY0hdW2NIXW8y

> <s_epik_cmdline>
J2VwaWtfcHl0aG9uJywgJy1waCcsICc3LjAnLCAnLXRuJywgJzgnLCAnLW1hJywgJzIwMCcsICctbWV0YWxfYmluZGluZycsICctaW1hZScsICc8aW5maWxlLm1hZT4nLCAnLW9tYWUnLCAnPG91dGZpbGUubWFlPic=

> <r_lp_tautomer_probability>
0.107061

> <r_epik_Ionization_Penalty>
10.8857

> <r_epik_Ionization_Penalty_Charging>
7.67908

> <r_epik_Ionization_Penalty_Neutral>
3.20665

> <r_epik_State_Penalty>
5.80296

> <r_epik_Charging_Adjusted_Penalty>
13.482

> <i_epik_Tot_Q>
-1

> <i_epik_Tot_abs_Q>
1

> <r_epik_Metal_State_Penalty>
1.73217

> <b_epik_Metal_Only>
1

> <s_lp_Force_Field>
OPLS_2005

> <r_lp_Energy>
16.6072

> <b_lp_Chiralities_Consistent>
1

> <s_lp_Variant>
AV-unprocessed.smi:2784-18

> <Gold.Version>
5.8.1

> <Gold.Id.Protein>
6NUR|6NUR_protein|mol2

> <Gold.PLP.Fitness>
40.6873

> <Gold.PLP.PLP>
-29.0146

> <Gold.PLP.part.hbond>
-2.0000

> <Gold.PLP.part.metal>
0.0000

> <Gold.PLP.part.buried>
-3.5288

> <Gold.PLP.part.nonpolar>
-23.6737

> <Gold.PLP.part.repulsive>
0.2411

> <Gold.PLP.ligand.clash>
0.0000

> <Gold.PLP.ligand.torsion>
1.4467

> <Gold.PLP.Chemscore.Hbond>
3.0000

> <Gold.PLP.Chemscore.CHOScore>
1.8507

> <Gold.PLP.Chemscore.Metal>
0.0000

> <Gold.Chemscore.Hbonds>
donor molecule, donor type, donor heavy atom, donor atom, acceptor molecule, acceptor atom, score
      P1  H  7989  7998       L1    13  1.00
      P1  H  7997  8010       L1    11  2.00
      L1  C    14    29       P1  7948  0.69
      L1  C    14    29       P1  7957  1.00

> <Gold.PLP.Chemscore.Internal.Correction>
0.0140

> <Gold.Rescore>
     Score         DG    S(hbond)    S(metal)    S(lipo)     H(rot)  DE(clash)    DE(int)     intcor
     15.47     -16.94       1.82        0.00      74.75       1.31       0.01       1.47       ----

> <Gold.Chemscore.Fitness>
15.4726

> <Gold.Chemscore.DG>
-16.9438

> <Gold.Chemscore.ZeroCoef>
-5.4800

> <Gold.Chemscore.Hbond>
1.8184

> <Gold.Chemscore.Metal>
0.0000

> <Gold.Chemscore.Lipo>
74.7453

> <Gold.Chemscore.Internal_Hbond>
0.0000

> <Gold.Chemscore.DEClash>
0.0060

> <Gold.Chemscore.DEInternal>
1.4652

> <Gold.Chemscore.Rot>
1.3106

> <Gold.Chemscore.Internal.Correction>
   9.000000E+99

> <Gold.Chemscore.Hbonds>
donor molecule, donor type, donor heavy atom, donor atom, acceptor molecule, acceptor atom, score
      P1  H  7989  7998       L1    13  0.99
      P1  H  7997  8010       L1    11  0.30

> <Gold.Chemscore.Hbond.Weighted>
-6.0736

> <Gold.Chemscore.Metal.Weighted>
-0.0000

> <Gold.Chemscore.Lipo.Weighted>
-8.7452

> <Gold.Chemscore.Internal_Hbond.Weighted>
0.0000

> <Gold.Chemscore.DEClash.Weighted>
0.0060

> <Gold.Chemscore.DEInternal.Weighted>
1.4652

> <Gold.Chemscore.Rot.Weighted>
3.3550

> <Gold.Chemscore.Internal.Correction.Weighted>
   9.000000E+99

> <Gold.Protein.RotatedTorsions>
[ 6907 6896 6895 6894 ] final  -79.82 input  -60.11 | X-H torsion
[ 7974 7965 7964 7962 ] final  107.37 input  175.53 | X-H torsion
[ 8008 7997 7996 7995 ] final   62.03 input   59.86 | X-H torsion
[ 10167 10162 10161 10158 ] final   97.30 input  -65.29 | X-H torsion
[ 10718 10713 10712 10709 ] final  -18.34 input   66.30 | X-H torsion
[ 10763 10752 10751 10750 ] final  -64.67 input  -60.55 | X-H torsion
[ 11005 11000 10999 10996 ] final   15.30 input  -57.11 | X-H torsion

> <Gold.Protein.ActiveResidues>
 VAL166  LYS551  ARG553  GLY616  TRP617  ASP618  TYR619  PRO620  LYS621  CYS622 
 ASP623  PHE694  ASN695  SER759  ASP760  ASP761  ALA762  ILE779  LEU786  VAL792 
 PHE793  MET794  SER795  GLU796  ALA797  LYS798  CYS799  TRP800  GLU811  SER814 

> <Gold.Protein.RotatedAtoms>
  150.6942  134.4063  159.5141 H   0  0  0  0  0  0  0  0  0  0  0  0  # atno 6907 bound_to 6896
  152.1828  134.8736  160.0534 H   0  0  0  0  0  0  0  0  0  0  0  0  # atno 6908 bound_to 6896
  151.9720  133.3694  159.4112 H   0  0  0  0  0  0  0  0  0  0  0  0  # atno 6909 bound_to 6896
  145.2945  139.2589  143.3847 H   0  0  0  0  0  0  0  0  0  0  0  0  # atno 7974 bound_to 7965
  155.6079  140.3494  155.4613 H   0  0  0  0  0  0  0  0  0  0  0  0  # atno 8008 bound_to 7997
  156.0177  140.1247  157.0413 H   0  0  0  0  0  0  0  0  0  0  0  0  # atno 8009 bound_to 7997
  154.4304  140.1069  156.5906 H   0  0  0  0  0  0  0  0  0  0  0  0  # atno 8010 bound_to 7997
  139.7813  144.6887  151.0018 H   0  0  0  0  0  0  0  0  0  0  0  0  # atno 10167 bound_to 10162
  156.5609  130.4725  149.6407 H   0  0  0  0  0  0  0  0  0  0  0  0  # atno 10718 bound_to 10713
  154.3336  135.6171  153.5563 H   0  0  0  0  0  0  0  0  0  0  0  0  # atno 10763 bound_to 10752
  152.9809  135.5752  154.4934 H   0  0  0  0  0  0  0  0  0  0  0  0  # atno 10764 bound_to 10752
  154.4625  135.2856  155.1679 H   0  0  0  0  0  0  0  0  0  0  0  0  # atno 10765 bound_to 10752
  140.4598  134.1139  155.7715 H   0  0  0  0  0  0  0  0  0  0  0  0  # atno 11005 bound_to 11000
  146.3173  140.3444  142.8651 LP  0  0  0  0  0  0  0  0  0  0  0  0  # atno 17320 bound_to 7965
  144.9145  140.7796  143.5787 LP  0  0  0  0  0  0  0  0  0  0  0  0  # atno 17321 bound_to 7965
  140.7818  143.4480  151.0455 LP  0  0  0  0  0  0  0  0  0  0  0  0  # atno 17342 bound_to 10162
  139.8160  143.7885  152.3174 LP  0  0  0  0  0  0  0  0  0  0  0  0  # atno 17343 bound_to 10162
  156.2800  130.7065  151.1886 LP  0  0  0  0  0  0  0  0  0  0  0  0  # atno 17370 bound_to 10713
  157.7368  131.0558  150.5389 LP  0  0  0  0  0  0  0  0  0  0  0  0  # atno 17371 bound_to 10713
  141.1626  133.8763  157.1804 LP  0  0  0  0  0  0  0  0  0  0  0  0  # atno 17394 bound_to 11000
  139.9952  135.0049  157.0067 LP  0  0  0  0  0  0  0  0  0  0  0  0  # atno 17395 bound_to 11000

$$$$
