AV-unprocessed.smi:290|AV-procd|sdf|2222|dock10
  -GOLD-   2262022 73D 1   1.00000     0.00000
 Structure written by MMmdl.
 59 62  0  0  0  0  0  0  0  0  2 V2000
  149.1553  141.7491  156.8279 C   0  0  0  0  0  0  0  0  0  0  0  0
  149.9477  141.3684  155.5673 C   0  0  1  0  0  0  0  0  0  0  0  0
  151.0023  140.5244  156.0344 O   0  0  0  0  0  0  0  0  0  0  0  0
  151.1391  139.3884  155.1969 C   0  0  0  0  0  0  0  0  0  0  0  0
  149.7200  139.1377  154.7100 C   0  0  0  0  0  0  0  0  0  0  0  0
  149.1917  140.5473  154.4835 C   0  0  2  0  0  0  0  0  0  0  0  0
  149.6602  140.9678  153.2133 O   0  0  0  0  0  0  0  0  0  0  0  0
  147.6382  140.5943  154.4643 C   0  0  0  0  0  0  0  0  0  0  0  0
  146.9658  139.3537  154.0899 N   0  0  0  0  0  0  0  0  0  0  0  0
  147.0278  138.6843  152.8847 C   0  0  0  0  0  0  0  0  0  0  0  0
  146.3473  137.5721  152.8244 N   0  0  0  0  0  0  0  0  0  0  0  0
  145.7978  137.4476  154.0919 C   0  0  0  0  0  0  0  0  0  0  0  0
  144.9717  136.4772  154.7150 C   0  0  0  0  0  0  0  0  0  0  0  0
  144.5447  135.3792  154.0514 N   0  0  0  0  0  0  0  0  0  0  0  0
  145.5905  134.4225  153.7449 C   0  0  0  0  0  0  0  0  0  0  0  0
  145.0069  133.5079  152.6678 C   0  0  0  0  0  0  0  0  0  0  0  0
  143.7508  134.2263  152.1297 C   0  0  2  0  0  0  0  0  0  0  0  0
  143.7207  134.2212  150.6327 N   0  3  1  0  0  0  0  0  0  0  0  0
  144.6651  135.2254  150.0767 C   0  0  0  0  0  0  0  0  0  0  0  0
  143.8768  132.8820  149.9958 C   0  0  0  0  0  0  0  0  0  0  0  0
  143.8939  132.9169  148.4558 C   0  0  0  0  0  0  0  0  0  0  0  0
  142.6861  133.4582  147.9630 O   0  0  0  0  0  0  0  0  0  0  0  0
  143.8055  135.6126  152.8168 C   0  0  1  0  0  0  0  0  0  0  0  0
  142.4210  136.2185  153.1378 C   0  0  0  0  0  0  0  0  0  0  0  0
  144.6285  136.6718  156.0157 N   0  0  0  0  0  0  0  0  0  0  0  0
  145.0686  137.7540  156.6651 C   0  0  0  0  0  0  0  0  0  0  0  0
  145.8444  138.7414  156.2115 N   0  0  0  0  0  0  0  0  0  0  0  0
  146.1873  138.5470  154.9048 C   0  0  0  0  0  0  0  0  0  0  0  0
  142.8678  133.7005  152.4988 H   0  0  0  0  0  0  0  0  0  0  0  0
  144.3797  136.3017  152.1955 H   0  0  0  0  0  0  0  0  0  0  0  0
  148.4233  142.5274  156.6247 H   0  0  0  0  0  0  0  0  0  0  0  0
  149.8225  142.1438  157.5945 H   0  0  0  0  0  0  0  0  0  0  0  0
  148.6384  140.8888  157.2535 H   0  0  0  0  0  0  0  0  0  0  0  0
  150.3814  142.2740  155.1399 H   0  0  0  0  0  0  0  0  0  0  0  0
  151.8036  139.6273  154.3653 H   0  0  0  0  0  0  0  0  0  0  0  0
  151.5566  138.5391  155.7379 H   0  0  0  0  0  0  0  0  0  0  0  0
  149.6771  138.5032  153.8236 H   0  0  0  0  0  0  0  0  0  0  0  0
  149.1528  138.6437  155.5003 H   0  0  0  0  0  0  0  0  0  0  0  0
  149.4590  140.2946  152.5815 H   0  0  0  0  0  0  0  0  0  0  0  0
  147.2648  140.8882  155.4460 H   0  0  0  0  0  0  0  0  0  0  0  0
  147.3095  141.3781  153.7815 H   0  0  0  0  0  0  0  0  0  0  0  0
  147.5977  139.0376  152.0388 H   0  0  0  0  0  0  0  0  0  0  0  0
  146.4814  134.9271  153.3676 H   0  0  0  0  0  0  0  0  0  0  0  0
  145.8745  133.8605  154.6353 H   0  0  0  0  0  0  0  0  0  0  0  0
  145.7552  133.3283  151.8946 H   0  0  0  0  0  0  0  0  0  0  0  0
  144.7348  132.5394  153.0891 H   0  0  0  0  0  0  0  0  0  0  0  0
  145.6962  134.8812  150.1663 H   0  0  0  0  0  0  0  0  0  0  0  0
  144.5899  136.1828  150.5914 H   0  0  0  0  0  0  0  0  0  0  0  0
  144.4589  135.4305  149.0272 H   0  0  0  0  0  0  0  0  0  0  0  0
  144.7922  132.4162  150.3630 H   0  0  0  0  0  0  0  0  0  0  0  0
  143.0509  132.2317  150.2782 H   0  0  0  0  0  0  0  0  0  0  0  0
  144.7429  133.4732  148.0604 H   0  0  0  0  0  0  0  0  0  0  0  0
  143.9913  131.9022  148.0690 H   0  0  0  0  0  0  0  0  0  0  0  0
  142.0945  133.5911  148.6883 H   0  0  0  0  0  0  0  0  0  0  0  0
  141.8017  136.3571  152.2545 H   0  0  0  0  0  0  0  0  0  0  0  0
  142.5191  137.1960  153.6106 H   0  0  0  0  0  0  0  0  0  0  0  0
  141.8650  135.5791  153.8244 H   0  0  0  0  0  0  0  0  0  0  0  0
  144.7555  137.8420  157.6951 H   0  0  0  0  0  0  0  0  0  0  0  0
  142.7928  134.5306  150.3794 H   0  0  0  0  0  0  0  0  0  0  0  0
  1  2  1  0  0  0  0
  1 31  1  0  0  0  0
  1 32  1  0  0  0  0
  1 33  1  0  0  0  0
  2  6  1  0  0  0  0
  2  3  1  0  0  0  0
  2 34  1  0  0  0  0
  3  4  1  0  0  0  0
  4  5  1  0  0  0  0
  4 35  1  0  0  0  0
  4 36  1  0  0  0  0
  5  6  1  0  0  0  0
  5 37  1  0  0  0  0
  5 38  1  0  0  0  0
  6  7  1  0  0  0  0
  6  8  1  0  0  0  0
  7 39  1  0  0  0  0
  8  9  1  0  0  0  0
  8 40  1  0  0  0  0
  8 41  1  0  0  0  0
  9 28  1  0  0  0  0
  9 10  1  0  0  0  0
 10 11  2  0  0  0  0
 10 42  1  0  0  0  0
 11 12  1  0  0  0  0
 12 28  2  0  0  0  0
 12 13  1  0  0  0  0
 13 14  1  0  0  0  0
 13 25  2  0  0  0  0
 14 23  1  0  0  0  0
 14 15  1  0  0  0  0
 15 16  1  0  0  0  0
 15 43  1  0  0  0  0
 15 44  1  0  0  0  0
 16 17  1  0  0  0  0
 16 45  1  0  0  0  0
 16 46  1  0  0  0  0
 17 29  1  0  0  0  0
 17 18  1  0  0  0  0
 17 23  1  0  0  0  0
 18 19  1  0  0  0  0
 18 20  1  0  0  0  0
 18 59  1  0  0  0  0
 19 47  1  0  0  0  0
 19 48  1  0  0  0  0
 19 49  1  0  0  0  0
 20 21  1  0  0  0  0
 20 50  1  0  0  0  0
 20 51  1  0  0  0  0
 21 22  1  0  0  0  0
 21 52  1  0  0  0  0
 21 53  1  0  0  0  0
 22 54  1  0  0  0  0
 23 30  1  0  0  0  0
 23 24  1  0  0  0  0
 24 55  1  0  0  0  0
 24 56  1  0  0  0  0
 24 57  1  0  0  0  0
 25 26  1  0  0  0  0
 26 27  2  0  0  0  0
 26 58  1  0  0  0  0
 27 28  1  0  0  0  0
M  CHG  1  18   1
M  END
> <s_m_source_file>
AV-unprocessed.smi

> <i_m_source_file_index>
290

> <i_lp_mmshare_version>
43012

> <i_f3d_flags>
0

> <s_epik_input>
W0NIMl0xW0NIMl1PW0NAQEhdKFtDSDNdKVtDQEBdMShbT0hdKVtDSDJdbihbY0hdbjIpYyhjMjMpbltjSF1uYzNONFtDSDJdW0NIMl1bQ0BIXShbQ0BIXTRbQ0gzXSlOKFtDSDNdKVtDSDJdW0NIMl1bT0hd

> <s_epik_cmdline>
J2VwaWtfcHl0aG9uJywgJy1waCcsICc3LjAnLCAnLXRuJywgJzgnLCAnLW1hJywgJzIwMCcsICctbWV0YWxfYmluZGluZycsICctaW1hZScsICc8aW5maWxlLm1hZT4nLCAnLW9tYWUnLCAnPG91dGZpbGUubWFlPic=

> <r_lp_tautomer_probability>
1

> <r_epik_Ionization_Penalty>
0.0036983

> <r_epik_Ionization_Penalty_Charging>
0.0032725

> <r_epik_Ionization_Penalty_Neutral>
0.000425798

> <r_epik_State_Penalty>
-0

> <r_epik_Charging_Adjusted_Penalty>
0.0032725

> <i_epik_Tot_Q>
1

> <i_epik_Tot_abs_Q>
1

> <r_epik_Metal_State_Penalty>
-0

> <b_epik_Metal_Only>
0

> <s_lp_Force_Field>
OPLS_2005

> <r_lp_Energy>
67.3345

> <b_lp_Chiralities_Consistent>
1

> <s_lp_Variant>
AV-unprocessed.smi:290-8

> <Gold.Version>
5.8.1

> <Gold.Id.Protein>
6NUR|6NUR_protein|mol2

> <Gold.PLP.Fitness>
57.4793

> <Gold.PLP.PLP>
-39.3956

> <Gold.PLP.part.hbond>
-5.7853

> <Gold.PLP.part.metal>
0.0000

> <Gold.PLP.part.buried>
-4.4756

> <Gold.PLP.part.nonpolar>
-30.6210

> <Gold.PLP.part.repulsive>
0.5878

> <Gold.PLP.ligand.clash>
0.0000

> <Gold.PLP.ligand.torsion>
1.0328

> <Gold.PLP.Chemscore.Hbond>
5.6684

> <Gold.PLP.Chemscore.CHOScore>
0.9998

> <Gold.PLP.Chemscore.Metal>
0.0000

> <Gold.Chemscore.Hbonds>
donor molecule, donor type, donor heavy atom, donor atom, acceptor molecule, acceptor atom, score
      L1  H     7    39       P1  7957  0.61
      L1  H    18    59       P1 10186  2.00
      L1  H    22    54       P1 10186  1.00
      P1  H  7989  7998       L1     7  0.16
      P1  H  8011  8017       L1     7  1.00
      P1  H 10192 10197       L1    22  0.45
      L1  C    10    42       P1  7957  1.00

> <Gold.PLP.Chemscore.Internal.Correction>
0.1446

> <Gold.Rescore>
     Score         DG    S(hbond)    S(metal)    S(lipo)     H(rot)  DE(clash)    DE(int)     intcor
     15.42     -16.94       2.96        0.00      93.78       3.67       0.60       0.92       ----

> <Gold.Chemscore.Fitness>
15.4228

> <Gold.Chemscore.DG>
-16.9441

> <Gold.Chemscore.ZeroCoef>
-5.4800

> <Gold.Chemscore.Hbond>
2.9570

> <Gold.Chemscore.Metal>
0.0000

> <Gold.Chemscore.Lipo>
93.7775

> <Gold.Chemscore.Internal_Hbond>
0.0000

> <Gold.Chemscore.DEClash>
0.6024

> <Gold.Chemscore.DEInternal>
0.9189

> <Gold.Chemscore.Rot>
3.6658

> <Gold.Chemscore.Internal.Correction>
   9.000000E+99

> <Gold.Chemscore.Hbonds>
donor molecule, donor type, donor heavy atom, donor atom, acceptor molecule, acceptor atom, score
      L1  H     7    39       P1  7957  0.61
      L1  H    18    59       P1 10186  0.54
      L1  H    22    54       P1 10186  0.95
      P1  H  7989  7998       L1     7  0.03
      P1  H  8011  8017       L1     7  0.55
      P1  H 10192 10197       L1    22  0.02

> <Gold.Chemscore.Hbond.Weighted>
-9.8765

> <Gold.Chemscore.Metal.Weighted>
-0.0000

> <Gold.Chemscore.Lipo.Weighted>
-10.9720

> <Gold.Chemscore.Internal_Hbond.Weighted>
0.0000

> <Gold.Chemscore.DEClash.Weighted>
0.6024

> <Gold.Chemscore.DEInternal.Weighted>
0.9189

> <Gold.Chemscore.Rot.Weighted>
9.3844

> <Gold.Chemscore.Internal.Correction.Weighted>
   9.000000E+99

> <Gold.Protein.RotatedTorsions>
[ 6907 6896 6895 6894 ] final   92.53 input  -60.11 | X-H torsion
[ 7974 7965 7964 7962 ] final   56.28 input  175.53 | X-H torsion
[ 8008 7997 7996 7995 ] final   69.48 input   59.86 | X-H torsion
[ 10167 10162 10161 10158 ] final  140.50 input  -65.29 | X-H torsion
[ 10718 10713 10712 10709 ] final  -17.36 input   66.30 | X-H torsion
[ 10763 10752 10751 10750 ] final  113.20 input  -60.55 | X-H torsion
[ 11005 11000 10999 10996 ] final -142.76 input  -57.11 | X-H torsion

> <Gold.Protein.ActiveResidues>
 VAL166  LYS551  ARG553  GLY616  TRP617  ASP618  TYR619  PRO620  LYS621  CYS622 
 ASP623  PHE694  ASN695  SER759  ASP760  ASP761  ALA762  ILE779  LEU786  VAL792 
 PHE793  MET794  SER795  GLU796  ALA797  LYS798  CYS799  TRP800  GLU811  SER814 

> <Gold.Protein.RotatedAtoms>
  152.5452  134.1487  159.8509 H   0  0  0  0  0  0  0  0  0  0  0  0  # atno 6907 bound_to 6896
  151.1516  133.4896  159.2602 H   0  0  0  0  0  0  0  0  0  0  0  0  # atno 6908 bound_to 6896
  151.1466  135.0217  159.8704 H   0  0  0  0  0  0  0  0  0  0  0  0  # atno 6909 bound_to 6896
  145.9415  139.3892  143.0361 H   0  0  0  0  0  0  0  0  0  0  0  0  # atno 7974 bound_to 7965
  155.7242  140.3493  155.5030 H   0  0  0  0  0  0  0  0  0  0  0  0  # atno 8008 bound_to 7997
  155.9241  140.1072  157.1205 H   0  0  0  0  0  0  0  0  0  0  0  0  # atno 8009 bound_to 7997
  154.4074  140.1244  156.4705 H   0  0  0  0  0  0  0  0  0  0  0  0  # atno 8010 bound_to 7997
  139.5047  144.6230  151.6006 H   0  0  0  0  0  0  0  0  0  0  0  0  # atno 10167 bound_to 10162
  156.5747  130.4758  149.6347 H   0  0  0  0  0  0  0  0  0  0  0  0  # atno 10718 bound_to 10713
  153.4890  135.3663  155.2482 H   0  0  0  0  0  0  0  0  0  0  0  0  # atno 10763 bound_to 10752
  154.8753  135.3972  154.3611 H   0  0  0  0  0  0  0  0  0  0  0  0  # atno 10764 bound_to 10752
  153.4227  135.7080  153.6349 H   0  0  0  0  0  0  0  0  0  0  0  0  # atno 10765 bound_to 10752
  140.8193  134.2650  157.4907 H   0  0  0  0  0  0  0  0  0  0  0  0  # atno 11005 bound_to 11000
  145.8293  140.9639  143.0857 LP  0  0  0  0  0  0  0  0  0  0  0  0  # atno 17320 bound_to 7965
  144.6780  140.0142  143.7484 LP  0  0  0  0  0  0  0  0  0  0  0  0  # atno 17321 bound_to 7965
  140.5938  143.9733  150.6341 LP  0  0  0  0  0  0  0  0  0  0  0  0  # atno 17342 bound_to 10162
  140.2922  143.3317  152.1052 LP  0  0  0  0  0  0  0  0  0  0  0  0  # atno 17343 bound_to 10162
  156.2684  130.7002  151.1792 LP  0  0  0  0  0  0  0  0  0  0  0  0  # atno 17370 bound_to 10713
  157.7340  131.0585  150.5546 LP  0  0  0  0  0  0  0  0  0  0  0  0  # atno 17371 bound_to 10713
  139.8709  134.9526  156.4121 LP  0  0  0  0  0  0  0  0  0  0  0  0  # atno 17394 bound_to 11000
  140.9116  133.7708  155.9798 LP  0  0  0  0  0  0  0  0  0  0  0  0  # atno 17395 bound_to 11000

$$$$
