AV-unprocessed.smi:1803|AV-procd|sdf|7293|dock8
  -GOLD-   22720 8553D 1   1.00000     0.00000
 Structure written by MMmdl.
 35 37  0  0  0  0  0  0  0  0  3 V2000
  144.8281  138.1357  153.6045 O   0  0  0  0  0  0  0  0  0  0  0  0
  145.8668  137.6239  153.1888 C   0  0  0  0  0  0  0  0  0  0  0  0
  147.1046  138.0859  153.5031 N   0  5  0  0  0  0  0  0  0  0  0  0
  147.3295  139.3568  153.8852 C   0  0  0  0  0  0  0  0  0  0  0  0
  146.3325  140.2152  154.1547 N   0  0  0  0  0  0  0  0  0  0  0  0
  146.7825  141.4754  154.5234 N   0  0  0  0  0  0  0  0  0  0  0  0
  148.1139  141.5317  154.5362 C   0  0  0  0  0  0  0  0  0  0  0  0
  148.9386  140.0528  154.0900 S   0  0  0  0  0  0  0  0  0  0  0  0
  145.7828  136.5578  152.3699 N   0  0  0  0  0  0  0  0  0  0  0  0
  144.5473  135.9617  151.8724 C   0  0  2  0  0  0  0  0  0  0  0  0
  143.7158  135.2978  152.9620 C   0  0  0  0  0  0  0  0  0  0  0  0
  142.7932  134.3650  152.1704 C   0  0  0  0  0  0  0  0  0  0  0  0
  143.4989  134.0313  150.9084 N   0  3  2  0  0  0  0  0  0  0  0  0
  143.6536  132.5714  150.6682 C   0  0  0  0  0  0  0  0  0  0  0  0
  144.7216  132.3002  149.5981 C   0  0  0  0  0  0  0  0  0  0  0  0
  146.1062  132.8058  150.0453 C   0  0  0  0  0  0  0  0  0  0  0  0
  146.0119  133.9437  151.0797 C   0  0  0  0  0  0  0  0  0  0  0  0
  144.7584  134.8260  150.8540 C   0  0  2  0  0  0  0  0  0  0  0  0
  148.6134  142.4493  154.8090 H   0  0  0  0  0  0  0  0  0  0  0  0
  146.6487  136.1540  152.0433 H   0  0  0  0  0  0  0  0  0  0  0  0
  143.9331  136.7400  151.4145 H   0  0  0  0  0  0  0  0  0  0  0  0
  144.3560  134.7115  153.6230 H   0  0  0  0  0  0  0  0  0  0  0  0
  143.1674  136.0144  153.5744 H   0  0  0  0  0  0  0  0  0  0  0  0
  142.5158  133.4864  152.7543 H   0  0  0  0  0  0  0  0  0  0  0  0
  141.8710  134.8850  151.9094 H   0  0  0  0  0  0  0  0  0  0  0  0
  143.9387  132.0654  151.5923 H   0  0  0  0  0  0  0  0  0  0  0  0
  142.6912  132.1578  150.3653 H   0  0  0  0  0  0  0  0  0  0  0  0
  144.7702  131.2359  149.3661 H   0  0  0  0  0  0  0  0  0  0  0  0
  144.4320  132.8008  148.6731 H   0  0  0  0  0  0  0  0  0  0  0  0
  146.6845  131.9865  150.4741 H   0  0  0  0  0  0  0  0  0  0  0  0
  146.6616  133.1421  149.1690 H   0  0  0  0  0  0  0  0  0  0  0  0
  145.9763  133.5178  152.0834 H   0  0  0  0  0  0  0  0  0  0  0  0
  146.9261  134.5363  151.0368 H   0  0  0  0  0  0  0  0  0  0  0  0
  144.8396  135.2607  149.8565 H   0  0  0  0  0  0  0  0  0  0  0  0
  142.9218  134.3882  150.1603 H   0  0  0  0  0  0  0  0  0  0  0  0
  1  2  2  0  0  0  0
  2  3  1  0  0  0  0
  2  9  1  0  0  0  0
  3  4  1  0  0  0  0
  4  8  1  0  0  0  0
  4  5  2  0  0  0  0
  5  6  1  0  0  0  0
  6  7  2  0  0  0  0
  7  8  1  0  0  0  0
  7 19  1  0  0  0  0
  9 10  1  0  0  0  0
  9 20  1  0  0  0  0
 10 18  1  0  0  0  0
 10 11  1  0  0  0  0
 10 21  1  0  0  0  0
 11 12  1  0  0  0  0
 11 22  1  0  0  0  0
 11 23  1  0  0  0  0
 12 13  1  0  0  0  0
 12 24  1  0  0  0  0
 12 25  1  0  0  0  0
 13 18  1  0  0  0  0
 13 14  1  0  0  0  0
 13 35  1  0  0  0  0
 14 15  1  0  0  0  0
 14 26  1  0  0  0  0
 14 27  1  0  0  0  0
 15 16  1  0  0  0  0
 15 28  1  0  0  0  0
 15 29  1  0  0  0  0
 16 17  1  0  0  0  0
 16 30  1  0  0  0  0
 16 31  1  0  0  0  0
 17 18  1  0  0  0  0
 17 32  1  0  0  0  0
 17 33  1  0  0  0  0
 18 34  1  0  0  0  0
M  CHG  1   3  -1
M  CHG  1  13   1
M  END
> <s_m_source_file>
AV-unprocessed.smi

> <i_m_source_file_index>
1803

> <i_lp_mmshare_version>
43012

> <i_f3d_flags>
0

> <s_epik_input>
czFbY0hdbm5jMVtOSF1DKD1PKVtOSF1bQ0BIXShbQ0gyXVtDSDJdMilbQ0BASF0oTjIzKVtDSDJdW0NIMl1bQ0gyXVtDSDJdMw==

> <s_epik_cmdline>
J2VwaWtfcHl0aG9uJywgJy1waCcsICc3LjAnLCAnLXRuJywgJzgnLCAnLW1hJywgJzIwMCcsICctbWV0YWxfYmluZGluZycsICctaW1hZScsICc8aW5maWxlLm1hZT4nLCAnLW9tYWUnLCAnPG91dGZpbGUubWFlPic=

> <r_lp_tautomer_probability>
1

> <r_epik_Ionization_Penalty>
3.78828

> <r_epik_Ionization_Penalty_Charging>
3.7591

> <r_epik_Ionization_Penalty_Neutral>
0.0291838

> <r_epik_State_Penalty>
3.757

> <r_epik_Charging_Adjusted_Penalty>
7.51609

> <i_epik_Tot_Q>
0

> <i_epik_Tot_abs_Q>
2

> <r_epik_Metal_State_Penalty>
0.558016

> <b_epik_Metal_Only>
1

> <s_lp_Force_Field>
OPLS_2005

> <r_lp_Energy>
34.1757

> <b_lp_Chiralities_Consistent>
1

> <s_lp_Variant>
AV-unprocessed.smi:1803-15

> <Gold.Version>
5.8.1

> <Gold.Id.Protein>
6NUR|6NUR_protein|mol2

> <Gold.PLP.Fitness>
36.8237

> <Gold.PLP.PLP>
-27.1541

> <Gold.PLP.part.hbond>
-1.3997

> <Gold.PLP.part.metal>
0.0000

> <Gold.PLP.part.buried>
-3.9278

> <Gold.PLP.part.nonpolar>
-23.4732

> <Gold.PLP.part.repulsive>
1.6602

> <Gold.PLP.ligand.clash>
0.0000

> <Gold.PLP.ligand.torsion>
0.1819

> <Gold.PLP.Chemscore.Hbond>
2.3415

> <Gold.PLP.Chemscore.CHOScore>
1.0000

> <Gold.PLP.Chemscore.Metal>
0.0000

> <Gold.Chemscore.Hbonds>
donor molecule, donor type, donor heavy atom, donor atom, acceptor molecule, acceptor atom, score
      L1  H     9    20       P1  7948  0.36
      L1  H    13    35       P1 10186  1.63
      L1  C     7    19       P1  8028  1.00

> <Gold.PLP.Chemscore.Internal.Correction>
0.0089

> <Gold.Rescore>
     Score         DG    S(hbond)    S(metal)    S(lipo)     H(rot)  DE(clash)    DE(int)     intcor
     11.89     -14.71       1.09        0.00      69.63       1.00       1.00       1.82       ----

> <Gold.Chemscore.Fitness>
11.8877

> <Gold.Chemscore.DG>
-14.7116

> <Gold.Chemscore.ZeroCoef>
-5.4800

> <Gold.Chemscore.Hbond>
1.0912

> <Gold.Chemscore.Metal>
0.0000

> <Gold.Chemscore.Lipo>
69.6311

> <Gold.Chemscore.Internal_Hbond>
0.0000

> <Gold.Chemscore.DEClash>
1.0034

> <Gold.Chemscore.DEInternal>
1.8205

> <Gold.Chemscore.Rot>
1.0000

> <Gold.Chemscore.Internal.Correction>
   9.000000E+99

> <Gold.Chemscore.Hbonds>
donor molecule, donor type, donor heavy atom, donor atom, acceptor molecule, acceptor atom, score
      L1  H     9    20       P1  7948  0.33
      L1  H    13    35       P1 10186  0.67

> <Gold.Chemscore.Hbond.Weighted>
-3.6447

> <Gold.Chemscore.Metal.Weighted>
-0.0000

> <Gold.Chemscore.Lipo.Weighted>
-8.1468

> <Gold.Chemscore.Internal_Hbond.Weighted>
0.0000

> <Gold.Chemscore.DEClash.Weighted>
1.0034

> <Gold.Chemscore.DEInternal.Weighted>
1.8205

> <Gold.Chemscore.Rot.Weighted>
2.5600

> <Gold.Chemscore.Internal.Correction.Weighted>
   9.000000E+99

> <Gold.Protein.RotatedTorsions>
[ 6907 6896 6895 6894 ] final   14.43 input  -60.11 | X-H torsion
[ 7974 7965 7964 7962 ] final  -28.77 input  175.53 | X-H torsion
[ 8008 7997 7996 7995 ] final   41.86 input   59.86 | X-H torsion
[ 10167 10162 10161 10158 ] final   -0.78 input  -65.29 | X-H torsion
[ 10718 10713 10712 10709 ] final -153.28 input   66.30 | X-H torsion
[ 10763 10752 10751 10750 ] final -104.64 input  -60.55 | X-H torsion
[ 11005 11000 10999 10996 ] final  -21.93 input  -57.11 | X-H torsion

> <Gold.Protein.ActiveResidues>
 VAL166  LYS551  ARG553  GLY616  TRP617  ASP618  TYR619  PRO620  LYS621  CYS622 
 ASP623  PHE694  ASN695  SER759  ASP760  ASP761  ALA762  ILE779  LEU786  VAL792 
 PHE793  MET794  SER795  GLU796  ALA797  LYS798  CYS799  TRP800  GLU811  SER814 

> <Gold.Protein.RotatedAtoms>
  151.8022  135.0705  160.0401 H   0  0  0  0  0  0  0  0  0  0  0  0  # atno 6907 bound_to 6896
  152.3081  133.5720  159.5671 H   0  0  0  0  0  0  0  0  0  0  0  0  # atno 6908 bound_to 6896
  150.7306  134.0109  159.3711 H   0  0  0  0  0  0  0  0  0  0  0  0  # atno 6909 bound_to 6896
  146.1265  140.5325  142.8712 H   0  0  0  0  0  0  0  0  0  0  0  0  # atno 7974 bound_to 7965
  155.2766  140.3369  155.4261 H   0  0  0  0  0  0  0  0  0  0  0  0  # atno 8008 bound_to 7997
  156.2109  140.1769  156.7738 H   0  0  0  0  0  0  0  0  0  0  0  0  # atno 8009 bound_to 7997
  154.5685  140.0674  156.8912 H   0  0  0  0  0  0  0  0  0  0  0  0  # atno 8010 bound_to 7997
  140.6782  143.6854  150.8071 H   0  0  0  0  0  0  0  0  0  0  0  0  # atno 10167 bound_to 10162
  156.4837  130.8315  151.2541 H   0  0  0  0  0  0  0  0  0  0  0  0  # atno 10718 bound_to 10713
  154.7892  135.4778  154.0014 H   0  0  0  0  0  0  0  0  0  0  0  0  # atno 10763 bound_to 10752
  153.1605  135.6808  153.8756 H   0  0  0  0  0  0  0  0  0  0  0  0  # atno 10764 bound_to 10752
  153.8371  135.3184  155.3401 H   0  0  0  0  0  0  0  0  0  0  0  0  # atno 10765 bound_to 10752
  140.8609  133.7789  156.0073 H   0  0  0  0  0  0  0  0  0  0  0  0  # atno 11005 bound_to 11000
  144.7647  140.5503  143.6711 LP  0  0  0  0  0  0  0  0  0  0  0  0  # atno 17320 bound_to 7965
  145.5355  139.1475  143.3476 LP  0  0  0  0  0  0  0  0  0  0  0  0  # atno 17321 bound_to 7965
  140.0550  143.5211  152.2655 LP  0  0  0  0  0  0  0  0  0  0  0  0  # atno 17342 bound_to 10162
  139.6087  144.7603  151.3002 LP  0  0  0  0  0  0  0  0  0  0  0  0  # atno 17343 bound_to 10162
  157.7481  131.0036  150.3045 LP  0  0  0  0  0  0  0  0  0  0  0  0  # atno 17370 bound_to 10713
  156.3496  130.3828  149.7340 LP  0  0  0  0  0  0  0  0  0  0  0  0  # atno 17371 bound_to 10713
  140.8684  134.2756  157.5202 LP  0  0  0  0  0  0  0  0  0  0  0  0  # atno 17394 bound_to 11000
  139.8707  134.9555  156.4207 LP  0  0  0  0  0  0  0  0  0  0  0  0  # atno 17395 bound_to 11000

$$$$
