#       Name:                AV-unprocessed.smi:2477
#       Creating user name   scv26
#       Creation time:       Fri Mar 27 13:40:20 2020


#       File generated by GOLD software.
#

@<TRIPOS>MOLECULE
AV-unprocessed.smi:2477
    57    59     1
SMALL
NO_CHARGES


@<TRIPOS>ATOM
      1 ****        -6.4049   1.7767  -1.3500 C.3            1 S1                 0.0000
      2 ****        -5.0781   2.2661  -0.9666 N.am           1 S1                 0.0000
      3 ****        -5.0075   3.5063  -0.3105 C.2            1 S1                 0.0000
      4 ****        -3.8366   4.0313   0.0756 C.2            1 S1                 0.0000
      5 ****        -2.6282   3.2910  -0.1975 C.2            1 S1                 0.0000
      6 ****        -2.6725   2.0912  -0.8309 C.2            1 S1                 0.0000
      7 ****        -1.5530   1.2977  -1.1410 N.am           1 S1                 0.0000
      8 ****        -0.2482   1.4995  -0.8810 C.2            1 S1                 0.0000
      9 ****         0.2355   2.4681  -0.2965 O.2            1 S1                 0.0000
     10 ****         0.4882   0.4777  -1.3387 N.am           1 S1                 0.0000
     11 ****         1.9363   0.3496  -1.2004 C.3            1 S1                 0.0000
     12 ****         2.4810  -0.6126  -2.2732 C.3            1 S1                 0.0000
     13 ****         4.0028  -0.7852  -2.1500 C.3            1 S1                 0.0000
     14 ****         4.3962  -1.2580  -0.7424 C.3            1 S1                 0.0000
     15 ****         3.8547  -0.3071   0.3381 C.3            1 S1                 0.0000
     16 ****         2.3315  -0.1103   0.2239 C.3            1 S1                 0.0000
     17 ****         1.7055  -1.3560   0.5190 O.3            1 S1                 0.0000
     18 ****         0.7017  -1.3082   1.5263 C.3            1 S1                 0.0000
     19 ****         1.3335  -1.2936   2.9219 C.3            1 S1                 0.0000
     20 ****         1.7284  -2.7490   3.1926 C.3            1 S1                 0.0000
     21 ****         0.8155  -3.6126   2.3081 C.3            1 S1                 0.0000
     22 ****        -0.0511  -2.6381   1.5007 C.3            1 S1                 0.0000
     23 ****        -3.9682   1.5224  -1.2527 C.2            1 S1                 0.0000
     24 ****        -4.0610   0.4373  -1.8322 O.2            1 S1                 0.0000
     25 ****        -7.2077   2.4456  -1.0381 H              1 S1                 0.0000
     26 ****        -6.6009   0.8031  -0.8981 H              1 S1                 0.0000
     27 ****        -6.4737   1.6691  -2.4334 H              1 S1                 0.0000
     28 ****        -5.9542   3.9991  -0.1427 H              1 S1                 0.0000
     29 ****        -3.7975   4.9861   0.5788 H              1 S1                 0.0000
     30 ****        -1.7033   3.7391   0.1238 H              1 S1                 0.0000
     31 ****        -1.7774   0.4415  -1.6271 H              1 S1                 0.0000
     32 ****         0.0108  -0.2810  -1.8028 H              1 S1                 0.0000
     33 ****         2.3839   1.3291  -1.3809 H              1 S1                 0.0000
     34 ****         1.9971  -1.5860  -2.1808 H              1 S1                 0.0000
     35 ****         2.2354  -0.2399  -3.2682 H              1 S1                 0.0000
     36 ****         4.3573  -1.4986  -2.8944 H              1 S1                 0.0000
     37 ****         4.4971   0.1621  -2.3692 H              1 S1                 0.0000
     38 ****         4.0097  -2.2639  -0.5731 H              1 S1                 0.0000
     39 ****         5.4814  -1.3287  -0.6641 H              1 S1                 0.0000
     40 ****         4.1093  -0.6864   1.3282 H              1 S1                 0.0000
     41 ****         4.3494   0.6605   0.2451 H              1 S1                 0.0000
     42 ****         2.0376   0.6548   0.9451 H              1 S1                 0.0000
     43 ****         0.0227  -0.4700   1.3635 H              1 S1                 0.0000
     44 ****         2.1748  -0.6067   3.0128 H              1 S1                 0.0000
     45 ****         0.5831  -0.9834   3.6502 H              1 S1                 0.0000
     46 ****         2.7696  -2.9087   2.9093 H              1 S1                 0.0000
     47 ****         1.6351  -3.0006   4.2495 H              1 S1                 0.0000
     48 ****         1.4221  -4.2227   1.6377 H              1 S1                 0.0000
     49 ****         0.1995  -4.2910   2.8993 H              1 S1                 0.0000
     50 ****        -1.0134  -2.5154   1.9996 H              1 S1                 0.0000
     51 ****        -0.2513  -2.9902   0.4881 H              1 S1                 0.0000
     52 ****        -0.3594   3.2003   0.0350 LP             1 S1                 0.0000
     53 ****         1.2237   2.5232  -0.1530 LP             1 S1                 0.0000
     54 ****         2.4142  -1.9946   0.8190 LP             1 S1                 0.0000
     55 ****         1.2840  -1.6968  -0.3214 LP             1 S1                 0.0000
     56 ****        -4.9591   0.0889  -2.1005 LP             1 S1                 0.0000
     57 ****        -3.2380  -0.0939  -2.0337 LP             1 S1                 0.0000
@<TRIPOS>BOND
    1    1    2 1     
    2    1   25 1     
    3    1   26 1     
    4    1   27 1     
    5    2   23 am    
    6    2    3 1     
    7    3    4 2     
    8    3   28 1     
    9    4    5 1     
   10    4   29 1     
   11    5    6 2     
   12    5   30 1     
   13    6    7 1     
   14    6   23 1     
   15    7    8 am    
   16    7   31 1     
   17    8    9 2     
   18    8   10 am    
   19   10   11 1     
   20   10   32 1     
   21   11   16 1     
   22   11   12 1     
   23   11   33 1     
   24   12   13 1     
   25   12   34 1     
   26   12   35 1     
   27   13   14 1     
   28   13   36 1     
   29   13   37 1     
   30   14   15 1     
   31   14   38 1     
   32   14   39 1     
   33   15   16 1     
   34   15   40 1     
   35   15   41 1     
   36   16   17 1     
   37   16   42 1     
   38   17   18 1     
   39   18   22 1     
   40   18   19 1     
   41   18   43 1     
   42   19   20 1     
   43   19   44 1     
   44   19   45 1     
   45   20   21 1     
   46   20   46 1     
   47   20   47 1     
   48   21   22 1     
   49   21   48 1     
   50   21   49 1     
   51   22   50 1     
   52   22   51 1     
   53   23   24 2     
   54    9   52 1     
   55    9   53 1     
   56   17   54 1     
   57   17   55 1     
   58   24   56 1     
   59   24   57 1     
@<TRIPOS>SUBSTRUCTURE
      1 S1             1
@<TRIPOS>SET
LONE_PAIRS      STATIC     ATOMS    <user>   **** ""
6 52 53 54 55 56 57
DONOR_HYDROGENS      STATIC     ATOMS    <user>   **** ""
2 31 32
ATOM$BLUE        STATIC     ATOMS    COLORGROUP SYSTEM
6 52 53 54 55 56 57
ATOM$RED        STATIC     ATOMS    COLORGROUP SYSTEM
2 31 32
