AV-unprocessed.smi:1|AV-procd|sdf|22|dock9
  -GOLD-   2262015133D 1   1.00000     0.00000
 Structure written by MMmdl.
 56 61  0  0  0  0  0  0  0  0  2 V2000
  146.4684  133.9487  154.4007 O   0  0  0  0  0  0  0  0  0  0  0  0
  146.8849  133.2029  153.5118 C   0  0  0  0  0  0  0  0  0  0  0  0
  148.0793  132.5612  153.4537 N   0  5  0  0  0  0  0  0  0  0  0  0
  149.0480  132.8591  154.3330 C   0  0  0  0  0  0  0  0  0  0  0  0
  149.8545  131.8823  154.8203 N   0  0  0  0  0  0  0  0  0  0  0  0
  150.8052  132.1746  155.7153 C   0  0  0  0  0  0  0  0  0  0  0  0
  151.1135  133.3562  156.2580 N   0  0  0  0  0  0  0  0  0  0  0  0
  150.3087  134.3486  155.7767 C   0  0  0  0  0  0  0  0  0  0  0  0
  149.2630  134.1766  154.8231 C   0  0  0  0  0  0  0  0  0  0  0  0
  148.6368  135.3850  154.5550 N   0  0  0  0  0  0  0  0  0  0  0  0
  149.3178  136.2196  155.3363 C   0  0  0  0  0  0  0  0  0  0  0  0
  150.3103  135.7004  156.0857 N   0  0  0  0  0  0  0  0  0  0  0  0
  151.2056  136.4355  157.0308 C   0  0  1  0  0  0  0  0  0  0  0  0
  151.3579  137.7434  156.5769 O   0  0  0  0  0  0  0  0  0  0  0  0
  151.5801  138.5866  157.6952 C   0  0  1  0  0  0  0  0  0  0  0  0
  151.3239  140.0558  157.3351 C   0  0  0  0  0  0  0  0  0  0  0  0
  152.0869  140.8838  158.2023 O   0  0  0  0  0  0  0  0  0  0  0  0
  151.7711  142.1837  158.3833 C   0  0  0  0  0  0  0  0  0  0  0  0
  151.2337  142.8872  157.5257 O   0  0  0  0  0  0  0  0  0  0  0  0
  152.1459  142.6849  159.7374 C   0  0  0  0  0  0  0  0  0  0  0  0
  151.8518  144.0236  160.0869 C   0  0  0  0  0  0  0  0  0  0  0  0
  152.1912  144.5247  161.3587 C   0  0  0  0  0  0  0  0  0  0  0  0
  152.8273  143.6923  162.2979 C   0  0  0  0  0  0  0  0  0  0  0  0
  153.1245  142.3584  161.9631 C   0  0  0  0  0  0  0  0  0  0  0  0
  152.7872  141.8560  160.6911 C   0  0  0  0  0  0  0  0  0  0  0  0
  150.6632  138.0067  158.7746 C   0  0  1  0  0  0  0  0  0  0  0  0
  149.3460  138.5183  158.6704 O   0  0  0  0  0  0  0  0  0  0  0  0
  148.2789  137.2618  158.9213 S   0  0  0  0  0  0  0  0  0  0  0  0
  147.9779  137.2018  160.3599 O   0  0  0  0  0  0  0  0  0  0  0  0
  147.2257  137.3243  157.8973 O   0  0  0  0  0  0  0  0  0  0  0  0
  149.3094  135.9989  158.5577 O   0  0  0  0  0  0  0  0  0  0  0  0
  150.6359  136.5007  158.4619 C   0  0  1  0  0  0  0  0  0  0  0  0
  146.0357  132.9875  152.2870 C   0  0  0  0  0  0  0  0  0  0  0  0
  146.5926  132.3598  151.1492 C   0  0  0  0  0  0  0  0  0  0  0  0
  145.8219  132.1714  149.9852 C   0  0  0  0  0  0  0  0  0  0  0  0
  144.4876  132.6169  149.9429 C   0  0  0  0  0  0  0  0  0  0  0  0
  143.9261  133.2559  151.0639 C   0  0  0  0  0  0  0  0  0  0  0  0
  144.6961  133.4448  152.2282 C   0  0  0  0  0  0  0  0  0  0  0  0
  151.4029  131.3393  156.0485 H   0  0  0  0  0  0  0  0  0  0  0  0
  149.0817  137.2732  155.3655 H   0  0  0  0  0  0  0  0  0  0  0  0
  152.1607  135.9107  156.9803 H   0  0  0  0  0  0  0  0  0  0  0  0
  152.6204  138.4580  158.0000 H   0  0  0  0  0  0  0  0  0  0  0  0
  151.6367  140.2488  156.3087 H   0  0  0  0  0  0  0  0  0  0  0  0
  150.2549  140.2665  157.3837 H   0  0  0  0  0  0  0  0  0  0  0  0
  151.3636  144.6819  159.3827 H   0  0  0  0  0  0  0  0  0  0  0  0
  151.9628  145.5492  161.6135 H   0  0  0  0  0  0  0  0  0  0  0  0
  153.0867  144.0762  163.2734 H   0  0  0  0  0  0  0  0  0  0  0  0
  153.6125  141.7182  162.6834 H   0  0  0  0  0  0  0  0  0  0  0  0
  153.0280  140.8269  160.4681 H   0  0  0  0  0  0  0  0  0  0  0  0
  151.0370  138.2120  159.7783 H   0  0  0  0  0  0  0  0  0  0  0  0
  151.2972  135.9439  159.1263 H   0  0  0  0  0  0  0  0  0  0  0  0
  147.6157  132.0129  151.1645 H   0  0  0  0  0  0  0  0  0  0  0  0
  146.2558  131.6849  149.1242 H   0  0  0  0  0  0  0  0  0  0  0  0
  143.8967  132.4725  149.0506 H   0  0  0  0  0  0  0  0  0  0  0  0
  142.9045  133.6046  151.0314 H   0  0  0  0  0  0  0  0  0  0  0  0
  144.2487  133.9469  153.0739 H   0  0  0  0  0  0  0  0  0  0  0  0
  1  2  2  0  0  0  0
  2  3  1  0  0  0  0
  2 33  1  0  0  0  0
  3  4  1  0  0  0  0
  4  9  1  0  0  0  0
  4  5  2  0  0  0  0
  5  6  1  0  0  0  0
  6  7  2  0  0  0  0
  6 39  1  0  0  0  0
  7  8  1  0  0  0  0
  8 12  1  0  0  0  0
  8  9  2  0  0  0  0
  9 10  1  0  0  0  0
 10 11  2  0  0  0  0
 11 12  1  0  0  0  0
 11 40  1  0  0  0  0
 12 13  1  0  0  0  0
 13 32  1  0  0  0  0
 13 14  1  0  0  0  0
 13 41  1  0  0  0  0
 14 15  1  0  0  0  0
 15 16  1  0  0  0  0
 15 26  1  0  0  0  0
 15 42  1  0  0  0  0
 16 17  1  0  0  0  0
 16 43  1  0  0  0  0
 16 44  1  0  0  0  0
 17 18  1  0  0  0  0
 18 19  2  0  0  0  0
 18 20  1  0  0  0  0
 20 25  1  0  0  0  0
 20 21  2  0  0  0  0
 21 22  1  0  0  0  0
 21 45  1  0  0  0  0
 22 23  2  0  0  0  0
 22 46  1  0  0  0  0
 23 24  1  0  0  0  0
 23 47  1  0  0  0  0
 24 25  2  0  0  0  0
 24 48  1  0  0  0  0
 25 49  1  0  0  0  0
 26 32  1  0  0  0  0
 26 27  1  0  0  0  0
 26 50  1  0  0  0  0
 27 28  1  0  0  0  0
 28 29  2  0  0  0  0
 28 30  2  0  0  0  0
 28 31  1  0  0  0  0
 31 32  1  0  0  0  0
 32 51  1  0  0  0  0
 33 38  1  0  0  0  0
 33 34  2  0  0  0  0
 34 35  1  0  0  0  0
 34 52  1  0  0  0  0
 35 36  2  0  0  0  0
 35 53  1  0  0  0  0
 36 37  1  0  0  0  0
 36 54  1  0  0  0  0
 37 38  2  0  0  0  0
 37 55  1  0  0  0  0
 38 56  1  0  0  0  0
M  CHG  1   3  -1
M  END
> <s_m_source_file>
AV-unprocessed.smi

> <i_m_source_file_index>
1

> <i_lp_mmshare_version>
43012

> <i_f3d_flags>
0

> <s_epik_input>
W2NIXTFbY0hdW2NIXVtjSF1bY0hdYzFDKD1PKVtOSF1jKG5bY0hdbjIpYyhjMjMpbltjSF1uM1tDQEBIXShbQ0BIXShbQ0BIXTQ1KU9TKE81KSg9Tyk9TylPW0NASF00W0NIMl1PQyg9TyljNltjSF1bY0hdW2NIXVtjSF1bY0hdNg==

> <s_epik_cmdline>
J2VwaWtfcHl0aG9uJywgJy1waCcsICc3LjAnLCAnLXRuJywgJzgnLCAnLW1hJywgJzIwMCcsICctbWV0YWxfYmluZGluZycsICctaW1hZScsICc8aW5maWxlLm1hZT4nLCAnLW9tYWUnLCAnPG91dGZpbGUubWFlPic=

> <r_lp_tautomer_probability>
1

> <r_epik_Ionization_Penalty>
4.39121

> <r_epik_Ionization_Penalty_Charging>
3.39398

> <r_epik_Ionization_Penalty_Neutral>
0.997232

> <r_epik_State_Penalty>
3.39839

> <r_epik_Charging_Adjusted_Penalty>
6.79237

> <i_epik_Tot_Q>
-1

> <i_epik_Tot_abs_Q>
1

> <r_epik_Metal_State_Penalty>
0.497663

> <b_epik_Metal_Only>
1

> <s_epik_Chemistry_Notes>
This compound has an ester and may undergo hydrolysis at high or low pH. This compound contains an acetal/aminal-like group ( X-CH(R)-Y where X, Y are N, S, or O) that may be acid/base labile, releasing an aldehyde.

> <s_lp_Force_Field>
OPLS_2005

> <r_lp_Energy>
46.5931

> <b_lp_Chiralities_Consistent>
1

> <s_lp_Variant>
AV-unprocessed.smi:1-22

> <Gold.Version>
5.8.1

> <Gold.Id.Protein>
6NUR|6NUR_protein|mol2

> <Gold.PLP.Fitness>
57.4083

> <Gold.PLP.PLP>
-56.8268

> <Gold.PLP.part.hbond>
-2.6279

> <Gold.PLP.part.metal>
0.0000

> <Gold.PLP.part.buried>
-7.6332

> <Gold.PLP.part.nonpolar>
-48.3860

> <Gold.PLP.part.repulsive>
2.2711

> <Gold.PLP.ligand.clash>
0.0055

> <Gold.PLP.ligand.torsion>
1.8716

> <Gold.PLP.Chemscore.Hbond>
1.3416

> <Gold.PLP.Chemscore.CHOScore>
0.0000

> <Gold.PLP.Chemscore.Metal>
0.0000

> <Gold.Chemscore.Hbonds>
donor molecule, donor type, donor heavy atom, donor atom, acceptor molecule, acceptor atom, score
      P1  H  6931  6943       L1    29  0.51
      P1  H  6934  6947       L1    29  0.71

> <Gold.PLP.Chemscore.Internal.Correction>
0.3055

> <Gold.Rescore>
     Score         DG    S(hbond)    S(metal)    S(lipo)     H(rot)  DE(clash)    DE(int)     intcor
     15.99     -19.34       1.05        0.00     134.70       2.11       1.55       1.79       ----

> <Gold.Chemscore.Fitness>
15.9914

> <Gold.Chemscore.DG>
-19.3363

> <Gold.Chemscore.ZeroCoef>
-5.4800

> <Gold.Chemscore.Hbond>
1.0502

> <Gold.Chemscore.Metal>
0.0000

> <Gold.Chemscore.Lipo>
134.6960

> <Gold.Chemscore.Internal_Hbond>
0.0000

> <Gold.Chemscore.DEClash>
1.5533

> <Gold.Chemscore.DEInternal>
1.7917

> <Gold.Chemscore.Rot>
2.1136

> <Gold.Chemscore.Internal.Correction>
   9.000000E+99

> <Gold.Chemscore.Hbonds>
donor molecule, donor type, donor heavy atom, donor atom, acceptor molecule, acceptor atom, score
      P1  H  6931  6943       L1    29  0.52
      P1  H  6934  6947       L1    29  0.44

> <Gold.Chemscore.Hbond.Weighted>
-3.5077

> <Gold.Chemscore.Metal.Weighted>
-0.0000

> <Gold.Chemscore.Lipo.Weighted>
-15.7594

> <Gold.Chemscore.Internal_Hbond.Weighted>
0.0000

> <Gold.Chemscore.DEClash.Weighted>
1.5533

> <Gold.Chemscore.DEInternal.Weighted>
1.7917

> <Gold.Chemscore.Rot.Weighted>
5.4107

> <Gold.Chemscore.Internal.Correction.Weighted>
   9.000000E+99

> <Gold.Protein.RotatedTorsions>
[ 6907 6896 6895 6894 ] final -115.20 input  -60.11 | X-H torsion
[ 7974 7965 7964 7962 ] final  -27.55 input  175.53 | X-H torsion
[ 8008 7997 7996 7995 ] final   61.53 input   59.86 | X-H torsion
[ 10167 10162 10161 10158 ] final -152.92 input  -65.29 | X-H torsion
[ 10718 10713 10712 10709 ] final  116.68 input   66.30 | X-H torsion
[ 10763 10752 10751 10750 ] final  -39.53 input  -60.55 | X-H torsion
[ 11005 11000 10999 10996 ] final   19.55 input  -57.11 | X-H torsion

> <Gold.Protein.ActiveResidues>
 VAL166  LYS551  ARG553  GLY616  TRP617  ASP618  TYR619  PRO620  LYS621  CYS622 
 ASP623  PHE694  ASN695  SER759  ASP760  ASP761  ALA762  ILE779  LEU786  VAL792 
 PHE793  MET794  SER795  GLU796  ALA797  LYS798  CYS799  TRP800  GLU811  SER814 

> <Gold.Protein.RotatedAtoms>
  150.7959  133.8692  159.3253 H   0  0  0  0  0  0  0  0  0  0  0  0  # atno 6907 bound_to 6896
  151.6518  135.0999  160.0171 H   0  0  0  0  0  0  0  0  0  0  0  0  # atno 6908 bound_to 6896
  152.4041  133.6823  159.6376 H   0  0  0  0  0  0  0  0  0  0  0  0  # atno 6909 bound_to 6896
  146.1350  140.5166  142.8677 H   0  0  0  0  0  0  0  0  0  0  0  0  # atno 7974 bound_to 7965
  155.5998  140.3494  155.4590 H   0  0  0  0  0  0  0  0  0  0  0  0  # atno 8008 bound_to 7997
  156.0237  140.1259  157.0355 H   0  0  0  0  0  0  0  0  0  0  0  0  # atno 8009 bound_to 7997
  154.4325  140.1057  156.5986 H   0  0  0  0  0  0  0  0  0  0  0  0  # atno 8010 bound_to 7997
  139.7141  143.9062  152.2479 H   0  0  0  0  0  0  0  0  0  0  0  0  # atno 10167 bound_to 10162
  157.6145  131.1028  150.7508 H   0  0  0  0  0  0  0  0  0  0  0  0  # atno 10718 bound_to 10713
  153.9310  135.6772  153.4745 H   0  0  0  0  0  0  0  0  0  0  0  0  # atno 10763 bound_to 10752
  153.0980  135.4842  154.8811 H   0  0  0  0  0  0  0  0  0  0  0  0  # atno 10764 bound_to 10752
  154.7428  135.3165  154.8655 H   0  0  0  0  0  0  0  0  0  0  0  0  # atno 10765 bound_to 10752
  140.4125  134.1604  155.7668 H   0  0  0  0  0  0  0  0  0  0  0  0  # atno 11005 bound_to 11000
  144.7730  140.5679  143.6657 LP  0  0  0  0  0  0  0  0  0  0  0  0  # atno 17320 bound_to 7965
  145.5176  139.1477  143.3570 LP  0  0  0  0  0  0  0  0  0  0  0  0  # atno 17321 bound_to 7965
  139.8939  144.6950  150.8740 LP  0  0  0  0  0  0  0  0  0  0  0  0  # atno 17342 bound_to 10162
  140.7740  143.3565  151.1911 LP  0  0  0  0  0  0  0  0  0  0  0  0  # atno 17343 bound_to 10162
  156.7878  130.4880  149.5390 LP  0  0  0  0  0  0  0  0  0  0  0  0  # atno 17370 bound_to 10713
  156.1261  130.6144  151.0265 LP  0  0  0  0  0  0  0  0  0  0  0  0  # atno 17371 bound_to 10713
  141.1816  133.8402  157.1238 LP  0  0  0  0  0  0  0  0  0  0  0  0  # atno 17394 bound_to 11000
  140.0258  134.9925  157.0682 LP  0  0  0  0  0  0  0  0  0  0  0  0  # atno 17395 bound_to 11000

$$$$
