AV-unprocessed.smi:1581|AV-procd|sdf|6360|dock2
  -GOLD-   22720 6583D 1   1.00000     0.00000
 Structure written by MMmdl.
 34 35  0  0  0  0  0  0  0  0  1 V2000
  146.0196  142.2683  156.8226 C   0  0  0  0  0  0  0  0  0  0  0  0
  147.0786  141.3629  156.2036 C   0  0  0  0  0  0  0  0  0  0  0  0
  147.0688  140.1538  156.4315 O   0  0  0  0  0  0  0  0  0  0  0  0
  147.9915  141.9643  155.4260 N   0  0  0  0  0  0  0  0  0  0  0  0
  149.0910  141.2844  154.7475 C   0  0  0  0  0  0  0  0  0  0  0  0
  150.2368  140.8477  155.6527 C   0  0  0  0  0  0  0  0  0  0  0  0
  150.8429  139.5931  155.4462 C   0  0  0  0  0  0  0  0  0  0  0  0
  151.9090  139.2150  156.2829 C   0  0  0  0  0  0  0  0  0  0  0  0
  152.3818  139.9945  157.2772 N   0  0  0  0  0  0  0  0  0  0  0  0
  151.8065  141.2038  157.4898 C   0  0  0  0  0  0  0  0  0  0  0  0
  152.3015  142.0071  158.5391 N   0  0  0  0  0  0  0  0  0  0  0  0
  151.7102  143.3394  158.6351 C   0  0  0  0  0  0  0  0  0  0  0  0
  152.5166  144.2157  159.6096 C   0  0  0  0  0  0  0  0  0  0  0  0
  152.6268  143.5634  160.8705 O   0  0  0  0  0  0  0  0  0  0  0  0
  153.3070  142.3171  160.7650 C   0  0  0  0  0  0  0  0  0  0  0  0
  152.5188  141.3757  159.8391 C   0  0  0  0  0  0  0  0  0  0  0  0
  150.7364  141.6686  156.6892 C   0  0  0  0  0  0  0  0  0  0  0  0
  146.4796  142.9677  157.5211 H   0  0  0  0  0  0  0  0  0  0  0  0
  145.2768  141.6822  157.3649 H   0  0  0  0  0  0  0  0  0  0  0  0
  145.5051  142.8389  156.0491 H   0  0  0  0  0  0  0  0  0  0  0  0
  147.9243  142.9634  155.2974 H   0  0  0  0  0  0  0  0  0  0  0  0
  148.7058  140.4182  154.2067 H   0  0  0  0  0  0  0  0  0  0  0  0
  149.4927  141.9623  153.9944 H   0  0  0  0  0  0  0  0  0  0  0  0
  150.5015  138.9327  154.6628 H   0  0  0  0  0  0  0  0  0  0  0  0
  152.3960  138.2603  156.1500 H   0  0  0  0  0  0  0  0  0  0  0  0
  151.6685  143.8325  157.6649 H   0  0  0  0  0  0  0  0  0  0  0  0
  150.6818  143.2424  158.9854 H   0  0  0  0  0  0  0  0  0  0  0  0
  153.5096  144.4273  159.2101 H   0  0  0  0  0  0  0  0  0  0  0  0
  152.0192  145.1755  159.7497 H   0  0  0  0  0  0  0  0  0  0  0  0
  154.3201  142.4736  160.3904 H   0  0  0  0  0  0  0  0  0  0  0  0
  153.3992  141.8769  161.7578 H   0  0  0  0  0  0  0  0  0  0  0  0
  151.5556  141.1310  160.2893 H   0  0  0  0  0  0  0  0  0  0  0  0
  153.0694  140.4421  159.7169 H   0  0  0  0  0  0  0  0  0  0  0  0
  150.3137  142.6469  156.8612 H   0  0  0  0  0  0  0  0  0  0  0  0
  1  2  1  0  0  0  0
  1 18  1  0  0  0  0
  1 19  1  0  0  0  0
  1 20  1  0  0  0  0
  2  3  2  0  0  0  0
  2  4  1  0  0  0  0
  4  5  1  0  0  0  0
  4 21  1  0  0  0  0
  5  6  1  0  0  0  0
  5 22  1  0  0  0  0
  5 23  1  0  0  0  0
  6 17  1  0  0  0  0
  6  7  2  0  0  0  0
  7  8  1  0  0  0  0
  7 24  1  0  0  0  0
  8  9  2  0  0  0  0
  8 25  1  0  0  0  0
  9 10  1  0  0  0  0
 10 11  1  0  0  0  0
 10 17  2  0  0  0  0
 11 16  1  0  0  0  0
 11 12  1  0  0  0  0
 12 13  1  0  0  0  0
 12 26  1  0  0  0  0
 12 27  1  0  0  0  0
 13 14  1  0  0  0  0
 13 28  1  0  0  0  0
 13 29  1  0  0  0  0
 14 15  1  0  0  0  0
 15 16  1  0  0  0  0
 15 30  1  0  0  0  0
 15 31  1  0  0  0  0
 16 32  1  0  0  0  0
 16 33  1  0  0  0  0
 17 34  1  0  0  0  0
M  END
> <s_m_source_file>
AV-unprocessed.smi

> <i_m_source_file_index>
1581

> <i_lp_mmshare_version>
43012

> <i_f3d_flags>
0

> <s_epik_input>
W0NIM11DKD1PKVtOSF1bQ0gyXWMxW2NIXVtjSF1uYyhbY0hdMSlOMltDSDJdW0NIMl1PW0NIMl1bQ0gyXTI=

> <s_epik_cmdline>
J2VwaWtfcHl0aG9uJywgJy1waCcsICc3LjAnLCAnLXRuJywgJzgnLCAnLW1hJywgJzIwMCcsICctbWV0YWxfYmluZGluZycsICctaW1hZScsICc8aW5maWxlLm1hZT4nLCAnLW9tYWUnLCAnPG91dGZpbGUubWFlPic=

> <r_lp_tautomer_probability>
1

> <r_epik_Ionization_Penalty>
0.0056686

> <r_epik_Ionization_Penalty_Charging>
0

> <r_epik_Ionization_Penalty_Neutral>
0.0056686

> <r_epik_State_Penalty>
0.00415614

> <r_epik_Charging_Adjusted_Penalty>
0.00415614

> <i_epik_Tot_Q>
0

> <i_epik_Tot_abs_Q>
0

> <r_epik_Metal_State_Penalty>
-0

> <b_epik_Metal_Only>
0

> <s_lp_Force_Field>
OPLS_2005

> <r_lp_Energy>
12.8791

> <b_lp_Chiralities_Consistent>
1

> <s_lp_Variant>
AV-unprocessed.smi:1581-1

> <Gold.Version>
5.8.1

> <Gold.Id.Protein>
6NUR|6NUR_protein|mol2

> <Gold.PLP.Fitness>
38.4291

> <Gold.PLP.PLP>
-33.6064

> <Gold.PLP.part.hbond>
-2.0000

> <Gold.PLP.part.metal>
0.0000

> <Gold.PLP.part.buried>
-3.9094

> <Gold.PLP.part.nonpolar>
-27.5163

> <Gold.PLP.part.repulsive>
0.1890

> <Gold.PLP.ligand.clash>
0.2376

> <Gold.PLP.ligand.torsion>
0.5201

> <Gold.PLP.Chemscore.Hbond>
1.9280

> <Gold.PLP.Chemscore.CHOScore>
0.0000

> <Gold.PLP.Chemscore.Metal>
0.0000

> <Gold.Chemscore.Hbonds>
donor molecule, donor type, donor heavy atom, donor atom, acceptor molecule, acceptor atom, score
      L1  H     4    21       P1  8028  0.90
      P1  H  7997  8010       L1     9  0.78

> <Gold.PLP.Chemscore.Internal.Correction>
0.3165

> <Gold.Rescore>
     Score         DG    S(hbond)    S(metal)    S(lipo)     H(rot)  DE(clash)    DE(int)     intcor
     14.76     -15.33       1.23        0.00      82.87       1.54       0.04       0.54       ----

> <Gold.Chemscore.Fitness>
14.7552

> <Gold.Chemscore.DG>
-15.3263

> <Gold.Chemscore.ZeroCoef>
-5.4800

> <Gold.Chemscore.Hbond>
1.2289

> <Gold.Chemscore.Metal>
0.0000

> <Gold.Chemscore.Lipo>
82.8741

> <Gold.Chemscore.Internal_Hbond>
0.0000

> <Gold.Chemscore.DEClash>
0.0358

> <Gold.Chemscore.DEInternal>
0.5353

> <Gold.Chemscore.Rot>
1.5448

> <Gold.Chemscore.Internal.Correction>
   9.000000E+99

> <Gold.Chemscore.Hbonds>
donor molecule, donor type, donor heavy atom, donor atom, acceptor molecule, acceptor atom, score
      L1  H     4    21       P1  8028  0.69
      P1  H  7997  8010       L1     9  0.23

> <Gold.Chemscore.Hbond.Weighted>
-4.1046

> <Gold.Chemscore.Metal.Weighted>
-0.0000

> <Gold.Chemscore.Lipo.Weighted>
-9.6963

> <Gold.Chemscore.Internal_Hbond.Weighted>
0.0000

> <Gold.Chemscore.DEClash.Weighted>
0.0358

> <Gold.Chemscore.DEInternal.Weighted>
0.5353

> <Gold.Chemscore.Rot.Weighted>
3.9546

> <Gold.Chemscore.Internal.Correction.Weighted>
   9.000000E+99

> <Gold.Protein.RotatedTorsions>
[ 6907 6896 6895 6894 ] final  127.49 input  -60.11 | X-H torsion
[ 7974 7965 7964 7962 ] final  -49.12 input  175.53 | X-H torsion
[ 8008 7997 7996 7995 ] final   47.96 input   59.86 | X-H torsion
[ 10167 10162 10161 10158 ] final   72.41 input  -65.29 | X-H torsion
[ 10718 10713 10712 10709 ] final -151.06 input   66.30 | X-H torsion
[ 10763 10752 10751 10750 ] final   40.20 input  -60.55 | X-H torsion
[ 11005 11000 10999 10996 ] final  -11.87 input  -57.11 | X-H torsion

> <Gold.Protein.ActiveResidues>
 VAL166  LYS551  ARG553  GLY616  TRP617  ASP618  TYR619  PRO620  LYS621  CYS622 
 ASP623  PHE694  ASN695  SER759  ASP760  ASP761  ALA762  ILE779  LEU786  VAL792 
 PHE793  MET794  SER795  GLU796  ALA797  LYS798  CYS799  TRP800  GLU811  SER814 

> <Gold.Protein.RotatedAtoms>
  152.3807  133.6543  159.6158 H   0  0  0  0  0  0  0  0  0  0  0  0  # atno 6907 bound_to 6896
  150.7739  133.9118  159.3380 H   0  0  0  0  0  0  0  0  0  0  0  0  # atno 6908 bound_to 6896
  151.6924  135.0945  160.0287 H   0  0  0  0  0  0  0  0  0  0  0  0  # atno 6909 bound_to 6896
  145.9439  140.7636  142.9538 H   0  0  0  0  0  0  0  0  0  0  0  0  # atno 7974 bound_to 7965
  155.3777  140.3427  155.4245 H   0  0  0  0  0  0  0  0  0  0  0  0  # atno 8008 bound_to 7997
  156.1628  140.1606  156.8617 H   0  0  0  0  0  0  0  0  0  0  0  0  # atno 8009 bound_to 7997
  154.5156  140.0779  156.8056 H   0  0  0  0  0  0  0  0  0  0  0  0  # atno 8010 bound_to 7997
  140.0356  144.5430  150.7473 H   0  0  0  0  0  0  0  0  0  0  0  0  # atno 10167 bound_to 10162
  156.4543  130.8182  151.2413 H   0  0  0  0  0  0  0  0  0  0  0  0  # atno 10718 bound_to 10713
  152.9943  135.6198  154.2588 H   0  0  0  0  0  0  0  0  0  0  0  0  # atno 10763 bound_to 10752
  154.2325  135.2791  155.2886 H   0  0  0  0  0  0  0  0  0  0  0  0  # atno 10764 bound_to 10752
  154.5438  135.5753  153.6920 H   0  0  0  0  0  0  0  0  0  0  0  0  # atno 10765 bound_to 10752
  140.7598  133.8524  155.9115 H   0  0  0  0  0  0  0  0  0  0  0  0  # atno 11005 bound_to 11000
  144.6784  140.2325  143.7353 LP  0  0  0  0  0  0  0  0  0  0  0  0  # atno 17320 bound_to 7965
  145.8262  139.2065  143.1909 LP  0  0  0  0  0  0  0  0  0  0  0  0  # atno 17321 bound_to 7965
  140.7283  143.2660  151.4043 LP  0  0  0  0  0  0  0  0  0  0  0  0  # atno 17342 bound_to 10162
  139.6047  144.1222  152.2236 LP  0  0  0  0  0  0  0  0  0  0  0  0  # atno 17343 bound_to 10162
  157.7501  131.0128  150.3398 LP  0  0  0  0  0  0  0  0  0  0  0  0  # atno 17370 bound_to 10713
  156.3783  130.3876  149.7121 LP  0  0  0  0  0  0  0  0  0  0  0  0  # atno 17371 bound_to 10713
  140.9674  134.1577  157.4605 LP  0  0  0  0  0  0  0  0  0  0  0  0  # atno 17394 bound_to 11000
  139.8773  134.9966  156.5805 LP  0  0  0  0  0  0  0  0  0  0  0  0  # atno 17395 bound_to 11000

$$$$
