AV-unprocessed.smi:3189|AV-procd|sdf|12194|dock1
  -GOLD-   2272018 33D 1   1.00000     0.00000
 Structure written by MMmdl.
 31 32  0  0  0  0  0  0  0  0  2 V2000
  146.8153  139.4080  152.8256 C   0  0  0  0  0  0  0  0  0  0  0  0
  148.1328  139.5598  153.5613 C   0  0  0  0  0  0  0  0  0  0  0  0
  148.9956  138.5201  153.5271 N   0  3  0  0  0  0  0  0  0  0  0  0
  150.1922  138.5365  154.1502 C   0  0  0  0  0  0  0  0  0  0  0  0
  150.5926  139.6774  154.8724 C   0  0  0  0  0  0  0  0  0  0  0  0
  149.7334  140.8040  154.9266 C   0  0  0  0  0  0  0  0  0  0  0  0
  150.0500  141.9900  155.6447 N   0  0  0  0  0  0  0  0  0  0  0  0
  150.9514  142.1676  156.6303 C   0  0  0  0  0  0  0  0  0  0  0  0
  151.6696  141.2814  157.0880 O   0  0  0  0  0  0  0  0  0  0  0  0
  151.0596  143.4400  157.0513 N   0  0  0  0  0  0  0  0  0  0  0  0
  151.9214  143.9476  158.0753 C   0  0  1  0  0  0  0  0  0  0  0  0
  151.2653  144.7493  159.1775 C   0  0  0  0  0  0  0  0  0  0  0  0
  151.8020  143.3723  159.4706 C   0  0  2  0  0  0  0  0  0  0  0  0
  153.0260  143.2045  160.3446 C   0  0  0  0  0  0  0  0  0  0  0  0
  148.4793  140.7337  154.2710 C   0  0  0  0  0  0  0  0  0  0  0  0
  147.3803  142.0713  154.3293 Cl  0  0  0  0  0  0  0  0  0  0  0  0
  146.7248  140.1678  152.0487 H   0  0  0  0  0  0  0  0  0  0  0  0
  145.9801  139.5202  153.5177 H   0  0  0  0  0  0  0  0  0  0  0  0
  146.7330  138.4286  152.3527 H   0  0  0  0  0  0  0  0  0  0  0  0
  150.7877  137.6398  154.0581 H   0  0  0  0  0  0  0  0  0  0  0  0
  151.5450  139.6615  155.3802 H   0  0  0  0  0  0  0  0  0  0  0  0
  149.6015  142.8298  155.3079 H   0  0  0  0  0  0  0  0  0  0  0  0
  150.5311  144.1321  156.5396 H   0  0  0  0  0  0  0  0  0  0  0  0
  152.9017  144.3114  157.7694 H   0  0  0  0  0  0  0  0  0  0  0  0
  151.8145  145.6027  159.5703 H   0  0  0  0  0  0  0  0  0  0  0  0
  150.1837  144.8682  159.1496 H   0  0  0  0  0  0  0  0  0  0  0  0
  151.0586  142.5885  159.6055 H   0  0  0  0  0  0  0  0  0  0  0  0
  153.7314  144.0209  160.1858 H   0  0  0  0  0  0  0  0  0  0  0  0
  153.5256  142.2640  160.1110 H   0  0  0  0  0  0  0  0  0  0  0  0
  152.7374  143.1944  161.3958 H   0  0  0  0  0  0  0  0  0  0  0  0
  148.7274  137.6818  153.0107 H   0  0  0  0  0  0  0  0  0  0  0  0
  1  2  1  0  0  0  0
  1 17  1  0  0  0  0
  1 18  1  0  0  0  0
  1 19  1  0  0  0  0
  2 15  1  0  0  0  0
  2  3  2  0  0  0  0
  3  4  1  0  0  0  0
  3 31  1  0  0  0  0
  4  5  2  0  0  0  0
  4 20  1  0  0  0  0
  5  6  1  0  0  0  0
  5 21  1  0  0  0  0
  6  7  1  0  0  0  0
  6 15  2  0  0  0  0
  7  8  1  0  0  0  0
  7 22  1  0  0  0  0
  8  9  2  0  0  0  0
  8 10  1  0  0  0  0
 10 11  1  0  0  0  0
 10 23  1  0  0  0  0
 11 13  1  0  0  0  0
 11 12  1  0  0  0  0
 11 24  1  0  0  0  0
 12 13  1  0  0  0  0
 12 25  1  0  0  0  0
 12 26  1  0  0  0  0
 13 14  1  0  0  0  0
 13 27  1  0  0  0  0
 14 28  1  0  0  0  0
 14 29  1  0  0  0  0
 14 30  1  0  0  0  0
 15 16  1  0  0  0  0
M  CHG  1   3   1
M  END
> <s_m_source_file>
AV-unprocessed.smi

> <i_m_source_file_index>
3189

> <i_lp_mmshare_version>
43012

> <i_f3d_flags>
0

> <s_epik_input>
W0NIM11jMW5bY0hdW2NIXWMoYzFDbClbTkhdQyg9TylbTkhdW0NAQEhdMltDSDJdW0NASF0yW0NIM10=

> <s_epik_cmdline>
J2VwaWtfcHl0aG9uJywgJy1waCcsICc3LjAnLCAnLXRuJywgJzgnLCAnLW1hJywgJzIwMCcsICctbWV0YWxfYmluZGluZycsICctaW1hZScsICc8aW5maWxlLm1hZT4nLCAnLW9tYWUnLCAnPG91dGZpbGUubWFlPic=

> <r_epik_Ionization_Penalty>
2.42914

> <r_epik_Ionization_Penalty_Charging>
2.42912

> <r_epik_Ionization_Penalty_Neutral>
2.15137e-05

> <r_epik_State_Penalty>
2.58904

> <r_epik_Charging_Adjusted_Penalty>
5.01816

> <i_epik_Tot_Q>
1

> <i_epik_Tot_abs_Q>
1

> <r_epik_Metal_State_Penalty>
2.59882

> <b_epik_Metal_Only>
0

> <s_lp_Force_Field>
OPLS_2005

> <r_lp_Energy>
37.5643

> <b_lp_Chiralities_Consistent>
1

> <s_lp_Variant>
AV-unprocessed.smi:3189-8

> <Gold.Version>
5.8.1

> <Gold.Id.Protein>
6NUR|6NUR_protein|mol2

> <Gold.PLP.Fitness>
51.4399

> <Gold.PLP.PLP>
-39.6227

> <Gold.PLP.part.hbond>
-4.0000

> <Gold.PLP.part.metal>
0.0000

> <Gold.PLP.part.buried>
-0.5876

> <Gold.PLP.part.nonpolar>
-35.5903

> <Gold.PLP.part.repulsive>
0.2435

> <Gold.PLP.ligand.clash>
0.0000

> <Gold.PLP.ligand.torsion>
0.1091

> <Gold.PLP.Chemscore.Hbond>
4.0000

> <Gold.PLP.Chemscore.CHOScore>
0.0000

> <Gold.PLP.Chemscore.Metal>
0.0000

> <Gold.Chemscore.Hbonds>
donor molecule, donor type, donor heavy atom, donor atom, acceptor molecule, acceptor atom, score
      L1  H     3    31       P1  7948  2.00
      L1  H     7    22       P1  8028  0.96
      L1  H    10    23       P1  8028  1.00

> <Gold.PLP.Chemscore.Internal.Correction>
0.0354

> <Gold.Rescore>
     Score         DG    S(hbond)    S(metal)    S(lipo)     H(rot)  DE(clash)    DE(int)     intcor
     22.36     -23.80       2.85        0.00      97.09       1.00       0.14       1.30       ----

> <Gold.Chemscore.Fitness>
22.3586

> <Gold.Chemscore.DG>
-23.7979

> <Gold.Chemscore.ZeroCoef>
-5.4800

> <Gold.Chemscore.Hbond>
2.8500

> <Gold.Chemscore.Metal>
0.0000

> <Gold.Chemscore.Lipo>
97.0856

> <Gold.Chemscore.Internal_Hbond>
0.0000

> <Gold.Chemscore.DEClash>
0.1405

> <Gold.Chemscore.DEInternal>
1.2988

> <Gold.Chemscore.Rot>
1.0000

> <Gold.Chemscore.Internal.Correction>
   9.000000E+99

> <Gold.Chemscore.Hbonds>
donor molecule, donor type, donor heavy atom, donor atom, acceptor molecule, acceptor atom, score
      L1  H     3    31       P1  7948  0.98
      L1  H     7    22       P1  8028  0.86
      L1  H    10    23       P1  8028  0.96

> <Gold.Chemscore.Hbond.Weighted>
-9.5189

> <Gold.Chemscore.Metal.Weighted>
-0.0000

> <Gold.Chemscore.Lipo.Weighted>
-11.3590

> <Gold.Chemscore.Internal_Hbond.Weighted>
0.0000

> <Gold.Chemscore.DEClash.Weighted>
0.1405

> <Gold.Chemscore.DEInternal.Weighted>
1.2988

> <Gold.Chemscore.Rot.Weighted>
2.5600

> <Gold.Chemscore.Internal.Correction.Weighted>
   9.000000E+99

> <Gold.Protein.RotatedTorsions>
[ 6907 6896 6895 6894 ] final    3.98 input  -60.11 | X-H torsion
[ 7974 7965 7964 7962 ] final -129.63 input  175.53 | X-H torsion
[ 8008 7997 7996 7995 ] final  -47.13 input   59.86 | X-H torsion
[ 10167 10162 10161 10158 ] final  -55.09 input  -65.29 | X-H torsion
[ 10718 10713 10712 10709 ] final  121.86 input   66.30 | X-H torsion
[ 10763 10752 10751 10750 ] final  -56.60 input  -60.55 | X-H torsion
[ 11005 11000 10999 10996 ] final -142.90 input  -57.11 | X-H torsion

> <Gold.Protein.ActiveResidues>
 VAL166  LYS551  ARG553  GLY616  TRP617  ASP618  TYR619  PRO620  LYS621  CYS622 
 ASP623  PHE694  ASN695  SER759  ASP760  ASP761  ALA762  ILE779  LEU786  VAL792 
 PHE793  MET794  SER795  GLU796  ALA797  LYS798  CYS799  TRP800  GLU811  SER814 

> <Gold.Protein.RotatedAtoms>
  151.6339  135.1020  160.0127 H   0  0  0  0  0  0  0  0  0  0  0  0  # atno 6907 bound_to 6896
  152.4091  133.6932  159.6391 H   0  0  0  0  0  0  0  0  0  0  0  0  # atno 6908 bound_to 6896
  150.7983  133.8572  159.3263 H   0  0  0  0  0  0  0  0  0  0  0  0  # atno 6909 bound_to 6896
  144.9553  140.7389  143.4762 H   0  0  0  0  0  0  0  0  0  0  0  0  # atno 7974 bound_to 7965
  154.4013  140.1354  156.4124 H   0  0  0  0  0  0  0  0  0  0  0  0  # atno 8008 bound_to 7997
  155.7720  140.3483  155.5232 H   0  0  0  0  0  0  0  0  0  0  0  0  # atno 8009 bound_to 7997
  155.8757  140.0979  157.1510 H   0  0  0  0  0  0  0  0  0  0  0  0  # atno 8010 bound_to 7997
  140.6394  143.2499  151.5030 H   0  0  0  0  0  0  0  0  0  0  0  0  # atno 10167 bound_to 10162
  157.5786  131.1077  150.8231 H   0  0  0  0  0  0  0  0  0  0  0  0  # atno 10718 bound_to 10713
  154.2092  135.6397  153.5110 H   0  0  0  0  0  0  0  0  0  0  0  0  # atno 10763 bound_to 10752
  152.9994  135.5470  154.6233 H   0  0  0  0  0  0  0  0  0  0  0  0  # atno 10764 bound_to 10752
  154.5665  135.2913  155.0842 H   0  0  0  0  0  0  0  0  0  0  0  0  # atno 10765 bound_to 10752
  140.8179  134.2666  157.4913 H   0  0  0  0  0  0  0  0  0  0  0  0  # atno 11005 bound_to 11000
  145.2782  139.1928  143.4805 LP  0  0  0  0  0  0  0  0  0  0  0  0  # atno 17320 bound_to 7965
  146.3335  140.2739  142.8607 LP  0  0  0  0  0  0  0  0  0  0  0  0  # atno 17321 bound_to 7965
  139.5603  144.2172  152.1681 LP  0  0  0  0  0  0  0  0  0  0  0  0  # atno 17342 bound_to 10162
  140.1438  144.5178  150.6728 LP  0  0  0  0  0  0  0  0  0  0  0  0  # atno 17343 bound_to 10162
  156.8683  130.5137  149.5298 LP  0  0  0  0  0  0  0  0  0  0  0  0  # atno 17370 bound_to 10713
  156.0831  130.5836  150.9599 LP  0  0  0  0  0  0  0  0  0  0  0  0  # atno 17371 bound_to 10713
  139.8710  134.9519  156.4099 LP  0  0  0  0  0  0  0  0  0  0  0  0  # atno 17394 bound_to 11000
  140.9130  133.7698  155.9814 LP  0  0  0  0  0  0  0  0  0  0  0  0  # atno 17395 bound_to 11000

$$$$
