AV-unprocessed.smi:2961|AV-procd|sdf|11313|dock3
  -GOLD-   2272016213D 1   1.00000     0.00000
 Structure written by MMmdl.
 48 50  0  0  0  0  0  0  0  0  1 V2000
  147.8144  141.8510  154.0613 C   0  0  0  0  0  0  0  0  0  0  0  0
  148.2010  141.6346  155.5204 C   0  0  0  0  0  0  0  0  0  0  0  0
  147.4696  140.9799  156.2630 O   0  0  0  0  0  0  0  0  0  0  0  0
  149.3561  142.1894  155.9176 N   0  0  0  0  0  0  0  0  0  0  0  0
  149.9077  142.0911  157.2639 C   0  0  0  0  0  0  0  0  0  0  0  0
  151.3069  142.7226  157.3524 C   0  0  0  0  0  0  0  0  0  0  0  0
  151.8239  142.7721  158.7576 C   0  0  0  0  0  0  0  0  0  0  0  0
  151.5964  143.8152  159.5565 N   0  0  0  0  0  0  0  0  0  0  0  0
  152.2538  143.4570  160.7174 C   0  0  0  0  0  0  0  0  0  0  0  0
  152.3842  144.1412  161.9471 C   0  0  0  0  0  0  0  0  0  0  0  0
  153.1168  143.5692  163.0079 C   0  0  0  0  0  0  0  0  0  0  0  0
  153.7275  142.3075  162.8550 C   0  0  0  0  0  0  0  0  0  0  0  0
  153.6104  141.6090  161.6378 C   0  0  0  0  0  0  0  0  0  0  0  0
  152.8793  142.1849  160.5818 C   0  0  0  0  0  0  0  0  0  0  0  0
  152.5818  141.7781  159.2852 N   0  0  0  0  0  0  0  0  0  0  0  0
  153.0093  140.5389  158.6540 C   0  0  0  0  0  0  0  0  0  0  0  0
  152.4032  139.3103  159.3425 C   0  0  0  0  0  0  0  0  0  0  0  0
  153.2860  138.2135  159.1550 O   0  0  0  0  0  0  0  0  0  0  0  0
  153.7203  137.5257  160.2678 C   0  0  0  0  0  0  0  0  0  0  0  0
  153.7675  138.2412  161.4818 C   0  0  0  0  0  0  0  0  0  0  0  0
  154.2006  137.6197  162.6683 C   0  0  0  0  0  0  0  0  0  0  0  0
  154.5921  136.2686  162.6525 C   0  0  0  0  0  0  0  0  0  0  0  0
  154.5512  135.5384  161.4480 C   0  0  0  0  0  0  0  0  0  0  0  0
  154.9692  134.0823  161.4266 C   0  0  0  0  0  0  0  0  0  0  0  0
  154.1149  136.1636  160.2612 C   0  0  0  0  0  0  0  0  0  0  0  0
  147.8748  142.9081  153.8003 H   0  0  0  0  0  0  0  0  0  0  0  0
  146.7943  141.5125  153.8767 H   0  0  0  0  0  0  0  0  0  0  0  0
  148.4836  141.2934  153.4056 H   0  0  0  0  0  0  0  0  0  0  0  0
  149.8926  142.7114  155.2397 H   0  0  0  0  0  0  0  0  0  0  0  0
  149.2271  142.5616  157.9751 H   0  0  0  0  0  0  0  0  0  0  0  0
  149.9585  141.0368  157.5370 H   0  0  0  0  0  0  0  0  0  0  0  0
  152.0068  142.1458  156.7465 H   0  0  0  0  0  0  0  0  0  0  0  0
  151.3078  143.7268  156.9294 H   0  0  0  0  0  0  0  0  0  0  0  0
  151.9199  145.1081  162.0743 H   0  0  0  0  0  0  0  0  0  0  0  0
  153.2104  144.1014  163.9432 H   0  0  0  0  0  0  0  0  0  0  0  0
  154.2866  141.8761  163.6723 H   0  0  0  0  0  0  0  0  0  0  0  0
  154.0772  140.6427  161.5181 H   0  0  0  0  0  0  0  0  0  0  0  0
  152.7387  140.5581  157.5984 H   0  0  0  0  0  0  0  0  0  0  0  0
  154.0980  140.4877  158.6884 H   0  0  0  0  0  0  0  0  0  0  0  0
  152.2683  139.5097  160.4069 H   0  0  0  0  0  0  0  0  0  0  0  0
  151.4269  139.0864  158.9105 H   0  0  0  0  0  0  0  0  0  0  0  0
  153.4697  139.2794  161.5031 H   0  0  0  0  0  0  0  0  0  0  0  0
  154.2328  138.1802  163.5908 H   0  0  0  0  0  0  0  0  0  0  0  0
  154.9230  135.7967  163.5662 H   0  0  0  0  0  0  0  0  0  0  0  0
  155.5090  133.8501  160.5080 H   0  0  0  0  0  0  0  0  0  0  0  0
  154.0914  133.4381  161.4823 H   0  0  0  0  0  0  0  0  0  0  0  0
  155.6214  133.8483  162.2686 H   0  0  0  0  0  0  0  0  0  0  0  0
  154.0895  135.5771  159.3550 H   0  0  0  0  0  0  0  0  0  0  0  0
  1  2  1  0  0  0  0
  1 26  1  0  0  0  0
  1 27  1  0  0  0  0
  1 28  1  0  0  0  0
  2  3  2  0  0  0  0
  2  4  1  0  0  0  0
  4  5  1  0  0  0  0
  4 29  1  0  0  0  0
  5  6  1  0  0  0  0
  5 30  1  0  0  0  0
  5 31  1  0  0  0  0
  6  7  1  0  0  0  0
  6 32  1  0  0  0  0
  6 33  1  0  0  0  0
  7 15  1  0  0  0  0
  7  8  2  0  0  0  0
  8  9  1  0  0  0  0
  9 14  2  0  0  0  0
  9 10  1  0  0  0  0
 10 11  2  0  0  0  0
 10 34  1  0  0  0  0
 11 12  1  0  0  0  0
 11 35  1  0  0  0  0
 12 13  2  0  0  0  0
 12 36  1  0  0  0  0
 13 14  1  0  0  0  0
 13 37  1  0  0  0  0
 14 15  1  0  0  0  0
 15 16  1  0  0  0  0
 16 17  1  0  0  0  0
 16 38  1  0  0  0  0
 16 39  1  0  0  0  0
 17 18  1  0  0  0  0
 17 40  1  0  0  0  0
 17 41  1  0  0  0  0
 18 19  1  0  0  0  0
 19 25  1  0  0  0  0
 19 20  2  0  0  0  0
 20 21  1  0  0  0  0
 20 42  1  0  0  0  0
 21 22  2  0  0  0  0
 21 43  1  0  0  0  0
 22 23  1  0  0  0  0
 22 44  1  0  0  0  0
 23 24  1  0  0  0  0
 23 25  2  0  0  0  0
 24 45  1  0  0  0  0
 24 46  1  0  0  0  0
 24 47  1  0  0  0  0
 25 48  1  0  0  0  0
M  END
> <s_m_source_file>
AV-unprocessed.smi

> <i_m_source_file_index>
2961

> <i_lp_mmshare_version>
43012

> <i_f3d_flags>
0

> <s_epik_input>
W0NIM11DKD1PKVtOSF1bQ0gyXVtDSDJdYyhuMSluKGMoYzEyKVtjSF1bY0hdW2NIXVtjSF0yKVtDSDJdW0NIMl1PYzNbY0hdW2NIXVtjSF1jKFtDSDNdKVtjSF0z

> <s_epik_cmdline>
J2VwaWtfcHl0aG9uJywgJy1waCcsICc3LjAnLCAnLXRuJywgJzgnLCAnLW1hJywgJzIwMCcsICctbWV0YWxfYmluZGluZycsICctaW1hZScsICc8aW5maWxlLm1hZT4nLCAnLW9tYWUnLCAnPG91dGZpbGUubWFlPic=

> <r_lp_tautomer_probability>
1

> <r_epik_Ionization_Penalty>
0.0984942

> <r_epik_Ionization_Penalty_Charging>
0

> <r_epik_Ionization_Penalty_Neutral>
0.0984942

> <r_epik_State_Penalty>
0.0885769

> <r_epik_Charging_Adjusted_Penalty>
0.0885769

> <i_epik_Tot_Q>
0

> <i_epik_Tot_abs_Q>
0

> <r_epik_Metal_State_Penalty>
0.0758518

> <b_epik_Metal_Only>
0

> <s_lp_Force_Field>
OPLS_2005

> <r_lp_Energy>
13.474

> <b_lp_Chiralities_Consistent>
1

> <s_lp_Variant>
AV-unprocessed.smi:2961-1

> <Gold.Version>
5.8.1

> <Gold.Id.Protein>
6NUR|6NUR_protein|mol2

> <Gold.PLP.Fitness>
47.5742

> <Gold.PLP.PLP>
-50.0084

> <Gold.PLP.part.hbond>
-1.0000

> <Gold.PLP.part.metal>
0.0000

> <Gold.PLP.part.buried>
-4.4955

> <Gold.PLP.part.nonpolar>
-44.0409

> <Gold.PLP.part.repulsive>
0.1786

> <Gold.PLP.ligand.clash>
0.0000

> <Gold.PLP.ligand.torsion>
1.3176

> <Gold.PLP.Chemscore.Hbond>
0.0000

> <Gold.PLP.Chemscore.CHOScore>
0.0000

> <Gold.PLP.Chemscore.Metal>
0.0000

> <Gold.PLP.Chemscore.Internal.Correction>
0.2010

> <Gold.Rescore>
     Score         DG    S(hbond)    S(metal)    S(lipo)     H(rot)  DE(clash)    DE(int)     intcor
     15.24     -16.65       0.00        0.00     141.56       2.11       0.14       1.27       ----

> <Gold.Chemscore.Fitness>
15.2356

> <Gold.Chemscore.DG>
-16.6460

> <Gold.Chemscore.ZeroCoef>
-5.4800

> <Gold.Chemscore.Hbond>
0.0000

> <Gold.Chemscore.Metal>
0.0000

> <Gold.Chemscore.Lipo>
141.5559

> <Gold.Chemscore.Internal_Hbond>
0.0000

> <Gold.Chemscore.DEClash>
0.1367

> <Gold.Chemscore.DEInternal>
1.2737

> <Gold.Chemscore.Rot>
2.1078

> <Gold.Chemscore.Internal.Correction>
   9.000000E+99

> <Gold.Chemscore.Hbonds>
donor molecule, donor type, donor heavy atom, donor atom, acceptor molecule, acceptor atom, score
      L1  H     4    29       P1  8028  0.01

> <Gold.Chemscore.Hbond.Weighted>
-0.0000

> <Gold.Chemscore.Metal.Weighted>
-0.0000

> <Gold.Chemscore.Lipo.Weighted>
-16.5620

> <Gold.Chemscore.Internal_Hbond.Weighted>
0.0000

> <Gold.Chemscore.DEClash.Weighted>
0.1367

> <Gold.Chemscore.DEInternal.Weighted>
1.2737

> <Gold.Chemscore.Rot.Weighted>
5.3961

> <Gold.Chemscore.Internal.Correction.Weighted>
   9.000000E+99

> <Gold.Protein.RotatedTorsions>
[ 6907 6896 6895 6894 ] final   63.06 input  -60.11 | X-H torsion
[ 7974 7965 7964 7962 ] final -176.57 input  175.53 | X-H torsion
[ 8008 7997 7996 7995 ] final  103.21 input   59.86 | X-H torsion
[ 10167 10162 10161 10158 ] final  124.85 input  -65.29 | X-H torsion
[ 10718 10713 10712 10709 ] final  114.46 input   66.30 | X-H torsion
[ 10763 10752 10751 10750 ] final  -56.06 input  -60.55 | X-H torsion
[ 11005 11000 10999 10996 ] final  138.69 input  -57.11 | X-H torsion

> <Gold.Protein.ActiveResidues>
 VAL166  LYS551  ARG553  GLY616  TRP617  ASP618  TYR619  PRO620  LYS621  CYS622 
 ASP623  PHE694  ASN695  SER759  ASP760  ASP761  ALA762  ILE779  LEU786  VAL792 
 PHE793  MET794  SER795  GLU796  ALA797  LYS798  CYS799  TRP800  GLU811  SER814 

> <Gold.Protein.RotatedAtoms>
  152.4223  134.5933  159.9979 H   0  0  0  0  0  0  0  0  0  0  0  0  # atno 6907 bound_to 6896
  151.6079  133.3344  159.3069 H   0  0  0  0  0  0  0  0  0  0  0  0  # atno 6908 bound_to 6896
  150.8111  134.7304  159.6754 H   0  0  0  0  0  0  0  0  0  0  0  0  # atno 6909 bound_to 6896
  144.7127  140.1149  143.6409 H   0  0  0  0  0  0  0  0  0  0  0  0  # atno 7974 bound_to 7965
  156.1463  140.3168  155.8576 H   0  0  0  0  0  0  0  0  0  0  0  0  # atno 8008 bound_to 7997
  155.4057  140.0502  157.3051 H   0  0  0  0  0  0  0  0  0  0  0  0  # atno 8009 bound_to 7997
  154.5019  140.2132  155.9340 H   0  0  0  0  0  0  0  0  0  0  0  0  # atno 8010 bound_to 7997
  139.5718  144.6943  151.3758 H   0  0  0  0  0  0  0  0  0  0  0  0  # atno 10167 bound_to 10162
  157.6280  131.0999  150.7189 H   0  0  0  0  0  0  0  0  0  0  0  0  # atno 10718 bound_to 10713
  154.2006  135.6411  153.5086 H   0  0  0  0  0  0  0  0  0  0  0  0  # atno 10763 bound_to 10752
  153.0013  135.5450  154.6319 H   0  0  0  0  0  0  0  0  0  0  0  0  # atno 10764 bound_to 10752
  154.5731  135.2918  155.0780 H   0  0  0  0  0  0  0  0  0  0  0  0  # atno 10765 bound_to 10752
  140.0201  134.9400  157.0457 H   0  0  0  0  0  0  0  0  0  0  0  0  # atno 11005 bound_to 11000
  145.9422  139.2676  143.1262 LP  0  0  0  0  0  0  0  0  0  0  0  0  # atno 17320 bound_to 7965
  145.9412  140.8978  143.0307 LP  0  0  0  0  0  0  0  0  0  0  0  0  # atno 17321 bound_to 7965
  140.7002  143.7650  150.7391 LP  0  0  0  0  0  0  0  0  0  0  0  0  # atno 17342 bound_to 10162
  140.1158  143.4657  152.2343 LP  0  0  0  0  0  0  0  0  0  0  0  0  # atno 17343 bound_to 10162
  156.7534  130.4775  149.5452 LP  0  0  0  0  0  0  0  0  0  0  0  0  # atno 17370 bound_to 10713
  156.1464  130.6280  151.0537 LP  0  0  0  0  0  0  0  0  0  0  0  0  # atno 17371 bound_to 10713
  140.4402  134.1689  155.7173 LP  0  0  0  0  0  0  0  0  0  0  0  0  # atno 17394 bound_to 11000
  141.1768  133.8497  157.1393 LP  0  0  0  0  0  0  0  0  0  0  0  0  # atno 17395 bound_to 11000

$$$$
