AV-unprocessed.smi:1021|AV-procd|sdf|4455|dock2
  -GOLD-   22720 2423D 1   1.00000     0.00000
 Structure written by MMmdl.
 42 44  0  0  0  0  0  0  0  0  1 V2000
  152.1291  137.1728  153.7622 O   0  0  0  0  0  0  0  0  0  0  0  0
  151.2805  137.1843  154.8902 C   0  0  0  0  0  0  0  0  0  0  0  0
  151.9365  137.9433  156.0524 C   0  0  0  0  0  0  0  0  0  0  0  0
  151.7541  139.4683  155.9639 C   0  0  0  0  0  0  0  0  0  0  0  0
  152.1719  140.1711  157.2225 C   0  0  0  0  0  0  0  0  0  0  0  0
  153.1022  139.6552  158.0269 N   0  0  0  0  0  0  0  0  0  0  0  0
  153.1662  140.5770  159.0525 C   0  0  0  0  0  0  0  0  0  0  0  0
  153.9610  140.5965  160.2213 C   0  0  0  0  0  0  0  0  0  0  0  0
  153.8498  141.6586  161.1426 C   0  0  0  0  0  0  0  0  0  0  0  0
  152.9444  142.7136  160.9092 C   0  0  0  0  0  0  0  0  0  0  0  0
  152.1437  142.7133  159.7508 C   0  0  0  0  0  0  0  0  0  0  0  0
  152.2588  141.6515  158.8332 C   0  0  0  0  0  0  0  0  0  0  0  0
  151.6347  141.3526  157.6249 N   0  0  0  0  0  0  0  0  0  0  0  0
  150.6240  142.1688  156.9621 C   0  0  0  0  0  0  0  0  0  0  0  0
  149.1824  141.7121  157.2612 C   0  0  1  0  0  0  0  0  0  0  0  0
  148.4597  142.7635  157.8730 O   0  0  0  0  0  0  0  0  0  0  0  0
  148.4978  141.1928  156.0063 C   0  0  0  0  0  0  0  0  0  0  0  0
  149.2264  141.0829  154.8023 C   0  0  0  0  0  0  0  0  0  0  0  0
  148.5988  140.6099  153.6332 C   0  0  0  0  0  0  0  0  0  0  0  0
  147.2387  140.2463  153.6608 C   0  0  0  0  0  0  0  0  0  0  0  0
  146.6362  139.7910  152.5371 F   0  0  0  0  0  0  0  0  0  0  0  0
  146.5054  140.3583  154.8575 C   0  0  0  0  0  0  0  0  0  0  0  0
  147.1321  140.8322  156.0265 C   0  0  0  0  0  0  0  0  0  0  0  0
  151.6074  136.9966  152.9941 H   0  0  0  0  0  0  0  0  0  0  0  0
  150.3235  137.6338  154.6230 H   0  0  0  0  0  0  0  0  0  0  0  0
  151.0814  136.1531  155.1826 H   0  0  0  0  0  0  0  0  0  0  0  0
  151.4999  137.5855  156.9847 H   0  0  0  0  0  0  0  0  0  0  0  0
  152.9977  137.6966  156.1050 H   0  0  0  0  0  0  0  0  0  0  0  0
  152.3476  139.8646  155.1392 H   0  0  0  0  0  0  0  0  0  0  0  0
  150.7189  139.7018  155.7225 H   0  0  0  0  0  0  0  0  0  0  0  0
  154.6560  139.7920  160.4096 H   0  0  0  0  0  0  0  0  0  0  0  0
  154.4613  141.6627  162.0329 H   0  0  0  0  0  0  0  0  0  0  0  0
  152.8637  143.5228  161.6201 H   0  0  0  0  0  0  0  0  0  0  0  0
  151.4467  143.5183  159.5726 H   0  0  0  0  0  0  0  0  0  0  0  0
  150.7556  143.2041  157.2779 H   0  0  0  0  0  0  0  0  0  0  0  0
  150.8158  142.1656  155.8891 H   0  0  0  0  0  0  0  0  0  0  0  0
  149.2110  140.8974  157.9836 H   0  0  0  0  0  0  0  0  0  0  0  0
  148.5960  143.5525  157.3711 H   0  0  0  0  0  0  0  0  0  0  0  0
  150.2694  141.3622  154.7702 H   0  0  0  0  0  0  0  0  0  0  0  0
  149.1605  140.5271  152.7146 H   0  0  0  0  0  0  0  0  0  0  0  0
  145.4616  140.0820  154.8790 H   0  0  0  0  0  0  0  0  0  0  0  0
  146.5592  140.9194  156.9381 H   0  0  0  0  0  0  0  0  0  0  0  0
  1  2  1  0  0  0  0
  1 24  1  0  0  0  0
  2  3  1  0  0  0  0
  2 25  1  0  0  0  0
  2 26  1  0  0  0  0
  3  4  1  0  0  0  0
  3 27  1  0  0  0  0
  3 28  1  0  0  0  0
  4  5  1  0  0  0  0
  4 29  1  0  0  0  0
  4 30  1  0  0  0  0
  5 13  1  0  0  0  0
  5  6  2  0  0  0  0
  6  7  1  0  0  0  0
  7 12  2  0  0  0  0
  7  8  1  0  0  0  0
  8  9  2  0  0  0  0
  8 31  1  0  0  0  0
  9 10  1  0  0  0  0
  9 32  1  0  0  0  0
 10 11  2  0  0  0  0
 10 33  1  0  0  0  0
 11 12  1  0  0  0  0
 11 34  1  0  0  0  0
 12 13  1  0  0  0  0
 13 14  1  0  0  0  0
 14 15  1  0  0  0  0
 14 35  1  0  0  0  0
 14 36  1  0  0  0  0
 15 16  1  0  0  0  0
 15 17  1  0  0  0  0
 15 37  1  0  0  0  0
 16 38  1  0  0  0  0
 17 23  1  0  0  0  0
 17 18  2  0  0  0  0
 18 19  1  0  0  0  0
 18 39  1  0  0  0  0
 19 20  2  0  0  0  0
 19 40  1  0  0  0  0
 20 21  1  0  0  0  0
 20 22  1  0  0  0  0
 22 23  2  0  0  0  0
 22 41  1  0  0  0  0
 23 42  1  0  0  0  0
M  END
> <s_m_source_file>
AV-unprocessed.smi

> <i_m_source_file_index>
1021

> <i_lp_mmshare_version>
43012

> <i_f3d_flags>
0

> <s_epik_input>
W09IXVtDSDJdW0NIMl1bQ0gyXWMobjEpbihjKGMxMilbY0hdW2NIXVtjSF1bY0hdMilbQ0gyXVtDQEhdKFtPSF0pYzNbY0hdW2NIXWMoRilbY0hdW2NIXTM=

> <s_epik_cmdline>
J2VwaWtfcHl0aG9uJywgJy1waCcsICc3LjAnLCAnLXRuJywgJzgnLCAnLW1hJywgJzIwMCcsICctbWV0YWxfYmluZGluZycsICctaW1hZScsICc8aW5maWxlLm1hZT4nLCAnLW9tYWUnLCAnPG91dGZpbGUubWFlPic=

> <r_epik_Ionization_Penalty>
0.182562

> <r_epik_Ionization_Penalty_Charging>
0

> <r_epik_Ionization_Penalty_Neutral>
0.182562

> <r_epik_State_Penalty>
0.172086

> <r_epik_Charging_Adjusted_Penalty>
0.172086

> <i_epik_Tot_Q>
0

> <i_epik_Tot_abs_Q>
0

> <r_epik_Metal_State_Penalty>
0.000199649

> <b_epik_Metal_Only>
0

> <s_lp_Force_Field>
OPLS_2005

> <r_lp_Energy>
11.397

> <b_lp_Chiralities_Consistent>
1

> <s_lp_Variant>
AV-unprocessed.smi:1021-2

> <Gold.Version>
5.8.1

> <Gold.Id.Protein>
6NUR|6NUR_protein|mol2

> <Gold.PLP.Fitness>
53.1258

> <Gold.PLP.PLP>
-45.0066

> <Gold.PLP.part.hbond>
-4.7274

> <Gold.PLP.part.metal>
0.0000

> <Gold.PLP.part.buried>
4.0295

> <Gold.PLP.part.nonpolar>
-43.3032

> <Gold.PLP.part.repulsive>
0.0000

> <Gold.PLP.ligand.clash>
0.0000

> <Gold.PLP.ligand.torsion>
1.6989

> <Gold.PLP.Chemscore.Hbond>
3.8000

> <Gold.PLP.Chemscore.CHOScore>
0.0000

> <Gold.PLP.Chemscore.Metal>
0.0000

> <Gold.Chemscore.Hbonds>
donor molecule, donor type, donor heavy atom, donor atom, acceptor molecule, acceptor atom, score
      L1  H     1    24       P1  7949  1.00
      L1  H    16    38       P1  8028  0.64
      P1  H  7997  8010       L1     6  1.00
      P1  H 10752 10765       L1     1  1.00

> <Gold.PLP.Chemscore.Internal.Correction>
0.1169

> <Gold.Rescore>
     Score         DG    S(hbond)    S(metal)    S(lipo)     H(rot)  DE(clash)    DE(int)     intcor
     14.00     -17.78       1.75        0.00     122.53       3.07       1.72       2.06       ----

> <Gold.Chemscore.Fitness>
13.9995

> <Gold.Chemscore.DG>
-17.7776

> <Gold.Chemscore.ZeroCoef>
-5.4800

> <Gold.Chemscore.Hbond>
1.7458

> <Gold.Chemscore.Metal>
0.0000

> <Gold.Chemscore.Lipo>
122.5337

> <Gold.Chemscore.Internal_Hbond>
0.0000

> <Gold.Chemscore.DEClash>
1.7194

> <Gold.Chemscore.DEInternal>
2.0587

> <Gold.Chemscore.Rot>
3.0741

> <Gold.Chemscore.Internal.Correction>
   9.000000E+99

> <Gold.Chemscore.Hbonds>
donor molecule, donor type, donor heavy atom, donor atom, acceptor molecule, acceptor atom, score
      L1  H     1    24       P1  7949  0.92
      L1  H    16    38       P1  8028  0.06
      P1  H  7997  8010       L1     6  0.11
      P1  H 10752 10765       L1     1  0.17

> <Gold.Chemscore.Hbond.Weighted>
-5.8309

> <Gold.Chemscore.Metal.Weighted>
-0.0000

> <Gold.Chemscore.Lipo.Weighted>
-14.3364

> <Gold.Chemscore.Internal_Hbond.Weighted>
0.0000

> <Gold.Chemscore.DEClash.Weighted>
1.7194

> <Gold.Chemscore.DEInternal.Weighted>
2.0587

> <Gold.Chemscore.Rot.Weighted>
7.8698

> <Gold.Chemscore.Internal.Correction.Weighted>
   9.000000E+99

> <Gold.Protein.RotatedTorsions>
[ 6907 6896 6895 6894 ] final -169.73 input  -60.11 | X-H torsion
[ 7974 7965 7964 7962 ] final -123.58 input  175.53 | X-H torsion
[ 8008 7997 7996 7995 ] final   22.01 input   59.86 | X-H torsion
[ 10167 10162 10161 10158 ] final  -10.08 input  -65.29 | X-H torsion
[ 10718 10713 10712 10709 ] final -140.29 input   66.30 | X-H torsion
[ 10763 10752 10751 10750 ] final  143.91 input  -60.55 | X-H torsion
[ 11005 11000 10999 10996 ] final -127.29 input  -57.11 | X-H torsion

> <Gold.Protein.ActiveResidues>
 VAL166  LYS551  ARG553  GLY616  TRP617  ASP618  TYR619  PRO620  LYS621  CYS622 
 ASP623  PHE694  ASN695  SER759  ASP760  ASP761  ALA762  ILE779  LEU786  VAL792 
 PHE793  MET794  SER795  GLU796  ALA797  LYS798  CYS799  TRP800  GLU811  SER814 

> <Gold.Protein.RotatedAtoms>
  151.4963  133.3514  159.2861 H   0  0  0  0  0  0  0  0  0  0  0  0  # atno 6907 bound_to 6896
  150.8801  134.8193  159.7230 H   0  0  0  0  0  0  0  0  0  0  0  0  # atno 6908 bound_to 6896
  152.4757  134.4860  159.9732 H   0  0  0  0  0  0  0  0  0  0  0  0  # atno 6909 bound_to 6896
  145.0172  140.7957  143.4403 H   0  0  0  0  0  0  0  0  0  0  0  0  # atno 7974 bound_to 7965
  154.9593  140.3076  155.5038 H   0  0  0  0  0  0  0  0  0  0  0  0  # atno 8008 bound_to 7997
  156.2979  140.2304  156.4615 H   0  0  0  0  0  0  0  0  0  0  0  0  # atno 8009 bound_to 7997
  154.7980  140.0436  157.1240 H   0  0  0  0  0  0  0  0  0  0  0  0  # atno 8010 bound_to 7997
  140.7104  143.5787  150.9015 H   0  0  0  0  0  0  0  0  0  0  0  0  # atno 10167 bound_to 10162
  156.3206  130.7532  151.1629 H   0  0  0  0  0  0  0  0  0  0  0  0  # atno 10718 bound_to 10713
  153.9801  135.2942  155.3421 H   0  0  0  0  0  0  0  0  0  0  0  0  # atno 10763 bound_to 10752
  154.7273  135.5083  153.8911 H   0  0  0  0  0  0  0  0  0  0  0  0  # atno 10764 bound_to 10752
  153.0858  135.6693  154.0066 H   0  0  0  0  0  0  0  0  0  0  0  0  # atno 10765 bound_to 10752
  140.9611  134.0935  157.3967 H   0  0  0  0  0  0  0  0  0  0  0  0  # atno 11005 bound_to 11000
  145.1944  139.2284  143.5226 LP  0  0  0  0  0  0  0  0  0  0  0  0  # atno 17320 bound_to 7965
  146.3480  140.1747  142.8589 LP  0  0  0  0  0  0  0  0  0  0  0  0  # atno 17321 bound_to 7965
  139.9513  143.6269  152.3028 LP  0  0  0  0  0  0  0  0  0  0  0  0  # atno 17342 bound_to 10162
  139.6789  144.7657  151.1646 LP  0  0  0  0  0  0  0  0  0  0  0  0  # atno 17343 bound_to 10162
  157.7411  131.0508  150.5121 LP  0  0  0  0  0  0  0  0  0  0  0  0  # atno 17370 bound_to 10713
  156.5273  130.4176  149.6219 LP  0  0  0  0  0  0  0  0  0  0  0  0  # atno 17371 bound_to 10713
  139.8878  135.0093  156.6585 LP  0  0  0  0  0  0  0  0  0  0  0  0  # atno 17394 bound_to 11000
  140.7466  133.8933  155.8316 LP  0  0  0  0  0  0  0  0  0  0  0  0  # atno 17395 bound_to 11000

$$$$
