#       Name:                AV-unprocessed.smi:256
#       Creating user name   scv26
#       Creation time:       Thu Mar 26 21:11:04 2020


#       File generated by GOLD software.
#

@<TRIPOS>MOLECULE
AV-unprocessed.smi:256
    72    75     1
SMALL
NO_CHARGES


@<TRIPOS>ATOM
      1 ****        -3.2963  -2.3369  -3.4888 C.3            1 S1                 0.0000
      2 ****        -3.8357  -0.9406  -3.1414 C.3            1 S1                 0.0000
      3 ****        -3.2046  -0.2859  -1.8821 C.3            1 S1                 0.0000
      4 ****        -1.6638  -0.2304  -2.0580 C.3            1 S1                 0.0000
      5 ****        -1.0107   0.3597  -0.8918 N.3            1 S1                 0.0000
      6 ****         0.3378   0.2454  -0.7872 C.ar           1 S1                 0.0000
      7 ****         1.0864  -0.0293  -1.8893 N.ar           1 S1                 0.0000
      8 ****         2.4149  -0.1376  -1.7945 C.ar           1 S1                 0.0000
      9 ****         3.1869  -0.0157  -0.7132 N.ar           1 S1                 0.0000
     10 ****         2.4421   0.2512   0.3976 C.ar           1 S1                 0.0000
     11 ****         1.0271   0.3983   0.4491 C.ar           1 S1                 0.0000
     12 ****         0.6268   0.6553   1.7554 N.2            1 S1                 0.0000
     13 ****         1.7407   0.6652   2.4350 C.2            1 S1                 0.0000
     14 ****         2.8789   0.4235   1.6995 N.pl3          1 S1                 0.0000
     15 ****         4.2436   0.3671   2.2005 C.3            1 S1                 0.0000
     16 ****         4.6426  -1.0153   2.7741 C.3            1 S1                 0.0000
     17 ****         3.8265  -1.2616   3.9069 O.3            1 S1                 0.0000
     18 ****         4.4346  -2.1630   1.7613 C.3            1 S1                 0.0000
     19 ****         5.0198  -3.4938   2.2664 C.3            1 S1                 0.0000
     20 ****         6.3942  -3.3317   2.5953 O.3            1 S1                 0.0000
     21 ****         6.6011  -2.4032   3.6529 C.3            1 S1                 0.0000
     22 ****         6.1153  -1.0053   3.2298 C.3            1 S1                 0.0000
     23 ****        -1.5399   1.6739  -0.5567 C.3            1 S1                 0.0000
     24 ****        -3.0586   1.5819  -0.3746 C.3            1 S1                 0.0000
     25 ****        -3.7466   1.0569  -1.5612 N.3            1 S1                 0.0000
     26 ****        -5.2032   1.0560  -1.3517 C.3            1 S1                 0.0000
     27 ****        -5.8512   2.4326  -1.1209 C.3            1 S1                 0.0000
     28 ****        -5.5005   3.3057  -2.1826 O.3            1 S1                 0.0000
     29 ****        -6.0560   4.5996  -2.0280 C.3            1 S1                 0.0000
     30 ****        -3.8882  -2.7872  -4.2858 H              1 S1                 0.0000
     31 ****        -3.3417  -3.0038  -2.6274 H              1 S1                 0.0000
     32 ****        -2.2655  -2.3017  -3.8404 H              1 S1                 0.0000
     33 ****        -3.7158  -0.2817  -4.0021 H              1 S1                 0.0000
     34 ****        -4.9070  -1.0706  -3.0018 H              1 S1                 0.0000
     35 ****        -3.4121  -0.9449  -1.0373 H              1 S1                 0.0000
     36 ****        -1.2650  -1.2354  -2.1936 H              1 S1                 0.0000
     37 ****        -1.4081   0.3458  -2.9487 H              1 S1                 0.0000
     38 ****         2.9333  -0.3535  -2.7171 H              1 S1                 0.0000
     39 ****         1.7629   0.8411   3.5008 H              1 S1                 0.0000
     40 ****         4.9145   0.6412   1.3853 H              1 S1                 0.0000
     41 ****         4.3599   1.1412   2.9605 H              1 S1                 0.0000
     42 ****         4.0660  -2.0993   4.2729 H              1 S1                 0.0000
     43 ****         3.3767  -2.2933   1.5300 H              1 S1                 0.0000
     44 ****         4.9242  -1.9043   0.8214 H              1 S1                 0.0000
     45 ****         4.4680  -3.8627   3.1323 H              1 S1                 0.0000
     46 ****         4.9326  -4.2554   1.4912 H              1 S1                 0.0000
     47 ****         6.0900  -2.7420   4.5554 H              1 S1                 0.0000
     48 ****         7.6653  -2.3718   3.8873 H              1 S1                 0.0000
     49 ****         6.7443  -0.6571   2.4095 H              1 S1                 0.0000
     50 ****         6.2589  -0.2959   4.0460 H              1 S1                 0.0000
     51 ****        -1.0897   2.0668   0.3541 H              1 S1                 0.0000
     52 ****        -1.2979   2.3740  -1.3578 H              1 S1                 0.0000
     53 ****        -3.2865   0.9606   0.4930 H              1 S1                 0.0000
     54 ****        -3.4139   2.5844  -0.1419 H              1 S1                 0.0000
     55 ****        -5.7013   0.6558  -2.2314 H              1 S1                 0.0000
     56 ****        -5.4586   0.3912  -0.5254 H              1 S1                 0.0000
     57 ****        -6.9354   2.3176  -1.0862 H              1 S1                 0.0000
     58 ****        -5.5539   2.8542  -0.1603 H              1 S1                 0.0000
     59 ****        -5.7637   5.2266  -2.8702 H              1 S1                 0.0000
     60 ****        -5.6970   5.0749  -1.1143 H              1 S1                 0.0000
     61 ****        -7.1457   4.5608  -1.9988 H              1 S1                 0.0000
     62 ****        -1.2846  -0.2608  -0.1570 LP             1 S1                 0.0000
     63 ****         0.6398  -0.1509  -2.7758 LP             1 S1                 0.0000
     64 ****         4.1826  -0.1080  -0.7168 LP             1 S1                 0.0000
     65 ****        -0.3022   0.7996   2.0962 LP             1 S1                 0.0000
     66 ****         2.8648  -1.2757   3.6331 LP             1 S1                 0.0000
     67 ****         3.9687  -0.5430   4.5877 LP             1 S1                 0.0000
     68 ****         6.8807  -3.0063   1.7845 LP             1 S1                 0.0000
     69 ****         6.7635  -4.2188   2.8719 LP             1 S1                 0.0000
     70 ****        -3.5789   1.6471  -2.3509 LP             1 S1                 0.0000
     71 ****        -5.8318   2.9152  -3.0415 LP             1 S1                 0.0000
     72 ****        -4.5043   3.3864  -2.2155 LP             1 S1                 0.0000
@<TRIPOS>BOND
    1    1    2 1     
    2    1   30 1     
    3    1   31 1     
    4    1   32 1     
    5    2    3 1     
    6    2   33 1     
    7    2   34 1     
    8    3   25 1     
    9    3    4 1     
   10    3   35 1     
   11    4    5 1     
   12    4   36 1     
   13    4   37 1     
   14    5    6 1     
   15    5   23 1     
   16    6   11 ar    
   17    6    7 ar    
   18    7    8 ar    
   19    8    9 ar    
   20    8   38 1     
   21    9   10 ar    
   22   10   14 1     
   23   10   11 ar    
   24   11   12 1     
   25   12   13 2     
   26   13   14 1     
   27   13   39 1     
   28   14   15 1     
   29   15   16 1     
   30   15   40 1     
   31   15   41 1     
   32   16   22 1     
   33   16   17 1     
   34   16   18 1     
   35   17   42 1     
   36   18   19 1     
   37   18   43 1     
   38   18   44 1     
   39   19   20 1     
   40   19   45 1     
   41   19   46 1     
   42   20   21 1     
   43   21   22 1     
   44   21   47 1     
   45   21   48 1     
   46   22   49 1     
   47   22   50 1     
   48   23   24 1     
   49   23   51 1     
   50   23   52 1     
   51   24   25 1     
   52   24   53 1     
   53   24   54 1     
   54   25   26 1     
   55   26   27 1     
   56   26   55 1     
   57   26   56 1     
   58   27   28 1     
   59   27   57 1     
   60   27   58 1     
   61   28   29 1     
   62   29   59 1     
   63   29   60 1     
   64   29   61 1     
   65    5   62 1     
   66    7   63 1     
   67    9   64 1     
   68   12   65 1     
   69   17   66 1     
   70   17   67 1     
   71   20   68 1     
   72   20   69 1     
   73   25   70 1     
   74   28   71 1     
   75   28   72 1     
@<TRIPOS>SUBSTRUCTURE
      1 S1             1
@<TRIPOS>SET
LONE_PAIRS      STATIC     ATOMS    <user>   **** ""
11 62 63 64 65 66 67 68 69 70 71 72
DONOR_HYDROGENS      STATIC     ATOMS    <user>   **** ""
1 42
ATOM$BLUE        STATIC     ATOMS    COLORGROUP SYSTEM
11 62 63 64 65 66 67 68 69 70 71 72
ATOM$RED        STATIC     ATOMS    COLORGROUP SYSTEM
1 42
