AV-unprocessed.smi:437|AV-procd|sdf|2559|dock2
  -GOLD-   2262022523D 1   1.00000     0.00000
 Structure written by MMmdl.
 48 49  0  0  0  0  0  0  0  0  1 V2000
  146.0453  143.7796  153.3460 C   0  0  0  0  0  0  0  0  0  0  0  0
  146.4103  142.7495  154.3808 C   0  0  0  0  0  0  0  0  0  0  0  0
  147.1558  141.7701  153.9864 N   0  0  0  0  0  0  0  0  0  0  0  0
  147.5443  140.7671  154.8532 N   0  0  0  0  0  0  0  0  0  0  0  0
  148.3756  139.7265  154.2303 C   0  0  0  0  0  0  0  0  0  0  0  0
  149.7826  139.6313  154.8408 C   0  0  0  0  0  0  0  0  0  0  0  0
  150.4947  138.6511  154.6068 O   0  0  0  0  0  0  0  0  0  0  0  0
  150.1410  140.6802  155.6086 N   0  0  0  0  0  0  0  0  0  0  0  0
  151.3060  140.8615  156.2600 C   0  0  0  0  0  0  0  0  0  0  0  0
  152.3193  140.1716  156.1277 O   0  0  0  0  0  0  0  0  0  0  0  0
  151.2326  141.9124  157.0901 N   0  0  0  0  0  0  0  0  0  0  0  0
  152.1768  142.2123  158.1649 C   0  0  2  0  0  0  0  0  0  0  0  0
  152.1797  141.0585  159.1895 C   0  0  0  0  0  0  0  0  0  0  0  0
  153.1088  141.3551  160.3754 C   0  0  0  0  0  0  0  0  0  0  0  0
  152.7352  142.6828  161.0478 C   0  0  0  0  0  0  0  0  0  0  0  0
  152.7502  143.8369  160.0342 C   0  0  0  0  0  0  0  0  0  0  0  0
  151.8190  143.5623  158.8360 C   0  0  1  0  0  0  0  0  0  0  0  0
  151.8520  144.7397  157.8448 C   0  0  0  0  0  0  0  0  0  0  0  0
  147.2076  140.7082  156.1739 C   0  0  0  0  0  0  0  0  0  0  0  0
  147.5841  139.7973  156.9131 O   0  0  0  0  0  0  0  0  0  0  0  0
  146.3625  141.8205  156.6139 C   0  0  0  0  0  0  0  0  0  0  0  0
  145.9780  141.7918  157.9880 C   0  0  0  0  0  0  0  0  0  0  0  0
  145.6632  141.7883  159.1020 N   0  0  0  0  0  0  0  0  0  0  0  0
  145.9708  142.8090  155.7712 C   0  0  0  0  0  0  0  0  0  0  0  0
  145.0939  143.9849  156.1789 C   0  0  0  0  0  0  0  0  0  0  0  0
  146.4601  144.7532  153.6075 H   0  0  0  0  0  0  0  0  0  0  0  0
  144.9628  143.8820  153.2654 H   0  0  0  0  0  0  0  0  0  0  0  0
  146.4239  143.5151  152.3573 H   0  0  0  0  0  0  0  0  0  0  0  0
  147.8965  138.7511  154.3322 H   0  0  0  0  0  0  0  0  0  0  0  0
  148.4536  139.9016  153.1555 H   0  0  0  0  0  0  0  0  0  0  0  0
  149.4570  141.4161  155.7026 H   0  0  0  0  0  0  0  0  0  0  0  0
  150.4731  142.5651  156.9637 H   0  0  0  0  0  0  0  0  0  0  0  0
  153.1810  142.3040  157.7458 H   0  0  0  0  0  0  0  0  0  0  0  0
  151.1672  140.8900  159.5594 H   0  0  0  0  0  0  0  0  0  0  0  0
  152.4899  140.1299  158.7084 H   0  0  0  0  0  0  0  0  0  0  0  0
  153.0572  140.5427  161.1010 H   0  0  0  0  0  0  0  0  0  0  0  0
  154.1424  141.3967  160.0294 H   0  0  0  0  0  0  0  0  0  0  0  0
  151.7445  142.6010  161.4964 H   0  0  0  0  0  0  0  0  0  0  0  0
  153.4281  142.8947  161.8628 H   0  0  0  0  0  0  0  0  0  0  0  0
  152.4532  144.7601  160.5329 H   0  0  0  0  0  0  0  0  0  0  0  0
  153.7700  143.9938  159.6798 H   0  0  0  0  0  0  0  0  0  0  0  0
  150.8009  143.4892  159.2221 H   0  0  0  0  0  0  0  0  0  0  0  0
  152.8393  144.8496  157.3950 H   0  0  0  0  0  0  0  0  0  0  0  0
  151.6085  145.6781  158.3437 H   0  0  0  0  0  0  0  0  0  0  0  0
  151.1317  144.6085  157.0372 H   0  0  0  0  0  0  0  0  0  0  0  0
  144.8935  143.9986  157.2497 H   0  0  0  0  0  0  0  0  0  0  0  0
  144.1340  143.9396  155.6636 H   0  0  0  0  0  0  0  0  0  0  0  0
  145.5749  144.9307  155.9279 H   0  0  0  0  0  0  0  0  0  0  0  0
  1  2  1  0  0  0  0
  1 26  1  0  0  0  0
  1 27  1  0  0  0  0
  1 28  1  0  0  0  0
  2 24  1  0  0  0  0
  2  3  2  0  0  0  0
  3  4  1  0  0  0  0
  4  5  1  0  0  0  0
  4 19  1  0  0  0  0
  5  6  1  0  0  0  0
  5 29  1  0  0  0  0
  5 30  1  0  0  0  0
  6  7  2  0  0  0  0
  6  8  1  0  0  0  0
  8  9  1  0  0  0  0
  8 31  1  0  0  0  0
  9 10  2  0  0  0  0
  9 11  1  0  0  0  0
 11 12  1  0  0  0  0
 11 32  1  0  0  0  0
 12 17  1  0  0  0  0
 12 13  1  0  0  0  0
 12 33  1  0  0  0  0
 13 14  1  0  0  0  0
 13 34  1  0  0  0  0
 13 35  1  0  0  0  0
 14 15  1  0  0  0  0
 14 36  1  0  0  0  0
 14 37  1  0  0  0  0
 15 16  1  0  0  0  0
 15 38  1  0  0  0  0
 15 39  1  0  0  0  0
 16 17  1  0  0  0  0
 16 40  1  0  0  0  0
 16 41  1  0  0  0  0
 17 18  1  0  0  0  0
 17 42  1  0  0  0  0
 18 43  1  0  0  0  0
 18 44  1  0  0  0  0
 18 45  1  0  0  0  0
 19 20  2  0  0  0  0
 19 21  1  0  0  0  0
 21 22  1  0  0  0  0
 21 24  2  0  0  0  0
 22 23  3  0  0  0  0
 24 25  1  0  0  0  0
 25 46  1  0  0  0  0
 25 47  1  0  0  0  0
 25 48  1  0  0  0  0
M  END
> <s_m_source_file>
AV-unprocessed.smi

> <i_m_source_file_index>
437

> <i_lp_mmshare_version>
43012

> <i_f3d_flags>
0

> <s_epik_input>
TiNDYyhjMVtDSDNdKWMoPU8pbihuYzFbQ0gzXSlbQ0gyXUMoPU8pW05IXUMoPU8pW05IXVtDQEBIXTJbQ0gyXVtDSDJdW0NIMl1bQ0gyXVtDQEhdMltDSDNd

> <s_epik_cmdline>
J2VwaWtfcHl0aG9uJywgJy1waCcsICc3LjAnLCAnLXRuJywgJzgnLCAnLW1hJywgJzIwMCcsICctbWV0YWxfYmluZGluZycsICctaW1hZScsICc8aW5maWxlLm1hZT4nLCAnLW9tYWUnLCAnPG91dGZpbGUubWFlPic=

> <r_lp_tautomer_probability>
1

> <r_epik_Ionization_Penalty>
3.27035e-05

> <r_epik_Ionization_Penalty_Charging>
1.6965e-11

> <r_epik_Ionization_Penalty_Neutral>
3.27035e-05

> <r_epik_State_Penalty>
-0

> <r_epik_Charging_Adjusted_Penalty>
1.6965e-11

> <i_epik_Tot_Q>
0

> <i_epik_Tot_abs_Q>
0

> <r_epik_Metal_State_Penalty>
-0

> <b_epik_Metal_Only>
0

> <s_lp_Force_Field>
OPLS_2005

> <r_lp_Energy>
27.1353

> <b_lp_Chiralities_Consistent>
1

> <s_lp_Variant>
AV-unprocessed.smi:437-1

> <Gold.Version>
5.8.1

> <Gold.Id.Protein>
6NUR|6NUR_protein|mol2

> <Gold.PLP.Fitness>
47.2443

> <Gold.PLP.PLP>
-42.3213

> <Gold.PLP.part.hbond>
-2.0000

> <Gold.PLP.part.metal>
0.0000

> <Gold.PLP.part.buried>
-6.5996

> <Gold.PLP.part.nonpolar>
-32.8380

> <Gold.PLP.part.repulsive>
0.4987

> <Gold.PLP.ligand.clash>
0.4160

> <Gold.PLP.ligand.torsion>
0.2593

> <Gold.PLP.Chemscore.Hbond>
1.9440

> <Gold.PLP.Chemscore.CHOScore>
0.0000

> <Gold.PLP.Chemscore.Metal>
0.0000

> <Gold.Chemscore.Hbonds>
donor molecule, donor type, donor heavy atom, donor atom, acceptor molecule, acceptor atom, score
      P1  H  6934  6946       L1    23  0.50
      P1  H  7997  8008       L1    10  1.00

> <Gold.PLP.Chemscore.Internal.Correction>
0.0257

> <Gold.Rescore>
     Score         DG    S(hbond)    S(metal)    S(lipo)     H(rot)  DE(clash)    DE(int)     intcor
     16.21     -18.34       1.59        0.00      98.83       1.57       0.40       1.73       ----

> <Gold.Chemscore.Fitness>
16.2147

> <Gold.Chemscore.DG>
-18.3449

> <Gold.Chemscore.ZeroCoef>
-5.4800

> <Gold.Chemscore.Hbond>
1.5898

> <Gold.Chemscore.Metal>
0.0000

> <Gold.Chemscore.Lipo>
98.8285

> <Gold.Chemscore.Internal_Hbond>
0.0000

> <Gold.Chemscore.DEClash>
0.3959

> <Gold.Chemscore.DEInternal>
1.7342

> <Gold.Chemscore.Rot>
1.5656

> <Gold.Chemscore.Internal.Correction>
   9.000000E+99

> <Gold.Chemscore.Hbonds>
donor molecule, donor type, donor heavy atom, donor atom, acceptor molecule, acceptor atom, score
      P1  H  6934  6946       L1    23  0.47
      P1  H  7997  8008       L1    10  0.94

> <Gold.Chemscore.Hbond.Weighted>
-5.3098

> <Gold.Chemscore.Metal.Weighted>
-0.0000

> <Gold.Chemscore.Lipo.Weighted>
-11.5629

> <Gold.Chemscore.Internal_Hbond.Weighted>
0.0000

> <Gold.Chemscore.DEClash.Weighted>
0.3959

> <Gold.Chemscore.DEInternal.Weighted>
1.7342

> <Gold.Chemscore.Rot.Weighted>
4.0079

> <Gold.Chemscore.Internal.Correction.Weighted>
   9.000000E+99

> <Gold.Protein.RotatedTorsions>
[ 6907 6896 6895 6894 ] final -125.90 input  -60.11 | X-H torsion
[ 7974 7965 7964 7962 ] final    6.43 input  175.53 | X-H torsion
[ 8008 7997 7996 7995 ] final  -37.96 input   59.86 | X-H torsion
[ 10167 10162 10161 10158 ] final   52.86 input  -65.29 | X-H torsion
[ 10718 10713 10712 10709 ] final  169.78 input   66.30 | X-H torsion
[ 10763 10752 10751 10750 ] final  -45.25 input  -60.55 | X-H torsion
[ 11005 11000 10999 10996 ] final   69.77 input  -57.11 | X-H torsion

> <Gold.Protein.ActiveResidues>
 VAL166  LYS551  ARG553  GLY616  TRP617  ASP618  TYR619  PRO620  LYS621  CYS622 
 ASP623  PHE694  ASN695  SER759  ASP760  ASP761  ALA762  ILE779  LEU786  VAL792 
 PHE793  MET794  SER795  GLU796  ALA797  LYS798  CYS799  TRP800  GLU811  SER814 

> <Gold.Protein.RotatedAtoms>
  150.8914  133.7238  159.2903 H   0  0  0  0  0  0  0  0  0  0  0  0  # atno 6907 bound_to 6896
  151.4787  135.1049  159.9781 H   0  0  0  0  0  0  0  0  0  0  0  0  # atno 6908 bound_to 6896
  152.4822  133.8236  159.7122 H   0  0  0  0  0  0  0  0  0  0  0  0  # atno 6909 bound_to 6896
  146.2435  140.0235  142.8396 H   0  0  0  0  0  0  0  0  0  0  0  0  # atno 7974 bound_to 7965
  154.4044  140.1590  156.2621 H   0  0  0  0  0  0  0  0  0  0  0  0  # atno 8008 bound_to 7997
  155.9027  140.3432  155.6016 H   0  0  0  0  0  0  0  0  0  0  0  0  # atno 8009 bound_to 7997
  155.7429  140.0795  157.2228 H   0  0  0  0  0  0  0  0  0  0  0  0  # atno 8010 bound_to 7997
  140.2469  144.3522  150.6361 H   0  0  0  0  0  0  0  0  0  0  0  0  # atno 10167 bound_to 10162
  157.0177  131.0223  151.2784 H   0  0  0  0  0  0  0  0  0  0  0  0  # atno 10718 bound_to 10713
  154.0255  135.6663  153.4776 H   0  0  0  0  0  0  0  0  0  0  0  0  # atno 10763 bound_to 10752
  153.0562  135.5054  154.7983 H   0  0  0  0  0  0  0  0  0  0  0  0  # atno 10764 bound_to 10752
  154.6911  135.3061  154.9443 H   0  0  0  0  0  0  0  0  0  0  0  0  # atno 10765 bound_to 10752
  139.9635  134.7020  156.0595 H   0  0  0  0  0  0  0  0  0  0  0  0  # atno 11005 bound_to 11000
  145.1220  140.9468  143.4595 LP  0  0  0  0  0  0  0  0  0  0  0  0  # atno 17320 bound_to 7965
  145.0472  139.3211  143.5947 LP  0  0  0  0  0  0  0  0  0  0  0  0  # atno 17321 bound_to 7965
  140.6070  143.2168  151.6960 LP  0  0  0  0  0  0  0  0  0  0  0  0  # atno 17342 bound_to 10162
  139.5059  144.3702  152.0478 LP  0  0  0  0  0  0  0  0  0  0  0  0  # atno 17343 bound_to 10162
  157.5273  130.8036  149.7876 LP  0  0  0  0  0  0  0  0  0  0  0  0  # atno 17370 bound_to 10713
  156.0113  130.3832  150.2255 LP  0  0  0  0  0  0  0  0  0  0  0  0  # atno 17371 bound_to 10713
  141.1314  133.6585  156.3474 LP  0  0  0  0  0  0  0  0  0  0  0  0  # atno 17394 bound_to 11000
  140.5448  134.6085  157.5390 LP  0  0  0  0  0  0  0  0  0  0  0  0  # atno 17395 bound_to 11000

$$$$
