AV-unprocessed.smi:2279|AV-procd|sdf|9184|dock4
  -GOLD-   2272012403D 1   1.00000     0.00000
 Structure written by MMmdl.
 58 60  0  0  0  0  0  0  0  0  3 V2000
  151.2834  144.8594  159.9707 C   0  0  0  0  0  0  0  0  0  0  0  0
  151.7479  143.4296  159.7889 C   0  0  0  0  0  0  0  0  0  0  0  0
  152.5698  142.8094  160.7493 C   0  0  0  0  0  0  0  0  0  0  0  0
  152.9703  141.4784  160.5214 C   0  0  0  0  0  0  0  0  0  0  0  0
  153.8489  140.7483  161.5152 C   0  0  0  0  0  0  0  0  0  0  0  0
  152.6063  140.7766  159.4269 N   0  0  0  0  0  0  0  0  0  0  0  0
  151.8145  141.3634  158.4953 C   0  0  0  0  0  0  0  0  0  0  0  0
  151.3660  140.7063  157.3185 N   0  0  0  0  0  0  0  0  0  0  0  0
  150.1692  140.8150  156.7150 C   0  0  0  0  0  0  0  0  0  0  0  0
  149.2181  141.4757  157.1340 O   0  0  0  0  0  0  0  0  0  0  0  0
  150.1227  140.0909  155.5866 N   0  0  0  0  0  0  0  0  0  0  0  0
  148.9586  139.9785  154.7121 C   0  0  2  0  0  0  0  0  0  0  0  0
  148.4987  141.3711  154.2389 C   0  0  0  0  0  0  0  0  0  0  0  0
  147.1826  141.2857  153.4392 C   0  0  0  0  0  0  0  0  0  0  0  0
  146.0984  140.6066  154.2078 N   0  3  2  0  0  0  0  0  0  0  0  0
  145.5040  141.4231  155.3219 C   0  0  2  0  0  0  0  0  0  0  0  0
  144.3087  140.7199  156.0149 C   0  0  0  0  0  0  0  0  0  0  0  0
  143.6535  141.5970  157.0955 C   0  0  0  0  0  0  0  0  0  0  0  0
  143.2122  142.8955  156.5368 N   0  3  1  0  0  0  0  0  0  0  0  0
  142.4727  143.7122  157.5236 C   0  0  0  0  0  0  0  0  0  0  0  0
  144.3422  143.6320  155.9251 C   0  0  0  0  0  0  0  0  0  0  0  0
  145.0110  142.8020  154.8159 C   0  0  0  0  0  0  0  0  0  0  0  0
  146.5440  139.2311  154.5736 C   0  0  0  0  0  0  0  0  0  0  0  0
  147.8144  139.2570  155.4443 C   0  0  0  0  0  0  0  0  0  0  0  0
  151.3640  142.6938  158.6496 C   0  0  0  0  0  0  0  0  0  0  0  0
  151.5510  145.2400  160.9568 H   0  0  0  0  0  0  0  0  0  0  0  0
  150.2004  144.9237  159.8641 H   0  0  0  0  0  0  0  0  0  0  0  0
  151.7424  145.5028  159.2197 H   0  0  0  0  0  0  0  0  0  0  0  0
  152.8842  143.3391  161.6368 H   0  0  0  0  0  0  0  0  0  0  0  0
  153.9643  141.3211  162.4358 H   0  0  0  0  0  0  0  0  0  0  0  0
  154.8390  140.5791  161.0911 H   0  0  0  0  0  0  0  0  0  0  0  0
  153.4136  139.7817  161.7704 H   0  0  0  0  0  0  0  0  0  0  0  0
  152.0362  140.0885  156.8853 H   0  0  0  0  0  0  0  0  0  0  0  0
  150.9505  139.5806  155.3156 H   0  0  0  0  0  0  0  0  0  0  0  0
  149.2184  139.3811  153.8356 H   0  0  0  0  0  0  0  0  0  0  0  0
  148.3758  142.0377  155.0929 H   0  0  0  0  0  0  0  0  0  0  0  0
  149.2722  141.8226  153.6163 H   0  0  0  0  0  0  0  0  0  0  0  0
  146.8842  142.2707  153.0879 H   0  0  0  0  0  0  0  0  0  0  0  0
  147.3621  140.7097  152.5301 H   0  0  0  0  0  0  0  0  0  0  0  0
  146.2690  141.5896  156.0806 H   0  0  0  0  0  0  0  0  0  0  0  0
  143.5611  140.4378  155.2718 H   0  0  0  0  0  0  0  0  0  0  0  0
  144.6284  139.8016  156.5060 H   0  0  0  0  0  0  0  0  0  0  0  0
  142.7956  141.0721  157.5179 H   0  0  0  0  0  0  0  0  0  0  0  0
  144.3539  141.7694  157.9147 H   0  0  0  0  0  0  0  0  0  0  0  0
  143.1098  143.9797  158.3677 H   0  0  0  0  0  0  0  0  0  0  0  0
  141.6096  143.1659  157.9061 H   0  0  0  0  0  0  0  0  0  0  0  0
  142.1063  144.6318  157.0661 H   0  0  0  0  0  0  0  0  0  0  0  0
  143.9794  144.5717  155.5065 H   0  0  0  0  0  0  0  0  0  0  0  0
  145.0723  143.8892  156.6944 H   0  0  0  0  0  0  0  0  0  0  0  0
  145.8333  143.3971  154.4232 H   0  0  0  0  0  0  0  0  0  0  0  0
  144.3087  142.6630  153.9925 H   0  0  0  0  0  0  0  0  0  0  0  0
  145.7523  138.6516  155.0446 H   0  0  0  0  0  0  0  0  0  0  0  0
  146.7613  138.6904  153.6512 H   0  0  0  0  0  0  0  0  0  0  0  0
  148.1157  138.2361  155.6825 H   0  0  0  0  0  0  0  0  0  0  0  0
  147.6056  139.7444  156.3974 H   0  0  0  0  0  0  0  0  0  0  0  0
  150.7324  143.1498  157.9007 H   0  0  0  0  0  0  0  0  0  0  0  0
  145.3415  140.4729  153.5519 H   0  0  0  0  0  0  0  0  0  0  0  0
  142.5602  142.6886  155.7934 H   0  0  0  0  0  0  0  0  0  0  0  0
  1  2  1  0  0  0  0
  1 26  1  0  0  0  0
  1 27  1  0  0  0  0
  1 28  1  0  0  0  0
  2 25  1  0  0  0  0
  2  3  2  0  0  0  0
  3  4  1  0  0  0  0
  3 29  1  0  0  0  0
  4  5  1  0  0  0  0
  4  6  2  0  0  0  0
  5 30  1  0  0  0  0
  5 31  1  0  0  0  0
  5 32  1  0  0  0  0
  6  7  1  0  0  0  0
  7  8  1  0  0  0  0
  7 25  2  0  0  0  0
  8  9  1  0  0  0  0
  8 33  1  0  0  0  0
  9 10  2  0  0  0  0
  9 11  1  0  0  0  0
 11 12  1  0  0  0  0
 11 34  1  0  0  0  0
 12 24  1  0  0  0  0
 12 13  1  0  0  0  0
 12 35  1  0  0  0  0
 13 14  1  0  0  0  0
 13 36  1  0  0  0  0
 13 37  1  0  0  0  0
 14 15  1  0  0  0  0
 14 38  1  0  0  0  0
 14 39  1  0  0  0  0
 15 16  1  0  0  0  0
 15 23  1  0  0  0  0
 15 57  1  0  0  0  0
 16 22  1  0  0  0  0
 16 17  1  0  0  0  0
 16 40  1  0  0  0  0
 17 18  1  0  0  0  0
 17 41  1  0  0  0  0
 17 42  1  0  0  0  0
 18 19  1  0  0  0  0
 18 43  1  0  0  0  0
 18 44  1  0  0  0  0
 19 20  1  0  0  0  0
 19 21  1  0  0  0  0
 19 58  1  0  0  0  0
 20 45  1  0  0  0  0
 20 46  1  0  0  0  0
 20 47  1  0  0  0  0
 21 22  1  0  0  0  0
 21 48  1  0  0  0  0
 21 49  1  0  0  0  0
 22 50  1  0  0  0  0
 22 51  1  0  0  0  0
 23 24  1  0  0  0  0
 23 52  1  0  0  0  0
 23 53  1  0  0  0  0
 24 54  1  0  0  0  0
 24 55  1  0  0  0  0
 25 56  1  0  0  0  0
M  CHG  1  15   1
M  CHG  1  19   1
M  END
> <s_m_source_file>
AV-unprocessed.smi

> <i_m_source_file_index>
2279

> <i_lp_mmshare_version>
43012

> <i_f3d_flags>
0

> <s_epik_input>
W0NIM11jMVtjSF1jKFtDSDNdKW5jKFtjSF0xKVtOSF1DKD1PKVtOSF1bQ0hdMltDSDJdW0NIMl1OKFtDSDJdW0NIMl0yKVtDSF0zW0NIMl1bQ0gyXU4oW0NIM10pW0NIMl1bQ0gyXTM=

> <s_epik_cmdline>
J2VwaWtfcHl0aG9uJywgJy1waCcsICc3LjAnLCAnLXRuJywgJzgnLCAnLW1hJywgJzIwMCcsICctbWV0YWxfYmluZGluZycsICctaW1hZScsICc8aW5maWxlLm1hZT4nLCAnLW9tYWUnLCAnPG91dGZpbGUubWFlPic=

> <r_epik_Ionization_Penalty>
0.180973

> <r_epik_Ionization_Penalty_Charging>
0.180787

> <r_epik_Ionization_Penalty_Neutral>
0.000186186

> <r_epik_State_Penalty>
0.153592

> <r_epik_Charging_Adjusted_Penalty>
0.334379

> <i_epik_Tot_Q>
2

> <i_epik_Tot_abs_Q>
2

> <r_epik_Metal_State_Penalty>
0.153604

> <b_epik_Metal_Only>
0

> <s_lp_Force_Field>
OPLS_2005

> <r_lp_Energy>
44.6219

> <b_lp_Chiralities_Consistent>
1

> <s_lp_Variant>
AV-unprocessed.smi:2279-2

> <Gold.Version>
5.8.1

> <Gold.Id.Protein>
6NUR|6NUR_protein|mol2

> <Gold.PLP.Fitness>
48.4726

> <Gold.PLP.PLP>
-43.0458

> <Gold.PLP.part.hbond>
-1.0000

> <Gold.PLP.part.metal>
0.0000

> <Gold.PLP.part.buried>
-6.3151

> <Gold.PLP.part.nonpolar>
-36.3315

> <Gold.PLP.part.repulsive>
0.2784

> <Gold.PLP.ligand.clash>
0.0000

> <Gold.PLP.ligand.torsion>
0.3126

> <Gold.PLP.Chemscore.Hbond>
2.0000

> <Gold.PLP.Chemscore.CHOScore>
0.0000

> <Gold.PLP.Chemscore.Metal>
0.0000

> <Gold.Chemscore.Hbonds>
donor molecule, donor type, donor heavy atom, donor atom, acceptor molecule, acceptor atom, score
      L1  H    15    57       P1 10175  2.00

> <Gold.PLP.Chemscore.Internal.Correction>
0.0520

> <Gold.Rescore>
     Score         DG    S(hbond)    S(metal)    S(lipo)     H(rot)  DE(clash)    DE(int)     intcor
     16.24     -18.92       0.98        0.00     113.50       1.21       0.09       2.60       ----

> <Gold.Chemscore.Fitness>
16.2359

> <Gold.Chemscore.DG>
-18.9214

> <Gold.Chemscore.ZeroCoef>
-5.4800

> <Gold.Chemscore.Hbond>
0.9756

> <Gold.Chemscore.Metal>
0.0000

> <Gold.Chemscore.Lipo>
113.4962

> <Gold.Chemscore.Internal_Hbond>
0.0000

> <Gold.Chemscore.DEClash>
0.0882

> <Gold.Chemscore.DEInternal>
2.5973

> <Gold.Chemscore.Rot>
1.2095

> <Gold.Chemscore.Internal.Correction>
   9.000000E+99

> <Gold.Chemscore.Hbonds>
donor molecule, donor type, donor heavy atom, donor atom, acceptor molecule, acceptor atom, score
      L1  H    15    57       P1 10175  0.97

> <Gold.Chemscore.Hbond.Weighted>
-3.2586

> <Gold.Chemscore.Metal.Weighted>
-0.0000

> <Gold.Chemscore.Lipo.Weighted>
-13.2791

> <Gold.Chemscore.Internal_Hbond.Weighted>
0.0000

> <Gold.Chemscore.DEClash.Weighted>
0.0882

> <Gold.Chemscore.DEInternal.Weighted>
2.5973

> <Gold.Chemscore.Rot.Weighted>
3.0963

> <Gold.Chemscore.Internal.Correction.Weighted>
   9.000000E+99

> <Gold.Protein.RotatedTorsions>
[ 6907 6896 6895 6894 ] final -153.10 input  -60.11 | X-H torsion
[ 7974 7965 7964 7962 ] final  118.50 input  175.53 | X-H torsion
[ 8008 7997 7996 7995 ] final   30.47 input   59.86 | X-H torsion
[ 10167 10162 10161 10158 ] final  -77.35 input  -65.29 | X-H torsion
[ 10718 10713 10712 10709 ] final    1.30 input   66.30 | X-H torsion
[ 10763 10752 10751 10750 ] final -114.64 input  -60.55 | X-H torsion
[ 11005 11000 10999 10996 ] final  101.65 input  -57.11 | X-H torsion

> <Gold.Protein.ActiveResidues>
 VAL166  LYS551  ARG553  GLY616  TRP617  ASP618  TYR619  PRO620  LYS621  CYS622 
 ASP623  PHE694  ASN695  SER759  ASP760  ASP761  ALA762  ILE779  LEU786  VAL792 
 PHE793  MET794  SER795  GLU796  ALA797  LYS798  CYS799  TRP800  GLU811  SER814 

> <Gold.Protein.RotatedAtoms>
  151.2376  133.4417  159.2605 H   0  0  0  0  0  0  0  0  0  0  0  0  # atno 6907 bound_to 6896
  151.0736  134.9814  159.8331 H   0  0  0  0  0  0  0  0  0  0  0  0  # atno 6908 bound_to 6896
  152.5415  134.2320  159.8881 H   0  0  0  0  0  0  0  0  0  0  0  0  # atno 6909 bound_to 6896
  145.1545  139.3191  143.4549 H   0  0  0  0  0  0  0  0  0  0  0  0  # atno 7974 bound_to 7965
  155.0910  140.3220  155.4574 H   0  0  0  0  0  0  0  0  0  0  0  0  # atno 8008 bound_to 7997
  156.2742  140.2078  156.5983 H   0  0  0  0  0  0  0  0  0  0  0  0  # atno 8009 bound_to 7997
  154.6904  140.0517  157.0344 H   0  0  0  0  0  0  0  0  0  0  0  0  # atno 8010 bound_to 7997
  140.4778  143.2410  151.8106 H   0  0  0  0  0  0  0  0  0  0  0  0  # atno 10167 bound_to 10162
  156.8462  130.5538  149.5673 H   0  0  0  0  0  0  0  0  0  0  0  0  # atno 10718 bound_to 10713
  154.8448  135.4410  154.1537 H   0  0  0  0  0  0  0  0  0  0  0  0  # atno 10763 bound_to 10752
  153.2692  135.6943  153.7505 H   0  0  0  0  0  0  0  0  0  0  0  0  # atno 10764 bound_to 10752
  153.6752  135.3412  155.3139 H   0  0  0  0  0  0  0  0  0  0  0  0  # atno 10765 bound_to 10752
  139.8774  134.9192  156.4939 H   0  0  0  0  0  0  0  0  0  0  0  0  # atno 11005 bound_to 11000
  146.3490  140.1631  142.8590 LP  0  0  0  0  0  0  0  0  0  0  0  0  # atno 17320 bound_to 7965
  145.0396  140.8935  143.5060 LP  0  0  0  0  0  0  0  0  0  0  0  0  # atno 17321 bound_to 7965
  139.4828  144.4811  151.9305 LP  0  0  0  0  0  0  0  0  0  0  0  0  # atno 17342 bound_to 10162
  140.3897  144.2631  150.5901 LP  0  0  0  0  0  0  0  0  0  0  0  0  # atno 17343 bound_to 10162
  156.0853  130.5853  150.9637 LP  0  0  0  0  0  0  0  0  0  0  0  0  # atno 17370 bound_to 10713
  157.6328  131.0919  150.8407 LP  0  0  0  0  0  0  0  0  0  0  0  0  # atno 17371 bound_to 10713
  140.8638  133.8039  155.9293 LP  0  0  0  0  0  0  0  0  0  0  0  0  # atno 17394 bound_to 11000
  140.9022  134.2364  157.5035 LP  0  0  0  0  0  0  0  0  0  0  0  0  # atno 17395 bound_to 11000

$$$$
