AV-unprocessed.smi:2078|AV-procd|sdf|8472|dock6
  -GOLD-   2272011173D 1   1.00000     0.00000
 Structure written by MMmdl.
 41 42  0  0  0  0  0  0  0  0  3 V2000
  152.0952  145.3566  159.4218 C   0  0  0  0  0  0  0  0  0  0  0  0
  151.6983  144.0878  158.7475 C   0  0  0  0  0  0  0  0  0  0  0  0
  151.5308  143.7480  157.4346 C   0  0  0  0  0  0  0  0  0  0  0  0
  151.1423  142.3834  157.5026 C   0  0  0  0  0  0  0  0  0  0  0  0
  150.8655  141.6511  156.3182 N   0  0  0  0  0  0  0  0  0  0  0  0
  151.4169  140.5016  155.8887 C   0  0  0  0  0  0  0  0  0  0  0  0
  152.3101  139.9523  156.5448 O   0  0  0  0  0  0  0  0  0  0  0  0
  150.8803  140.0824  154.7093 N   0  5  0  0  0  0  0  0  0  0  0  0
  149.4487  139.9750  154.4348 C   0  0  0  0  0  0  0  0  0  0  0  0
  148.8654  141.3584  154.0838 C   0  0  0  0  0  0  0  0  0  0  0  0
  147.5137  141.5446  154.6733 N   0  3  2  0  0  0  0  0  0  0  0  0
  146.7488  142.6657  154.0611 C   0  0  0  0  0  0  0  0  0  0  0  0
  145.3022  142.6917  154.5783 C   0  0  0  0  0  0  0  0  0  0  0  0
  145.2679  142.7720  156.1112 C   0  0  0  0  0  0  0  0  0  0  0  0
  146.1126  141.6536  156.7501 C   0  0  1  0  0  0  0  0  0  0  0  0
  145.4386  140.2731  156.6599 C   0  0  0  0  0  0  0  0  0  0  0  0
  147.5369  141.6438  156.1570 C   0  0  0  0  0  0  0  0  0  0  0  0
  151.0807  141.9309  158.7464 N   0  0  0  0  0  0  0  0  0  0  0  0
  151.4357  143.0207  159.5502 O   0  0  0  0  0  0  0  0  0  0  0  0
  152.7983  145.9185  158.8068 H   0  0  0  0  0  0  0  0  0  0  0  0
  152.5721  145.1570  160.3816 H   0  0  0  0  0  0  0  0  0  0  0  0
  151.2237  145.9864  159.6005 H   0  0  0  0  0  0  0  0  0  0  0  0
  151.6633  144.3762  156.5663 H   0  0  0  0  0  0  0  0  0  0  0  0
  150.1479  142.0395  155.7244 H   0  0  0  0  0  0  0  0  0  0  0  0
  149.2362  139.2779  153.6230 H   0  0  0  0  0  0  0  0  0  0  0  0
  148.9137  139.5807  155.2991 H   0  0  0  0  0  0  0  0  0  0  0  0
  149.5470  142.1205  154.4650 H   0  0  0  0  0  0  0  0  0  0  0  0
  148.8257  141.5073  153.0033 H   0  0  0  0  0  0  0  0  0  0  0  0
  147.2453  143.6111  154.2849 H   0  0  0  0  0  0  0  0  0  0  0  0
  146.7389  142.5653  152.9750 H   0  0  0  0  0  0  0  0  0  0  0  0
  144.7711  143.5427  154.1510 H   0  0  0  0  0  0  0  0  0  0  0  0
  144.7736  141.8006  154.2385 H   0  0  0  0  0  0  0  0  0  0  0  0
  145.6605  143.7404  156.4243 H   0  0  0  0  0  0  0  0  0  0  0  0
  144.2391  142.7297  156.4707 H   0  0  0  0  0  0  0  0  0  0  0  0
  146.2026  141.8819  157.8128 H   0  0  0  0  0  0  0  0  0  0  0  0
  145.3340  139.9369  155.6282 H   0  0  0  0  0  0  0  0  0  0  0  0
  144.4435  140.2924  157.1049 H   0  0  0  0  0  0  0  0  0  0  0  0
  146.0202  139.5198  157.1920 H   0  0  0  0  0  0  0  0  0  0  0  0
  148.0980  140.8075  156.5774 H   0  0  0  0  0  0  0  0  0  0  0  0
  148.0680  142.5527  156.4441 H   0  0  0  0  0  0  0  0  0  0  0  0
  147.0095  140.6956  154.4611 H   0  0  0  0  0  0  0  0  0  0  0  0
  1  2  1  0  0  0  0
  1 20  1  0  0  0  0
  1 21  1  0  0  0  0
  1 22  1  0  0  0  0
  2 19  1  0  0  0  0
  2  3  2  0  0  0  0
  3  4  1  0  0  0  0
  3 23  1  0  0  0  0
  4  5  1  0  0  0  0
  4 18  2  0  0  0  0
  5  6  1  0  0  0  0
  5 24  1  0  0  0  0
  6  7  2  0  0  0  0
  6  8  1  0  0  0  0
  8  9  1  0  0  0  0
  9 10  1  0  0  0  0
  9 25  1  0  0  0  0
  9 26  1  0  0  0  0
 10 11  1  0  0  0  0
 10 27  1  0  0  0  0
 10 28  1  0  0  0  0
 11 17  1  0  0  0  0
 11 12  1  0  0  0  0
 11 41  1  0  0  0  0
 12 13  1  0  0  0  0
 12 29  1  0  0  0  0
 12 30  1  0  0  0  0
 13 14  1  0  0  0  0
 13 31  1  0  0  0  0
 13 32  1  0  0  0  0
 14 15  1  0  0  0  0
 14 33  1  0  0  0  0
 14 34  1  0  0  0  0
 15 16  1  0  0  0  0
 15 17  1  0  0  0  0
 15 35  1  0  0  0  0
 16 36  1  0  0  0  0
 16 37  1  0  0  0  0
 16 38  1  0  0  0  0
 17 39  1  0  0  0  0
 17 40  1  0  0  0  0
 18 19  1  0  0  0  0
M  CHG  1   8  -1
M  CHG  1  11   1
M  END
> <s_m_source_file>
AV-unprocessed.smi

> <i_m_source_file_index>
2078

> <i_lp_mmshare_version>
43012

> <i_f3d_flags>
0

> <s_epik_input>
W0NIM11jMVtjSF1jKG5vMSlbTkhdQyg9TylbTkhdW0NIMl1bQ0gyXU4yW0NIMl1bQ0gyXVtDSDJdW0NAQEhdKFtDSDNdKVtDSDJdMg==

> <s_epik_cmdline>
J2VwaWtfcHl0aG9uJywgJy1waCcsICc3LjAnLCAnLXRuJywgJzgnLCAnLW1hJywgJzIwMCcsICctbWV0YWxfYmluZGluZycsICctaW1hZScsICc8aW5maWxlLm1hZT4nLCAnLW9tYWUnLCAnPG91dGZpbGUubWFlPic=

> <r_epik_Ionization_Penalty>
6.76934

> <r_epik_Ionization_Penalty_Charging>
6.76934

> <r_epik_Ionization_Penalty_Neutral>
5.77849e-06

> <r_epik_State_Penalty>
6.79457

> <r_epik_Charging_Adjusted_Penalty>
13.5639

> <i_epik_Tot_Q>
0

> <i_epik_Tot_abs_Q>
2

> <r_epik_Metal_State_Penalty>
2.72837

> <b_epik_Metal_Only>
1

> <s_lp_Force_Field>
OPLS_2005

> <r_lp_Energy>
14.163

> <b_lp_Chiralities_Consistent>
1

> <s_lp_Variant>
AV-unprocessed.smi:2078-10

> <Gold.Version>
5.8.1

> <Gold.Id.Protein>
6NUR|6NUR_protein|mol2

> <Gold.PLP.Fitness>
39.6303

> <Gold.PLP.PLP>
-36.4909

> <Gold.PLP.part.hbond>
-2.0000

> <Gold.PLP.part.metal>
0.0000

> <Gold.PLP.part.buried>
-4.5487

> <Gold.PLP.part.nonpolar>
-28.9979

> <Gold.PLP.part.repulsive>
0.2851

> <Gold.PLP.ligand.clash>
0.0000

> <Gold.PLP.ligand.torsion>
1.4443

> <Gold.PLP.Chemscore.Hbond>
2.0000

> <Gold.PLP.Chemscore.CHOScore>
0.0000

> <Gold.PLP.Chemscore.Metal>
0.0000

> <Gold.Chemscore.Hbonds>
donor molecule, donor type, donor heavy atom, donor atom, acceptor molecule, acceptor atom, score
      P1  H  7989  7998       L1     8  1.00
      P1  H  7997  8010       L1     7  0.99

> <Gold.PLP.Chemscore.Internal.Correction>
0.0281

> <Gold.Rescore>
     Score         DG    S(hbond)    S(metal)    S(lipo)     H(rot)  DE(clash)    DE(int)     intcor
     13.72     -15.27       1.74        0.00      67.60       1.54       0.09       1.46       ----

> <Gold.Chemscore.Fitness>
13.7167

> <Gold.Chemscore.DG>
-15.2689

> <Gold.Chemscore.ZeroCoef>
-5.4800

> <Gold.Chemscore.Hbond>
1.7438

> <Gold.Chemscore.Metal>
0.0000

> <Gold.Chemscore.Lipo>
67.5989

> <Gold.Chemscore.Internal_Hbond>
0.0000

> <Gold.Chemscore.DEClash>
0.0899

> <Gold.Chemscore.DEInternal>
1.4623

> <Gold.Chemscore.Rot>
1.5409

> <Gold.Chemscore.Internal.Correction>
   9.000000E+99

> <Gold.Chemscore.Hbonds>
donor molecule, donor type, donor heavy atom, donor atom, acceptor molecule, acceptor atom, score
      P1  H  7989  7998       L1     8  0.48
      P1  H  7997  8010       L1     7  0.92

> <Gold.Chemscore.Hbond.Weighted>
-5.8245

> <Gold.Chemscore.Metal.Weighted>
-0.0000

> <Gold.Chemscore.Lipo.Weighted>
-7.9091

> <Gold.Chemscore.Internal_Hbond.Weighted>
0.0000

> <Gold.Chemscore.DEClash.Weighted>
0.0899

> <Gold.Chemscore.DEInternal.Weighted>
1.4623

> <Gold.Chemscore.Rot.Weighted>
3.9446

> <Gold.Chemscore.Internal.Correction.Weighted>
   9.000000E+99

> <Gold.Protein.RotatedTorsions>
[ 6907 6896 6895 6894 ] final -153.05 input  -60.11 | X-H torsion
[ 7974 7965 7964 7962 ] final   36.70 input  175.53 | X-H torsion
[ 8008 7997 7996 7995 ] final   72.24 input   59.86 | X-H torsion
[ 10167 10162 10161 10158 ] final  103.75 input  -65.29 | X-H torsion
[ 10718 10713 10712 10709 ] final  167.05 input   66.30 | X-H torsion
[ 10763 10752 10751 10750 ] final  -19.15 input  -60.55 | X-H torsion
[ 11005 11000 10999 10996 ] final   77.47 input  -57.11 | X-H torsion

> <Gold.Protein.ActiveResidues>
 VAL166  LYS551  ARG553  GLY616  TRP617  ASP618  TYR619  PRO620  LYS621  CYS622 
 ASP623  PHE694  ASN695  SER759  ASP760  ASP761  ALA762  ILE779  LEU786  VAL792 
 PHE793  MET794  SER795  GLU796  ALA797  LYS798  CYS799  TRP800  GLU811  SER814 

> <Gold.Protein.RotatedAtoms>
  151.2368  133.4421  159.2605 H   0  0  0  0  0  0  0  0  0  0  0  0  # atno 6907 bound_to 6896
  151.0743  134.9818  159.8334 H   0  0  0  0  0  0  0  0  0  0  0  0  # atno 6908 bound_to 6896
  152.5416  134.2311  159.8878 H   0  0  0  0  0  0  0  0  0  0  0  0  # atno 6909 bound_to 6896
  146.1192  139.5985  142.9301 H   0  0  0  0  0  0  0  0  0  0  0  0  # atno 7974 bound_to 7965
  155.7658  140.3485  155.5221 H   0  0  0  0  0  0  0  0  0  0  0  0  # atno 8008 bound_to 7997
  155.8869  140.1011  157.1467 H   0  0  0  0  0  0  0  0  0  0  0  0  # atno 8009 bound_to 7997
  154.4030  140.1311  156.4254 H   0  0  0  0  0  0  0  0  0  0  0  0  # atno 8010 bound_to 7997
  139.7236  144.7052  151.0834 H   0  0  0  0  0  0  0  0  0  0  0  0  # atno 10167 bound_to 10162
  157.0571  131.0329  151.2660 H   0  0  0  0  0  0  0  0  0  0  0  0  # atno 10718 bound_to 10713
  153.6004  135.6999  153.5387 H   0  0  0  0  0  0  0  0  0  0  0  0  # atno 10763 bound_to 10752
  153.3102  135.4103  155.1329 H   0  0  0  0  0  0  0  0  0  0  0  0  # atno 10764 bound_to 10752
  154.8583  135.3670  154.5539 H   0  0  0  0  0  0  0  0  0  0  0  0  # atno 10765 bound_to 10752
  139.9253  134.7685  156.1526 H   0  0  0  0  0  0  0  0  0  0  0  0  # atno 11005 bound_to 11000
  145.5502  141.0414  143.2282 LP  0  0  0  0  0  0  0  0  0  0  0  0  # atno 17320 bound_to 7965
  144.7581  139.7024  143.7245 LP  0  0  0  0  0  0  0  0  0  0  0  0  # atno 17321 bound_to 7965
  140.7758  143.5134  150.9624 LP  0  0  0  0  0  0  0  0  0  0  0  0  # atno 17342 bound_to 10162
  139.8822  143.7058  152.3155 LP  0  0  0  0  0  0  0  0  0  0  0  0  # atno 17343 bound_to 10162
  157.4984  130.7865  149.7579 LP  0  0  0  0  0  0  0  0  0  0  0  0  # atno 17370 bound_to 10713
  155.9990  130.3891  150.2681 LP  0  0  0  0  0  0  0  0  0  0  0  0  # atno 17371 bound_to 10713
  141.0806  133.6756  156.2328 LP  0  0  0  0  0  0  0  0  0  0  0  0  # atno 17394 bound_to 11000
  140.6354  134.5221  157.5564 LP  0  0  0  0  0  0  0  0  0  0  0  0  # atno 17395 bound_to 11000

$$$$
