#       Name:                AV-unprocessed.smi:711
#       Creating user name   scv26
#       Creation time:       Fri Mar 27 00:45:30 2020


#       File generated by GOLD software.
#

@<TRIPOS>MOLECULE
AV-unprocessed.smi:711
    35    36     1
SMALL
NO_CHARGES


@<TRIPOS>ATOM
      1 ****        -2.7214   5.1716  -0.4253 O.2            1 S1                 0.0000
      2 ****        -2.2908   4.0254  -0.3147 C.2            1 S1                 0.0000
      3 ****        -2.1616   3.4498   0.9529 N.am           1 S1                 0.0000
      4 ****        -1.6910   2.1633   1.2178 C.2            1 S1                 0.0000
      5 ****        -1.6151   1.7682   2.3811 O.2            1 S1                 0.0000
      6 ****        -1.3225   1.3784   0.1007 N.am           1 S1                 0.0000
      7 ****        -0.8241   0.0441   0.3351 C.3            1 S1                 0.0000
      8 ****         0.7152  -0.0263   0.4322 C.3            1 S1                 0.0000
      9 ****         1.1225   0.3938   1.7201 O.3            1 S1                 0.0000
     10 ****         1.2063  -1.4361   0.1260 C.ar           1 S1                 0.0000
     11 ****         1.1475  -2.4446   1.1146 C.ar           1 S1                 0.0000
     12 ****         1.5847  -3.7518   0.8260 C.ar           1 S1                 0.0000
     13 ****         2.0798  -4.0620  -0.4545 C.ar           1 S1                 0.0000
     14 ****         2.4985  -5.3191  -0.7332 F              1 S1                 0.0000
     15 ****         2.1357  -3.0644  -1.4461 C.ar           1 S1                 0.0000
     16 ****         1.6981  -1.7563  -1.1601 C.ar           1 S1                 0.0000
     17 ****         1.7478  -0.8127  -2.1311 F              1 S1                 0.0000
     18 ****        -1.4245   1.9124  -1.1749 C.2            1 S1                 0.0000
     19 ****        -1.8799   3.1641  -1.4226 C.2            1 S1                 0.0000
     20 ****        -1.9791   3.7568  -3.0420 Cl             1 S1                 0.0000
     21 ****        -2.4311   4.0141   1.7456 H              1 S1                 0.0000
     22 ****        -1.3410  -0.3965   1.1903 H              1 S1                 0.0000
     23 ****        -1.1678  -0.5222  -0.5327 H              1 S1                 0.0000
     24 ****         1.1608   0.6630  -0.2861 H              1 S1                 0.0000
     25 ****         2.0667   0.4273   1.7408 H              1 S1                 0.0000
     26 ****         0.7618  -2.2212   2.0986 H              1 S1                 0.0000
     27 ****         1.5374  -4.5171   1.5867 H              1 S1                 0.0000
     28 ****         2.5112  -3.3034  -2.4300 H              1 S1                 0.0000
     29 ****        -1.1248   1.3022  -2.0156 H              1 S1                 0.0000
     30 ****        -2.8136   5.5859  -1.3307 LP             1 S1                 0.0000
     31 ****        -2.9794   5.6896   0.3902 LP             1 S1                 0.0000
     32 ****        -1.8902   2.3685   3.1320 LP             1 S1                 0.0000
     33 ****        -1.2783   0.8468   2.5753 LP             1 S1                 0.0000
     34 ****         0.7931  -0.2549   2.4062 LP             1 S1                 0.0000
     35 ****         0.7487   1.3011   1.9127 LP             1 S1                 0.0000
@<TRIPOS>BOND
    1    1    2 2     
    2    2   19 1     
    3    2    3 1     
    4    3   21 1     
    5    3    4 1     
    6    4    5 2     
    7    4    6 1     
    8    6    7 1     
    9    6   18 1     
   10    7    8 1     
   11    7   22 1     
   12    7   23 1     
   13    8    9 1     
   14    8   10 1     
   15    8   24 1     
   16    9   25 1     
   17   10   16 ar    
   18   10   11 ar    
   19   11   12 ar    
   20   11   26 1     
   21   12   13 ar    
   22   12   27 1     
   23   13   14 1     
   24   13   15 ar    
   25   15   16 ar    
   26   15   28 1     
   27   16   17 1     
   28   18   19 2     
   29   18   29 1     
   30   19   20 1     
   31    1   30 1     
   32    1   31 1     
   33    5   32 1     
   34    5   33 1     
   35    9   34 1     
   36    9   35 1     
@<TRIPOS>SUBSTRUCTURE
      1 S1             1
@<TRIPOS>SET
LONE_PAIRS      STATIC     ATOMS    <user>   **** ""
6 30 31 32 33 34 35
DONOR_HYDROGENS      STATIC     ATOMS    <user>   **** ""
2 21 25
ATOM$BLUE        STATIC     ATOMS    COLORGROUP SYSTEM
6 30 31 32 33 34 35
ATOM$RED        STATIC     ATOMS    COLORGROUP SYSTEM
2 21 25
