AV-unprocessed.smi:2975|AV-procd|sdf|11358|dock5
  -GOLD-   2272016273D 1   1.00000     0.00000
 Structure written by MMmdl.
 40 42  0  0  0  0  0  0  0  0  2 V2000
  152.0286  137.5726  156.1275 C   0  0  0  0  0  0  0  0  0  0  0  0
  151.7415  137.7908  154.6361 C   0  0  1  0  0  0  0  0  0  0  0  0
  151.4734  136.5379  154.0421 O   0  0  0  0  0  0  0  0  0  0  0  0
  150.6093  138.7533  154.4488 C   0  0  0  0  0  0  0  0  0  0  0  0
  149.5015  138.5307  153.6852 N   0  3  0  0  0  0  0  0  0  0  0  0
  148.6389  139.6231  153.7686 C   0  0  0  0  0  0  0  0  0  0  0  0
  147.4015  139.8535  153.1755 C   0  0  0  0  0  0  0  0  0  0  0  0
  146.7733  141.0792  153.4784 C   0  0  0  0  0  0  0  0  0  0  0  0
  147.3746  142.0183  154.3414 C   0  0  0  0  0  0  0  0  0  0  0  0
  148.6303  141.7733  154.9360 C   0  0  0  0  0  0  0  0  0  0  0  0
  149.2467  140.5603  154.6284 C   0  0  0  0  0  0  0  0  0  0  0  0
  150.4629  139.9862  155.0186 N   0  0  0  0  0  0  0  0  0  0  0  0
  151.3410  140.7294  155.9343 C   0  0  0  0  0  0  0  0  0  0  0  0
  150.6141  141.1299  157.2233 C   0  0  0  0  0  0  0  0  0  0  0  0
  151.5836  141.3631  158.2344 O   0  0  0  0  0  0  0  0  0  0  0  0
  151.6401  142.6154  158.8091 C   0  0  0  0  0  0  0  0  0  0  0  0
  150.9731  143.7569  158.2950 C   0  0  0  0  0  0  0  0  0  0  0  0
  151.0800  145.0005  158.9479 C   0  0  0  0  0  0  0  0  0  0  0  0
  151.8535  145.1211  160.1168 C   0  0  0  0  0  0  0  0  0  0  0  0
  152.5217  143.9955  160.6325 C   0  0  0  0  0  0  0  0  0  0  0  0
  152.4145  142.7512  159.9815 C   0  0  0  0  0  0  0  0  0  0  0  0
  153.0622  141.6754  160.4893 F   0  0  0  0  0  0  0  0  0  0  0  0
  152.2838  138.5109  156.6201 H   0  0  0  0  0  0  0  0  0  0  0  0
  152.8656  136.8886  156.2713 H   0  0  0  0  0  0  0  0  0  0  0  0
  151.1639  137.1528  156.6425 H   0  0  0  0  0  0  0  0  0  0  0  0
  152.6362  138.1881  154.1581 H   0  0  0  0  0  0  0  0  0  0  0  0
  151.3612  136.6637  153.1121 H   0  0  0  0  0  0  0  0  0  0  0  0
  146.9379  139.1337  152.5167 H   0  0  0  0  0  0  0  0  0  0  0  0
  145.8106  141.3027  153.0416 H   0  0  0  0  0  0  0  0  0  0  0  0
  146.8621  142.9457  154.5525 H   0  0  0  0  0  0  0  0  0  0  0  0
  149.0788  142.4994  155.5975 H   0  0  0  0  0  0  0  0  0  0  0  0
  152.2013  140.1016  156.1647 H   0  0  0  0  0  0  0  0  0  0  0  0
  151.7365  141.6052  155.4195 H   0  0  0  0  0  0  0  0  0  0  0  0
  150.0232  142.0313  157.0529 H   0  0  0  0  0  0  0  0  0  0  0  0
  149.9384  140.3292  157.5268 H   0  0  0  0  0  0  0  0  0  0  0  0
  150.3719  143.7058  157.4002 H   0  0  0  0  0  0  0  0  0  0  0  0
  150.5668  145.8638  158.5506 H   0  0  0  0  0  0  0  0  0  0  0  0
  151.9349  146.0752  160.6166 H   0  0  0  0  0  0  0  0  0  0  0  0
  153.1168  144.0856  161.5292 H   0  0  0  0  0  0  0  0  0  0  0  0
  149.3510  137.6853  153.1497 H   0  0  0  0  0  0  0  0  0  0  0  0
  1  2  1  0  0  0  0
  1 23  1  0  0  0  0
  1 24  1  0  0  0  0
  1 25  1  0  0  0  0
  2  3  1  0  0  0  0
  2  4  1  0  0  0  0
  2 26  1  0  0  0  0
  3 27  1  0  0  0  0
  4 12  1  0  0  0  0
  4  5  2  0  0  0  0
  5  6  1  0  0  0  0
  5 40  1  0  0  0  0
  6 11  2  0  0  0  0
  6  7  1  0  0  0  0
  7  8  2  0  0  0  0
  7 28  1  0  0  0  0
  8  9  1  0  0  0  0
  8 29  1  0  0  0  0
  9 10  2  0  0  0  0
  9 30  1  0  0  0  0
 10 11  1  0  0  0  0
 10 31  1  0  0  0  0
 11 12  1  0  0  0  0
 12 13  1  0  0  0  0
 13 14  1  0  0  0  0
 13 32  1  0  0  0  0
 13 33  1  0  0  0  0
 14 15  1  0  0  0  0
 14 34  1  0  0  0  0
 14 35  1  0  0  0  0
 15 16  1  0  0  0  0
 16 21  1  0  0  0  0
 16 17  2  0  0  0  0
 17 18  1  0  0  0  0
 17 36  1  0  0  0  0
 18 19  2  0  0  0  0
 18 37  1  0  0  0  0
 19 20  1  0  0  0  0
 19 38  1  0  0  0  0
 20 21  2  0  0  0  0
 20 39  1  0  0  0  0
 21 22  1  0  0  0  0
M  CHG  1   5   1
M  END
> <s_m_source_file>
AV-unprocessed.smi

> <i_m_source_file_index>
2975

> <i_lp_mmshare_version>
43012

> <i_f3d_flags>
0

> <s_epik_input>
W2NIXTFbY0hdW2NIXVtjSF1jKGMxMiluKGMobjIpW0NASF0oW0NIM10pW09IXSlbQ0gyXVtDSDJdT2MzW2NIXVtjSF1bY0hdW2NIXWMzRg==

> <s_epik_cmdline>
J2VwaWtfcHl0aG9uJywgJy1waCcsICc3LjAnLCAnLXRuJywgJzgnLCAnLW1hJywgJzIwMCcsICctbWV0YWxfYmluZGluZycsICctaW1hZScsICc8aW5maWxlLm1hZT4nLCAnLW9tYWUnLCAnPG91dGZpbGUubWFlPic=

> <r_lp_tautomer_probability>
1

> <r_epik_Ionization_Penalty>
1.61121

> <r_epik_Ionization_Penalty_Charging>
1.61119

> <r_epik_Ionization_Penalty_Neutral>
2.92192e-05

> <r_epik_State_Penalty>
1.71016

> <r_epik_Charging_Adjusted_Penalty>
3.32134

> <i_epik_Tot_Q>
1

> <i_epik_Tot_abs_Q>
1

> <r_epik_Metal_State_Penalty>
5.76893

> <b_epik_Metal_Only>
0

> <s_lp_Force_Field>
OPLS_2005

> <r_lp_Energy>
20.882

> <b_lp_Chiralities_Consistent>
1

> <s_lp_Variant>
AV-unprocessed.smi:2975-4

> <Gold.Version>
5.8.1

> <Gold.Id.Protein>
6NUR|6NUR_protein|mol2

> <Gold.PLP.Fitness>
64.4889

> <Gold.PLP.PLP>
-54.0026

> <Gold.PLP.part.hbond>
-4.1113

> <Gold.PLP.part.metal>
0.0000

> <Gold.PLP.part.buried>
-0.1148

> <Gold.PLP.part.nonpolar>
-50.1821

> <Gold.PLP.part.repulsive>
0.0661

> <Gold.PLP.ligand.clash>
0.0000

> <Gold.PLP.ligand.torsion>
0.7701

> <Gold.PLP.Chemscore.Hbond>
4.0000

> <Gold.PLP.Chemscore.CHOScore>
0.0000

> <Gold.PLP.Chemscore.Metal>
0.0000

> <Gold.Chemscore.Hbonds>
donor molecule, donor type, donor heavy atom, donor atom, acceptor molecule, acceptor atom, score
      L1  H     3    27       P1  7949  0.99
      L1  H     5    40       P1  7948  2.00
      P1  H 10752 10763       L1     3  1.00

> <Gold.PLP.Chemscore.Internal.Correction>
0.0266

> <Gold.Rescore>
     Score         DG    S(hbond)    S(metal)    S(lipo)     H(rot)  DE(clash)    DE(int)     intcor
     21.47     -22.63       2.24        0.00     132.35       2.28       0.50       0.66       ----

> <Gold.Chemscore.Fitness>
21.4662

> <Gold.Chemscore.DG>
-22.6261

> <Gold.Chemscore.ZeroCoef>
-5.4800

> <Gold.Chemscore.Hbond>
2.2430

> <Gold.Chemscore.Metal>
0.0000

> <Gold.Chemscore.Lipo>
132.3493

> <Gold.Chemscore.Internal_Hbond>
0.0000

> <Gold.Chemscore.DEClash>
0.5009

> <Gold.Chemscore.DEInternal>
0.6590

> <Gold.Chemscore.Rot>
2.2774

> <Gold.Chemscore.Internal.Correction>
   9.000000E+99

> <Gold.Chemscore.Hbonds>
donor molecule, donor type, donor heavy atom, donor atom, acceptor molecule, acceptor atom, score
      L1  H     3    27       P1  7949  0.74
      L1  H     5    40       P1  7948  0.95
      P1  H 10752 10763       L1     3  0.29

> <Gold.Chemscore.Hbond.Weighted>
-7.4915

> <Gold.Chemscore.Metal.Weighted>
-0.0000

> <Gold.Chemscore.Lipo.Weighted>
-15.4849

> <Gold.Chemscore.Internal_Hbond.Weighted>
0.0000

> <Gold.Chemscore.DEClash.Weighted>
0.5009

> <Gold.Chemscore.DEInternal.Weighted>
0.6590

> <Gold.Chemscore.Rot.Weighted>
5.8302

> <Gold.Chemscore.Internal.Correction.Weighted>
   9.000000E+99

> <Gold.Protein.RotatedTorsions>
[ 6907 6896 6895 6894 ] final   64.39 input  -60.11 | X-H torsion
[ 7974 7965 7964 7962 ] final  107.53 input  175.53 | X-H torsion
[ 8008 7997 7996 7995 ] final -105.17 input   59.86 | X-H torsion
[ 10167 10162 10161 10158 ] final -157.19 input  -65.29 | X-H torsion
[ 10718 10713 10712 10709 ] final  168.46 input   66.30 | X-H torsion
[ 10763 10752 10751 10750 ] final   52.85 input  -60.55 | X-H torsion
[ 11005 11000 10999 10996 ] final -119.48 input  -57.11 | X-H torsion

> <Gold.Protein.ActiveResidues>
 VAL166  LYS551  ARG553  GLY616  TRP617  ASP618  TYR619  PRO620  LYS621  CYS622 
 ASP623  PHE694  ASN695  SER759  ASP760  ASP761  ALA762  ILE779  LEU786  VAL792 
 PHE793  MET794  SER795  GLU796  ALA797  LYS798  CYS799  TRP800  GLU811  SER814 

> <Gold.Protein.RotatedAtoms>
  152.4328  134.5745  159.9930 H   0  0  0  0  0  0  0  0  0  0  0  0  # atno 6907 bound_to 6896
  151.5864  133.3366  159.3027 H   0  0  0  0  0  0  0  0  0  0  0  0  # atno 6908 bound_to 6896
  150.8222  134.7471  159.6847 H   0  0  0  0  0  0  0  0  0  0  0  0  # atno 6909 bound_to 6896
  145.2924  139.2596  143.3857 H   0  0  0  0  0  0  0  0  0  0  0  0  # atno 7974 bound_to 7965
  154.8959  140.0414  157.1865 H   0  0  0  0  0  0  0  0  0  0  0  0  # atno 8008 bound_to 7997
  154.8493  140.2926  155.5588 H   0  0  0  0  0  0  0  0  0  0  0  0  # atno 8009 bound_to 7997
  156.2995  140.2468  156.3449 H   0  0  0  0  0  0  0  0  0  0  0  0  # atno 8010 bound_to 7997
  139.6790  143.9614  152.2326 H   0  0  0  0  0  0  0  0  0  0  0  0  # atno 10167 bound_to 10162
  157.0369  131.0275  151.2726 H   0  0  0  0  0  0  0  0  0  0  0  0  # atno 10718 bound_to 10713
  152.9791  135.5798  154.4646 H   0  0  0  0  0  0  0  0  0  0  0  0  # atno 10763 bound_to 10752
  154.4218  135.2772  155.1972 H   0  0  0  0  0  0  0  0  0  0  0  0  # atno 10764 bound_to 10752
  154.3718  135.6166  153.5798 H   0  0  0  0  0  0  0  0  0  0  0  0  # atno 10765 bound_to 10752
  141.0212  134.0121  157.3279 H   0  0  0  0  0  0  0  0  0  0  0  0  # atno 11005 bound_to 11000
  146.3180  140.3419  142.8648 LP  0  0  0  0  0  0  0  0  0  0  0  0  # atno 17320 bound_to 7965
  144.9161  140.7814  143.5777 LP  0  0  0  0  0  0  0  0  0  0  0  0  # atno 17321 bound_to 7965
  139.9399  144.6688  150.8277 LP  0  0  0  0  0  0  0  0  0  0  0  0  # atno 17342 bound_to 10162
  140.7645  143.3251  151.2533 LP  0  0  0  0  0  0  0  0  0  0  0  0  # atno 17343 bound_to 10162
  157.5135  130.7953  149.7730 LP  0  0  0  0  0  0  0  0  0  0  0  0  # atno 17370 bound_to 10713
  156.0051  130.3860  150.2461 LP  0  0  0  0  0  0  0  0  0  0  0  0  # atno 17371 bound_to 10713
  139.9147  135.0195  156.7835 LP  0  0  0  0  0  0  0  0  0  0  0  0  # atno 17394 bound_to 11000
  140.6569  133.9680  155.7784 LP  0  0  0  0  0  0  0  0  0  0  0  0  # atno 17395 bound_to 11000

$$$$
