#       Name:                AV-unprocessed.smi:26
#       Creating user name   scv26
#       Creation time:       Thu Mar 26 15:44:59 2020


#       File generated by GOLD software.
#

@<TRIPOS>MOLECULE
AV-unprocessed.smi:26
    66    69     1
SMALL
NO_CHARGES


@<TRIPOS>ATOM
      1 ****        -4.1880   1.8115  -0.2428 C.3            1 S1                 0.0000
      2 ****        -3.0089   0.9518   0.0900 C.2            1 S1                 0.0000
      3 ****        -1.7127   1.3378   0.2577 C.2            1 S1                 0.0000
      4 ****        -0.9310   0.1944   0.5733 C.2            1 S1                 0.0000
      5 ****         0.5344   0.1298   0.8085 C.2            1 S1                 0.0000
      6 ****         1.1656  -0.9264   0.8642 O.2            1 S1                 0.0000
      7 ****         1.2460   1.4869   0.9656 C.3            1 S1                 0.0000
      8 ****         2.6500   1.3563   1.3363 N.am           1 S1                 0.0000
      9 ****         2.9635   1.2785   2.7163 C.2            1 S1                 0.0000
     10 ****         2.0937   1.3142   3.5885 O.2            1 S1                 0.0000
     11 ****         4.3864   1.1431   3.0076 C.2            1 S1                 0.0000
     12 ****         4.7990   1.0736   4.2846 F              1 S1                 0.0000
     13 ****         5.3006   1.0878   2.0148 C.2            1 S1                 0.0000
     14 ****         4.9633   1.1493   0.6723 N.am           1 S1                 0.0000
     15 ****         6.0061   1.0791  -0.4229 C.3            1 S1                 0.0000
     16 ****         5.9926  -0.3055  -1.0967 C.3            1 S1                 0.0000
     17 ****         7.4538  -0.7061  -1.0628 C.3            1 S1                 0.0000
     18 ****         7.9451   0.0032   0.1899 C.3            1 S1                 0.0000
     19 ****         7.2823   1.2592   0.1225 O.3            1 S1                 0.0000
     20 ****         3.6089   1.2857   0.2973 C.2            1 S1                 0.0000
     21 ****         3.2860   1.3289  -0.8924 O.2            1 S1                 0.0000
     22 ****        -1.7856  -0.8843   0.6157 C.2            1 S1                 0.0000
     23 ****        -1.5357  -2.3300   0.9501 C.3            1 S1                 0.0000
     24 ****        -3.0653  -0.4316   0.2722 N.pl3          1 S1                 0.0000
     25 ****        -4.2630  -1.2811   0.1702 C.3            1 S1                 0.0000
     26 ****        -5.0882  -1.2300   1.4704 C.3            1 S1                 0.0000
     27 ****        -5.0440  -1.0430  -1.1247 C.ar           1 S1                 0.0000
     28 ****        -4.3936  -1.2579  -2.3604 C.ar           1 S1                 0.0000
     29 ****        -5.0740  -1.0502  -3.5752 C.ar           1 S1                 0.0000
     30 ****        -6.4168  -0.6298  -3.5665 C.ar           1 S1                 0.0000
     31 ****        -7.0770  -0.4189  -2.3419 C.ar           1 S1                 0.0000
     32 ****        -6.3964  -0.6257  -1.1264 C.ar           1 S1                 0.0000
     33 ****        -3.9533   2.8638  -0.0816 H              1 S1                 0.0000
     34 ****        -5.0504   1.5746   0.3776 H              1 S1                 0.0000
     35 ****        -4.4715   1.6986  -1.2891 H              1 S1                 0.0000
     36 ****        -1.3602   2.3538   0.1562 H              1 S1                 0.0000
     37 ****         1.1892   2.0656   0.0426 H              1 S1                 0.0000
     38 ****         0.7556   2.1015   1.7223 H              1 S1                 0.0000
     39 ****         6.3356   0.9902   2.3038 H              1 S1                 0.0000
     40 ****         5.7844   1.9073  -1.0983 H              1 S1                 0.0000
     41 ****         5.3929  -1.0046  -0.5115 H              1 S1                 0.0000
     42 ****         5.5847  -0.2469  -2.1061 H              1 S1                 0.0000
     43 ****         7.6009  -1.7856  -1.0283 H              1 S1                 0.0000
     44 ****         7.9711  -0.3159  -1.9402 H              1 S1                 0.0000
     45 ****         7.6391  -0.5373   1.0866 H              1 S1                 0.0000
     46 ****         9.0287   0.1215   0.2111 H              1 S1                 0.0000
     47 ****        -0.6387  -2.4644   1.5512 H              1 S1                 0.0000
     48 ****        -1.4277  -2.9248   0.0432 H              1 S1                 0.0000
     49 ****        -2.3479  -2.7509   1.5419 H              1 S1                 0.0000
     50 ****        -3.9361  -2.3137   0.0609 H              1 S1                 0.0000
     51 ****        -5.9097  -1.9461   1.4431 H              1 S1                 0.0000
     52 ****        -5.5091  -0.2428   1.6558 H              1 S1                 0.0000
     53 ****        -4.4686  -1.4836   2.3310 H              1 S1                 0.0000
     54 ****        -3.3626  -1.5800  -2.3778 H              1 S1                 0.0000
     55 ****        -4.5651  -1.2137  -4.5136 H              1 S1                 0.0000
     56 ****        -6.9401  -0.4705  -4.4978 H              1 S1                 0.0000
     57 ****        -8.1080  -0.0973  -2.3343 H              1 S1                 0.0000
     58 ****        -6.9288  -0.4517  -0.2041 H              1 S1                 0.0000
     59 ****         0.6912  -1.7990   0.7484 LP             1 S1                 0.0000
     60 ****         2.1524  -0.9112   1.0252 LP             1 S1                 0.0000
     61 ****         1.1311   1.4006   3.3315 LP             1 S1                 0.0000
     62 ****         2.3504   1.2569   4.5533 LP             1 S1                 0.0000
     63 ****         7.2015   1.6443   1.0419 LP             1 S1                 0.0000
     64 ****         7.8076   1.8837  -0.4554 LP             1 S1                 0.0000
     65 ****         2.3227   1.4162  -1.1462 LP             1 S1                 0.0000
     66 ****         3.9875   1.2767  -1.6031 LP             1 S1                 0.0000
@<TRIPOS>BOND
    1    1    2 1     
    2    1   33 1     
    3    1   34 1     
    4    1   35 1     
    5    2   24 1     
    6    2    3 2     
    7    3    4 1     
    8    3   36 1     
    9    4    5 1     
   10    4   22 2     
   11    5    6 2     
   12    5    7 1     
   13    7    8 1     
   14    7   37 1     
   15    7   38 1     
   16    8   20 am    
   17    8    9 am    
   18    9   10 2     
   19    9   11 1     
   20   11   12 1     
   21   11   13 2     
   22   13   14 1     
   23   13   39 1     
   24   14   15 1     
   25   14   20 am    
   26   15   19 1     
   27   15   16 1     
   28   15   40 1     
   29   16   17 1     
   30   16   41 1     
   31   16   42 1     
   32   17   18 1     
   33   17   43 1     
   34   17   44 1     
   35   18   19 1     
   36   18   45 1     
   37   18   46 1     
   38   20   21 2     
   39   22   23 1     
   40   22   24 1     
   41   23   47 1     
   42   23   48 1     
   43   23   49 1     
   44   24   25 1     
   45   25   26 1     
   46   25   27 1     
   47   25   50 1     
   48   26   51 1     
   49   26   52 1     
   50   26   53 1     
   51   27   32 ar    
   52   27   28 ar    
   53   28   29 ar    
   54   28   54 1     
   55   29   30 ar    
   56   29   55 1     
   57   30   31 ar    
   58   30   56 1     
   59   31   32 ar    
   60   31   57 1     
   61   32   58 1     
   62    6   59 1     
   63    6   60 1     
   64   10   61 1     
   65   10   62 1     
   66   19   63 1     
   67   19   64 1     
   68   21   65 1     
   69   21   66 1     
@<TRIPOS>SUBSTRUCTURE
      1 S1             1
@<TRIPOS>SET
LONE_PAIRS      STATIC     ATOMS    <user>   **** ""
8 59 60 61 62 63 64 65 66
ATOM$BLUE        STATIC     ATOMS    COLORGROUP SYSTEM
8 59 60 61 62 63 64 65 66
