AV-unprocessed.smi:287|AV-procd|sdf|2205|dock2
  -GOLD-   2262022 33D 1   1.00000     0.00000
 Structure written by MMmdl.
 55 58  0  0  0  0  0  0  0  0  1 V2000
  153.0056  142.3317  160.6116 C   0  0  0  0  0  0  0  0  0  0  0  0
  152.4989  141.5057  159.4796 C   0  0  0  0  0  0  0  0  0  0  0  0
  151.7893  141.7874  158.3492 C   0  0  0  0  0  0  0  0  0  0  0  0
  151.5948  140.5587  157.6504 C   0  0  0  0  0  0  0  0  0  0  0  0
  150.8413  140.3921  156.3372 C   0  0  1  0  0  0  0  0  0  0  0  0
  150.3420  141.7600  155.8424 C   0  0  0  0  0  0  0  0  0  0  0  0
  151.6552  139.8936  155.2932 O   0  0  0  0  0  0  0  0  0  0  0  0
  149.6576  139.4061  156.4668 C   0  0  0  0  0  0  0  0  0  0  0  0
  148.7329  139.4848  155.3405 N   0  0  0  0  0  0  0  0  0  0  0  0
  147.7993  138.5280  155.1591 C   0  0  0  0  0  0  0  0  0  0  0  0
  147.4669  137.6742  156.1620 N   0  0  0  0  0  0  0  0  0  0  0  0
  146.5434  136.7310  155.9541 C   0  0  0  0  0  0  0  0  0  0  0  0
  145.8484  136.4744  154.8438 N   0  0  0  0  0  0  0  0  0  0  0  0
  146.1766  137.3306  153.8331 C   0  0  0  0  0  0  0  0  0  0  0  0
  147.1369  138.3778  153.9138 C   0  0  0  0  0  0  0  0  0  0  0  0
  147.2154  139.0413  152.6967 N   0  0  0  0  0  0  0  0  0  0  0  0
  146.3507  138.4184  151.9425 C   0  0  0  0  0  0  0  0  0  0  0  0
  145.6829  137.3737  152.5428 N   0  0  0  0  0  0  0  0  0  0  0  0
  144.6499  136.4845  151.9165 C   0  0  2  0  0  0  0  0  0  0  0  0
  143.5488  136.3697  152.7705 O   0  0  0  0  0  0  0  0  0  0  0  0
  143.3395  135.0064  153.1402 C   0  0  1  0  0  0  0  0  0  0  0  0
  141.8397  134.7488  153.3511 C   0  0  0  0  0  0  0  0  0  0  0  0
  141.3508  135.5554  154.4011 O   0  0  0  0  0  0  0  0  0  0  0  0
  143.9310  134.2403  151.9557 C   0  0  2  0  0  0  0  0  0  0  0  0
  144.2301  132.8891  152.2496 O   0  0  0  0  0  0  0  0  0  0  0  0
  145.1669  135.0631  151.6235 C   0  0  2  0  0  0  0  0  0  0  0  0
  146.2939  134.6942  152.4049 O   0  0  0  0  0  0  0  0  0  0  0  0
  152.2236  139.6122  158.4237 C   0  0  0  0  0  0  0  0  0  0  0  0
  152.4203  138.1368  158.3047 C   0  0  0  0  0  0  0  0  0  0  0  0
  152.7725  140.1783  159.5349 O   0  0  0  0  0  0  0  0  0  0  0  0
  144.3398  137.0148  151.0151 H   0  0  0  0  0  0  0  0  0  0  0  0
  143.9089  134.7761  154.0422 H   0  0  0  0  0  0  0  0  0  0  0  0
  143.2371  134.2756  151.1143 H   0  0  0  0  0  0  0  0  0  0  0  0
  145.4380  134.9823  150.5702 H   0  0  0  0  0  0  0  0  0  0  0  0
  152.7259  143.3778  160.4858 H   0  0  0  0  0  0  0  0  0  0  0  0
  154.0925  142.2773  160.6737 H   0  0  0  0  0  0  0  0  0  0  0  0
  152.5936  141.9835  161.5587 H   0  0  0  0  0  0  0  0  0  0  0  0
  151.4390  142.7665  158.0576 H   0  0  0  0  0  0  0  0  0  0  0  0
  149.6677  142.2209  156.5652 H   0  0  0  0  0  0  0  0  0  0  0  0
  149.7989  141.6712  154.9006 H   0  0  0  0  0  0  0  0  0  0  0  0
  151.1711  142.4504  155.6822 H   0  0  0  0  0  0  0  0  0  0  0  0
  152.5433  139.8312  155.6098 H   0  0  0  0  0  0  0  0  0  0  0  0
  150.0555  138.3901  156.4848 H   0  0  0  0  0  0  0  0  0  0  0  0
  149.1266  139.5497  157.4091 H   0  0  0  0  0  0  0  0  0  0  0  0
  148.9141  140.2198  154.6714 H   0  0  0  0  0  0  0  0  0  0  0  0
  146.3318  136.0887  156.7961 H   0  0  0  0  0  0  0  0  0  0  0  0
  146.1782  138.7041  150.9150 H   0  0  0  0  0  0  0  0  0  0  0  0
  141.2733  134.9290  152.4370 H   0  0  0  0  0  0  0  0  0  0  0  0
  141.6739  133.7091  153.6352 H   0  0  0  0  0  0  0  0  0  0  0  0
  140.9392  134.9974  155.0431 H   0  0  0  0  0  0  0  0  0  0  0  0
  143.7410  132.6398  153.0195 H   0  0  0  0  0  0  0  0  0  0  0  0
  147.0282  135.2276  152.1414 H   0  0  0  0  0  0  0  0  0  0  0  0
  152.9127  137.8872  157.3650 H   0  0  0  0  0  0  0  0  0  0  0  0
  151.4631  137.6158  158.3361 H   0  0  0  0  0  0  0  0  0  0  0  0
  153.0371  137.7535  159.1181 H   0  0  0  0  0  0  0  0  0  0  0  0
  1  2  1  0  0  0  0
  1 35  1  0  0  0  0
  1 36  1  0  0  0  0
  1 37  1  0  0  0  0
  2 30  1  0  0  0  0
  2  3  2  0  0  0  0
  3  4  1  0  0  0  0
  3 38  1  0  0  0  0
  4  5  1  0  0  0  0
  4 28  2  0  0  0  0
  5  6  1  0  0  0  0
  5  7  1  0  0  0  0
  5  8  1  0  0  0  0
  6 39  1  0  0  0  0
  6 40  1  0  0  0  0
  6 41  1  0  0  0  0
  7 42  1  0  0  0  0
  8  9  1  0  0  0  0
  8 43  1  0  0  0  0
  8 44  1  0  0  0  0
  9 10  1  0  0  0  0
  9 45  1  0  0  0  0
 10 15  1  0  0  0  0
 10 11  2  0  0  0  0
 11 12  1  0  0  0  0
 12 13  2  0  0  0  0
 12 46  1  0  0  0  0
 13 14  1  0  0  0  0
 14 18  1  0  0  0  0
 14 15  2  0  0  0  0
 15 16  1  0  0  0  0
 16 17  2  0  0  0  0
 17 18  1  0  0  0  0
 17 47  1  0  0  0  0
 18 19  1  0  0  0  0
 19 31  1  0  0  0  0
 19 26  1  0  0  0  0
 19 20  1  0  0  0  0
 20 21  1  0  0  0  0
 21 32  1  0  0  0  0
 21 22  1  0  0  0  0
 21 24  1  0  0  0  0
 22 23  1  0  0  0  0
 22 48  1  0  0  0  0
 22 49  1  0  0  0  0
 23 50  1  0  0  0  0
 24 33  1  0  0  0  0
 24 25  1  0  0  0  0
 24 26  1  0  0  0  0
 25 51  1  0  0  0  0
 26 34  1  0  0  0  0
 26 27  1  0  0  0  0
 27 52  1  0  0  0  0
 28 29  1  0  0  0  0
 28 30  1  0  0  0  0
 29 53  1  0  0  0  0
 29 54  1  0  0  0  0
 29 55  1  0  0  0  0
M  END
> <s_m_source_file>
AV-unprocessed.smi

> <i_m_source_file_index>
287

> <i_lp_mmshare_version>
43012

> <i_f3d_flags>
0

> <s_epik_input>
W0NIM11jMVtjSF1jKGMobzEpW0NIM10pW0NAQF0oW0NIM10pKFtPSF0pW0NIMl1bTkhdYyhuW2NIXW4yKWMoYzIzKW5bY0hdbjNbQ0BASF00T1tDQEhdKFtDSDJdW09IXSlbQ0BASF0oW09IXSlbQ0BIXTRbT0hd

> <s_epik_cmdline>
J2VwaWtfcHl0aG9uJywgJy1waCcsICc3LjAnLCAnLXRuJywgJzgnLCAnLW1hJywgJzIwMCcsICctbWV0YWxfYmluZGluZycsICctaW1hZScsICc8aW5maWxlLm1hZT4nLCAnLW9tYWUnLCAnPG91dGZpbGUubWFlPic=

> <r_lp_tautomer_probability>
1

> <r_epik_Ionization_Penalty>
0.000992612

> <r_epik_Ionization_Penalty_Charging>
0

> <r_epik_Ionization_Penalty_Neutral>
0.000992612

> <r_epik_State_Penalty>
-0

> <r_epik_Charging_Adjusted_Penalty>
0

> <i_epik_Tot_Q>
0

> <i_epik_Tot_abs_Q>
0

> <r_epik_Metal_State_Penalty>
-0

> <b_epik_Metal_Only>
0

> <s_epik_Chemistry_Notes>
This compound contains an acetal/aminal-like group ( X-CH(R)-Y where X, Y are N, S, or O) that may be acid/base labile, releasing an aldehyde.

> <s_lp_Force_Field>
OPLS_2005

> <r_lp_Energy>
50.5208

> <b_lp_Chiralities_Consistent>
1

> <s_lp_Variant>
AV-unprocessed.smi:287-29

> <Gold.Version>
5.8.1

> <Gold.Id.Protein>
6NUR|6NUR_protein|mol2

> <Gold.PLP.Fitness>
51.4160

> <Gold.PLP.PLP>
-39.8089

> <Gold.PLP.part.hbond>
-3.5876

> <Gold.PLP.part.metal>
0.0000

> <Gold.PLP.part.buried>
-7.0964

> <Gold.PLP.part.nonpolar>
-31.7228

> <Gold.PLP.part.repulsive>
1.7990

> <Gold.PLP.ligand.clash>
0.0000

> <Gold.PLP.ligand.torsion>
0.5802

> <Gold.PLP.Chemscore.Hbond>
3.3650

> <Gold.PLP.Chemscore.CHOScore>
0.8181

> <Gold.PLP.Chemscore.Metal>
0.0000

> <Gold.Chemscore.Hbonds>
donor molecule, donor type, donor heavy atom, donor atom, acceptor molecule, acceptor atom, score
      L1  H    23    50       P1 11000  1.00
      L1  H    25    51       P1 10957  0.45
      L1  H    27    52       P1  7948  0.68
      P1  H  7989  7998       L1     7  0.99
      L1  C    17    47       P1 10171  0.85

> <Gold.PLP.Chemscore.Internal.Correction>
0.2183

> <Gold.Rescore>
     Score         DG    S(hbond)    S(metal)    S(lipo)     H(rot)  DE(clash)    DE(int)     intcor
      8.59     -10.69       2.72        0.00      82.22       5.27       0.36       1.74       ----

> <Gold.Chemscore.Fitness>
8.5937

> <Gold.Chemscore.DG>
-10.6946

> <Gold.Chemscore.ZeroCoef>
-5.4800

> <Gold.Chemscore.Hbond>
2.7183

> <Gold.Chemscore.Metal>
0.0000

> <Gold.Chemscore.Lipo>
82.2160

> <Gold.Chemscore.Internal_Hbond>
0.0000

> <Gold.Chemscore.DEClash>
0.3563

> <Gold.Chemscore.DEInternal>
1.7445

> <Gold.Chemscore.Rot>
5.2672

> <Gold.Chemscore.Internal.Correction>
   9.000000E+99

> <Gold.Chemscore.Hbonds>
donor molecule, donor type, donor heavy atom, donor atom, acceptor molecule, acceptor atom, score
      L1  H    23    50       P1 11000  0.94
      L1  H    25    51       P1 10957  0.09
      L1  H    27    52       P1  7948  0.69
      P1  H  7989  7998       L1     7  0.60

> <Gold.Chemscore.Hbond.Weighted>
-9.0792

> <Gold.Chemscore.Metal.Weighted>
-0.0000

> <Gold.Chemscore.Lipo.Weighted>
-9.6193

> <Gold.Chemscore.Internal_Hbond.Weighted>
0.0000

> <Gold.Chemscore.DEClash.Weighted>
0.3563

> <Gold.Chemscore.DEInternal.Weighted>
1.7445

> <Gold.Chemscore.Rot.Weighted>
13.4839

> <Gold.Chemscore.Internal.Correction.Weighted>
   9.000000E+99

> <Gold.Protein.RotatedTorsions>
[ 6907 6896 6895 6894 ] final  179.88 input  -60.11 | X-H torsion
[ 7974 7965 7964 7962 ] final  -60.76 input  175.53 | X-H torsion
[ 8008 7997 7996 7995 ] final   70.12 input   59.86 | X-H torsion
[ 10167 10162 10161 10158 ] final -157.82 input  -65.29 | X-H torsion
[ 10718 10713 10712 10709 ] final  -44.54 input   66.30 | X-H torsion
[ 10763 10752 10751 10750 ] final  136.73 input  -60.55 | X-H torsion
[ 11005 11000 10999 10996 ] final -144.77 input  -57.11 | X-H torsion

> <Gold.Protein.ActiveResidues>
 VAL166  LYS551  ARG553  GLY616  TRP617  ASP618  TYR619  PRO620  LYS621  CYS622 
 ASP623  PHE694  ASN695  SER759  ASP760  ASP761  ALA762  ILE779  LEU786  VAL792 
 PHE793  MET794  SER795  GLU796  ALA797  LYS798  CYS799  TRP800  GLU811  SER814 

> <Gold.Protein.RotatedAtoms>
  151.6644  133.3316  159.3181 H   0  0  0  0  0  0  0  0  0  0  0  0  # atno 6907 bound_to 6896
  150.7898  134.6916  159.6509 H   0  0  0  0  0  0  0  0  0  0  0  0  # atno 6908 bound_to 6896
  152.3975  134.6345  160.0135 H   0  0  0  0  0  0  0  0  0  0  0  0  # atno 6909 bound_to 6896
  145.8116  140.8595  143.0179 H   0  0  0  0  0  0  0  0  0  0  0  0  # atno 7974 bound_to 7965
  155.7339  140.3491  155.5072 H   0  0  0  0  0  0  0  0  0  0  0  0  # atno 8008 bound_to 7997
  155.9156  140.1058  157.1267 H   0  0  0  0  0  0  0  0  0  0  0  0  # atno 8009 bound_to 7997
  154.4062  140.1259  156.4601 H   0  0  0  0  0  0  0  0  0  0  0  0  # atno 8010 bound_to 7997
  139.6740  143.9695  152.2300 H   0  0  0  0  0  0  0  0  0  0  0  0  # atno 10167 bound_to 10162
  156.2375  130.4177  149.8800 H   0  0  0  0  0  0  0  0  0  0  0  0  # atno 10718 bound_to 10713
  153.8613  135.3067  155.3438 H   0  0  0  0  0  0  0  0  0  0  0  0  # atno 10763 bound_to 10752
  154.7848  135.4816  153.9924 H   0  0  0  0  0  0  0  0  0  0  0  0  # atno 10764 bound_to 10752
  153.1460  135.6833  153.9048 H   0  0  0  0  0  0  0  0  0  0  0  0  # atno 10765 bound_to 10752
  140.7991  134.2878  157.4985 H   0  0  0  0  0  0  0  0  0  0  0  0  # atno 11005 bound_to 11000
  144.6757  140.0403  143.7481 LP  0  0  0  0  0  0  0  0  0  0  0  0  # atno 17320 bound_to 7965
  145.9771  139.2913  143.1064 LP  0  0  0  0  0  0  0  0  0  0  0  0  # atno 17321 bound_to 7965
  139.9467  144.6647  150.8212 LP  0  0  0  0  0  0  0  0  0  0  0  0  # atno 17342 bound_to 10162
  140.7629  143.3209  151.2625 LP  0  0  0  0  0  0  0  0  0  0  0  0  # atno 17343 bound_to 10162
  156.6393  130.8698  151.3511 LP  0  0  0  0  0  0  0  0  0  0  0  0  # atno 17370 bound_to 10713
  157.7161  130.9498  150.1260 LP  0  0  0  0  0  0  0  0  0  0  0  0  # atno 17371 bound_to 10713
  139.8723  134.9419  156.3809 LP  0  0  0  0  0  0  0  0  0  0  0  0  # atno 17394 bound_to 11000
  140.9313  133.7577  156.0028 LP  0  0  0  0  0  0  0  0  0  0  0  0  # atno 17395 bound_to 11000

$$$$
