AV-unprocessed.smi:726|AV-procd|sdf|3514|dock2
  -GOLD-   22720 0513D 1   1.00000     0.00000
 Structure written by MMmdl.
 24 24  0  0  0  0  0  0  0  0  2 V2000
  151.6272  139.8281  158.8041 C   0  0  0  0  0  0  0  0  0  0  0  0
  151.6510  141.3510  158.8285 C   0  0  0  0  0  0  0  0  0  0  0  0
  152.0756  141.9803  159.9488 C   0  0  0  0  0  0  0  0  0  0  0  0
  152.1967  143.4464  159.9917 C   0  0  0  0  0  0  0  0  0  0  0  0
  152.5081  144.0479  161.0180 O   0  0  0  0  0  0  0  0  0  0  0  0
  151.9417  144.1428  158.7246 C   0  0  0  0  0  0  0  0  0  0  0  0
  151.5194  143.4330  157.6606 C   0  0  0  0  0  0  0  0  0  0  0  0
  151.3318  144.0232  156.4715 O   0  0  0  0  0  0  0  0  0  0  0  0
  151.2637  142.0433  157.6568 N   0  0  0  0  0  0  0  0  0  0  0  0
  150.4962  141.3638  156.5862 C   0  0  2  0  0  0  0  0  0  0  0  0
  149.1484  140.8029  157.0863 C   0  0  0  0  0  0  0  0  0  0  0  0
  151.3373  140.3704  155.7606 C   0  0  0  0  0  0  0  0  0  0  0  0
  150.8332  139.8856  154.7230 O   0  0  0  0  0  0  0  0  0  0  0  0
  152.4847  140.1161  156.1890 O   0  5  0  0  0  0  0  0  0  0  0  0
  152.2871  139.4176  159.5690 H   0  0  0  0  0  0  0  0  0  0  0  0
  151.9716  139.4329  157.8481 H   0  0  0  0  0  0  0  0  0  0  0  0
  150.6202  139.4595  159.0011 H   0  0  0  0  0  0  0  0  0  0  0  0
  152.3683  141.4214  160.8259 H   0  0  0  0  0  0  0  0  0  0  0  0
  152.1230  145.2061  158.6655 H   0  0  0  0  0  0  0  0  0  0  0  0
  150.2277  142.0886  155.8222 H   0  0  0  0  0  0  0  0  0  0  0  0
  148.5653  140.3913  156.2621 H   0  0  0  0  0  0  0  0  0  0  0  0
  148.5496  141.5897  157.5451 H   0  0  0  0  0  0  0  0  0  0  0  0
  149.2729  140.0118  157.8249 H   0  0  0  0  0  0  0  0  0  0  0  0
  150.4641  144.3963  156.4718 H   0  0  0  0  0  0  0  0  0  0  0  0
  1  2  1  0  0  0  0
  1 15  1  0  0  0  0
  1 16  1  0  0  0  0
  1 17  1  0  0  0  0
  2  9  1  0  0  0  0
  2  3  2  0  0  0  0
  3  4  1  0  0  0  0
  3 18  1  0  0  0  0
  4  5  2  0  0  0  0
  4  6  1  0  0  0  0
  6  7  2  0  0  0  0
  6 19  1  0  0  0  0
  7  8  1  0  0  0  0
  7  9  1  0  0  0  0
  8 24  1  0  0  0  0
  9 10  1  0  0  0  0
 10 11  1  0  0  0  0
 10 12  1  0  0  0  0
 10 20  1  0  0  0  0
 11 21  1  0  0  0  0
 11 22  1  0  0  0  0
 11 23  1  0  0  0  0
 12 13  2  0  0  0  0
 12 14  1  0  0  0  0
M  CHG  1  14  -1
M  END
> <s_m_source_file>
AV-unprocessed.smi

> <i_m_source_file_index>
726

> <i_lp_mmshare_version>
43012

> <i_f3d_flags>
0

> <s_epik_input>
W0NIM11jMVtjSF1jKFtPSF0pW2NIXWMoPU8pbjFbQ0BIXShbQ0gzXSlDKD1PKVtPSF0=

> <s_epik_cmdline>
J2VwaWtfcHl0aG9uJywgJy1waCcsICc3LjAnLCAnLXRuJywgJzgnLCAnLW1hJywgJzIwMCcsICctbWV0YWxfYmluZGluZycsICctaW1hZScsICc8aW5maWxlLm1hZT4nLCAnLW9tYWUnLCAnPG91dGZpbGUubWFlPic=

> <r_epik_Ionization_Penalty>
0.000857085

> <r_epik_Ionization_Penalty_Charging>
0.000857085

> <r_epik_Ionization_Penalty_Neutral>
0

> <r_epik_State_Penalty>
1.45659

> <r_epik_Charging_Adjusted_Penalty>
1.45745

> <i_epik_Tot_Q>
-1

> <i_epik_Tot_abs_Q>
1

> <r_epik_Metal_State_Penalty>
1.45659

> <b_epik_Metal_Only>
0

> <s_lp_Force_Field>
OPLS_2005

> <r_lp_Energy>
4.32013

> <b_lp_Chiralities_Consistent>
1

> <s_lp_Variant>
AV-unprocessed.smi:726-5

> <Gold.Version>
5.8.1

> <Gold.Id.Protein>
6NUR|6NUR_protein|mol2

> <Gold.PLP.Fitness>
40.5857

> <Gold.PLP.PLP>
-28.6662

> <Gold.PLP.part.hbond>
-3.0000

> <Gold.PLP.part.metal>
0.0000

> <Gold.PLP.part.buried>
-0.7440

> <Gold.PLP.part.nonpolar>
-23.8048

> <Gold.PLP.part.repulsive>
0.1766

> <Gold.PLP.ligand.clash>
0.0000

> <Gold.PLP.ligand.torsion>
0.2046

> <Gold.PLP.Chemscore.Hbond>
4.0000

> <Gold.PLP.Chemscore.CHOScore>
0.0000

> <Gold.PLP.Chemscore.Metal>
0.0000

> <Gold.Chemscore.Hbonds>
donor molecule, donor type, donor heavy atom, donor atom, acceptor molecule, acceptor atom, score
      L1  H     8    24       P1  8028  1.00
      P1  H  7989  7998       L1    13  1.00
      P1  H  7997  8009       L1    14  2.00

> <Gold.PLP.Chemscore.Internal.Correction>
0.3286

> <Gold.Rescore>
     Score         DG    S(hbond)    S(metal)    S(lipo)     H(rot)  DE(clash)    DE(int)     intcor
     11.17     -14.43       2.72        0.00      45.17       2.11       0.41       2.86       ----

> <Gold.Chemscore.Fitness>
11.1673

> <Gold.Chemscore.DG>
-14.4348

> <Gold.Chemscore.ZeroCoef>
-5.4800

> <Gold.Chemscore.Hbond>
2.7178

> <Gold.Chemscore.Metal>
0.0000

> <Gold.Chemscore.Lipo>
45.1715

> <Gold.Chemscore.Internal_Hbond>
0.0000

> <Gold.Chemscore.DEClash>
0.4095

> <Gold.Chemscore.DEInternal>
2.8581

> <Gold.Chemscore.Rot>
2.1124

> <Gold.Chemscore.Internal.Correction>
   9.000000E+99

> <Gold.Chemscore.Hbonds>
donor molecule, donor type, donor heavy atom, donor atom, acceptor molecule, acceptor atom, score
      L1  H     8    24       P1  8028  0.96
      P1  H  7989  7998       L1    13  0.26
      P1  H  7997  8009       L1    14  0.97

> <Gold.Chemscore.Hbond.Weighted>
-9.0775

> <Gold.Chemscore.Metal.Weighted>
-0.0000

> <Gold.Chemscore.Lipo.Weighted>
-5.2851

> <Gold.Chemscore.Internal_Hbond.Weighted>
0.0000

> <Gold.Chemscore.DEClash.Weighted>
0.4095

> <Gold.Chemscore.DEInternal.Weighted>
2.8581

> <Gold.Chemscore.Rot.Weighted>
5.4078

> <Gold.Chemscore.Internal.Correction.Weighted>
   9.000000E+99

> <Gold.Protein.RotatedTorsions>
[ 6907 6896 6895 6894 ] final   68.53 input  -60.11 | X-H torsion
[ 7974 7965 7964 7962 ] final  -71.53 input  175.53 | X-H torsion
[ 8008 7997 7996 7995 ] final -148.62 input   59.86 | X-H torsion
[ 10167 10162 10161 10158 ] final   90.61 input  -65.29 | X-H torsion
[ 10718 10713 10712 10709 ] final   36.72 input   66.30 | X-H torsion
[ 10763 10752 10751 10750 ] final    7.17 input  -60.55 | X-H torsion
[ 11005 11000 10999 10996 ] final -159.90 input  -57.11 | X-H torsion

> <Gold.Protein.ActiveResidues>
 VAL166  LYS551  ARG553  GLY616  TRP617  ASP618  TYR619  PRO620  LYS621  CYS622 
 ASP623  PHE694  ASN695  SER759  ASP760  ASP761  ALA762  ILE779  LEU786  VAL792 
 PHE793  MET794  SER795  GLU796  ALA797  LYS798  CYS799  TRP800  GLU811  SER814 

> <Gold.Protein.RotatedAtoms>
  152.4627  134.5148  159.9764 H   0  0  0  0  0  0  0  0  0  0  0  0  # atno 6907 bound_to 6896
  151.5193  133.3463  159.2906 H   0  0  0  0  0  0  0  0  0  0  0  0  # atno 6908 bound_to 6896
  150.8596  134.7974  159.7135 H   0  0  0  0  0  0  0  0  0  0  0  0  # atno 6909 bound_to 6896
  145.6769  140.9202  143.0853 H   0  0  0  0  0  0  0  0  0  0  0  0  # atno 7974 bound_to 7965
  155.5946  140.0656  157.2749 H   0  0  0  0  0  0  0  0  0  0  0  0  # atno 8008 bound_to 7997
  154.4295  140.1829  156.1157 H   0  0  0  0  0  0  0  0  0  0  0  0  # atno 8009 bound_to 7997
  156.0206  140.3317  155.7038 H   0  0  0  0  0  0  0  0  0  0  0  0  # atno 8010 bound_to 7997
  139.8456  144.6619  150.9230 H   0  0  0  0  0  0  0  0  0  0  0  0  # atno 10167 bound_to 10162
  157.3383  130.7534  149.6894 H   0  0  0  0  0  0  0  0  0  0  0  0  # atno 10718 bound_to 10713
  153.2393  135.6901  153.7801 H   0  0  0  0  0  0  0  0  0  0  0  0  # atno 10763 bound_to 10752
  153.6936  135.3309  155.3209 H   0  0  0  0  0  0  0  0  0  0  0  0  # atno 10764 bound_to 10752
  154.8348  135.4551  154.1309 H   0  0  0  0  0  0  0  0  0  0  0  0  # atno 10765 bound_to 10752
  140.6375  134.4586  157.5232 H   0  0  0  0  0  0  0  0  0  0  0  0  # atno 11005 bound_to 11000
  144.7039  139.8645  143.7436 LP  0  0  0  0  0  0  0  0  0  0  0  0  # atno 17320 bound_to 7965
  146.0998  139.3993  143.0354 LP  0  0  0  0  0  0  0  0  0  0  0  0  # atno 17321 bound_to 7965
  140.7793  143.3873  151.1372 LP  0  0  0  0  0  0  0  0  0  0  0  0  # atno 17342 bound_to 10162
  139.7515  143.8771  152.3078 LP  0  0  0  0  0  0  0  0  0  0  0  0  # atno 17343 bound_to 10162
  155.9704  130.4175  150.4282 LP  0  0  0  0  0  0  0  0  0  0  0  0  # atno 17370 bound_to 10713
  157.2325  131.0507  151.2484 LP  0  0  0  0  0  0  0  0  0  0  0  0  # atno 17371 bound_to 10713
  139.9093  134.8380  156.1589 LP  0  0  0  0  0  0  0  0  0  0  0  0  # atno 17394 bound_to 11000
  141.0631  133.6832  156.1991 LP  0  0  0  0  0  0  0  0  0  0  0  0  # atno 17395 bound_to 11000

$$$$
