AV-unprocessed.smi:1002|AV-procd|sdf|4359|dock8
  -GOLD-   22720 2263D 1   1.00000     0.00000
 Structure written by MMmdl.
 36 37  0  0  0  0  0  0  0  0  2 V2000
  146.0454  133.3476  154.7346 O   0  0  0  0  0  0  0  0  0  0  0  0
  146.4266  133.9574  153.7355 C   0  0  0  0  0  0  0  0  0  0  0  0
  145.4046  134.5130  152.7429 C   0  0  0  0  0  0  0  0  0  0  0  0
  144.9878  133.4388  151.7538 C   0  0  0  0  0  0  0  0  0  0  0  0
  145.9205  132.4913  151.2826 C   0  0  0  0  0  0  0  0  0  0  0  0
  145.4826  131.5148  150.3656 C   0  0  0  0  0  0  0  0  0  0  0  0
  144.2128  131.4391  149.9122 N   0  0  0  0  0  0  0  0  0  0  0  0
  143.3253  132.3503  150.3656 C   0  0  0  0  0  0  0  0  0  0  0  0
  143.6600  133.3677  151.2817 C   0  0  0  0  0  0  0  0  0  0  0  0
  147.7191  134.1772  153.4477 N   0  0  0  0  0  0  0  0  0  0  0  0
  148.8532  133.7474  154.2591 C   0  0  2  0  0  0  0  0  0  0  0  0
  148.6254  132.2982  154.7290 C   0  0  0  0  0  0  0  0  0  0  0  0
  149.7581  131.8207  155.6578 C   0  0  0  0  0  0  0  0  0  0  0  0
  149.9579  132.7557  156.8764 C   0  0  2  0  0  0  0  0  0  0  0  0
  148.8101  132.6518  157.9086 C   0  0  0  0  0  0  0  0  0  0  0  0
  148.9156  133.3152  158.9641 O   0  0  0  0  0  0  0  0  0  0  0  0
  147.8531  131.8889  157.6477 O   0  5  0  0  0  0  0  0  0  0  0  0
  150.1832  134.2062  156.3835 C   0  0  0  0  0  0  0  0  0  0  0  0
  149.0513  134.6951  155.4605 C   0  0  0  0  0  0  0  0  0  0  0  0
  144.5290  134.8884  153.2748 H   0  0  0  0  0  0  0  0  0  0  0  0
  145.8356  135.3614  152.2097 H   0  0  0  0  0  0  0  0  0  0  0  0
  146.9475  132.5085  151.6168 H   0  0  0  0  0  0  0  0  0  0  0  0
  146.1717  130.7750  149.9861 H   0  0  0  0  0  0  0  0  0  0  0  0
  142.3174  132.2667  149.9869 H   0  0  0  0  0  0  0  0  0  0  0  0
  142.9126  134.0725  151.6156 H   0  0  0  0  0  0  0  0  0  0  0  0
  147.9360  134.6859  152.6028 H   0  0  0  0  0  0  0  0  0  0  0  0
  149.7562  133.7642  153.6454 H   0  0  0  0  0  0  0  0  0  0  0  0
  147.6682  132.2220  155.2464 H   0  0  0  0  0  0  0  0  0  0  0  0
  148.5579  131.6340  153.8665 H   0  0  0  0  0  0  0  0  0  0  0  0
  149.5725  130.7943  155.9767 H   0  0  0  0  0  0  0  0  0  0  0  0
  150.6873  131.7817  155.0883 H   0  0  0  0  0  0  0  0  0  0  0  0
  150.8564  132.4345  157.4043 H   0  0  0  0  0  0  0  0  0  0  0  0
  150.3026  134.8933  157.2218 H   0  0  0  0  0  0  0  0  0  0  0  0
  151.1268  134.2500  155.8384 H   0  0  0  0  0  0  0  0  0  0  0  0
  149.2811  135.7018  155.1097 H   0  0  0  0  0  0  0  0  0  0  0  0
  148.1224  134.7755  156.0269 H   0  0  0  0  0  0  0  0  0  0  0  0
  1  2  2  0  0  0  0
  2  3  1  0  0  0  0
  2 10  1  0  0  0  0
  3  4  1  0  0  0  0
  3 20  1  0  0  0  0
  3 21  1  0  0  0  0
  4  9  1  0  0  0  0
  4  5  2  0  0  0  0
  5  6  1  0  0  0  0
  5 22  1  0  0  0  0
  6  7  2  0  0  0  0
  6 23  1  0  0  0  0
  7  8  1  0  0  0  0
  8  9  2  0  0  0  0
  8 24  1  0  0  0  0
  9 25  1  0  0  0  0
 10 11  1  0  0  0  0
 10 26  1  0  0  0  0
 11 19  1  0  0  0  0
 11 12  1  0  0  0  0
 11 27  1  0  0  0  0
 12 13  1  0  0  0  0
 12 28  1  0  0  0  0
 12 29  1  0  0  0  0
 13 14  1  0  0  0  0
 13 30  1  0  0  0  0
 13 31  1  0  0  0  0
 14 15  1  0  0  0  0
 14 18  1  0  0  0  0
 14 32  1  0  0  0  0
 15 16  2  0  0  0  0
 15 17  1  0  0  0  0
 18 19  1  0  0  0  0
 18 33  1  0  0  0  0
 18 34  1  0  0  0  0
 19 35  1  0  0  0  0
 19 36  1  0  0  0  0
M  CHG  1  17  -1
M  END
> <s_m_source_file>
AV-unprocessed.smi

> <i_m_source_file_index>
1002

> <i_lp_mmshare_version>
43012

> <i_f3d_flags>
0

> <s_epik_input>
Tz1DKFtPSF0pW0NAQEhdKFtDSDJdW0NIMl0xKVtDSDJdW0NIMl1bQ0BIXTFbTkhdQyg9TylbQ0gyXWMyW2NIXVtjSF1uW2NIXVtjSF0y

> <s_epik_cmdline>
J2VwaWtfcHl0aG9uJywgJy1waCcsICc3LjAnLCAnLXRuJywgJzgnLCAnLW1hJywgJzIwMCcsICctbWV0YWxfYmluZGluZycsICctaW1hZScsICc8aW5maWxlLm1hZT4nLCAnLW9tYWUnLCAnPG91dGZpbGUubWFlPic=

> <r_lp_tautomer_probability>
1

> <r_epik_Ionization_Penalty>
0.0065671

> <r_epik_Ionization_Penalty_Charging>
0.00222897

> <r_epik_Ionization_Penalty_Neutral>
0.00433813

> <r_epik_State_Penalty>
-0

> <r_epik_Charging_Adjusted_Penalty>
0.00222897

> <i_epik_Tot_Q>
-1

> <i_epik_Tot_abs_Q>
1

> <r_epik_Metal_State_Penalty>
-0

> <b_epik_Metal_Only>
0

> <s_lp_Force_Field>
OPLS_2005

> <r_lp_Energy>
6.9224

> <b_lp_Chiralities_Consistent>
1

> <s_lp_Variant>
AV-unprocessed.smi:1002-2

> <Gold.Version>
5.8.1

> <Gold.Id.Protein>
6NUR|6NUR_protein|mol2

> <Gold.PLP.Fitness>
45.7197

> <Gold.PLP.PLP>
-31.3094

> <Gold.PLP.part.hbond>
-3.0000

> <Gold.PLP.part.metal>
0.0000

> <Gold.PLP.part.buried>
-4.2497

> <Gold.PLP.part.nonpolar>
-25.2429

> <Gold.PLP.part.repulsive>
0.2291

> <Gold.PLP.ligand.clash>
0.0000

> <Gold.PLP.ligand.torsion>
0.9248

> <Gold.PLP.Chemscore.Hbond>
3.4038

> <Gold.PLP.Chemscore.CHOScore>
2.0050

> <Gold.PLP.Chemscore.Metal>
0.0000

> <Gold.Chemscore.Hbonds>
donor molecule, donor type, donor heavy atom, donor atom, acceptor molecule, acceptor atom, score
      L1  H    10    26       P1  7948  0.91
      P1  H  6896  6909       L1    16  0.89
      P1  H 10785 10796       L1     7  0.58
      L1  C     6    23       P1 10747  0.30
      L1  C     8    24       P1 10186  0.74
      L1  C     8    24       P1 10952  1.00

> <Gold.PLP.Chemscore.Internal.Correction>
0.0334

> <Gold.Rescore>
     Score         DG    S(hbond)    S(metal)    S(lipo)     H(rot)  DE(clash)    DE(int)     intcor
     14.77     -16.84       2.34        0.00      71.64       1.88       0.04       2.03       ----

> <Gold.Chemscore.Fitness>
14.7707

> <Gold.Chemscore.DG>
-16.8442

> <Gold.Chemscore.ZeroCoef>
-5.4800

> <Gold.Chemscore.Hbond>
2.3360

> <Gold.Chemscore.Metal>
0.0000

> <Gold.Chemscore.Lipo>
71.6395

> <Gold.Chemscore.Internal_Hbond>
0.0000

> <Gold.Chemscore.DEClash>
0.0398

> <Gold.Chemscore.DEInternal>
2.0337

> <Gold.Chemscore.Rot>
1.8828

> <Gold.Chemscore.Internal.Correction>
   9.000000E+99

> <Gold.Chemscore.Hbonds>
donor molecule, donor type, donor heavy atom, donor atom, acceptor molecule, acceptor atom, score
      L1  H    10    26       P1  7948  0.61
      P1  H  6896  6909       L1    16  0.22
      P1  H 10785 10796       L1     7  0.36

> <Gold.Chemscore.Hbond.Weighted>
-7.8023

> <Gold.Chemscore.Metal.Weighted>
-0.0000

> <Gold.Chemscore.Lipo.Weighted>
-8.3818

> <Gold.Chemscore.Internal_Hbond.Weighted>
0.0000

> <Gold.Chemscore.DEClash.Weighted>
0.0398

> <Gold.Chemscore.DEInternal.Weighted>
2.0337

> <Gold.Chemscore.Rot.Weighted>
4.8199

> <Gold.Chemscore.Internal.Correction.Weighted>
   9.000000E+99

> <Gold.Protein.RotatedTorsions>
[ 6907 6896 6895 6894 ] final  -21.05 input  -60.11 | X-H torsion
[ 7974 7965 7964 7962 ] final  -32.37 input  175.53 | X-H torsion
[ 8008 7997 7996 7995 ] final -114.06 input   59.86 | X-H torsion
[ 10167 10162 10161 10158 ] final   65.75 input  -65.29 | X-H torsion
[ 10718 10713 10712 10709 ] final  -83.37 input   66.30 | X-H torsion
[ 10763 10752 10751 10750 ] final -157.03 input  -60.55 | X-H torsion
[ 11005 11000 10999 10996 ] final   35.34 input  -57.11 | X-H torsion

> <Gold.Protein.ActiveResidues>
 VAL166  LYS551  ARG553  GLY616  TRP617  ASP618  TYR619  PRO620  LYS621  CYS622 
 ASP623  PHE694  ASN695  SER759  ASP760  ASP761  ALA762  ILE779  LEU786  VAL792 
 PHE793  MET794  SER795  GLU796  ALA797  LYS798  CYS799  TRP800  GLU811  SER814 

> <Gold.Protein.RotatedAtoms>
  151.2390  135.0582  159.9017 H   0  0  0  0  0  0  0  0  0  0  0  0  # atno 6907 bound_to 6896
  152.5395  134.0455  159.8096 H   0  0  0  0  0  0  0  0  0  0  0  0  # atno 6908 bound_to 6896
  151.0645  133.5467  159.2663 H   0  0  0  0  0  0  0  0  0  0  0  0  # atno 6909 bound_to 6896
  146.0995  140.5783  142.8827 H   0  0  0  0  0  0  0  0  0  0  0  0  # atno 7974 bound_to 7965
  155.0305  140.0393  157.2472 H   0  0  0  0  0  0  0  0  0  0  0  0  # atno 8008 bound_to 7997
  154.7301  140.2729  155.6440 H   0  0  0  0  0  0  0  0  0  0  0  0  # atno 8009 bound_to 7997
  156.2839  140.2686  156.1998 H   0  0  0  0  0  0  0  0  0  0  0  0  # atno 8010 bound_to 7997
  140.1079  144.4845  150.6996 H   0  0  0  0  0  0  0  0  0  0  0  0  # atno 10167 bound_to 10162
  156.0019  130.4663  150.4247 H   0  0  0  0  0  0  0  0  0  0  0  0  # atno 10718 bound_to 10713
  154.7667  135.3133  154.8272 H   0  0  0  0  0  0  0  0  0  0  0  0  # atno 10763 bound_to 10752
  153.9018  135.6815  153.4759 H   0  0  0  0  0  0  0  0  0  0  0  0  # atno 10764 bound_to 10752
  153.1274  135.4795  154.9228 H   0  0  0  0  0  0  0  0  0  0  0  0  # atno 10765 bound_to 10752
  140.2436  134.3385  155.7916 H   0  0  0  0  0  0  0  0  0  0  0  0  # atno 11005 bound_to 11000
  144.7422  140.4972  143.6861 LP  0  0  0  0  0  0  0  0  0  0  0  0  # atno 17320 bound_to 7965
  145.5882  139.1493  143.3197 LP  0  0  0  0  0  0  0  0  0  0  0  0  # atno 17321 bound_to 7965
  140.6942  143.2394  151.5047 LP  0  0  0  0  0  0  0  0  0  0  0  0  # atno 17342 bound_to 10162
  139.5635  144.2098  152.1729 LP  0  0  0  0  0  0  0  0  0  0  0  0  # atno 17343 bound_to 10162
  157.2300  131.0502  151.2498 LP  0  0  0  0  0  0  0  0  0  0  0  0  # atno 17370 bound_to 10713
  157.3720  130.7186  149.6571 LP  0  0  0  0  0  0  0  0  0  0  0  0  # atno 17371 bound_to 10713
  141.2208  133.7313  156.8925 LP  0  0  0  0  0  0  0  0  0  0  0  0  # atno 17394 bound_to 11000
  140.1628  134.9154  157.2736 LP  0  0  0  0  0  0  0  0  0  0  0  0  # atno 17395 bound_to 11000

$$$$
