#       Name:                AV-unprocessed.smi:2822
#       Creating user name   scv26
#       Creation time:       Fri Mar 27 15:32:06 2020


#       File generated by GOLD software.
#

@<TRIPOS>MOLECULE
AV-unprocessed.smi:2822
    43    45     1
SMALL
NO_CHARGES


@<TRIPOS>ATOM
      1 ****        -5.1168   1.0470  -0.4420 Cl             1 S1                 0.0000
      2 ****        -4.2448   2.5400  -0.4231 C.ar           1 S1                 0.0000
      3 ****        -4.9600   3.7541  -0.3672 C.ar           1 S1                 0.0000
      4 ****        -4.2964   4.9295  -0.3510 N.pl3          1 S1                 1.0000
      5 ****        -2.9493   5.0063  -0.3873 C.ar           1 S1                 0.0000
      6 ****        -2.1790   3.8272  -0.4443 C.ar           1 S1                 0.0000
      7 ****        -2.8285   2.5673  -0.4621 C.ar           1 S1                 0.0000
      8 ****        -2.1184   1.3584  -0.5196 N.pl3          1 S1                 0.0000
      9 ****        -0.6709   1.3272  -0.3743 C.3            1 S1                 0.0000
     10 ****        -0.1372  -0.1115  -0.3716 C.3            1 S1                 0.0000
     11 ****         1.4014  -0.1496  -0.4217 C.3            1 S1                 0.0000
     12 ****         1.9128  -1.5121  -0.3485 N.3            1 S1                 0.0000
     13 ****         3.3738  -1.5352  -0.3944 C.3            1 S1                 0.0000
     14 ****         3.9386  -2.9639  -0.3547 C.3            1 S1                 0.0000
     15 ****         3.4329  -3.7032   0.8924 C.3            1 S1                 0.0000
     16 ****         1.8998  -3.6284   0.9663 C.3            1 S1                 0.0000
     17 ****         1.4122  -2.1682   0.8634 C.3            1 S1                 0.0000
     18 ****        -0.1276  -2.1021   0.9274 C.3            1 S1                 0.0000
     19 ****        -0.5606  -0.7487   0.8310 O.3            1 S1                 0.0000
     20 ****        -6.0379   3.8192  -0.3352 H              1 S1                 0.0000
     21 ****        -2.5298   6.0017  -0.3708 H              1 S1                 0.0000
     22 ****        -1.1028   3.9088  -0.4757 H              1 S1                 0.0000
     23 ****        -2.6233   0.4850  -0.4569 H              1 S1                 0.0000
     24 ****        -0.2290   1.8739  -1.2082 H              1 S1                 0.0000
     25 ****        -0.3775   1.8386   0.5435 H              1 S1                 0.0000
     26 ****        -0.5396  -0.6501  -1.2319 H              1 S1                 0.0000
     27 ****         1.7467   0.3222  -1.3424 H              1 S1                 0.0000
     28 ****         1.8062   0.4410   0.4018 H              1 S1                 0.0000
     29 ****         3.7185  -1.0422  -1.3041 H              1 S1                 0.0000
     30 ****         3.7798  -0.9617   0.4403 H              1 S1                 0.0000
     31 ****         3.6343  -3.5035  -1.2526 H              1 S1                 0.0000
     32 ****         5.0285  -2.9376  -0.3599 H              1 S1                 0.0000
     33 ****         3.7622  -4.7425   0.8775 H              1 S1                 0.0000
     34 ****         3.8644  -3.2502   1.7858 H              1 S1                 0.0000
     35 ****         1.4674  -4.2196   0.1578 H              1 S1                 0.0000
     36 ****         1.5545  -4.0770   1.8984 H              1 S1                 0.0000
     37 ****         1.7977  -1.6295   1.7310 H              1 S1                 0.0000
     38 ****        -0.5772  -2.6884   0.1244 H              1 S1                 0.0000
     39 ****        -0.4888  -2.5189   1.8678 H              1 S1                 0.0000
     40 ****        -4.8355   5.7950  -0.3101 H              1 S1                 0.0000
     41 ****         1.5840  -2.0173  -1.1463 LP             1 S1                 0.0000
     42 ****        -1.5598  -0.7307   0.8661 LP             1 S1                 0.0000
     43 ****        -0.1906  -0.2398   1.6083 LP             1 S1                 0.0000
@<TRIPOS>BOND
    1    1    2 1     
    2    2    7 ar    
    3    2    3 ar    
    4    3    4 ar    
    5    3   20 1     
    6    4    5 ar    
    7    4   40 1     
    8    5    6 ar    
    9    5   21 1     
   10    6    7 ar    
   11    6   22 1     
   12    7    8 1     
   13    8    9 1     
   14    8   23 1     
   15    9   10 1     
   16    9   24 1     
   17    9   25 1     
   18   10   19 1     
   19   10   11 1     
   20   10   26 1     
   21   11   12 1     
   22   11   27 1     
   23   11   28 1     
   24   12   17 1     
   25   12   13 1     
   26   13   14 1     
   27   13   29 1     
   28   13   30 1     
   29   14   15 1     
   30   14   31 1     
   31   14   32 1     
   32   15   16 1     
   33   15   33 1     
   34   15   34 1     
   35   16   17 1     
   36   16   35 1     
   37   16   36 1     
   38   17   18 1     
   39   17   37 1     
   40   18   19 1     
   41   18   38 1     
   42   18   39 1     
   43   12   41 1     
   44   19   42 1     
   45   19   43 1     
@<TRIPOS>SUBSTRUCTURE
      1 S1             1
@<TRIPOS>SET
LONE_PAIRS      STATIC     ATOMS    <user>   **** ""
3 41 42 43
DONOR_HYDROGENS      STATIC     ATOMS    <user>   **** ""
2 40 23
ATOM$BLUE        STATIC     ATOMS    COLORGROUP SYSTEM
3 41 42 43
ATOM$RED        STATIC     ATOMS    COLORGROUP SYSTEM
2 40 23
