AV-unprocessed.smi:525|AV-procd|sdf|2809|dock3
  -GOLD-   2262023283D 1   1.00000     0.00000
 Structure written by MMmdl.
 44 46  0  0  0  0  0  0  0  0  2 V2000
  140.9503  136.6627  154.0472 C   0  0  0  0  0  0  0  0  0  0  0  0
  141.3451  135.3020  154.0307 O   0  0  0  0  0  0  0  0  0  0  0  0
  142.7419  135.1446  153.8530 C   0  0  0  0  0  0  0  0  0  0  0  0
  143.1566  135.8518  152.5571 C   0  0  0  0  0  0  0  0  0  0  0  0
  144.4615  135.3836  152.0732 N   0  0  0  0  0  0  0  0  0  0  0  0
  145.6450  136.0450  151.9418 C   0  0  0  0  0  0  0  0  0  0  0  0
  145.9370  137.7412  152.3378 S   0  0  0  0  0  0  0  0  0  0  0  0
  146.5546  137.7775  154.0533 C   0  0  2  0  0  0  0  0  0  0  0  0
  145.4538  138.0087  155.0970 C   0  0  0  0  0  0  0  0  0  0  0  0
  144.2935  138.5276  154.6835 N   0  0  0  0  0  0  0  0  0  0  0  0
  145.6555  137.7271  156.2763 O   0  0  0  0  0  0  0  0  0  0  0  0
  147.6656  138.8124  154.2128 C   0  0  0  0  0  0  0  0  0  0  0  0
  148.9951  138.4244  154.4991 C   0  0  0  0  0  0  0  0  0  0  0  0
  150.0023  139.3959  154.6555 C   0  0  0  0  0  0  0  0  0  0  0  0
  149.6900  140.7623  154.5254 C   0  0  0  0  0  0  0  0  0  0  0  0
  148.3700  141.1566  154.2362 C   0  0  0  0  0  0  0  0  0  0  0  0
  147.3624  140.1854  154.0802 C   0  0  0  0  0  0  0  0  0  0  0  0
  146.5553  135.1635  151.4422 N   0  3  0  0  0  0  0  0  0  0  0  0
  145.9449  133.9252  151.2406 C   0  0  0  0  0  0  0  0  0  0  0  0
  146.4540  132.7281  150.7470 C   0  0  0  0  0  0  0  0  0  0  0  0
  145.5547  131.6449  150.6638 C   0  0  0  0  0  0  0  0  0  0  0  0
  144.2083  131.7755  151.0622 C   0  0  0  0  0  0  0  0  0  0  0  0
  143.7032  132.9942  151.5619 C   0  0  0  0  0  0  0  0  0  0  0  0
  144.5992  134.0597  151.6421 C   0  0  0  0  0  0  0  0  0  0  0  0
  139.8720  136.7297  154.1905 H   0  0  0  0  0  0  0  0  0  0  0  0
  141.1957  137.1555  153.1055 H   0  0  0  0  0  0  0  0  0  0  0  0
  141.4324  137.2042  154.8622 H   0  0  0  0  0  0  0  0  0  0  0  0
  143.2767  135.5698  154.7038 H   0  0  0  0  0  0  0  0  0  0  0  0
  142.9949  134.0842  153.7991 H   0  0  0  0  0  0  0  0  0  0  0  0
  142.4215  135.6650  151.7738 H   0  0  0  0  0  0  0  0  0  0  0  0
  143.1955  136.9330  152.6929 H   0  0  0  0  0  0  0  0  0  0  0  0
  146.9724  136.7878  154.2440 H   0  0  0  0  0  0  0  0  0  0  0  0
  143.5497  138.6935  155.3459 H   0  0  0  0  0  0  0  0  0  0  0  0
  144.1655  138.7540  153.7077 H   0  0  0  0  0  0  0  0  0  0  0  0
  149.2502  137.3798  154.6009 H   0  0  0  0  0  0  0  0  0  0  0  0
  151.0155  139.0924  154.8748 H   0  0  0  0  0  0  0  0  0  0  0  0
  150.4628  141.5075  154.6448 H   0  0  0  0  0  0  0  0  0  0  0  0
  148.1307  142.2048  154.1327 H   0  0  0  0  0  0  0  0  0  0  0  0
  146.3536  140.5005  153.8569 H   0  0  0  0  0  0  0  0  0  0  0  0
  147.4847  132.6265  150.4396 H   0  0  0  0  0  0  0  0  0  0  0  0
  145.9040  130.6949  150.2858 H   0  0  0  0  0  0  0  0  0  0  0  0
  143.5487  130.9236  150.9822 H   0  0  0  0  0  0  0  0  0  0  0  0
  142.6696  133.0848  151.8621 H   0  0  0  0  0  0  0  0  0  0  0  0
  147.5193  135.3980  151.2433 H   0  0  0  0  0  0  0  0  0  0  0  0
  1  2  1  0  0  0  0
  1 25  1  0  0  0  0
  1 26  1  0  0  0  0
  1 27  1  0  0  0  0
  2  3  1  0  0  0  0
  3  4  1  0  0  0  0
  3 28  1  0  0  0  0
  3 29  1  0  0  0  0
  4  5  1  0  0  0  0
  4 30  1  0  0  0  0
  4 31  1  0  0  0  0
  5 24  1  0  0  0  0
  5  6  1  0  0  0  0
  6  7  1  0  0  0  0
  6 18  2  0  0  0  0
  7  8  1  0  0  0  0
  8  9  1  0  0  0  0
  8 12  1  0  0  0  0
  8 32  1  0  0  0  0
  9 10  1  0  0  0  0
  9 11  2  0  0  0  0
 10 33  1  0  0  0  0
 10 34  1  0  0  0  0
 12 17  1  0  0  0  0
 12 13  2  0  0  0  0
 13 14  1  0  0  0  0
 13 35  1  0  0  0  0
 14 15  2  0  0  0  0
 14 36  1  0  0  0  0
 15 16  1  0  0  0  0
 15 37  1  0  0  0  0
 16 17  2  0  0  0  0
 16 38  1  0  0  0  0
 17 39  1  0  0  0  0
 18 19  1  0  0  0  0
 18 44  1  0  0  0  0
 19 24  2  0  0  0  0
 19 20  1  0  0  0  0
 20 21  2  0  0  0  0
 20 40  1  0  0  0  0
 21 22  1  0  0  0  0
 21 41  1  0  0  0  0
 22 23  2  0  0  0  0
 22 42  1  0  0  0  0
 23 24  1  0  0  0  0
 23 43  1  0  0  0  0
M  CHG  1  18   1
M  END
> <s_m_source_file>
AV-unprocessed.smi

> <i_m_source_file_index>
525

> <i_lp_mmshare_version>
43012

> <i_f3d_flags>
0

> <s_epik_input>
W2NIXTFbY0hdW2NIXVtjSF1jKGMxMiluKFtDSDJdW0NIMl1PW0NIM10pYyhuMilTW0NASF0oQyg9TylbTkgyXSljM1tjSF1bY0hdW2NIXVtjSF1bY0hdMw==

> <s_epik_cmdline>
J2VwaWtfcHl0aG9uJywgJy1waCcsICc3LjAnLCAnLXRuJywgJzgnLCAnLW1hJywgJzIwMCcsICctbWV0YWxfYmluZGluZycsICctaW1hZScsICc8aW5maWxlLm1hZT4nLCAnLW9tYWUnLCAnPG91dGZpbGUubWFlPic=

> <r_epik_Ionization_Penalty>
1.29485

> <r_epik_Ionization_Penalty_Charging>
1.29485

> <r_epik_Ionization_Penalty_Neutral>
1.02965e-06

> <r_epik_State_Penalty>
1.36828

> <r_epik_Charging_Adjusted_Penalty>
2.66313

> <i_epik_Tot_Q>
1

> <i_epik_Tot_abs_Q>
1

> <r_epik_Metal_State_Penalty>
1.43316

> <b_epik_Metal_Only>
0

> <s_lp_Force_Field>
OPLS_2005

> <r_lp_Energy>
14.4741

> <b_lp_Chiralities_Consistent>
1

> <s_lp_Variant>
AV-unprocessed.smi:525-3

> <Gold.Version>
5.8.1

> <Gold.Id.Protein>
6NUR|6NUR_protein|mol2

> <Gold.PLP.Fitness>
51.3979

> <Gold.PLP.PLP>
-43.1361

> <Gold.PLP.part.hbond>
-3.0000

> <Gold.PLP.part.metal>
0.0000

> <Gold.PLP.part.buried>
-6.0165

> <Gold.PLP.part.nonpolar>
-35.7458

> <Gold.PLP.part.repulsive>
0.2380

> <Gold.PLP.ligand.clash>
0.0000

> <Gold.PLP.ligand.torsion>
1.4362

> <Gold.PLP.Chemscore.Hbond>
3.6227

> <Gold.PLP.Chemscore.CHOScore>
0.0000

> <Gold.PLP.Chemscore.Metal>
0.0000

> <Gold.Chemscore.Hbonds>
donor molecule, donor type, donor heavy atom, donor atom, acceptor molecule, acceptor atom, score
      L1  H    10    34       P1 10175  0.54
      L1  H    18    44       P1  7948  1.86
      P1  H 11000 11005       L1     2  0.53

> <Gold.PLP.Chemscore.Internal.Correction>
0.2661

> <Gold.Rescore>
     Score         DG    S(hbond)    S(metal)    S(lipo)     H(rot)  DE(clash)    DE(int)     intcor
     16.80     -18.32       2.45        0.00      94.75       2.51       0.09       1.43       ----

> <Gold.Chemscore.Fitness>
16.7995

> <Gold.Chemscore.DG>
-18.3223

> <Gold.Chemscore.ZeroCoef>
-5.4800

> <Gold.Chemscore.Hbond>
2.4531

> <Gold.Chemscore.Metal>
0.0000

> <Gold.Chemscore.Lipo>
94.7538

> <Gold.Chemscore.Internal_Hbond>
0.0000

> <Gold.Chemscore.DEClash>
0.0901

> <Gold.Chemscore.DEInternal>
1.4328

> <Gold.Chemscore.Rot>
2.5145

> <Gold.Chemscore.Internal.Correction>
   9.000000E+99

> <Gold.Chemscore.Hbonds>
donor molecule, donor type, donor heavy atom, donor atom, acceptor molecule, acceptor atom, score
      L1  H    10    34       P1 10175  0.53
      L1  H    18    44       P1  7948  0.59
      P1  H 11000 11005       L1     2  0.32

> <Gold.Chemscore.Hbond.Weighted>
-8.1933

> <Gold.Chemscore.Metal.Weighted>
-0.0000

> <Gold.Chemscore.Lipo.Weighted>
-11.0862

> <Gold.Chemscore.Internal_Hbond.Weighted>
0.0000

> <Gold.Chemscore.DEClash.Weighted>
0.0901

> <Gold.Chemscore.DEInternal.Weighted>
1.4328

> <Gold.Chemscore.Rot.Weighted>
6.4372

> <Gold.Chemscore.Internal.Correction.Weighted>
   9.000000E+99

> <Gold.Protein.RotatedTorsions>
[ 6907 6896 6895 6894 ] final   16.83 input  -60.11 | X-H torsion
[ 7974 7965 7964 7962 ] final  128.76 input  175.53 | X-H torsion
[ 8008 7997 7996 7995 ] final  -86.38 input   59.86 | X-H torsion
[ 10167 10162 10161 10158 ] final    3.59 input  -65.29 | X-H torsion
[ 10718 10713 10712 10709 ] final -123.30 input   66.30 | X-H torsion
[ 10763 10752 10751 10750 ] final  -19.37 input  -60.55 | X-H torsion
[ 11005 11000 10999 10996 ] final   27.89 input  -57.11 | X-H torsion

> <Gold.Protein.ActiveResidues>
 VAL166  LYS551  ARG553  GLY616  TRP617  ASP618  TYR619  PRO620  LYS621  CYS622 
 ASP623  PHE694  ASN695  SER759  ASP760  ASP761  ALA762  ILE779  LEU786  VAL792 
 PHE793  MET794  SER795  GLU796  ALA797  LYS798  CYS799  TRP800  GLU811  SER814 

> <Gold.Protein.RotatedAtoms>
  151.8400  135.0593  160.0446 H   0  0  0  0  0  0  0  0  0  0  0  0  # atno 6907 bound_to 6896
  152.2816  133.5471  159.5509 H   0  0  0  0  0  0  0  0  0  0  0  0  # atno 6908 bound_to 6896
  150.7192  134.0472  159.3828 H   0  0  0  0  0  0  0  0  0  0  0  0  # atno 6909 bound_to 6896
  145.0360  139.4004  143.5126 H   0  0  0  0  0  0  0  0  0  0  0  0  # atno 7974 bound_to 7965
  154.6512  140.0579  156.9958 H   0  0  0  0  0  0  0  0  0  0  0  0  # atno 8008 bound_to 7997
  155.1368  140.3261  155.4443 H   0  0  0  0  0  0  0  0  0  0  0  0  # atno 8009 bound_to 7997
  156.2577  140.1971  156.6485 H   0  0  0  0  0  0  0  0  0  0  0  0  # atno 8010 bound_to 7997
  140.6578  143.7383  150.7684 H   0  0  0  0  0  0  0  0  0  0  0  0  # atno 10167 bound_to 10162
  156.1491  130.6521  150.9886 H   0  0  0  0  0  0  0  0  0  0  0  0  # atno 10718 bound_to 10713
  153.6038  135.6998  153.5374 H   0  0  0  0  0  0  0  0  0  0  0  0  # atno 10763 bound_to 10752
  153.3074  135.4111  155.1306 H   0  0  0  0  0  0  0  0  0  0  0  0  # atno 10764 bound_to 10752
  154.8577  135.3664  154.5574 H   0  0  0  0  0  0  0  0  0  0  0  0  # atno 10765 bound_to 10752
  140.3214  134.2539  155.7716 H   0  0  0  0  0  0  0  0  0  0  0  0  # atno 11005 bound_to 11000
  146.3504  139.9936  142.8683 LP  0  0  0  0  0  0  0  0  0  0  0  0  # atno 17320 bound_to 7965
  145.1709  140.9720  143.4322 LP  0  0  0  0  0  0  0  0  0  0  0  0  # atno 17321 bound_to 7965
  140.1046  143.4756  152.2405 LP  0  0  0  0  0  0  0  0  0  0  0  0  # atno 17342 bound_to 10162
  139.5804  144.7508  151.3655 LP  0  0  0  0  0  0  0  0  0  0  0  0  # atno 17343 bound_to 10162
  157.6641  131.0875  150.7769 LP  0  0  0  0  0  0  0  0  0  0  0  0  # atno 17370 bound_to 10713
  156.7838  130.4868  149.5396 LP  0  0  0  0  0  0  0  0  0  0  0  0  # atno 17371 bound_to 10713
  141.2085  133.7774  157.0052 LP  0  0  0  0  0  0  0  0  0  0  0  0  # atno 17394 bound_to 11000
  140.0938  134.9576  157.1818 LP  0  0  0  0  0  0  0  0  0  0  0  0  # atno 17395 bound_to 11000

$$$$
