AV-unprocessed.smi:222|AV-procd|sdf|1702|dock10
  -GOLD-   2262020163D 1   1.00000     0.00000
 Structure written by MMmdl.
 59 61  0  0  0  0  0  0  0  0  1 V2000
  148.2219  142.1914  153.7260 C   0  0  0  0  0  0  0  0  0  0  0  0
  149.5446  141.7260  153.9413 O   0  0  0  0  0  0  0  0  0  0  0  0
  149.7074  140.9266  155.1060 C   0  0  0  0  0  0  0  0  0  0  0  0
  151.1633  140.8940  155.6149 C   0  0  0  0  0  0  0  0  0  0  0  0
  151.2672  140.5158  157.0298 N   0  0  0  0  0  0  0  0  0  0  0  0
  151.6989  141.5419  157.9934 C   0  0  0  0  0  0  0  0  0  0  0  0
  150.6347  142.6157  158.3114 C   0  0  0  0  0  0  0  0  0  0  0  0
  149.4972  142.4968  157.8513 O   0  0  0  0  0  0  0  0  0  0  0  0
  150.9834  143.6607  159.0963 N   0  0  0  0  0  0  0  0  0  0  0  0
  150.0629  144.7471  159.4414 C   0  0  0  0  0  0  0  0  0  0  0  0
  152.3357  143.7576  159.6509 C   0  0  0  0  0  0  0  0  0  0  0  0
  151.1155  139.2093  157.4087 C   0  0  0  0  0  0  0  0  0  0  0  0
  152.2058  138.3955  157.3782 N   0  0  0  0  0  0  0  0  0  0  0  0
  152.1256  137.1194  157.7608 C   0  0  0  0  0  0  0  0  0  0  0  0
  151.0630  136.4490  158.2033 N   0  0  0  0  0  0  0  0  0  0  0  0
  149.9567  137.2442  158.2313 C   0  0  0  0  0  0  0  0  0  0  0  0
  149.8913  138.6194  157.8573 C   0  0  0  0  0  0  0  0  0  0  0  0
  148.5873  139.0753  158.0263 N   0  0  0  0  0  0  0  0  0  0  0  0
  147.9324  138.0452  158.4828 C   0  0  0  0  0  0  0  0  0  0  0  0
  148.6740  136.8957  158.6205 N   0  0  0  0  0  0  0  0  0  0  0  0
  148.2019  135.6077  159.1102 C   0  0  0  0  0  0  0  0  0  0  0  0
  146.7003  135.5683  159.5378 C   0  0  0  0  0  0  0  0  0  0  0  0
  145.8256  135.9164  158.3014 C   0  0  0  0  0  0  0  0  0  0  0  0
  144.4543  136.0761  158.6082 O   0  0  0  0  0  0  0  0  0  0  0  0
  146.3603  134.1446  160.0504 C   0  0  0  0  0  0  0  0  0  0  0  0
  146.9993  133.8364  161.4187 C   0  0  0  0  0  0  0  0  0  0  0  0
  146.6237  134.8249  162.3703 O   0  0  0  0  0  0  0  0  0  0  0  0
  147.0555  136.1331  162.0164 C   0  0  0  0  0  0  0  0  0  0  0  0
  146.3973  136.5589  160.6919 C   0  0  0  0  0  0  0  0  0  0  0  0
  148.1844  142.7458  152.7884 H   0  0  0  0  0  0  0  0  0  0  0  0
  147.8909  142.8628  154.5175 H   0  0  0  0  0  0  0  0  0  0  0  0
  147.5177  141.3620  153.6517 H   0  0  0  0  0  0  0  0  0  0  0  0
  149.0404  141.2816  155.8928 H   0  0  0  0  0  0  0  0  0  0  0  0
  149.3791  139.9148  154.8680 H   0  0  0  0  0  0  0  0  0  0  0  0
  151.7665  140.2132  155.0156 H   0  0  0  0  0  0  0  0  0  0  0  0
  151.6267  141.8673  155.4489 H   0  0  0  0  0  0  0  0  0  0  0  0
  151.9542  141.0579  158.9364 H   0  0  0  0  0  0  0  0  0  0  0  0
  152.6276  141.9913  157.6463 H   0  0  0  0  0  0  0  0  0  0  0  0
  149.5633  145.1403  158.5552 H   0  0  0  0  0  0  0  0  0  0  0  0
  150.5712  145.5897  159.9107 H   0  0  0  0  0  0  0  0  0  0  0  0
  149.3021  144.3929  160.1379 H   0  0  0  0  0  0  0  0  0  0  0  0
  152.6340  142.8190  160.1209 H   0  0  0  0  0  0  0  0  0  0  0  0
  152.4238  144.5332  160.4117 H   0  0  0  0  0  0  0  0  0  0  0  0
  153.0519  143.9834  158.8599 H   0  0  0  0  0  0  0  0  0  0  0  0
  153.0454  136.5563  157.7058 H   0  0  0  0  0  0  0  0  0  0  0  0
  146.8813  138.0959  158.7262 H   0  0  0  0  0  0  0  0  0  0  0  0
  148.3806  134.8681  158.3285 H   0  0  0  0  0  0  0  0  0  0  0  0
  148.8570  135.3190  159.9302 H   0  0  0  0  0  0  0  0  0  0  0  0
  146.1609  136.8446  157.8389 H   0  0  0  0  0  0  0  0  0  0  0  0
  145.9118  135.1360  157.5446 H   0  0  0  0  0  0  0  0  0  0  0  0
  144.1486  136.8765  158.2094 H   0  0  0  0  0  0  0  0  0  0  0  0
  145.2820  134.0322  160.1651 H   0  0  0  0  0  0  0  0  0  0  0  0
  146.6628  133.3936  159.3198 H   0  0  0  0  0  0  0  0  0  0  0  0
  146.6537  132.8661  161.7755 H   0  0  0  0  0  0  0  0  0  0  0  0
  148.0854  133.7702  161.3537 H   0  0  0  0  0  0  0  0  0  0  0  0
  146.7650  136.8203  162.8111 H   0  0  0  0  0  0  0  0  0  0  0  0
  148.1434  136.1688  161.9567 H   0  0  0  0  0  0  0  0  0  0  0  0
  146.6924  137.5742  160.4300 H   0  0  0  0  0  0  0  0  0  0  0  0
  145.3217  136.6068  160.8648 H   0  0  0  0  0  0  0  0  0  0  0  0
  1  2  1  0  0  0  0
  1 30  1  0  0  0  0
  1 31  1  0  0  0  0
  1 32  1  0  0  0  0
  2  3  1  0  0  0  0
  3  4  1  0  0  0  0
  3 33  1  0  0  0  0
  3 34  1  0  0  0  0
  4  5  1  0  0  0  0
  4 35  1  0  0  0  0
  4 36  1  0  0  0  0
  5  6  1  0  0  0  0
  5 12  1  0  0  0  0
  6  7  1  0  0  0  0
  6 37  1  0  0  0  0
  6 38  1  0  0  0  0
  7  8  2  0  0  0  0
  7  9  1  0  0  0  0
  9 10  1  0  0  0  0
  9 11  1  0  0  0  0
 10 39  1  0  0  0  0
 10 40  1  0  0  0  0
 10 41  1  0  0  0  0
 11 42  1  0  0  0  0
 11 43  1  0  0  0  0
 11 44  1  0  0  0  0
 12 17  1  0  0  0  0
 12 13  2  0  0  0  0
 13 14  1  0  0  0  0
 14 15  2  0  0  0  0
 14 45  1  0  0  0  0
 15 16  1  0  0  0  0
 16 20  1  0  0  0  0
 16 17  2  0  0  0  0
 17 18  1  0  0  0  0
 18 19  2  0  0  0  0
 19 20  1  0  0  0  0
 19 46  1  0  0  0  0
 20 21  1  0  0  0  0
 21 22  1  0  0  0  0
 21 47  1  0  0  0  0
 21 48  1  0  0  0  0
 22 29  1  0  0  0  0
 22 23  1  0  0  0  0
 22 25  1  0  0  0  0
 23 24  1  0  0  0  0
 23 49  1  0  0  0  0
 23 50  1  0  0  0  0
 24 51  1  0  0  0  0
 25 26  1  0  0  0  0
 25 52  1  0  0  0  0
 25 53  1  0  0  0  0
 26 27  1  0  0  0  0
 26 54  1  0  0  0  0
 26 55  1  0  0  0  0
 27 28  1  0  0  0  0
 28 29  1  0  0  0  0
 28 56  1  0  0  0  0
 28 57  1  0  0  0  0
 29 58  1  0  0  0  0
 29 59  1  0  0  0  0
M  END
> <s_m_source_file>
AV-unprocessed.smi

> <i_m_source_file_index>
222

> <i_lp_mmshare_version>
43012

> <i_f3d_flags>
0

> <s_epik_input>
W0NIM11PW0NIMl1bQ0gyXU4oW0NIMl1DKD1PKU4oW0NIM10pW0NIM10pYyhuW2NIXW4xKWMoYzEyKW5bY0hdbjJbQ0gyXUMzKFtDSDJdW09IXSlbQ0gyXVtDSDJdT1tDSDJdW0NIMl0z

> <s_epik_cmdline>
J2VwaWtfcHl0aG9uJywgJy1waCcsICc3LjAnLCAnLXRuJywgJzgnLCAnLW1hJywgJzIwMCcsICctbWV0YWxfYmluZGluZycsICctaW1hZScsICc8aW5maWxlLm1hZT4nLCAnLW9tYWUnLCAnPG91dGZpbGUubWFlPic=

> <r_lp_tautomer_probability>
1

> <r_epik_Ionization_Penalty>
0.000796957

> <r_epik_Ionization_Penalty_Charging>
0

> <r_epik_Ionization_Penalty_Neutral>
0.000796957

> <r_epik_State_Penalty>
0.000428513

> <r_epik_Charging_Adjusted_Penalty>
0.000428513

> <i_epik_Tot_Q>
0

> <i_epik_Tot_abs_Q>
0

> <r_epik_Metal_State_Penalty>
-0

> <b_epik_Metal_Only>
0

> <s_lp_Force_Field>
OPLS_2005

> <r_lp_Energy>
34.6666

> <b_lp_Chiralities_Consistent>
1

> <s_lp_Variant>
AV-unprocessed.smi:222-1

> <Gold.Version>
5.8.1

> <Gold.Id.Protein>
6NUR|6NUR_protein|mol2

> <Gold.PLP.Fitness>
45.7140

> <Gold.PLP.PLP>
-46.1617

> <Gold.PLP.part.hbond>
-3.6300

> <Gold.PLP.part.metal>
0.0000

> <Gold.PLP.part.buried>
-5.1393

> <Gold.PLP.part.nonpolar>
-38.1201

> <Gold.PLP.part.repulsive>
0.3259

> <Gold.PLP.ligand.clash>
0.0000

> <Gold.PLP.ligand.torsion>
2.0507

> <Gold.PLP.Chemscore.Hbond>
1.0370

> <Gold.PLP.Chemscore.CHOScore>
0.0000

> <Gold.PLP.Chemscore.Metal>
0.0000

> <Gold.Chemscore.Hbonds>
donor molecule, donor type, donor heavy atom, donor atom, acceptor molecule, acceptor atom, score
      P1  H  6896  6908       L1    15  0.51
      P1  H  7989  7998       L1     2  0.01
      P1  H  8011  8017       L1     2  0.08

> <Gold.PLP.Chemscore.Internal.Correction>
0.5425

> <Gold.Rescore>
     Score         DG    S(hbond)    S(metal)    S(lipo)     H(rot)  DE(clash)    DE(int)     intcor
      5.75     -10.50       0.83        0.00      95.55       3.49       1.61       3.14       ----

> <Gold.Chemscore.Fitness>
5.7466

> <Gold.Chemscore.DG>
-10.5020

> <Gold.Chemscore.ZeroCoef>
-5.4800

> <Gold.Chemscore.Hbond>
0.8315

> <Gold.Chemscore.Metal>
0.0000

> <Gold.Chemscore.Lipo>
95.5514

> <Gold.Chemscore.Internal_Hbond>
0.0000

> <Gold.Chemscore.DEClash>
1.6108

> <Gold.Chemscore.DEInternal>
3.1446

> <Gold.Chemscore.Rot>
3.4901

> <Gold.Chemscore.Internal.Correction>
   9.000000E+99

> <Gold.Chemscore.Hbonds>
donor molecule, donor type, donor heavy atom, donor atom, acceptor molecule, acceptor atom, score
      P1  H  6896  6908       L1    15  0.43

> <Gold.Chemscore.Hbond.Weighted>
-2.7771

> <Gold.Chemscore.Metal.Weighted>
-0.0000

> <Gold.Chemscore.Lipo.Weighted>
-11.1795

> <Gold.Chemscore.Internal_Hbond.Weighted>
0.0000

> <Gold.Chemscore.DEClash.Weighted>
1.6108

> <Gold.Chemscore.DEInternal.Weighted>
3.1446

> <Gold.Chemscore.Rot.Weighted>
8.9347

> <Gold.Chemscore.Internal.Correction.Weighted>
   9.000000E+99

> <Gold.Protein.RotatedTorsions>
[ 6907 6896 6895 6894 ] final -148.89 input  -60.11 | X-H torsion
[ 7974 7965 7964 7962 ] final -120.37 input  175.53 | X-H torsion
[ 8008 7997 7996 7995 ] final -144.55 input   59.86 | X-H torsion
[ 10167 10162 10161 10158 ] final   22.87 input  -65.29 | X-H torsion
[ 10718 10713 10712 10709 ] final  -16.38 input   66.30 | X-H torsion
[ 10763 10752 10751 10750 ] final  101.50 input  -60.55 | X-H torsion
[ 11005 11000 10999 10996 ] final  -13.20 input  -57.11 | X-H torsion

> <Gold.Protein.ActiveResidues>
 VAL166  LYS551  ARG553  GLY616  TRP617  ASP618  TYR619  PRO620  LYS621  CYS622 
 ASP623  PHE694  ASN695  SER759  ASP760  ASP761  ALA762  ILE779  LEU786  VAL792 
 PHE793  MET794  SER795  GLU796  ALA797  LYS798  CYS799  TRP800  GLU811  SER814 

> <Gold.Protein.RotatedAtoms>
  151.1763  133.4752  159.2593 H   0  0  0  0  0  0  0  0  0  0  0  0  # atno 6907 bound_to 6896
  151.1304  135.0127  159.8590 H   0  0  0  0  0  0  0  0  0  0  0  0  # atno 6908 bound_to 6896
  152.5459  134.1667  159.8633 H   0  0  0  0  0  0  0  0  0  0  0  0  # atno 6909 bound_to 6896
  145.0521  140.8226  143.4203 H   0  0  0  0  0  0  0  0  0  0  0  0  # atno 7974 bound_to 7965
  155.5287  140.0598  157.2893 H   0  0  0  0  0  0  0  0  0  0  0  0  # atno 8008 bound_to 7997
  154.4492  140.1939  156.0517 H   0  0  0  0  0  0  0  0  0  0  0  0  # atno 8009 bound_to 7997
  156.0667  140.3265  155.7531 H   0  0  0  0  0  0  0  0  0  0  0  0  # atno 8010 bound_to 7997
  140.5314  143.9835  150.6468 H   0  0  0  0  0  0  0  0  0  0  0  0  # atno 10167 bound_to 10162
  156.5884  130.4792  149.6290 H   0  0  0  0  0  0  0  0  0  0  0  0  # atno 10718 bound_to 10713
  153.3275  135.4042  155.1468 H   0  0  0  0  0  0  0  0  0  0  0  0  # atno 10763 bound_to 10752
  154.8615  135.3602  154.5514 H   0  0  0  0  0  0  0  0  0  0  0  0  # atno 10764 bound_to 10752
  153.5951  135.7073  153.5466 H   0  0  0  0  0  0  0  0  0  0  0  0  # atno 10765 bound_to 10752
  140.7736  133.8419  155.9229 H   0  0  0  0  0  0  0  0  0  0  0  0  # atno 11005 bound_to 11000
  145.1514  139.2512  143.5439 LP  0  0  0  0  0  0  0  0  0  0  0  0  # atno 17320 bound_to 7965
  146.3518  140.1217  142.8600 LP  0  0  0  0  0  0  0  0  0  0  0  0  # atno 17321 bound_to 7965
  140.3211  143.3137  152.0783 LP  0  0  0  0  0  0  0  0  0  0  0  0  # atno 17342 bound_to 10162
  139.4955  144.6573  151.6544 LP  0  0  0  0  0  0  0  0  0  0  0  0  # atno 17343 bound_to 10162
  156.2571  130.6941  151.1697 LP  0  0  0  0  0  0  0  0  0  0  0  0  # atno 17370 bound_to 10713
  157.7309  131.0612  150.5701 LP  0  0  0  0  0  0  0  0  0  0  0  0  # atno 17371 bound_to 10713
  140.9550  134.1730  157.4698 LP  0  0  0  0  0  0  0  0  0  0  0  0  # atno 17394 bound_to 11000
  139.8752  134.9923  156.5592 LP  0  0  0  0  0  0  0  0  0  0  0  0  # atno 17395 bound_to 11000

$$$$
