AV-unprocessed.smi:3245|AV-procd|sdf|12404|dock7
  -GOLD-   2272018283D 1   1.00000     0.00000
 Structure written by MMmdl.
 35 36  0  0  0  0  0  0  0  0  1 V2000
  150.8447  142.0439  156.4360 C   0  0  0  0  0  0  0  0  0  0  0  0
  151.2931  141.0851  157.5519 C   0  0  2  0  0  0  0  0  0  0  0  0
  152.5263  141.6029  158.3293 C   0  0  0  0  0  0  0  0  0  0  0  0
  152.3187  142.9196  158.9034 N   0  0  0  0  0  0  0  0  0  0  0  0
  152.1025  144.1158  158.2516 C   0  0  0  0  0  0  0  0  0  0  0  0
  151.9679  145.0807  159.2084 C   0  0  0  0  0  0  0  0  0  0  0  0
  152.1233  144.3686  160.4306 C   0  0  0  0  0  0  0  0  0  0  0  0
  152.3343  143.0756  160.2447 N   0  0  0  0  0  0  0  0  0  0  0  0
  151.6018  139.8038  156.9307 N   0  0  0  0  0  0  0  0  0  0  0  0
  152.5563  139.9415  155.8393 C   0  0  0  0  0  0  0  0  0  0  0  0
  152.6757  138.6142  155.0695 C   0  0  0  0  0  0  0  0  0  0  0  0
  151.3797  137.9370  154.9426 N   0  0  0  0  0  0  0  0  0  0  0  0
  151.1568  136.6587  155.2771 C   0  0  0  0  0  0  0  0  0  0  0  0
  151.9686  135.8448  155.7163 O   0  0  0  0  0  0  0  0  0  0  0  0
  149.6964  136.3469  155.0329 C   0  0  0  0  0  0  0  0  0  0  0  0
  149.2595  137.6363  154.5431 N   0  0  0  0  0  0  0  0  0  0  0  0
  150.2546  138.5318  154.5050 C   0  0  0  0  0  0  0  0  0  0  0  0
  150.1424  139.6992  154.1337 O   0  0  0  0  0  0  0  0  0  0  0  0
  150.5294  143.0062  156.8399 H   0  0  0  0  0  0  0  0  0  0  0  0
  149.9971  141.6363  155.8837 H   0  0  0  0  0  0  0  0  0  0  0  0
  151.6491  142.2299  155.7233 H   0  0  0  0  0  0  0  0  0  0  0  0
  150.4531  140.9568  158.2364 H   0  0  0  0  0  0  0  0  0  0  0  0
  152.7962  140.9256  159.1397 H   0  0  0  0  0  0  0  0  0  0  0  0
  153.3931  141.6526  157.6686 H   0  0  0  0  0  0  0  0  0  0  0  0
  152.0602  144.1789  157.1741 H   0  0  0  0  0  0  0  0  0  0  0  0
  151.7872  146.1346  159.0581 H   0  0  0  0  0  0  0  0  0  0  0  0
  152.0896  144.7502  161.4405 H   0  0  0  0  0  0  0  0  0  0  0  0
  151.9865  139.1753  157.6216 H   0  0  0  0  0  0  0  0  0  0  0  0
  152.2693  140.7433  155.1597 H   0  0  0  0  0  0  0  0  0  0  0  0
  153.5270  140.2113  156.2571 H   0  0  0  0  0  0  0  0  0  0  0  0
  153.0649  138.8150  154.0703 H   0  0  0  0  0  0  0  0  0  0  0  0
  153.4139  137.9639  155.5423 H   0  0  0  0  0  0  0  0  0  0  0  0
  149.5699  135.5665  154.2820 H   0  0  0  0  0  0  0  0  0  0  0  0
  149.1839  136.0717  155.9551 H   0  0  0  0  0  0  0  0  0  0  0  0
  148.3065  137.8274  154.2696 H   0  0  0  0  0  0  0  0  0  0  0  0
  1  2  1  0  0  0  0
  1 19  1  0  0  0  0
  1 20  1  0  0  0  0
  1 21  1  0  0  0  0
  2  3  1  0  0  0  0
  2  9  1  0  0  0  0
  2 22  1  0  0  0  0
  3  4  1  0  0  0  0
  3 23  1  0  0  0  0
  3 24  1  0  0  0  0
  4  8  1  0  0  0  0
  4  5  1  0  0  0  0
  5  6  2  0  0  0  0
  5 25  1  0  0  0  0
  6  7  1  0  0  0  0
  6 26  1  0  0  0  0
  7  8  2  0  0  0  0
  7 27  1  0  0  0  0
  9 10  1  0  0  0  0
  9 28  1  0  0  0  0
 10 11  1  0  0  0  0
 10 29  1  0  0  0  0
 10 30  1  0  0  0  0
 11 12  1  0  0  0  0
 11 31  1  0  0  0  0
 11 32  1  0  0  0  0
 12 17  1  0  0  0  0
 12 13  1  0  0  0  0
 13 14  2  0  0  0  0
 13 15  1  0  0  0  0
 15 16  1  0  0  0  0
 15 33  1  0  0  0  0
 15 34  1  0  0  0  0
 16 17  1  0  0  0  0
 16 35  1  0  0  0  0
 17 18  2  0  0  0  0
M  END
> <s_m_source_file>
AV-unprocessed.smi

> <i_m_source_file_index>
3245

> <i_lp_mmshare_version>
43012

> <i_f3d_flags>
0

> <s_epik_input>
bjFbY0hdW2NIXVtjSF1uMVtDSDJdW0NAQEhdKFtDSDNdKVtOSF1bQ0gyXVtDSDJdTjJDKD1PKVtDSDJdW05IXUMyPU8=

> <s_epik_cmdline>
J2VwaWtfcHl0aG9uJywgJy1waCcsICc3LjAnLCAnLXRuJywgJzgnLCAnLW1hJywgJzIwMCcsICctbWV0YWxfYmluZGluZycsICctaW1hZScsICc8aW5maWxlLm1hZT4nLCAnLW9tYWUnLCAnPG91dGZpbGUubWFlPic=

> <r_lp_tautomer_probability>
1

> <r_epik_Ionization_Penalty>
2.14948

> <r_epik_Ionization_Penalty_Charging>
0

> <r_epik_Ionization_Penalty_Neutral>
2.14948

> <r_epik_State_Penalty>
2.28912

> <r_epik_Charging_Adjusted_Penalty>
2.28912

> <i_epik_Tot_Q>
0

> <i_epik_Tot_abs_Q>
0

> <r_epik_Metal_State_Penalty>
2.36471

> <b_epik_Metal_Only>
0

> <s_lp_Force_Field>
OPLS_2005

> <r_lp_Energy>
24.3933

> <b_lp_Chiralities_Consistent>
1

> <s_lp_Variant>
AV-unprocessed.smi:3245-3

> <Gold.Version>
5.8.1

> <Gold.Id.Protein>
6NUR|6NUR_protein|mol2

> <Gold.PLP.Fitness>
43.2319

> <Gold.PLP.PLP>
-37.6763

> <Gold.PLP.part.hbond>
-3.0000

> <Gold.PLP.part.metal>
0.0000

> <Gold.PLP.part.buried>
-3.4912

> <Gold.PLP.part.nonpolar>
-31.7524

> <Gold.PLP.part.repulsive>
0.9305

> <Gold.PLP.ligand.clash>
0.0000

> <Gold.PLP.ligand.torsion>
0.2698

> <Gold.PLP.Chemscore.Hbond>
2.0000

> <Gold.PLP.Chemscore.CHOScore>
0.0000

> <Gold.PLP.Chemscore.Metal>
0.0000

> <Gold.Chemscore.Hbonds>
donor molecule, donor type, donor heavy atom, donor atom, acceptor molecule, acceptor atom, score
      P1  H  7989  7998       L1    18  1.00
      P1  H 10752 10763       L1    14  0.76

> <Gold.PLP.Chemscore.Internal.Correction>
0.0952

> <Gold.Rescore>
     Score         DG    S(hbond)    S(metal)    S(lipo)     H(rot)  DE(clash)    DE(int)     intcor
     12.04     -14.09       1.86        0.00      78.69       2.66       0.68       1.37       ----

> <Gold.Chemscore.Fitness>
12.0432

> <Gold.Chemscore.DG>
-14.0904

> <Gold.Chemscore.ZeroCoef>
-5.4800

> <Gold.Chemscore.Hbond>
1.8608

> <Gold.Chemscore.Metal>
0.0000

> <Gold.Chemscore.Lipo>
78.6935

> <Gold.Chemscore.Internal_Hbond>
0.0000

> <Gold.Chemscore.DEClash>
0.6758

> <Gold.Chemscore.DEInternal>
1.3714

> <Gold.Chemscore.Rot>
2.6609

> <Gold.Chemscore.Internal.Correction>
   9.000000E+99

> <Gold.Chemscore.Hbonds>
donor molecule, donor type, donor heavy atom, donor atom, acceptor molecule, acceptor atom, score
      P1  H  7989  7998       L1    18  0.94
      P1  H 10752 10763       L1    14  0.58

> <Gold.Chemscore.Hbond.Weighted>
-6.2151

> <Gold.Chemscore.Metal.Weighted>
-0.0000

> <Gold.Chemscore.Lipo.Weighted>
-9.2071

> <Gold.Chemscore.Internal_Hbond.Weighted>
0.0000

> <Gold.Chemscore.DEClash.Weighted>
0.6758

> <Gold.Chemscore.DEInternal.Weighted>
1.3714

> <Gold.Chemscore.Rot.Weighted>
6.8118

> <Gold.Chemscore.Internal.Correction.Weighted>
   9.000000E+99

> <Gold.Protein.RotatedTorsions>
[ 6907 6896 6895 6894 ] final  -91.55 input  -60.11 | X-H torsion
[ 7974 7965 7964 7962 ] final   13.80 input  175.53 | X-H torsion
[ 8008 7997 7996 7995 ] final  -14.92 input   59.86 | X-H torsion
[ 10167 10162 10161 10158 ] final  112.39 input  -65.29 | X-H torsion
[ 10718 10713 10712 10709 ] final -157.09 input   66.30 | X-H torsion
[ 10763 10752 10751 10750 ] final   66.43 input  -60.55 | X-H torsion
[ 11005 11000 10999 10996 ] final   10.90 input  -57.11 | X-H torsion

> <Gold.Protein.ActiveResidues>
 VAL166  LYS551  ARG553  GLY616  TRP617  ASP618  TYR619  PRO620  LYS621  CYS622 
 ASP623  PHE694  ASN695  SER759  ASP760  ASP761  ALA762  ILE779  LEU786  VAL792 
 PHE793  MET794  SER795  GLU796  ALA797  LYS798  CYS799  TRP800  GLU811  SER814 

> <Gold.Protein.RotatedAtoms>
  150.6894  134.2260  159.4415 H   0  0  0  0  0  0  0  0  0  0  0  0  # atno 6907 bound_to 6896
  152.0213  134.9818  160.0580 H   0  0  0  0  0  0  0  0  0  0  0  0  # atno 6908 bound_to 6896
  152.1394  133.4420  159.4796 H   0  0  0  0  0  0  0  0  0  0  0  0  # atno 6909 bound_to 6896
  146.2321  139.9136  142.8520 H   0  0  0  0  0  0  0  0  0  0  0  0  # atno 7974 bound_to 7965
  154.5171  140.2210  155.9045 H   0  0  0  0  0  0  0  0  0  0  0  0  # atno 8008 bound_to 7997
  156.1620  140.3140  155.8789 H   0  0  0  0  0  0  0  0  0  0  0  0  # atno 8009 bound_to 7997
  155.3732  140.0468  157.3036 H   0  0  0  0  0  0  0  0  0  0  0  0  # atno 8010 bound_to 7997
  139.6539  144.7129  151.1994 H   0  0  0  0  0  0  0  0  0  0  0  0  # atno 10167 bound_to 10162
  156.5355  130.8540  151.2731 H   0  0  0  0  0  0  0  0  0  0  0  0  # atno 10718 bound_to 10713
  153.0139  135.5321  154.6822 H   0  0  0  0  0  0  0  0  0  0  0  0  # atno 10763 bound_to 10752
  154.5979  135.2865  155.0569 H   0  0  0  0  0  0  0  0  0  0  0  0  # atno 10764 bound_to 10752
  154.1637  135.6543  153.5044 H   0  0  0  0  0  0  0  0  0  0  0  0  # atno 10765 bound_to 10752
  140.5093  134.0668  155.7814 H   0  0  0  0  0  0  0  0  0  0  0  0  # atno 11005 bound_to 11000
  145.2206  140.9933  143.4048 LP  0  0  0  0  0  0  0  0  0  0  0  0  # atno 17320 bound_to 7965
  144.9614  139.3976  143.6354 LP  0  0  0  0  0  0  0  0  0  0  0  0  # atno 17321 bound_to 7965
  140.7550  143.6104  150.8611 LP  0  0  0  0  0  0  0  0  0  0  0  0  # atno 17342 bound_to 10162
  139.9755  143.6009  152.2960 LP  0  0  0  0  0  0  0  0  0  0  0  0  # atno 17343 bound_to 10162
  157.7414  130.9870  150.2445 LP  0  0  0  0  0  0  0  0  0  0  0  0  # atno 17370 bound_to 10713
  156.3020  130.3760  149.7742 LP  0  0  0  0  0  0  0  0  0  0  0  0  # atno 17371 bound_to 10713
  141.1394  133.9165  157.2360 LP  0  0  0  0  0  0  0  0  0  0  0  0  # atno 17394 bound_to 11000
  139.9668  135.0139  156.9408 LP  0  0  0  0  0  0  0  0  0  0  0  0  # atno 17395 bound_to 11000

$$$$
