AV-unprocessed.smi:3241|AV-procd|sdf|12391|dock6
  -GOLD-   2272018263D 1   1.00000     0.00000
 Structure written by MMmdl.
 43 44  0  0  0  0  0  0  0  0  1 V2000
  153.8370  141.4029  160.2867 C   0  0  0  0  0  0  0  0  0  0  0  0
  153.2917  142.8192  160.0472 C   0  0  2  0  0  0  0  0  0  0  0  0
  152.4187  143.3052  161.2222 C   0  0  0  0  0  0  0  0  0  0  0  0
  151.9046  144.7355  160.9916 C   0  0  0  0  0  0  0  0  0  0  0  0
  151.1506  144.8505  159.6584 C   0  0  0  0  0  0  0  0  0  0  0  0
  152.0179  144.3681  158.4846 C   0  0  0  0  0  0  0  0  0  0  0  0
  152.5344  142.9307  158.7051 C   0  0  2  0  0  0  0  0  0  0  0  0
  151.4255  142.0348  158.7232 O   0  0  0  0  0  0  0  0  0  0  0  0
  150.4206  142.2599  157.7400 C   0  0  0  0  0  0  0  0  0  0  0  0
  151.0104  142.4876  156.3393 C   0  0  0  0  0  0  0  0  0  0  0  0
  149.9596  142.8141  155.3834 N   0  0  0  0  0  0  0  0  0  0  0  0
  149.0537  141.7067  155.0980 C   0  0  0  0  0  0  0  0  0  0  0  0
  149.3292  141.1001  153.7133 C   0  0  0  0  0  0  0  0  0  0  0  0
  150.5991  140.3948  153.6715 N   0  0  0  0  0  0  0  0  0  0  0  0
  150.8531  139.1154  153.2238 C   0  0  0  0  0  0  0  0  0  0  0  0
  152.1885  138.8841  153.3895 C   0  0  0  0  0  0  0  0  0  0  0  0
  152.6742  140.0977  153.9518 C   0  0  0  0  0  0  0  0  0  0  0  0
  151.7212  141.0004  154.1179 N   0  0  0  0  0  0  0  0  0  0  0  0
  153.0300  140.6771  160.3918 H   0  0  0  0  0  0  0  0  0  0  0  0
  154.4382  141.3633  161.1954 H   0  0  0  0  0  0  0  0  0  0  0  0
  154.4690  141.0807  159.4587 H   0  0  0  0  0  0  0  0  0  0  0  0
  154.1553  143.4833  159.9875 H   0  0  0  0  0  0  0  0  0  0  0  0
  151.5712  142.6320  161.3580 H   0  0  0  0  0  0  0  0  0  0  0  0
  152.9899  143.2698  162.1505 H   0  0  0  0  0  0  0  0  0  0  0  0
  151.2530  145.0330  161.8137 H   0  0  0  0  0  0  0  0  0  0  0  0
  152.7448  145.4309  160.9963 H   0  0  0  0  0  0  0  0  0  0  0  0
  150.2334  144.2616  159.7027 H   0  0  0  0  0  0  0  0  0  0  0  0
  150.8443  145.8835  159.4930 H   0  0  0  0  0  0  0  0  0  0  0  0
  151.4502  144.4369  157.5573 H   0  0  0  0  0  0  0  0  0  0  0  0
  152.8681  145.0409  158.3676 H   0  0  0  0  0  0  0  0  0  0  0  0
  153.2259  142.6760  157.8999 H   0  0  0  0  0  0  0  0  0  0  0  0
  149.7241  141.4203  157.7294 H   0  0  0  0  0  0  0  0  0  0  0  0
  149.8416  143.1334  158.0410 H   0  0  0  0  0  0  0  0  0  0  0  0
  151.7631  143.2755  156.3639 H   0  0  0  0  0  0  0  0  0  0  0  0
  151.5265  141.5818  156.0193 H   0  0  0  0  0  0  0  0  0  0  0  0
  149.4360  143.6243  155.6995 H   0  0  0  0  0  0  0  0  0  0  0  0
  149.1535  140.9333  155.8605 H   0  0  0  0  0  0  0  0  0  0  0  0
  148.0214  142.0552  155.1418 H   0  0  0  0  0  0  0  0  0  0  0  0
  148.5412  140.3910  153.4574 H   0  0  0  0  0  0  0  0  0  0  0  0
  149.3155  141.8736  152.9434 H   0  0  0  0  0  0  0  0  0  0  0  0
  150.0701  138.4824  152.8330 H   0  0  0  0  0  0  0  0  0  0  0  0
  152.7352  137.9846  153.1486 H   0  0  0  0  0  0  0  0  0  0  0  0
  153.6837  140.3473  154.2435 H   0  0  0  0  0  0  0  0  0  0  0  0
  1  2  1  0  0  0  0
  1 19  1  0  0  0  0
  1 20  1  0  0  0  0
  1 21  1  0  0  0  0
  2  7  1  0  0  0  0
  2  3  1  0  0  0  0
  2 22  1  0  0  0  0
  3  4  1  0  0  0  0
  3 23  1  0  0  0  0
  3 24  1  0  0  0  0
  4  5  1  0  0  0  0
  4 25  1  0  0  0  0
  4 26  1  0  0  0  0
  5  6  1  0  0  0  0
  5 27  1  0  0  0  0
  5 28  1  0  0  0  0
  6  7  1  0  0  0  0
  6 29  1  0  0  0  0
  6 30  1  0  0  0  0
  7  8  1  0  0  0  0
  7 31  1  0  0  0  0
  8  9  1  0  0  0  0
  9 10  1  0  0  0  0
  9 32  1  0  0  0  0
  9 33  1  0  0  0  0
 10 11  1  0  0  0  0
 10 34  1  0  0  0  0
 10 35  1  0  0  0  0
 11 12  1  0  0  0  0
 11 36  1  0  0  0  0
 12 13  1  0  0  0  0
 12 37  1  0  0  0  0
 12 38  1  0  0  0  0
 13 14  1  0  0  0  0
 13 39  1  0  0  0  0
 13 40  1  0  0  0  0
 14 18  1  0  0  0  0
 14 15  1  0  0  0  0
 15 16  2  0  0  0  0
 15 41  1  0  0  0  0
 16 17  1  0  0  0  0
 16 42  1  0  0  0  0
 17 18  2  0  0  0  0
 17 43  1  0  0  0  0
M  END
> <s_m_source_file>
AV-unprocessed.smi

> <i_m_source_file_index>
3241

> <i_lp_mmshare_version>
43012

> <i_f3d_flags>
0

> <s_epik_input>
W0NIM11bQ0BASF0xW0NIMl1bQ0gyXVtDSDJdW0NIMl1bQ0BIXTFPW0NIMl1bQ0gyXVtOSF1bQ0gyXVtDSDJdbjJbY0hdW2NIXVtjSF1uMg==

> <s_epik_cmdline>
J2VwaWtfcHl0aG9uJywgJy1waCcsICc3LjAnLCAnLXRuJywgJzgnLCAnLW1hJywgJzIwMCcsICctbWV0YWxfYmluZGluZycsICctaW1hZScsICc8aW5maWxlLm1hZT4nLCAnLW9tYWUnLCAnPG91dGZpbGUubWFlPic=

> <r_lp_tautomer_probability>
1

> <r_epik_Ionization_Penalty>
2.47055

> <r_epik_Ionization_Penalty_Charging>
0

> <r_epik_Ionization_Penalty_Neutral>
2.47055

> <r_epik_State_Penalty>
2.6322

> <r_epik_Charging_Adjusted_Penalty>
2.6322

> <i_epik_Tot_Q>
0

> <i_epik_Tot_abs_Q>
0

> <r_epik_Metal_State_Penalty>
2.63108

> <b_epik_Metal_Only>
0

> <s_lp_Force_Field>
OPLS_2005

> <r_lp_Energy>
17.4206

> <b_lp_Chiralities_Consistent>
1

> <s_lp_Variant>
AV-unprocessed.smi:3241-7

> <Gold.Version>
5.8.1

> <Gold.Id.Protein>
6NUR|6NUR_protein|mol2

> <Gold.PLP.Fitness>
59.0163

> <Gold.PLP.PLP>
-51.4316

> <Gold.PLP.part.hbond>
-1.9526

> <Gold.PLP.part.metal>
0.0000

> <Gold.PLP.part.buried>
-4.3790

> <Gold.PLP.part.nonpolar>
-45.4932

> <Gold.PLP.part.repulsive>
0.0882

> <Gold.PLP.ligand.clash>
0.0810

> <Gold.PLP.ligand.torsion>
0.6340

> <Gold.PLP.Chemscore.Hbond>
2.0000

> <Gold.PLP.Chemscore.CHOScore>
0.9310

> <Gold.PLP.Chemscore.Metal>
0.0000

> <Gold.Chemscore.Hbonds>
donor molecule, donor type, donor heavy atom, donor atom, acceptor molecule, acceptor atom, score
      L1  H    11    36       P1  8028  0.24
      L1  C    15    41       P1  7948  0.73
      L1  C    15    41       P1  7957  0.22

> <Gold.PLP.Chemscore.Internal.Correction>
0.1407

> <Gold.Rescore>
     Score         DG    S(hbond)    S(metal)    S(lipo)     H(rot)  DE(clash)    DE(int)     intcor
     21.06     -22.70       1.98        0.00     129.94       1.79       0.14       1.51       ----

> <Gold.Chemscore.Fitness>
21.0590

> <Gold.Chemscore.DG>
-22.7018

> <Gold.Chemscore.ZeroCoef>
-5.4800

> <Gold.Chemscore.Hbond>
1.9764

> <Gold.Chemscore.Metal>
0.0000

> <Gold.Chemscore.Lipo>
129.9415

> <Gold.Chemscore.Internal_Hbond>
0.0000

> <Gold.Chemscore.DEClash>
0.1363

> <Gold.Chemscore.DEInternal>
1.5065

> <Gold.Chemscore.Rot>
1.7901

> <Gold.Chemscore.Internal.Correction>
   9.000000E+99

> <Gold.Chemscore.Hbonds>
donor molecule, donor type, donor heavy atom, donor atom, acceptor molecule, acceptor atom, score
      L1  H    11    36       P1  8028  0.25

> <Gold.Chemscore.Hbond.Weighted>
-6.6013

> <Gold.Chemscore.Metal.Weighted>
-0.0000

> <Gold.Chemscore.Lipo.Weighted>
-15.2032

> <Gold.Chemscore.Internal_Hbond.Weighted>
0.0000

> <Gold.Chemscore.DEClash.Weighted>
0.1363

> <Gold.Chemscore.DEInternal.Weighted>
1.5065

> <Gold.Chemscore.Rot.Weighted>
4.5827

> <Gold.Chemscore.Internal.Correction.Weighted>
   9.000000E+99

> <Gold.Protein.RotatedTorsions>
[ 6907 6896 6895 6894 ] final  -15.74 input  -60.11 | X-H torsion
[ 7974 7965 7964 7962 ] final  -53.64 input  175.53 | X-H torsion
[ 8008 7997 7996 7995 ] final  -39.89 input   59.86 | X-H torsion
[ 10167 10162 10161 10158 ] final   36.06 input  -65.29 | X-H torsion
[ 10718 10713 10712 10709 ] final -177.77 input   66.30 | X-H torsion
[ 10763 10752 10751 10750 ] final   50.88 input  -60.55 | X-H torsion
[ 11005 11000 10999 10996 ] final    2.83 input  -57.11 | X-H torsion

> <Gold.Protein.ActiveResidues>
 VAL166  LYS551  ARG553  GLY616  TRP617  ASP618  TYR619  PRO620  LYS621  CYS622 
 ASP623  PHE694  ASN695  SER759  ASP760  ASP761  ALA762  ILE779  LEU786  VAL792 
 PHE793  MET794  SER795  GLU796  ALA797  LYS798  CYS799  TRP800  GLU811  SER814 

> <Gold.Protein.RotatedAtoms>
  151.3193  135.0814  159.9299 H   0  0  0  0  0  0  0  0  0  0  0  0  # atno 6907 bound_to 6896
  152.5260  133.9655  159.7748 H   0  0  0  0  0  0  0  0  0  0  0  0  # atno 6908 bound_to 6896
  150.9973  133.6038  159.2730 H   0  0  0  0  0  0  0  0  0  0  0  0  # atno 6909 bound_to 6896
  145.8946  140.8043  142.9774 H   0  0  0  0  0  0  0  0  0  0  0  0  # atno 7974 bound_to 7965
  154.4018  140.1539  156.2938 H   0  0  0  0  0  0  0  0  0  0  0  0  # atno 8008 bound_to 7997
  155.8762  140.3446  155.5834 H   0  0  0  0  0  0  0  0  0  0  0  0  # atno 8009 bound_to 7997
  155.7719  140.0831  157.2094 H   0  0  0  0  0  0  0  0  0  0  0  0  # atno 8010 bound_to 7997
  140.4163  144.1522  150.6143 H   0  0  0  0  0  0  0  0  0  0  0  0  # atno 10167 bound_to 10162
  156.8345  130.9664  151.3104 H   0  0  0  0  0  0  0  0  0  0  0  0  # atno 10718 bound_to 10713
  152.9784  135.5864  154.4324 H   0  0  0  0  0  0  0  0  0  0  0  0  # atno 10763 bound_to 10752
  154.3935  135.2768  155.2142 H   0  0  0  0  0  0  0  0  0  0  0  0  # atno 10764 bound_to 10752
  154.4004  135.6105  153.5948 H   0  0  0  0  0  0  0  0  0  0  0  0  # atno 10765 bound_to 10752
  140.5999  133.9845  155.8127 H   0  0  0  0  0  0  0  0  0  0  0  0  # atno 11005 bound_to 11000
  144.6732  140.1582  143.7424 LP  0  0  0  0  0  0  0  0  0  0  0  0  # atno 17320 bound_to 7965
  145.8867  139.2353  143.1573 LP  0  0  0  0  0  0  0  0  0  0  0  0  # atno 17321 bound_to 7965
  140.4583  143.2459  151.9255 LP  0  0  0  0  0  0  0  0  0  0  0  0  # atno 17342 bound_to 10162
  139.4782  144.5493  151.8410 LP  0  0  0  0  0  0  0  0  0  0  0  0  # atno 17343 bound_to 10162
  157.6389  130.8789  149.9411 LP  0  0  0  0  0  0  0  0  0  0  0  0  # atno 17370 bound_to 10713
  156.0915  130.3663  150.0385 LP  0  0  0  0  0  0  0  0  0  0  0  0  # atno 17371 bound_to 10713
  141.0879  133.9962  157.3284 LP  0  0  0  0  0  0  0  0  0  0  0  0  # atno 17394 bound_to 11000
  139.9237  135.0201  156.8156 LP  0  0  0  0  0  0  0  0  0  0  0  0  # atno 17395 bound_to 11000

$$$$
