#       Name:                AV-unprocessed.smi:1971
#       Creating user name   scv26
#       Creation time:       Fri Mar 27 10:14:28 2020


#       File generated by GOLD software.
#

@<TRIPOS>MOLECULE
AV-unprocessed.smi:1971
    48    49     1
SMALL
NO_CHARGES


@<TRIPOS>ATOM
      1 ****        -3.5911  -4.0862   0.0969 C.3            1 S1                 0.0000
      2 ****        -2.8151  -3.1054   0.9879 C.3            1 S1                 0.0000
      3 ****        -2.7628  -1.7610   0.4086 N.3            1 S1                 0.0000
      4 ****        -2.2973  -0.7582   1.3665 C.3            1 S1                 0.0000
      5 ****        -0.7961  -0.9102   1.6919 C.3            1 S1                 0.0000
      6 ****         0.0328  -0.8201   0.4589 N.4            1 S1                 1.0000
      7 ****         1.5127  -0.9002   0.6845 C.3            1 S1                 0.0000
      8 ****         1.9884  -0.0374   1.8741 C.3            1 S1                 0.0000
      9 ****         2.3152  -0.5325  -0.5921 C.3            1 S1                 0.0000
     10 ****         1.7725   0.6348  -1.2845 N.am           1 S1                 0.0000
     11 ****         2.1064   1.9138  -1.0681 C.2            1 S1                 0.0000
     12 ****         2.9955   2.1919  -0.2608 O.2            1 S1                 0.0000
     13 ****         1.3750   2.7896  -1.7922 N.pl3          1 S1                -1.0000
     14 ****         1.5859   4.1094  -1.6599 C.2            1 S1                 0.0000
     15 ****         2.2940   4.8263  -2.5397 N.2            1 S1                 0.0000
     16 ****         2.3832   6.1797  -2.2088 C.2            1 S1                 0.0000
     17 ****         1.7202   6.5021  -1.0543 C.2            1 S1                 0.0000
     18 ****         0.9578   5.1074  -0.3451 S.3            1 S1                 0.0000
     19 ****        -0.4531  -1.8115  -0.5391 C.3            1 S1                 0.0000
     20 ****        -1.9610  -1.6371  -0.8115 C.3            1 S1                 0.0000
     21 ****        -3.7292  -5.0379   0.6104 H              1 S1                 0.0000
     22 ****        -3.0662  -4.2975  -0.8342 H              1 S1                 0.0000
     23 ****        -4.5802  -3.6994  -0.1503 H              1 S1                 0.0000
     24 ****        -3.3304  -3.0440   1.9472 H              1 S1                 0.0000
     25 ****        -1.8200  -3.4950   1.1980 H              1 S1                 0.0000
     26 ****        -2.4809   0.2335   0.9503 H              1 S1                 0.0000
     27 ****        -2.8906  -0.8196   2.2794 H              1 S1                 0.0000
     28 ****        -0.5409  -0.1066   2.3812 H              1 S1                 0.0000
     29 ****        -0.5954  -1.8478   2.2117 H              1 S1                 0.0000
     30 ****         1.7547  -1.9333   0.9389 H              1 S1                 0.0000
     31 ****         3.0770  -0.0123   1.9309 H              1 S1                 0.0000
     32 ****         1.6428  -0.4346   2.8285 H              1 S1                 0.0000
     33 ****         1.6400   0.9923   1.7908 H              1 S1                 0.0000
     34 ****         3.3735  -0.3940  -0.3655 H              1 S1                 0.0000
     35 ****         2.2888  -1.3635  -1.2967 H              1 S1                 0.0000
     36 ****         1.0562   0.4622  -1.9748 H              1 S1                 0.0000
     37 ****         2.9397   6.8434  -2.8537 H              1 S1                 0.0000
     38 ****         1.6326   7.4685  -0.5813 H              1 S1                 0.0000
     39 ****         0.0688  -1.6812  -1.4858 H              1 S1                 0.0000
     40 ****        -0.2286  -2.8240  -0.2025 H              1 S1                 0.0000
     41 ****        -2.2959  -2.3518  -1.5623 H              1 S1                 0.0000
     42 ****        -2.1371  -0.6503  -1.2422 H              1 S1                 0.0000
     43 ****        -0.1424   0.0956   0.0686 H              1 S1                 0.0000
     44 ****        -3.7160  -1.5913   0.1586 LP             1 S1                 0.0000
     45 ****         3.4683   1.4623   0.2333 LP             1 S1                 0.0000
     46 ****         3.2440   3.1472  -0.1000 LP             1 S1                 0.0000
     47 ****         0.6774   2.4554  -2.4259 LP             1 S1                 0.0000
     48 ****         2.7180   4.4315  -3.3547 LP             1 S1                 0.0000
@<TRIPOS>BOND
    1    1    2 1     
    2    1   21 1     
    3    1   22 1     
    4    1   23 1     
    5    2    3 1     
    6    2   24 1     
    7    2   25 1     
    8    3   20 1     
    9    3    4 1     
   10    4    5 1     
   11    4   26 1     
   12    4   27 1     
   13    5    6 1     
   14    5   28 1     
   15    5   29 1     
   16    6    7 1     
   17    6   19 1     
   18    6   43 1     
   19    7    8 1     
   20    7    9 1     
   21    7   30 1     
   22    8   31 1     
   23    8   32 1     
   24    8   33 1     
   25    9   10 1     
   26    9   34 1     
   27    9   35 1     
   28   10   11 am    
   29   10   36 1     
   30   11   12 2     
   31   11   13 1     
   32   13   14 1     
   33   14   18 1     
   34   14   15 2     
   35   15   16 1     
   36   16   17 2     
   37   16   37 1     
   38   17   18 1     
   39   17   38 1     
   40   19   20 1     
   41   19   39 1     
   42   19   40 1     
   43   20   41 1     
   44   20   42 1     
   45    3   44 1     
   46   12   45 1     
   47   12   46 1     
   48   13   47 1     
   49   15   48 1     
@<TRIPOS>SUBSTRUCTURE
      1 S1             1
@<TRIPOS>SET
LONE_PAIRS      STATIC     ATOMS    <user>   **** ""
5 44 45 46 47 48
DONOR_HYDROGENS      STATIC     ATOMS    <user>   **** ""
2 43 36
ATOM$BLUE        STATIC     ATOMS    COLORGROUP SYSTEM
5 44 45 46 47 48
ATOM$RED        STATIC     ATOMS    COLORGROUP SYSTEM
2 43 36
