AV-unprocessed.smi:781|AV-procd|sdf|3707|dock9
  -GOLD-   22720 1133D 1   1.00000     0.00000
 Structure written by MMmdl.
 38 40  0  0  0  0  0  0  0  0  1 V2000
  152.1065  131.7962  157.2933 C   0  0  0  0  0  0  0  0  0  0  0  0
  151.3002  132.7461  156.4757 C   0  0  0  0  0  0  0  0  0  0  0  0
  150.4466  132.5745  155.4225 C   0  0  0  0  0  0  0  0  0  0  0  0
  150.0281  133.8999  155.1306 C   0  0  0  0  0  0  0  0  0  0  0  0
  149.1153  134.1586  154.0767 N   0  0  0  0  0  0  0  0  0  0  0  0
  147.9752  133.5031  153.8000 C   0  0  0  0  0  0  0  0  0  0  0  0
  147.5324  132.5475  154.4378 O   0  0  0  0  0  0  0  0  0  0  0  0
  147.3650  134.0240  152.7264 N   0  0  0  0  0  0  0  0  0  0  0  0
  146.1032  133.5489  152.1645 C   0  0  2  0  0  0  0  0  0  0  0  0
  146.1944  132.0436  151.8306 C   0  0  1  0  0  0  0  0  0  0  0  0
  144.7706  131.4942  151.6297 C   0  0  0  0  0  0  0  0  0  0  0  0
  144.3689  132.1006  150.2719 C   0  0  0  0  0  0  0  0  0  0  0  0
  145.6095  132.9335  149.8831 C   0  0  2  0  0  0  0  0  0  0  0  0
  146.7309  132.0422  150.4016 C   0  0  0  0  0  0  0  0  0  0  0  0
  145.7824  134.1810  150.7855 C   0  0  1  0  0  0  0  0  0  0  0  0
  144.6044  135.1747  150.8067 C   0  0  0  0  0  0  0  0  0  0  0  0
  144.4375  135.7669  149.5359 O   0  0  0  0  0  0  0  0  0  0  0  0
  150.5772  134.7997  155.9322 N   0  0  0  0  0  0  0  0  0  0  0  0
  151.3957  134.0647  156.7982 O   0  0  0  0  0  0  0  0  0  0  0  0
  151.7782  130.7691  157.1331 H   0  0  0  0  0  0  0  0  0  0  0  0
  152.0083  132.0188  158.3558 H   0  0  0  0  0  0  0  0  0  0  0  0
  153.1621  131.8596  157.0295 H   0  0  0  0  0  0  0  0  0  0  0  0
  150.1681  131.6490  154.9409 H   0  0  0  0  0  0  0  0  0  0  0  0
  149.3572  134.9250  153.4665 H   0  0  0  0  0  0  0  0  0  0  0  0
  147.7991  134.8099  152.2651 H   0  0  0  0  0  0  0  0  0  0  0  0
  145.3036  133.7237  152.8874 H   0  0  0  0  0  0  0  0  0  0  0  0
  146.7797  131.4637  152.5453 H   0  0  0  0  0  0  0  0  0  0  0  0
  144.7780  130.4049  151.5753 H   0  0  0  0  0  0  0  0  0  0  0  0
  144.0930  131.7831  152.4340 H   0  0  0  0  0  0  0  0  0  0  0  0
  144.2024  131.3072  149.5422 H   0  0  0  0  0  0  0  0  0  0  0  0
  143.4513  132.6849  150.3238 H   0  0  0  0  0  0  0  0  0  0  0  0
  145.6670  133.1574  148.8175 H   0  0  0  0  0  0  0  0  0  0  0  0
  147.7215  132.4907  150.3084 H   0  0  0  0  0  0  0  0  0  0  0  0
  146.7452  131.0511  149.9449 H   0  0  0  0  0  0  0  0  0  0  0  0
  146.6600  134.7231  150.4268 H   0  0  0  0  0  0  0  0  0  0  0  0
  143.6735  134.7009  151.1154 H   0  0  0  0  0  0  0  0  0  0  0  0
  144.8023  135.9679  151.5278 H   0  0  0  0  0  0  0  0  0  0  0  0
  145.2148  135.6022  149.0242 H   0  0  0  0  0  0  0  0  0  0  0  0
  1  2  1  0  0  0  0
  1 20  1  0  0  0  0
  1 21  1  0  0  0  0
  1 22  1  0  0  0  0
  2 19  1  0  0  0  0
  2  3  2  0  0  0  0
  3  4  1  0  0  0  0
  3 23  1  0  0  0  0
  4  5  1  0  0  0  0
  4 18  2  0  0  0  0
  5  6  1  0  0  0  0
  5 24  1  0  0  0  0
  6  7  2  0  0  0  0
  6  8  1  0  0  0  0
  8  9  1  0  0  0  0
  8 25  1  0  0  0  0
  9 15  1  0  0  0  0
  9 10  1  0  0  0  0
  9 26  1  0  0  0  0
 10 14  1  0  0  0  0
 10 11  1  0  0  0  0
 10 27  1  0  0  0  0
 11 12  1  0  0  0  0
 11 28  1  0  0  0  0
 11 29  1  0  0  0  0
 12 13  1  0  0  0  0
 12 30  1  0  0  0  0
 12 31  1  0  0  0  0
 13 14  1  0  0  0  0
 13 15  1  0  0  0  0
 13 32  1  0  0  0  0
 14 33  1  0  0  0  0
 14 34  1  0  0  0  0
 15 16  1  0  0  0  0
 15 35  1  0  0  0  0
 16 17  1  0  0  0  0
 16 36  1  0  0  0  0
 16 37  1  0  0  0  0
 17 38  1  0  0  0  0
 18 19  1  0  0  0  0
M  END
> <s_m_source_file>
AV-unprocessed.smi

> <i_m_source_file_index>
781

> <i_lp_mmshare_version>
43012

> <i_f3d_flags>
0

> <s_epik_input>
W0NIM11jMVtjSF1jKG5vMSlbTkhdQyg9TylbTkhdW0NASF0oW0NAQEhdMjMpW0NASF0oW0NIMl1bT0hdKVtDQEBIXShbQ0gyXTMpW0NIMl1bQ0gyXTI=

> <s_epik_cmdline>
J2VwaWtfcHl0aG9uJywgJy1waCcsICc3LjAnLCAnLXRuJywgJzgnLCAnLW1hJywgJzIwMCcsICctbWV0YWxfYmluZGluZycsICctaW1hZScsICc8aW5maWxlLm1hZT4nLCAnLW9tYWUnLCAnPG91dGZpbGUubWFlPic=

> <r_lp_tautomer_probability>
1

> <r_epik_Ionization_Penalty>
2.32222e-05

> <r_epik_Ionization_Penalty_Charging>
0

> <r_epik_Ionization_Penalty_Neutral>
2.32222e-05

> <r_epik_State_Penalty>
-0

> <r_epik_Charging_Adjusted_Penalty>
0

> <i_epik_Tot_Q>
0

> <i_epik_Tot_abs_Q>
0

> <r_epik_Metal_State_Penalty>
-0

> <b_epik_Metal_Only>
0

> <s_lp_Force_Field>
OPLS_2005

> <r_lp_Energy>
47.0606

> <b_lp_Chiralities_Consistent>
1

> <s_lp_Variant>
AV-unprocessed.smi:781-1

> <Gold.Version>
5.8.1

> <Gold.Id.Protein>
6NUR|6NUR_protein|mol2

> <Gold.PLP.Fitness>
38.0939

> <Gold.PLP.PLP>
-31.1789

> <Gold.PLP.part.hbond>
-4.7498

> <Gold.PLP.part.metal>
0.0000

> <Gold.PLP.part.buried>
0.4014

> <Gold.PLP.part.nonpolar>
-27.0875

> <Gold.PLP.part.repulsive>
0.0727

> <Gold.PLP.ligand.clash>
0.0000

> <Gold.PLP.ligand.torsion>
0.4549

> <Gold.PLP.Chemscore.Hbond>
2.6021

> <Gold.PLP.Chemscore.CHOScore>
0.0000

> <Gold.PLP.Chemscore.Metal>
0.0000

> <Gold.Chemscore.Hbonds>
donor molecule, donor type, donor heavy atom, donor atom, acceptor molecule, acceptor atom, score
      L1  H     5    24       P1  7948  0.60
      L1  H     8    25       P1  7948  1.00
      L1  H    17    38       P1  7921  1.00

> <Gold.PLP.Chemscore.Internal.Correction>
0.0185

> <Gold.Rescore>
     Score         DG    S(hbond)    S(metal)    S(lipo)     H(rot)  DE(clash)    DE(int)     intcor
     14.26     -17.80       2.28        0.00      80.91       1.86       1.90       1.64       ----

> <Gold.Chemscore.Fitness>
14.2560

> <Gold.Chemscore.DG>
-17.8038

> <Gold.Chemscore.ZeroCoef>
-5.4800

> <Gold.Chemscore.Hbond>
2.2800

> <Gold.Chemscore.Metal>
0.0000

> <Gold.Chemscore.Lipo>
80.9134

> <Gold.Chemscore.Internal_Hbond>
0.0000

> <Gold.Chemscore.DEClash>
1.9037

> <Gold.Chemscore.DEInternal>
1.6440

> <Gold.Chemscore.Rot>
1.8587

> <Gold.Chemscore.Internal.Correction>
   9.000000E+99

> <Gold.Chemscore.Hbonds>
donor molecule, donor type, donor heavy atom, donor atom, acceptor molecule, acceptor atom, score
      L1  H     5    24       P1  7948  0.05
      L1  H     8    25       P1  7948  0.74
      L1  H    17    38       P1  7921  0.98

> <Gold.Chemscore.Hbond.Weighted>
-7.6152

> <Gold.Chemscore.Metal.Weighted>
-0.0000

> <Gold.Chemscore.Lipo.Weighted>
-9.4669

> <Gold.Chemscore.Internal_Hbond.Weighted>
0.0000

> <Gold.Chemscore.DEClash.Weighted>
1.9037

> <Gold.Chemscore.DEInternal.Weighted>
1.6440

> <Gold.Chemscore.Rot.Weighted>
4.7583

> <Gold.Chemscore.Internal.Correction.Weighted>
   9.000000E+99

> <Gold.Protein.RotatedTorsions>
[ 6907 6896 6895 6894 ] final   91.67 input  -60.11 | X-H torsion
[ 7974 7965 7964 7962 ] final   88.48 input  175.53 | X-H torsion
[ 8008 7997 7996 7995 ] final   25.72 input   59.86 | X-H torsion
[ 10167 10162 10161 10158 ] final   56.81 input  -65.29 | X-H torsion
[ 10718 10713 10712 10709 ] final -136.01 input   66.30 | X-H torsion
[ 10763 10752 10751 10750 ] final -118.11 input  -60.55 | X-H torsion
[ 11005 11000 10999 10996 ] final  -59.90 input  -57.11 | X-H torsion

> <Gold.Protein.ActiveResidues>
 VAL166  LYS551  ARG553  GLY616  TRP617  ASP618  TYR619  PRO620  LYS621  CYS622 
 ASP623  PHE694  ASN695  SER759  ASP760  ASP761  ALA762  ILE779  LEU786  VAL792 
 PHE793  MET794  SER795  GLU796  ALA797  LYS798  CYS799  TRP800  GLU811  SER814 

> <Gold.Protein.RotatedAtoms>
  152.5451  134.1620  159.8561 H   0  0  0  0  0  0  0  0  0  0  0  0  # atno 6907 bound_to 6896
  151.1637  133.4821  159.2601 H   0  0  0  0  0  0  0  0  0  0  0  0  # atno 6908 bound_to 6896
  151.1346  135.0159  159.8653 H   0  0  0  0  0  0  0  0  0  0  0  0  # atno 6909 bound_to 6896
  145.5451  139.2291  143.2544 H   0  0  0  0  0  0  0  0  0  0  0  0  # atno 7974 bound_to 7965
  155.0160  140.3142  155.4811 H   0  0  0  0  0  0  0  0  0  0  0  0  # atno 8008 bound_to 7997
  156.2900  140.2206  156.5218 H   0  0  0  0  0  0  0  0  0  0  0  0  # atno 8009 bound_to 7997
  154.7493  140.0467  157.0867 H   0  0  0  0  0  0  0  0  0  0  0  0  # atno 8010 bound_to 7997
  140.2047  144.3951  150.6514 H   0  0  0  0  0  0  0  0  0  0  0  0  # atno 10167 bound_to 10162
  156.2724  130.7273  151.1244 H   0  0  0  0  0  0  0  0  0  0  0  0  # atno 10718 bound_to 10713
  154.8577  135.4286  154.2086 H   0  0  0  0  0  0  0  0  0  0  0  0  # atno 10763 bound_to 10752
  153.3117  135.6976  153.7116 H   0  0  0  0  0  0  0  0  0  0  0  0  # atno 10764 bound_to 10752
  153.6206  135.3502  155.2983 H   0  0  0  0  0  0  0  0  0  0  0  0  # atno 10765 bound_to 10752
  141.1266  133.6619  156.5141 H   0  0  0  0  0  0  0  0  0  0  0  0  # atno 11005 bound_to 11000
  146.1955  140.6272  142.9126 LP  0  0  0  0  0  0  0  0  0  0  0  0  # atno 17320 bound_to 7965
  144.7557  140.5302  143.6770 LP  0  0  0  0  0  0  0  0  0  0  0  0  # atno 17321 bound_to 7965
  140.6365  143.2196  151.6382 LP  0  0  0  0  0  0  0  0  0  0  0  0  # atno 17342 bound_to 10162
  139.5203  144.3227  152.0896 LP  0  0  0  0  0  0  0  0  0  0  0  0  # atno 17343 bound_to 10162
  157.7288  131.0629  150.5803 LP  0  0  0  0  0  0  0  0  0  0  0  0  # atno 17370 bound_to 10713
  156.5901  130.4327  149.5940 LP  0  0  0  0  0  0  0  0  0  0  0  0  # atno 17371 bound_to 10713
  140.4345  134.7072  157.4959 LP  0  0  0  0  0  0  0  0  0  0  0  0  # atno 17394 bound_to 11000
  140.0271  134.6461  155.9158 LP  0  0  0  0  0  0  0  0  0  0  0  0  # atno 17395 bound_to 11000

$$$$
