AV-unprocessed.smi:2030|AV-procd|sdf|8226|dock9
  -GOLD-   2272010493D 1   1.00000     0.00000
 Structure written by MMmdl.
 34 35  0  0  0  0  0  0  0  0  2 V2000
  153.1020  138.2392  154.7698 C   0  0  0  0  0  0  0  0  0  0  0  0
  151.6492  138.3909  154.8071 N   0  0  0  0  0  0  0  0  0  0  0  0
  151.2002  139.6853  154.6506 N   0  0  0  0  0  0  0  0  0  0  0  0
  149.9698  140.0261  154.8782 C   0  0  0  0  0  0  0  0  0  0  0  0
  149.5565  141.4520  154.7111 C   0  0  0  0  0  0  0  0  0  0  0  0
  148.9833  141.7154  153.6468 O   0  0  0  0  0  0  0  0  0  0  0  0
  149.8294  142.3327  155.7194 N   0  5  0  0  0  0  0  0  0  0  0  0
  150.9280  142.2072  156.6776 C   0  0  0  0  0  0  0  0  0  0  0  0
  150.3843  142.0931  158.1215 C   0  0  0  0  0  0  0  0  0  0  0  0
  151.4440  142.0920  159.2220 C   0  0  0  0  0  0  0  0  0  0  0  0
  152.4842  141.1344  159.2177 C   0  0  0  0  0  0  0  0  0  0  0  0
  153.4439  141.1749  160.2472 C   0  0  0  0  0  0  0  0  0  0  0  0
  153.3351  142.1690  161.2381 C   0  0  0  0  0  0  0  0  0  0  0  0
  152.2678  143.0845  161.1529 C   0  0  0  0  0  0  0  0  0  0  0  0
  151.3453  143.0578  160.1682 N   0  0  0  0  0  0  0  0  0  0  0  0
  148.9642  138.9890  155.3476 C   0  0  0  0  0  0  0  0  0  0  0  0
  149.3382  137.5652  154.8902 C   0  0  0  0  0  0  0  0  0  0  0  0
  150.8459  137.3096  154.9586 C   0  0  0  0  0  0  0  0  0  0  0  0
  151.2643  136.1626  155.1179 O   0  0  0  0  0  0  0  0  0  0  0  0
  153.4688  137.8351  155.7141 H   0  0  0  0  0  0  0  0  0  0  0  0
  153.6083  139.1908  154.5994 H   0  0  0  0  0  0  0  0  0  0  0  0
  153.3988  137.5616  153.9681 H   0  0  0  0  0  0  0  0  0  0  0  0
  151.5619  141.3451  156.4651 H   0  0  0  0  0  0  0  0  0  0  0  0
  151.5863  143.0756  156.6286 H   0  0  0  0  0  0  0  0  0  0  0  0
  149.7096  142.9290  158.3089 H   0  0  0  0  0  0  0  0  0  0  0  0
  149.7703  141.1960  158.2156 H   0  0  0  0  0  0  0  0  0  0  0  0
  152.5401  140.3815  158.4453 H   0  0  0  0  0  0  0  0  0  0  0  0
  154.2491  140.4559  160.2760 H   0  0  0  0  0  0  0  0  0  0  0  0
  154.0519  142.2290  162.0433 H   0  0  0  0  0  0  0  0  0  0  0  0
  152.1540  143.8617  161.8942 H   0  0  0  0  0  0  0  0  0  0  0  0
  148.8942  139.0248  156.4351 H   0  0  0  0  0  0  0  0  0  0  0  0
  147.9674  139.2140  154.9670 H   0  0  0  0  0  0  0  0  0  0  0  0
  148.8034  136.8232  155.4841 H   0  0  0  0  0  0  0  0  0  0  0  0
  149.0295  137.4208  153.8541 H   0  0  0  0  0  0  0  0  0  0  0  0
  1  2  1  0  0  0  0
  1 20  1  0  0  0  0
  1 21  1  0  0  0  0
  1 22  1  0  0  0  0
  2 18  1  0  0  0  0
  2  3  1  0  0  0  0
  3  4  2  0  0  0  0
  4  5  1  0  0  0  0
  4 16  1  0  0  0  0
  5  6  2  0  0  0  0
  5  7  1  0  0  0  0
  7  8  1  0  0  0  0
  8  9  1  0  0  0  0
  8 23  1  0  0  0  0
  8 24  1  0  0  0  0
  9 10  1  0  0  0  0
  9 25  1  0  0  0  0
  9 26  1  0  0  0  0
 10 15  1  0  0  0  0
 10 11  2  0  0  0  0
 11 12  1  0  0  0  0
 11 27  1  0  0  0  0
 12 13  2  0  0  0  0
 12 28  1  0  0  0  0
 13 14  1  0  0  0  0
 13 29  1  0  0  0  0
 14 15  2  0  0  0  0
 14 30  1  0  0  0  0
 16 17  1  0  0  0  0
 16 31  1  0  0  0  0
 16 32  1  0  0  0  0
 17 18  1  0  0  0  0
 17 33  1  0  0  0  0
 17 34  1  0  0  0  0
 18 19  2  0  0  0  0
M  CHG  1   7  -1
M  END
> <s_m_source_file>
AV-unprocessed.smi

> <i_m_source_file_index>
2030

> <i_lp_mmshare_version>
43012

> <i_f3d_flags>
0

> <s_epik_input>
Tz1DMVtDSDJdW0NIMl1DKD1OTjFbQ0gzXSlDKD1PKVtOSF1bQ0gyXVtDSDJdYzJbY0hdW2NIXVtjSF1bY0hdbjI=

> <s_epik_cmdline>
J2VwaWtfcHl0aG9uJywgJy1waCcsICc3LjAnLCAnLXRuJywgJzgnLCAnLW1hJywgJzIwMCcsICctbWV0YWxfYmluZGluZycsICctaW1hZScsICc8aW5maWxlLm1hZT4nLCAnLW9tYWUnLCAnPG91dGZpbGUubWFlPic=

> <r_epik_Ionization_Penalty>
5.44594

> <r_epik_Ionization_Penalty_Charging>
5.3715

> <r_epik_Ionization_Penalty_Neutral>
0.0744438

> <r_epik_State_Penalty>
5.38529

> <r_epik_Charging_Adjusted_Penalty>
10.7568

> <i_epik_Tot_Q>
-1

> <i_epik_Tot_abs_Q>
1

> <r_epik_Metal_State_Penalty>
1.42988

> <b_epik_Metal_Only>
1

> <s_epik_Chemistry_Notes>
This compound has an imine and may undergo hydrolysis.

> <s_lp_Force_Field>
OPLS_2005

> <r_lp_Energy>
26.3213

> <b_lp_Chiralities_Consistent>
1

> <s_lp_Variant>
AV-unprocessed.smi:2030-3

> <Gold.Version>
5.8.1

> <Gold.Id.Protein>
6NUR|6NUR_protein|mol2

> <Gold.PLP.Fitness>
42.1694

> <Gold.PLP.PLP>
-37.1999

> <Gold.PLP.part.hbond>
-3.8356

> <Gold.PLP.part.metal>
0.0000

> <Gold.PLP.part.buried>
-7.3742

> <Gold.PLP.part.nonpolar>
-32.1121

> <Gold.PLP.part.repulsive>
3.9326

> <Gold.PLP.ligand.clash>
0.0000

> <Gold.PLP.ligand.torsion>
1.6345

> <Gold.PLP.Chemscore.Hbond>
2.7360

> <Gold.PLP.Chemscore.CHOScore>
0.0000

> <Gold.PLP.Chemscore.Metal>
0.0000

> <Gold.Chemscore.Hbonds>
donor molecule, donor type, donor heavy atom, donor atom, acceptor molecule, acceptor atom, score
      P1  H  7989  7998       L1     3  1.00
      P1  H  8011  8017       L1     6  0.66
      P1  H 10752 10763       L1    19  1.00

> <Gold.PLP.Chemscore.Internal.Correction>
0.0304

> <Gold.Rescore>
     Score         DG    S(hbond)    S(metal)    S(lipo)     H(rot)  DE(clash)    DE(int)     intcor
     16.68     -20.04       2.37        0.00      87.87       1.42       1.62       1.74       ----

> <Gold.Chemscore.Fitness>
16.6763

> <Gold.Chemscore.DG>
-20.0390

> <Gold.Chemscore.ZeroCoef>
-5.4800

> <Gold.Chemscore.Hbond>
2.3675

> <Gold.Chemscore.Metal>
0.0000

> <Gold.Chemscore.Lipo>
87.8723

> <Gold.Chemscore.Internal_Hbond>
0.0000

> <Gold.Chemscore.DEClash>
1.6203

> <Gold.Chemscore.DEInternal>
1.7425

> <Gold.Chemscore.Rot>
1.4178

> <Gold.Chemscore.Internal.Correction>
   9.000000E+99

> <Gold.Chemscore.Hbonds>
donor molecule, donor type, donor heavy atom, donor atom, acceptor molecule, acceptor atom, score
      P1  H  7989  7998       L1     3  0.30
      P1  H  8011  8017       L1     6  0.65
      P1  H 10752 10763       L1    19  1.00

> <Gold.Chemscore.Hbond.Weighted>
-7.9075

> <Gold.Chemscore.Metal.Weighted>
-0.0000

> <Gold.Chemscore.Lipo.Weighted>
-10.2811

> <Gold.Chemscore.Internal_Hbond.Weighted>
0.0000

> <Gold.Chemscore.DEClash.Weighted>
1.6203

> <Gold.Chemscore.DEInternal.Weighted>
1.7425

> <Gold.Chemscore.Rot.Weighted>
3.6295

> <Gold.Chemscore.Internal.Correction.Weighted>
   9.000000E+99

> <Gold.Protein.RotatedTorsions>
[ 6907 6896 6895 6894 ] final -155.52 input  -60.11 | X-H torsion
[ 7974 7965 7964 7962 ] final   42.41 input  175.53 | X-H torsion
[ 8008 7997 7996 7995 ] final   72.52 input   59.86 | X-H torsion
[ 10167 10162 10161 10158 ] final  -27.75 input  -65.29 | X-H torsion
[ 10718 10713 10712 10709 ] final -137.65 input   66.30 | X-H torsion
[ 10763 10752 10751 10750 ] final   68.47 input  -60.55 | X-H torsion
[ 11005 11000 10999 10996 ] final -159.05 input  -57.11 | X-H torsion

> <Gold.Protein.ActiveResidues>
 VAL166  LYS551  ARG553  GLY616  TRP617  ASP618  TYR619  PRO620  LYS621  CYS622 
 ASP623  PHE694  ASN695  SER759  ASP760  ASP761  ALA762  ILE779  LEU786  VAL792 
 PHE793  MET794  SER795  GLU796  ALA797  LYS798  CYS799  TRP800  GLU811  SER814 

> <Gold.Protein.RotatedAtoms>
  151.2737  133.4243  159.2622 H   0  0  0  0  0  0  0  0  0  0  0  0  # atno 6907 bound_to 6896
  151.0422  134.9615  159.8178 H   0  0  0  0  0  0  0  0  0  0  0  0  # atno 6908 bound_to 6896
  152.5367  134.2695  159.9018 H   0  0  0  0  0  0  0  0  0  0  0  0  # atno 6909 bound_to 6896
  146.0743  139.5304  142.9578 H   0  0  0  0  0  0  0  0  0  0  0  0  # atno 7974 bound_to 7965
  155.7701  140.3484  155.5242 H   0  0  0  0  0  0  0  0  0  0  0  0  # atno 8008 bound_to 7997
  155.8830  140.1005  157.1493 H   0  0  0  0  0  0  0  0  0  0  0  0  # atno 8009 bound_to 7997
  154.4026  140.1319  156.4208 H   0  0  0  0  0  0  0  0  0  0  0  0  # atno 8010 bound_to 7997
  140.7275  143.4067  151.1174 H   0  0  0  0  0  0  0  0  0  0  0  0  # atno 10167 bound_to 10162
  156.2905  130.7372  151.1396 H   0  0  0  0  0  0  0  0  0  0  0  0  # atno 10718 bound_to 10713
  153.0237  135.5246  154.7139 H   0  0  0  0  0  0  0  0  0  0  0  0  # atno 10763 bound_to 10752
  154.6213  135.2889  155.0324 H   0  0  0  0  0  0  0  0  0  0  0  0  # atno 10764 bound_to 10752
  154.1310  135.6593  153.4974 H   0  0  0  0  0  0  0  0  0  0  0  0  # atno 10765 bound_to 10752
  140.6469  134.4492  157.5234 H   0  0  0  0  0  0  0  0  0  0  0  0  # atno 11005 bound_to 11000
  145.6335  141.0299  143.1850 LP  0  0  0  0  0  0  0  0  0  0  0  0  # atno 17320 bound_to 7965
  144.7251  139.7901  143.7368 LP  0  0  0  0  0  0  0  0  0  0  0  0  # atno 17321 bound_to 7965
  139.7694  143.8516  152.3117 LP  0  0  0  0  0  0  0  0  0  0  0  0  # atno 17342 bound_to 10162
  139.8429  144.7201  150.9308 LP  0  0  0  0  0  0  0  0  0  0  0  0  # atno 17343 bound_to 10162
  157.7341  131.0585  150.5543 LP  0  0  0  0  0  0  0  0  0  0  0  0  # atno 17370 bound_to 10713
  156.5659  130.4267  149.6041 LP  0  0  0  0  0  0  0  0  0  0  0  0  # atno 17371 bound_to 10713
  139.9060  134.8449  156.1706 LP  0  0  0  0  0  0  0  0  0  0  0  0  # atno 17394 bound_to 11000
  141.0565  133.6862  156.1871 LP  0  0  0  0  0  0  0  0  0  0  0  0  # atno 17395 bound_to 11000

$$$$
