AV-unprocessed.smi:1658|AV-procd|sdf|6649|dock5
  -GOLD-   22720 7353D 1   1.00000     0.00000
 Structure written by MMmdl.
 47 48  0  0  0  0  0  0  0  0  2 V2000
  152.2327  140.3931  158.4293 C   0  0  0  0  0  0  0  0  0  0  0  0
  152.2632  140.4346  157.0068 O   0  0  0  0  0  0  0  0  0  0  0  0
  151.6841  139.3950  156.3082 C   0  0  0  0  0  0  0  0  0  0  0  0
  151.5890  138.1349  156.9312 C   0  0  0  0  0  0  0  0  0  0  0  0
  151.0026  137.0703  156.2214 C   0  0  0  0  0  0  0  0  0  0  0  0
  150.5196  137.2962  154.9168 C   0  0  0  0  0  0  0  0  0  0  0  0
  149.9558  136.1978  154.2138 N   0  0  0  0  0  0  0  0  0  0  0  0
  149.8592  134.9161  154.6061 C   0  0  0  0  0  0  0  0  0  0  0  0
  150.3262  134.4523  155.6460 O   0  0  0  0  0  0  0  0  0  0  0  0
  149.1914  134.1835  153.7032 N   0  0  0  0  0  0  0  0  0  0  0  0
  148.9088  132.7510  153.8027 C   0  0  0  0  0  0  0  0  0  0  0  0
  147.5064  132.3316  153.2596 C   0  0  0  0  0  0  0  0  0  0  0  0
  146.4153  132.5306  154.3405 C   0  0  0  0  0  0  0  0  0  0  0  0
  147.1648  133.2624  152.0652 C   0  0  0  0  0  0  0  0  0  0  0  0
  147.5732  130.8885  152.8178 N   0  3  0  0  0  0  0  0  0  0  0  0
  148.1326  129.9371  153.8218 C   0  0  0  0  0  0  0  0  0  0  0  0
  148.3284  128.5437  153.2043 C   0  0  0  0  0  0  0  0  0  0  0  0
  147.0820  128.0633  152.7234 O   0  0  0  0  0  0  0  0  0  0  0  0
  146.5624  128.8974  151.6989 C   0  0  0  0  0  0  0  0  0  0  0  0
  146.3210  130.3167  152.2423 C   0  0  0  0  0  0  0  0  0  0  0  0
  150.6702  138.5957  154.3743 C   0  0  0  0  0  0  0  0  0  0  0  0
  151.2341  139.6204  155.0490 N   0  0  0  0  0  0  0  0  0  0  0  0
  152.7200  141.2833  158.8263 H   0  0  0  0  0  0  0  0  0  0  0  0
  152.7668  139.5235  158.8147 H   0  0  0  0  0  0  0  0  0  0  0  0
  151.2091  140.3812  158.8069 H   0  0  0  0  0  0  0  0  0  0  0  0
  151.9619  137.9870  157.9340 H   0  0  0  0  0  0  0  0  0  0  0  0
  150.9235  136.0941  156.6774 H   0  0  0  0  0  0  0  0  0  0  0  0
  149.6116  136.4081  153.2883 H   0  0  0  0  0  0  0  0  0  0  0  0
  148.8506  134.6534  152.8771 H   0  0  0  0  0  0  0  0  0  0  0  0
  149.6849  132.2323  153.2387 H   0  0  0  0  0  0  0  0  0  0  0  0
  149.0503  132.4482  154.8391 H   0  0  0  0  0  0  0  0  0  0  0  0
  146.2686  133.5863  154.5696 H   0  0  0  0  0  0  0  0  0  0  0  0
  146.6730  132.0389  155.2789 H   0  0  0  0  0  0  0  0  0  0  0  0
  145.4484  132.1455  154.0174 H   0  0  0  0  0  0  0  0  0  0  0  0
  147.2144  134.3166  152.3380 H   0  0  0  0  0  0  0  0  0  0  0  0
  146.1487  133.1104  151.7011 H   0  0  0  0  0  0  0  0  0  0  0  0
  147.8510  133.1116  151.2312 H   0  0  0  0  0  0  0  0  0  0  0  0
  149.0926  130.2722  154.2071 H   0  0  0  0  0  0  0  0  0  0  0  0
  147.4593  129.8516  154.6752 H   0  0  0  0  0  0  0  0  0  0  0  0
  149.0639  128.5705  152.3987 H   0  0  0  0  0  0  0  0  0  0  0  0
  148.7048  127.8498  153.9562 H   0  0  0  0  0  0  0  0  0  0  0  0
  147.2468  128.9179  150.8491 H   0  0  0  0  0  0  0  0  0  0  0  0
  145.6255  128.4707  151.3402 H   0  0  0  0  0  0  0  0  0  0  0  0
  145.5371  130.2951  152.9999 H   0  0  0  0  0  0  0  0  0  0  0  0
  145.9520  130.9117  151.4088 H   0  0  0  0  0  0  0  0  0  0  0  0
  150.3594  138.8349  153.3693 H   0  0  0  0  0  0  0  0  0  0  0  0
  148.2302  130.8878  152.0504 H   0  0  0  0  0  0  0  0  0  0  0  0
  1  2  1  0  0  0  0
  1 23  1  0  0  0  0
  1 24  1  0  0  0  0
  1 25  1  0  0  0  0
  2  3  1  0  0  0  0
  3 22  1  0  0  0  0
  3  4  2  0  0  0  0
  4  5  1  0  0  0  0
  4 26  1  0  0  0  0
  5  6  2  0  0  0  0
  5 27  1  0  0  0  0
  6  7  1  0  0  0  0
  6 21  1  0  0  0  0
  7  8  1  0  0  0  0
  7 28  1  0  0  0  0
  8  9  2  0  0  0  0
  8 10  1  0  0  0  0
 10 11  1  0  0  0  0
 10 29  1  0  0  0  0
 11 12  1  0  0  0  0
 11 30  1  0  0  0  0
 11 31  1  0  0  0  0
 12 13  1  0  0  0  0
 12 14  1  0  0  0  0
 12 15  1  0  0  0  0
 13 32  1  0  0  0  0
 13 33  1  0  0  0  0
 13 34  1  0  0  0  0
 14 35  1  0  0  0  0
 14 36  1  0  0  0  0
 14 37  1  0  0  0  0
 15 20  1  0  0  0  0
 15 16  1  0  0  0  0
 15 47  1  0  0  0  0
 16 17  1  0  0  0  0
 16 38  1  0  0  0  0
 16 39  1  0  0  0  0
 17 18  1  0  0  0  0
 17 40  1  0  0  0  0
 17 41  1  0  0  0  0
 18 19  1  0  0  0  0
 19 20  1  0  0  0  0
 19 42  1  0  0  0  0
 19 43  1  0  0  0  0
 20 44  1  0  0  0  0
 20 45  1  0  0  0  0
 21 22  2  0  0  0  0
 21 46  1  0  0  0  0
M  CHG  1  15   1
M  END
> <s_m_source_file>
AV-unprocessed.smi

> <i_m_source_file_index>
1658

> <i_lp_mmshare_version>
43012

> <i_f3d_flags>
0

> <s_epik_input>
W0NIM11PYzFbY0hdW2NIXWMoW2NIXW4xKVtOSF1DKD1PKVtOSF1bQ0gyXUMoW0NIM10pKFtDSDNdKU4yW0NIMl1bQ0gyXU9bQ0gyXVtDSDJdMg==

> <s_epik_cmdline>
J2VwaWtfcHl0aG9uJywgJy1waCcsICc3LjAnLCAnLXRuJywgJzgnLCAnLW1hJywgJzIwMCcsICctbWV0YWxfYmluZGluZycsICctaW1hZScsICc8aW5maWxlLm1hZT4nLCAnLW9tYWUnLCAnPG91dGZpbGUubWFlPic=

> <r_lp_tautomer_probability>
1

> <r_epik_Ionization_Penalty>
0.602608

> <r_epik_Ionization_Penalty_Charging>
0.602531

> <r_epik_Ionization_Penalty_Neutral>
7.74737e-05

> <r_epik_State_Penalty>
0.617039

> <r_epik_Charging_Adjusted_Penalty>
1.21957

> <i_epik_Tot_Q>
1

> <i_epik_Tot_abs_Q>
1

> <r_epik_Metal_State_Penalty>
0.617043

> <b_epik_Metal_Only>
0

> <s_lp_Force_Field>
OPLS_2005

> <r_lp_Energy>
28.7753

> <b_lp_Chiralities_Consistent>
1

> <s_lp_Variant>
AV-unprocessed.smi:1658-2

> <Gold.Version>
5.8.1

> <Gold.Id.Protein>
6NUR|6NUR_protein|mol2

> <Gold.PLP.Fitness>
47.0438

> <Gold.PLP.PLP>
-32.8906

> <Gold.PLP.part.hbond>
-5.9551

> <Gold.PLP.part.metal>
0.0000

> <Gold.PLP.part.buried>
-0.2232

> <Gold.PLP.part.nonpolar>
-26.3267

> <Gold.PLP.part.repulsive>
0.2300

> <Gold.PLP.ligand.clash>
0.0000

> <Gold.PLP.ligand.torsion>
1.0286

> <Gold.PLP.Chemscore.Hbond>
4.5424

> <Gold.PLP.Chemscore.CHOScore>
0.8185

> <Gold.PLP.Chemscore.Metal>
0.0000

> <Gold.Chemscore.Hbonds>
donor molecule, donor type, donor heavy atom, donor atom, acceptor molecule, acceptor atom, score
      L1  H     7    28       P1  7948  1.00
      L1  H    10    29       P1  7948  0.58
      L1  H    15    47       P1 10747  1.00
      P1  H  7989  7998       L1    22  1.00
      P1  H  7997  8009       L1     2  0.64
      L1  C    21    46       P1  7957  0.80

> <Gold.PLP.Chemscore.Internal.Correction>
0.1278

> <Gold.Rescore>
     Score         DG    S(hbond)    S(metal)    S(lipo)     H(rot)  DE(clash)    DE(int)     intcor
     15.76     -18.57       2.61        0.00      75.86       1.76       0.41       2.40       ----

> <Gold.Chemscore.Fitness>
15.7621

> <Gold.Chemscore.DG>
-18.5662

> <Gold.Chemscore.ZeroCoef>
-5.4800

> <Gold.Chemscore.Hbond>
2.6078

> <Gold.Chemscore.Metal>
0.0000

> <Gold.Chemscore.Lipo>
75.8627

> <Gold.Chemscore.Internal_Hbond>
0.0000

> <Gold.Chemscore.DEClash>
0.4079

> <Gold.Chemscore.DEInternal>
2.3962

> <Gold.Chemscore.Rot>
1.7577

> <Gold.Chemscore.Internal.Correction>
   9.000000E+99

> <Gold.Chemscore.Hbonds>
donor molecule, donor type, donor heavy atom, donor atom, acceptor molecule, acceptor atom, score
      L1  H     7    28       P1  7948  0.37
      L1  H    10    29       P1  7948  0.05
      L1  H    15    47       P1 10747  0.99
      P1  H  7989  7998       L1    22  0.24
      P1  H  7997  8009       L1     2  0.08

> <Gold.Chemscore.Hbond.Weighted>
-8.7100

> <Gold.Chemscore.Metal.Weighted>
-0.0000

> <Gold.Chemscore.Lipo.Weighted>
-8.8759

> <Gold.Chemscore.Internal_Hbond.Weighted>
0.0000

> <Gold.Chemscore.DEClash.Weighted>
0.4079

> <Gold.Chemscore.DEInternal.Weighted>
2.3962

> <Gold.Chemscore.Rot.Weighted>
4.4997

> <Gold.Chemscore.Internal.Correction.Weighted>
   9.000000E+99

> <Gold.Protein.RotatedTorsions>
[ 6907 6896 6895 6894 ] final  -81.19 input  -60.11 | X-H torsion
[ 7974 7965 7964 7962 ] final  112.34 input  175.53 | X-H torsion
[ 8008 7997 7996 7995 ] final -174.26 input   59.86 | X-H torsion
[ 10167 10162 10161 10158 ] final   53.93 input  -65.29 | X-H torsion
[ 10718 10713 10712 10709 ] final  -56.80 input   66.30 | X-H torsion
[ 10763 10752 10751 10750 ] final -121.50 input  -60.55 | X-H torsion
[ 11005 11000 10999 10996 ] final   20.73 input  -57.11 | X-H torsion

> <Gold.Protein.ActiveResidues>
 VAL166  LYS551  ARG553  GLY616  TRP617  ASP618  TYR619  PRO620  LYS621  CYS622 
 ASP623  PHE694  ASN695  SER759  ASP760  ASP761  ALA762  ILE779  LEU786  VAL792 
 PHE793  MET794  SER795  GLU796  ALA797  LYS798  CYS799  TRP800  GLU811  SER814 

> <Gold.Protein.RotatedAtoms>
  150.6916  134.3856  159.5053 H   0  0  0  0  0  0  0  0  0  0  0  0  # atno 6907 bound_to 6896
  152.1652  134.8877  160.0548 H   0  0  0  0  0  0  0  0  0  0  0  0  # atno 6908 bound_to 6896
  151.9924  133.3761  159.4186 H   0  0  0  0  0  0  0  0  0  0  0  0  # atno 6909 bound_to 6896
  145.2308  139.2820  143.4169 H   0  0  0  0  0  0  0  0  0  0  0  0  # atno 7974 bound_to 7965
  155.9678  140.1157  157.0839 H   0  0  0  0  0  0  0  0  0  0  0  0  # atno 8008 bound_to 7997
  154.4148  140.1169  156.5333 H   0  0  0  0  0  0  0  0  0  0  0  0  # atno 8009 bound_to 7997
  155.6636  140.3473  155.4794 H   0  0  0  0  0  0  0  0  0  0  0  0  # atno 8010 bound_to 7997
  140.2355  144.3640  150.6399 H   0  0  0  0  0  0  0  0  0  0  0  0  # atno 10167 bound_to 10162
  156.1260  130.4162  150.0354 H   0  0  0  0  0  0  0  0  0  0  0  0  # atno 10718 bound_to 10713
  154.8669  135.4165  154.2630 H   0  0  0  0  0  0  0  0  0  0  0  0  # atno 10763 bound_to 10752
  153.3555  135.7001  153.6760 H   0  0  0  0  0  0  0  0  0  0  0  0  # atno 10764 bound_to 10752
  153.5682  135.3596  155.2799 H   0  0  0  0  0  0  0  0  0  0  0  0  # atno 10765 bound_to 10752
  140.3994  134.1734  155.7663 H   0  0  0  0  0  0  0  0  0  0  0  0  # atno 11005 bound_to 11000
  146.3353  140.2642  142.8603 LP  0  0  0  0  0  0  0  0  0  0  0  0  # atno 17320 bound_to 7965
  144.9678  140.8339  143.5474 LP  0  0  0  0  0  0  0  0  0  0  0  0  # atno 17321 bound_to 7965
  140.6153  143.2172  151.6805 LP  0  0  0  0  0  0  0  0  0  0  0  0  # atno 17342 bound_to 10162
  139.5095  144.3575  152.0594 LP  0  0  0  0  0  0  0  0  0  0  0  0  # atno 17343 bound_to 10162
  156.8279  130.9382  151.3638 LP  0  0  0  0  0  0  0  0  0  0  0  0  # atno 17370 bound_to 10713
  157.6442  130.8830  149.9506 LP  0  0  0  0  0  0  0  0  0  0  0  0  # atno 17371 bound_to 10713
  141.1862  133.8307  157.1077 LP  0  0  0  0  0  0  0  0  0  0  0  0  # atno 17394 bound_to 11000
  140.0347  134.9884  157.0849 LP  0  0  0  0  0  0  0  0  0  0  0  0  # atno 17395 bound_to 11000

$$$$
