#       Name:                AV-unprocessed.smi:34
#       Creating user name   scv26
#       Creation time:       Thu Mar 26 15:57:43 2020


#       File generated by GOLD software.
#

@<TRIPOS>MOLECULE
AV-unprocessed.smi:34
    66    70     1
SMALL
NO_CHARGES


@<TRIPOS>ATOM
      1 ****        -4.9625  -0.2581   1.1852 O.2            1 S1                 0.0000
      2 ****        -5.3297  -0.4547   0.0248 C.2            1 S1                 0.0000
      3 ****        -4.5688  -0.4672  -1.0988 N.pl3          1 S1                -1.0000
      4 ****        -3.2414  -0.2891  -1.0108 C.ar           1 S1                 0.0000
      5 ****        -2.6976   0.9346  -1.2336 N.ar           1 S1                 0.0000
      6 ****        -1.3736   1.1114  -1.1524 C.ar           1 S1                 0.0000
      7 ****        -0.4222   0.2158  -0.8724 N.ar           1 S1                 0.0000
      8 ****        -0.9542  -1.0222  -0.6542 C.ar           1 S1                 0.0000
      9 ****        -2.3414  -1.3479  -0.7079 C.ar           1 S1                 0.0000
     10 ****        -2.5425  -2.6930  -0.4364 N.2            1 S1                 0.0000
     11 ****        -1.2972  -3.1148  -0.2308 C.2            1 S1                 0.0000
     12 ****        -0.3069  -2.2066  -0.3352 N.pl3          1 S1                 0.0000
     13 ****         1.1580  -2.4482  -0.1454 C.3            1 S1                 0.0000
     14 ****         1.8799  -1.6779  -1.0571 O.3            1 S1                 0.0000
     15 ****         3.0401  -1.1197  -0.4401 C.3            1 S1                 0.0000
     16 ****         2.9213   0.4106  -0.4734 C.3            1 S1                 0.0000
     17 ****         4.1697   0.9874  -0.1250 O.3            1 S1                 0.0000
     18 ****         4.3041   2.3269  -0.0741 C.2            1 S1                 0.0000
     19 ****         3.3877   3.1149  -0.3171 O.2            1 S1                 0.0000
     20 ****         5.6804   2.7578   0.3063 C.ar           1 S1                 0.0000
     21 ****         5.9768   4.1387   0.3865 C.ar           1 S1                 0.0000
     22 ****         7.2671   4.5761   0.7438 C.ar           1 S1                 0.0000
     23 ****         8.2773   3.6379   1.0240 C.ar           1 S1                 0.0000
     24 ****         7.9956   2.2615   0.9474 C.ar           1 S1                 0.0000
     25 ****         6.7054   1.8220   0.5915 C.ar           1 S1                 0.0000
     26 ****         3.0901  -1.6946   0.9815 C.3            1 S1                 0.0000
     27 ****         3.8594  -2.7847   0.9915 F              1 S1                 0.0000
     28 ****         1.6550  -2.0955   1.2633 C.3            1 S1                 0.0000
     29 ****         0.9379  -1.0507   1.8947 O.3            1 S1                 0.0000
     30 ****        -6.7976  -0.6468  -0.2489 C.ar           1 S1                 0.0000
     31 ****        -7.7513   0.0591   0.5194 C.ar           1 S1                 0.0000
     32 ****        -9.1298  -0.1247   0.2955 C.ar           1 S1                 0.0000
     33 ****        -9.5699  -1.0248  -0.6930 C.ar           1 S1                 0.0000
     34 ****        -8.6302  -1.7438  -1.4549 C.ar           1 S1                 0.0000
     35 ****        -7.2515  -1.5602  -1.2318 C.ar           1 S1                 0.0000
     36 ****        -1.0262   2.1165  -1.3399 H              1 S1                 0.0000
     37 ****        -1.0924  -4.1468   0.0132 H              1 S1                 0.0000
     38 ****         1.3045  -3.5024  -0.3855 H              1 S1                 0.0000
     39 ****         3.9181  -1.4223  -1.0123 H              1 S1                 0.0000
     40 ****         2.6495   0.7362  -1.4785 H              1 S1                 0.0000
     41 ****         2.1391   0.7542   0.2045 H              1 S1                 0.0000
     42 ****         5.2176   4.8777   0.1744 H              1 S1                 0.0000
     43 ****         7.4814   5.6331   0.8026 H              1 S1                 0.0000
     44 ****         9.2667   3.9736   1.2977 H              1 S1                 0.0000
     45 ****         8.7704   1.5403   1.1619 H              1 S1                 0.0000
     46 ****         6.5230   0.7585   0.5433 H              1 S1                 0.0000
     47 ****         3.5079  -1.0092   1.7205 H              1 S1                 0.0000
     48 ****         1.5924  -2.9770   1.9024 H              1 S1                 0.0000
     49 ****         0.0299  -1.3050   1.9594 H              1 S1                 0.0000
     50 ****        -7.4300   0.7524   1.2833 H              1 S1                 0.0000
     51 ****        -9.8493   0.4247   0.8840 H              1 S1                 0.0000
     52 ****       -10.6267  -1.1666  -0.8639 H              1 S1                 0.0000
     53 ****        -8.9659  -2.4396  -2.2094 H              1 S1                 0.0000
     54 ****        -6.5469  -2.1301  -1.8202 H              1 S1                 0.0000
     55 ****        -3.9980  -0.0811   1.3813 LP             1 S1                 0.0000
     56 ****        -5.6292  -0.2756   1.9304 LP             1 S1                 0.0000
     57 ****        -4.9967  -0.6089  -1.9914 LP             1 S1                 0.0000
     58 ****        -3.2896   1.7082  -1.4596 LP             1 S1                 0.0000
     59 ****         0.5545   0.4257  -0.8283 LP             1 S1                 0.0000
     60 ****        -3.3980  -3.2098  -0.4037 LP             1 S1                 0.0000
     61 ****         1.2985  -0.9370  -1.3935 LP             1 S1                 0.0000
     62 ****         2.1614  -2.2549  -1.8237 LP             1 S1                 0.0000
     63 ****         2.4839   2.7686  -0.5685 LP             1 S1                 0.0000
     64 ****         3.5481   4.1005  -0.2628 LP             1 S1                 0.0000
     65 ****         1.0156  -0.2135   1.3534 LP             1 S1                 0.0000
     66 ****         1.3094  -0.8918   2.8095 LP             1 S1                 0.0000
@<TRIPOS>BOND
    1    1    2 2     
    2    2    3 1     
    3    2   30 1     
    4    3    4 1     
    5    4    9 ar    
    6    4    5 ar    
    7    5    6 ar    
    8    6    7 ar    
    9    6   36 1     
   10    7    8 ar    
   11    8   12 1     
   12    8    9 ar    
   13    9   10 1     
   14   10   11 2     
   15   11   12 1     
   16   11   37 1     
   17   12   13 1     
   18   13   28 1     
   19   13   14 1     
   20   13   38 1     
   21   14   15 1     
   22   15   16 1     
   23   15   26 1     
   24   15   39 1     
   25   16   17 1     
   26   16   40 1     
   27   16   41 1     
   28   17   18 1     
   29   18   19 2     
   30   18   20 1     
   31   20   25 ar    
   32   20   21 ar    
   33   21   22 ar    
   34   21   42 1     
   35   22   23 ar    
   36   22   43 1     
   37   23   24 ar    
   38   23   44 1     
   39   24   25 ar    
   40   24   45 1     
   41   25   46 1     
   42   26   27 1     
   43   26   28 1     
   44   26   47 1     
   45   28   29 1     
   46   28   48 1     
   47   29   49 1     
   48   30   35 ar    
   49   30   31 ar    
   50   31   32 ar    
   51   31   50 1     
   52   32   33 ar    
   53   32   51 1     
   54   33   34 ar    
   55   33   52 1     
   56   34   35 ar    
   57   34   53 1     
   58   35   54 1     
   59    1   55 1     
   60    1   56 1     
   61    3   57 1     
   62    5   58 1     
   63    7   59 1     
   64   10   60 1     
   65   14   61 1     
   66   14   62 1     
   67   19   63 1     
   68   19   64 1     
   69   29   65 1     
   70   29   66 1     
@<TRIPOS>SUBSTRUCTURE
      1 S1             1
@<TRIPOS>SET
LONE_PAIRS      STATIC     ATOMS    <user>   **** ""
12 55 56 57 58 59 60 61 62 63 64 65 66
DONOR_HYDROGENS      STATIC     ATOMS    <user>   **** ""
1 49
ATOM$BLUE        STATIC     ATOMS    COLORGROUP SYSTEM
12 55 56 57 58 59 60 61 62 63 64 65 66
ATOM$RED        STATIC     ATOMS    COLORGROUP SYSTEM
1 49
