AV-unprocessed.smi:3043|AV-procd|sdf|11604|dock4
  -GOLD-   2272016583D 1   1.00000     0.00000
 Structure written by MMmdl.
 44 45  0  0  0  0  0  0  0  0  2 V2000
  151.6188  141.1944  157.1630 C   0  0  0  0  0  0  0  0  0  0  0  0
  151.7964  140.0096  156.2108 C   0  0  0  0  0  0  0  0  0  0  0  0
  152.7059  139.2132  156.4425 O   0  0  0  0  0  0  0  0  0  0  0  0
  150.9554  139.8734  155.1571 N   0  0  0  0  0  0  0  0  0  0  0  0
  151.0174  138.7329  154.2356 C   0  0  0  0  0  0  0  0  0  0  0  0
  149.7758  137.8497  154.4536 C   0  0  0  0  0  0  0  0  0  0  0  0
  148.4709  138.6554  154.2664 C   0  0  0  0  0  0  0  0  0  0  0  0
  147.2365  137.7910  154.5803 C   0  0  0  0  0  0  0  0  0  0  0  0
  146.8682  136.9364  153.4310 N   0  3  0  0  0  0  0  0  0  0  0  0
  145.8945  137.5241  152.4837 C   0  0  1  0  0  0  0  0  0  0  0  0
  146.4047  138.9031  152.0312 C   0  0  0  0  0  0  0  0  0  0  0  0
  145.6191  136.5669  151.3005 C   0  0  0  0  0  0  0  0  0  0  0  0
  144.8167  135.4165  151.6766 N   0  0  0  0  0  0  0  0  0  0  0  0
  144.3639  134.3896  150.8752 C   0  0  0  0  0  0  0  0  0  0  0  0
  143.6512  133.5384  151.6701 C   0  0  0  0  0  0  0  0  0  0  0  0
  143.7216  134.1394  152.9579 C   0  0  0  0  0  0  0  0  0  0  0  0
  144.4190  135.2639  152.9582 N   0  0  0  0  0  0  0  0  0  0  0  0
  148.5104  139.9508  155.1120 C   0  0  0  0  0  0  0  0  0  0  0  0
  149.8080  140.7421  154.8662 C   0  0  0  0  0  0  0  0  0  0  0  0
  150.6278  141.1810  157.6179 H   0  0  0  0  0  0  0  0  0  0  0  0
  151.7558  142.1388  156.6359 H   0  0  0  0  0  0  0  0  0  0  0  0
  152.3539  141.1535  157.9674 H   0  0  0  0  0  0  0  0  0  0  0  0
  151.0439  139.0990  153.2083 H   0  0  0  0  0  0  0  0  0  0  0  0
  151.9222  138.1364  154.3606 H   0  0  0  0  0  0  0  0  0  0  0  0
  149.7990  137.0075  153.7615 H   0  0  0  0  0  0  0  0  0  0  0  0
  149.8077  137.4244  155.4580 H   0  0  0  0  0  0  0  0  0  0  0  0
  148.4220  138.9446  153.2153 H   0  0  0  0  0  0  0  0  0  0  0  0
  147.4492  137.1556  155.4397 H   0  0  0  0  0  0  0  0  0  0  0  0
  146.3935  138.4273  154.8538 H   0  0  0  0  0  0  0  0  0  0  0  0
  147.7165  136.7515  152.9151 H   0  0  0  0  0  0  0  0  0  0  0  0
  144.9611  137.6890  153.0243 H   0  0  0  0  0  0  0  0  0  0  0  0
  145.6673  139.4257  151.4215 H   0  0  0  0  0  0  0  0  0  0  0  0
  147.3194  138.8141  151.4440 H   0  0  0  0  0  0  0  0  0  0  0  0
  146.6205  139.5419  152.8882 H   0  0  0  0  0  0  0  0  0  0  0  0
  145.1109  137.1004  150.4952 H   0  0  0  0  0  0  0  0  0  0  0  0
  146.5521  136.1903  150.8814 H   0  0  0  0  0  0  0  0  0  0  0  0
  144.5852  134.3490  149.8187 H   0  0  0  0  0  0  0  0  0  0  0  0
  143.1537  132.6260  151.3765 H   0  0  0  0  0  0  0  0  0  0  0  0
  143.2895  133.7945  153.8858 H   0  0  0  0  0  0  0  0  0  0  0  0
  147.6522  140.5820  154.8795 H   0  0  0  0  0  0  0  0  0  0  0  0
  148.4345  139.7050  156.1723 H   0  0  0  0  0  0  0  0  0  0  0  0
  149.7961  141.6607  155.4507 H   0  0  0  0  0  0  0  0  0  0  0  0
  149.8574  141.0623  153.8245 H   0  0  0  0  0  0  0  0  0  0  0  0
  146.5053  136.0575  153.7719 H   0  0  0  0  0  0  0  0  0  0  0  0
  1  2  1  0  0  0  0
  1 20  1  0  0  0  0
  1 21  1  0  0  0  0
  1 22  1  0  0  0  0
  2  3  2  0  0  0  0
  2  4  1  0  0  0  0
  4 19  1  0  0  0  0
  4  5  1  0  0  0  0
  5  6  1  0  0  0  0
  5 23  1  0  0  0  0
  5 24  1  0  0  0  0
  6  7  1  0  0  0  0
  6 25  1  0  0  0  0
  6 26  1  0  0  0  0
  7  8  1  0  0  0  0
  7 18  1  0  0  0  0
  7 27  1  0  0  0  0
  8  9  1  0  0  0  0
  8 28  1  0  0  0  0
  8 29  1  0  0  0  0
  9 10  1  0  0  0  0
  9 30  1  0  0  0  0
  9 44  1  0  0  0  0
 10 11  1  0  0  0  0
 10 12  1  0  0  0  0
 10 31  1  0  0  0  0
 11 32  1  0  0  0  0
 11 33  1  0  0  0  0
 11 34  1  0  0  0  0
 12 13  1  0  0  0  0
 12 35  1  0  0  0  0
 12 36  1  0  0  0  0
 13 17  1  0  0  0  0
 13 14  1  0  0  0  0
 14 15  2  0  0  0  0
 14 37  1  0  0  0  0
 15 16  1  0  0  0  0
 15 38  1  0  0  0  0
 16 17  2  0  0  0  0
 16 39  1  0  0  0  0
 18 19  1  0  0  0  0
 18 40  1  0  0  0  0
 18 41  1  0  0  0  0
 19 42  1  0  0  0  0
 19 43  1  0  0  0  0
M  CHG  1   9   1
M  END
> <s_m_source_file>
AV-unprocessed.smi

> <i_m_source_file_index>
3043

> <i_lp_mmshare_version>
43012

> <i_f3d_flags>
0

> <s_epik_input>
W0NIM11DKD1PKU4xW0NIMl1bQ0gyXVtDSF0oW0NIMl1bQ0gyXTEpW0NIMl1bTkhdW0NASF0oW0NIM10pW0NIMl1uMltjSF1bY0hdW2NIXW4y

> <s_epik_cmdline>
J2VwaWtfcHl0aG9uJywgJy1waCcsICc3LjAnLCAnLXRuJywgJzgnLCAnLW1hJywgJzIwMCcsICctbWV0YWxfYmluZGluZycsICctaW1hZScsICc8aW5maWxlLm1hZT4nLCAnLW9tYWUnLCAnPG91dGZpbGUubWFlPic=

> <r_lp_tautomer_probability>
1

> <r_epik_Ionization_Penalty>
0.00300549

> <r_epik_Ionization_Penalty_Charging>
0.00299781

> <r_epik_Ionization_Penalty_Neutral>
7.6831e-06

> <r_epik_State_Penalty>
0.00210473

> <r_epik_Charging_Adjusted_Penalty>
0.00510254

> <i_epik_Tot_Q>
1

> <i_epik_Tot_abs_Q>
1

> <r_epik_Metal_State_Penalty>
-0

> <b_epik_Metal_Only>
0

> <s_lp_Force_Field>
OPLS_2005

> <r_lp_Energy>
28.9571

> <b_lp_Chiralities_Consistent>
1

> <s_lp_Variant>
AV-unprocessed.smi:3043-2

> <Gold.Version>
5.8.1

> <Gold.Id.Protein>
6NUR|6NUR_protein|mol2

> <Gold.PLP.Fitness>
48.3965

> <Gold.PLP.PLP>
-34.6649

> <Gold.PLP.part.hbond>
-2.0000

> <Gold.PLP.part.metal>
0.0000

> <Gold.PLP.part.buried>
1.1108

> <Gold.PLP.part.nonpolar>
-35.4274

> <Gold.PLP.part.repulsive>
0.0969

> <Gold.PLP.ligand.clash>
0.0000

> <Gold.PLP.ligand.torsion>
0.5653

> <Gold.PLP.Chemscore.Hbond>
3.0000

> <Gold.PLP.Chemscore.CHOScore>
1.9412

> <Gold.PLP.Chemscore.Metal>
0.0000

> <Gold.Chemscore.Hbonds>
donor molecule, donor type, donor heavy atom, donor atom, acceptor molecule, acceptor atom, score
      L1  H     9    30       P1  7948  2.00
      P1  H  7997  8008       L1     3  1.00
      L1  C    14    37       P1  7921  0.53
      L1  C    16    39       P1 10957  1.00

> <Gold.PLP.Chemscore.Internal.Correction>
0.0386

> <Gold.Rescore>
     Score         DG    S(hbond)    S(metal)    S(lipo)     H(rot)  DE(clash)    DE(int)     intcor
     13.27     -16.93       1.91        0.00      81.54       1.74       1.01       2.64       ----

> <Gold.Chemscore.Fitness>
13.2718

> <Gold.Chemscore.DG>
-16.9285

> <Gold.Chemscore.ZeroCoef>
-5.4800

> <Gold.Chemscore.Hbond>
1.9065

> <Gold.Chemscore.Metal>
0.0000

> <Gold.Chemscore.Lipo>
81.5448

> <Gold.Chemscore.Internal_Hbond>
0.0000

> <Gold.Chemscore.DEClash>
1.0129

> <Gold.Chemscore.DEInternal>
2.6438

> <Gold.Chemscore.Rot>
1.7422

> <Gold.Chemscore.Internal.Correction>
   9.000000E+99

> <Gold.Chemscore.Hbonds>
donor molecule, donor type, donor heavy atom, donor atom, acceptor molecule, acceptor atom, score
      L1  H     9    30       P1  7948  1.00
      P1  H  7997  8008       L1     3  0.74

> <Gold.Chemscore.Hbond.Weighted>
-6.3677

> <Gold.Chemscore.Metal.Weighted>
-0.0000

> <Gold.Chemscore.Lipo.Weighted>
-9.5407

> <Gold.Chemscore.Internal_Hbond.Weighted>
0.0000

> <Gold.Chemscore.DEClash.Weighted>
1.0129

> <Gold.Chemscore.DEInternal.Weighted>
2.6438

> <Gold.Chemscore.Rot.Weighted>
4.4600

> <Gold.Chemscore.Internal.Correction.Weighted>
   9.000000E+99

> <Gold.Protein.RotatedTorsions>
[ 6907 6896 6895 6894 ] final   21.27 input  -60.11 | X-H torsion
[ 7974 7965 7964 7962 ] final -148.70 input  175.53 | X-H torsion
[ 8008 7997 7996 7995 ] final  -48.89 input   59.86 | X-H torsion
[ 10167 10162 10161 10158 ] final -156.94 input  -65.29 | X-H torsion
[ 10718 10713 10712 10709 ] final -100.66 input   66.30 | X-H torsion
[ 10763 10752 10751 10750 ] final  -98.54 input  -60.55 | X-H torsion
[ 11005 11000 10999 10996 ] final  118.98 input  -57.11 | X-H torsion

> <Gold.Protein.ActiveResidues>
 VAL166  LYS551  ARG553  GLY616  TRP617  ASP618  TYR619  PRO620  LYS621  CYS622 
 ASP623  PHE694  ASN695  SER759  ASP760  ASP761  ALA762  ILE779  LEU786  VAL792 
 PHE793  MET794  SER795  GLU796  ALA797  LYS798  CYS799  TRP800  GLU811  SER814 

> <Gold.Protein.RotatedAtoms>
  151.9092  135.0346  160.0512 H   0  0  0  0  0  0  0  0  0  0  0  0  # atno 6907 bound_to 6896
  152.2293  133.5041  159.5215 H   0  0  0  0  0  0  0  0  0  0  0  0  # atno 6908 bound_to 6896
  150.7021  134.1154  159.4058 H   0  0  0  0  0  0  0  0  0  0  0  0  # atno 6909 bound_to 6896
  144.8013  140.5162  143.5705 H   0  0  0  0  0  0  0  0  0  0  0  0  # atno 7974 bound_to 7965
  154.4035  140.1310  156.4412 H   0  0  0  0  0  0  0  0  0  0  0  0  # atno 8008 bound_to 7997
  155.7457  140.3489  155.5105 H   0  0  0  0  0  0  0  0  0  0  0  0  # atno 8009 bound_to 7997
  155.8997  140.1017  157.1349 H   0  0  0  0  0  0  0  0  0  0  0  0  # atno 8010 bound_to 7997
  139.6810  143.9581  152.2336 H   0  0  0  0  0  0  0  0  0  0  0  0  # atno 10167 bound_to 10162
  156.0170  130.5338  150.6850 H   0  0  0  0  0  0  0  0  0  0  0  0  # atno 10718 bound_to 10713
  154.7423  135.5005  153.9144 H   0  0  0  0  0  0  0  0  0  0  0  0  # atno 10763 bound_to 10752
  153.1056  135.6696  153.9601 H   0  0  0  0  0  0  0  0  0  0  0  0  # atno 10764 bound_to 10752
  153.9375  135.3071  155.3423 H   0  0  0  0  0  0  0  0  0  0  0  0  # atno 10765 bound_to 10752
  139.9129  134.9625  156.7585 H   0  0  0  0  0  0  0  0  0  0  0  0  # atno 11005 bound_to 11000
  145.5546  139.1477  143.3375 LP  0  0  0  0  0  0  0  0  0  0  0  0  # atno 17320 bound_to 7965
  146.2295  140.5684  142.8981 LP  0  0  0  0  0  0  0  0  0  0  0  0  # atno 17321 bound_to 7965
  139.9371  144.6705  150.8304 LP  0  0  0  0  0  0  0  0  0  0  0  0  # atno 17342 bound_to 10162
  140.7652  143.3269  151.2496 LP  0  0  0  0  0  0  0  0  0  0  0  0  # atno 17343 bound_to 10162
  157.4544  131.0876  151.0812 LP  0  0  0  0  0  0  0  0  0  0  0  0  # atno 17370 bound_to 10713
  157.1318  130.6106  149.5531 LP  0  0  0  0  0  0  0  0  0  0  0  0  # atno 17371 bound_to 10713
  140.6716  133.9554  155.7860 LP  0  0  0  0  0  0  0  0  0  0  0  0  # atno 17394 bound_to 11000
  141.0573  134.0397  157.3705 LP  0  0  0  0  0  0  0  0  0  0  0  0  # atno 17395 bound_to 11000

$$$$
