AV-unprocessed.smi:837|AV-procd|sdf|3906|dock2
  -GOLD-   22720 1363D 1   1.00000     0.00000
 Structure written by MMmdl.
 49 51  0  0  0  0  0  0  0  0  3 V2000
  150.4433  140.8448  156.3919 C   0  0  0  0  0  0  0  0  0  0  0  0
  149.5788  141.0094  155.1233 C   0  0  2  0  0  0  0  0  0  0  0  0
  148.2646  141.7419  155.4768 C   0  0  0  0  0  0  0  0  0  0  0  0
  147.3954  141.9962  154.2371 C   0  0  0  0  0  0  0  0  0  0  0  0
  147.0895  140.6891  153.4959 C   0  0  0  0  0  0  0  0  0  0  0  0
  148.3872  139.9537  153.1196 C   0  0  0  0  0  0  0  0  0  0  0  0
  149.3196  139.6837  154.3314 C   0  0  1  0  0  0  0  0  0  0  0  0
  150.5703  139.1357  153.8326 N   0  5  0  0  0  0  0  0  0  0  0  0
  150.7183  137.8755  154.3002 C   0  0  0  0  0  0  0  0  0  0  0  0
  151.6547  137.1110  154.0678 O   0  0  0  0  0  0  0  0  0  0  0  0
  149.6899  137.5297  155.0969 N   0  0  0  0  0  0  0  0  0  0  0  0
  149.5822  136.2508  155.8090 C   0  0  0  0  0  0  0  0  0  0  0  0
  148.2734  135.5316  155.4676 C   0  0  0  0  0  0  0  0  0  0  0  0
  147.5640  135.0709  156.3618 O   0  0  0  0  0  0  0  0  0  0  0  0
  147.9736  135.4433  154.1633 N   0  0  0  0  0  0  0  0  0  0  0  0
  146.8163  134.7575  153.5959 C   0  0  0  0  0  0  0  0  0  0  0  0
  147.0658  134.1744  152.1866 C   0  0  0  0  0  0  0  0  0  0  0  0
  145.8417  133.5497  151.5326 C   0  0  0  0  0  0  0  0  0  0  0  0
  145.8167  132.1681  151.2381 C   0  0  0  0  0  0  0  0  0  0  0  0
  144.6788  131.6108  150.6193 C   0  0  0  0  0  0  0  0  0  0  0  0
  143.5912  132.4484  150.3025 C   0  0  0  0  0  0  0  0  0  0  0  0
  143.6482  133.7649  150.6003 N   0  3  0  0  0  0  0  0  0  0  0  0
  144.7170  134.3356  151.1989 C   0  0  0  0  0  0  0  0  0  0  0  0
  148.8075  138.5300  155.1925 C   0  0  0  0  0  0  0  0  0  0  0  0
  147.7714  138.5459  155.8579 O   0  0  0  0  0  0  0  0  0  0  0  0
  149.9533  140.2248  157.1429 H   0  0  0  0  0  0  0  0  0  0  0  0
  150.6470  141.8121  156.8510 H   0  0  0  0  0  0  0  0  0  0  0  0
  151.4055  140.3919  156.1611 H   0  0  0  0  0  0  0  0  0  0  0  0
  150.1351  141.6730  154.4588 H   0  0  0  0  0  0  0  0  0  0  0  0
  147.6963  141.1694  156.2102 H   0  0  0  0  0  0  0  0  0  0  0  0
  148.4921  142.6965  155.9522 H   0  0  0  0  0  0  0  0  0  0  0  0
  146.4651  142.4842  154.5287 H   0  0  0  0  0  0  0  0  0  0  0  0
  147.9095  142.6851  153.5658 H   0  0  0  0  0  0  0  0  0  0  0  0
  146.4578  140.0519  154.1145 H   0  0  0  0  0  0  0  0  0  0  0  0
  146.5141  140.9028  152.5951 H   0  0  0  0  0  0  0  0  0  0  0  0
  148.1332  139.0186  152.6172 H   0  0  0  0  0  0  0  0  0  0  0  0
  148.9200  140.5514  152.3781 H   0  0  0  0  0  0  0  0  0  0  0  0
  150.4160  135.5944  155.5553 H   0  0  0  0  0  0  0  0  0  0  0  0
  149.6564  136.4193  156.8851 H   0  0  0  0  0  0  0  0  0  0  0  0
  148.6200  135.8586  153.5081 H   0  0  0  0  0  0  0  0  0  0  0  0
  146.4670  133.9794  154.2763 H   0  0  0  0  0  0  0  0  0  0  0  0
  146.0157  135.4954  153.5391 H   0  0  0  0  0  0  0  0  0  0  0  0
  147.4450  134.9644  151.5374 H   0  0  0  0  0  0  0  0  0  0  0  0
  147.8568  133.4256  152.2348 H   0  0  0  0  0  0  0  0  0  0  0  0
  146.6636  131.5405  151.4742 H   0  0  0  0  0  0  0  0  0  0  0  0
  144.6481  130.5591  150.3752 H   0  0  0  0  0  0  0  0  0  0  0  0
  142.6886  132.1088  149.8162 H   0  0  0  0  0  0  0  0  0  0  0  0
  144.6447  135.3981  151.3798 H   0  0  0  0  0  0  0  0  0  0  0  0
  142.8521  134.3541  150.3564 H   0  0  0  0  0  0  0  0  0  0  0  0
  1  2  1  0  0  0  0
  1 26  1  0  0  0  0
  1 27  1  0  0  0  0
  1 28  1  0  0  0  0
  2  7  1  0  0  0  0
  2  3  1  0  0  0  0
  2 29  1  0  0  0  0
  3  4  1  0  0  0  0
  3 30  1  0  0  0  0
  3 31  1  0  0  0  0
  4  5  1  0  0  0  0
  4 32  1  0  0  0  0
  4 33  1  0  0  0  0
  5  6  1  0  0  0  0
  5 34  1  0  0  0  0
  5 35  1  0  0  0  0
  6  7  1  0  0  0  0
  6 36  1  0  0  0  0
  6 37  1  0  0  0  0
  7 24  1  0  0  0  0
  7  8  1  0  0  0  0
  8  9  1  0  0  0  0
  9 10  2  0  0  0  0
  9 11  1  0  0  0  0
 11 12  1  0  0  0  0
 11 24  1  0  0  0  0
 12 13  1  0  0  0  0
 12 38  1  0  0  0  0
 12 39  1  0  0  0  0
 13 14  2  0  0  0  0
 13 15  1  0  0  0  0
 15 16  1  0  0  0  0
 15 40  1  0  0  0  0
 16 17  1  0  0  0  0
 16 41  1  0  0  0  0
 16 42  1  0  0  0  0
 17 18  1  0  0  0  0
 17 43  1  0  0  0  0
 17 44  1  0  0  0  0
 18 23  1  0  0  0  0
 18 19  2  0  0  0  0
 19 20  1  0  0  0  0
 19 45  1  0  0  0  0
 20 21  2  0  0  0  0
 20 46  1  0  0  0  0
 21 22  1  0  0  0  0
 21 47  1  0  0  0  0
 22 23  2  0  0  0  0
 22 49  1  0  0  0  0
 23 48  1  0  0  0  0
 24 25  2  0  0  0  0
M  CHG  1   8  -1
M  CHG  1  22   1
M  END
> <s_m_source_file>
AV-unprocessed.smi

> <i_m_source_file_index>
837

> <i_lp_mmshare_version>
43012

> <i_f3d_flags>
0

> <s_epik_input>
W0NIMl0xW0NIMl1bQ0gyXVtDSDJdW0NAQEhdKFtDSDNdKVtDQEBdMTJbTkhdQyg9TylOKEMyPU8pW0NIMl1DKD1PKVtOSF1bQ0gyXVtDSDJdYzNbY0hdW2NIXVtjSF1uW2NIXTM=

> <s_epik_cmdline>
J2VwaWtfcHl0aG9uJywgJy1waCcsICc3LjAnLCAnLXRuJywgJzgnLCAnLW1hJywgJzIwMCcsICctbWV0YWxfYmluZGluZycsICctaW1hZScsICc8aW5maWxlLm1hZT4nLCAnLW9tYWUnLCAnPG91dGZpbGUubWFlPic=

> <r_lp_tautomer_probability>
1

> <r_epik_Ionization_Penalty>
8.27169

> <r_epik_Ionization_Penalty_Charging>
8.27169

> <r_epik_Ionization_Penalty_Neutral>
1.56557e-07

> <r_epik_State_Penalty>
8.42098

> <r_epik_Charging_Adjusted_Penalty>
16.6927

> <i_epik_Tot_Q>
0

> <i_epik_Tot_abs_Q>
2

> <r_epik_Metal_State_Penalty>
4.38565

> <b_epik_Metal_Only>
1

> <s_lp_Force_Field>
OPLS_2005

> <r_lp_Energy>
13.0129

> <b_lp_Chiralities_Consistent>
1

> <s_lp_Variant>
AV-unprocessed.smi:837-15

> <Gold.Version>
5.8.1

> <Gold.Id.Protein>
6NUR|6NUR_protein|mol2

> <Gold.PLP.Fitness>
47.7801

> <Gold.PLP.PLP>
-34.3954

> <Gold.PLP.part.hbond>
-3.9191

> <Gold.PLP.part.metal>
0.0000

> <Gold.PLP.part.buried>
3.0352

> <Gold.PLP.part.nonpolar>
-35.3742

> <Gold.PLP.part.repulsive>
1.9657

> <Gold.PLP.ligand.clash>
0.0000

> <Gold.PLP.ligand.torsion>
0.3490

> <Gold.PLP.Chemscore.Hbond>
4.6840

> <Gold.PLP.Chemscore.CHOScore>
0.0000

> <Gold.PLP.Chemscore.Metal>
0.0000

> <Gold.Chemscore.Hbonds>
donor molecule, donor type, donor heavy atom, donor atom, acceptor molecule, acceptor atom, score
      L1  H    15    40       P1  7948  0.94
      L1  H    22    49       P1 10186  1.89
      P1  H  7989  7998       L1     8  0.96
      P1  H 10752 10765       L1    10  1.00

> <Gold.PLP.Chemscore.Internal.Correction>
0.0308

> <Gold.Rescore>
     Score         DG    S(hbond)    S(metal)    S(lipo)     H(rot)  DE(clash)    DE(int)     intcor
     17.68     -21.13       2.91        0.00      92.49       1.92       3.04       0.40       ----

> <Gold.Chemscore.Fitness>
17.6842

> <Gold.Chemscore.DG>
-21.1252

> <Gold.Chemscore.ZeroCoef>
-5.4800

> <Gold.Chemscore.Hbond>
2.9140

> <Gold.Chemscore.Metal>
0.0000

> <Gold.Chemscore.Lipo>
92.4885

> <Gold.Chemscore.Internal_Hbond>
0.0000

> <Gold.Chemscore.DEClash>
3.0366

> <Gold.Chemscore.DEInternal>
0.4044

> <Gold.Chemscore.Rot>
1.9175

> <Gold.Chemscore.Internal.Correction>
   9.000000E+99

> <Gold.Chemscore.Hbonds>
donor molecule, donor type, donor heavy atom, donor atom, acceptor molecule, acceptor atom, score
      L1  H    15    40       P1  7948  0.91
      L1  H    22    49       P1 10186  0.64
      P1  H  7989  7998       L1     8  0.26
      P1  H 10752 10765       L1    10  0.95

> <Gold.Chemscore.Hbond.Weighted>
-9.7327

> <Gold.Chemscore.Metal.Weighted>
-0.0000

> <Gold.Chemscore.Lipo.Weighted>
-10.8212

> <Gold.Chemscore.Internal_Hbond.Weighted>
0.0000

> <Gold.Chemscore.DEClash.Weighted>
3.0366

> <Gold.Chemscore.DEInternal.Weighted>
0.4044

> <Gold.Chemscore.Rot.Weighted>
4.9087

> <Gold.Chemscore.Internal.Correction.Weighted>
   9.000000E+99

> <Gold.Protein.RotatedTorsions>
[ 6907 6896 6895 6894 ] final    8.03 input  -60.11 | X-H torsion
[ 7974 7965 7964 7962 ] final  -50.02 input  175.53 | X-H torsion
[ 8008 7997 7996 7995 ] final   19.02 input   59.86 | X-H torsion
[ 10167 10162 10161 10158 ] final -124.67 input  -65.29 | X-H torsion
[ 10718 10713 10712 10709 ] final  152.03 input   66.30 | X-H torsion
[ 10763 10752 10751 10750 ] final  141.41 input  -60.55 | X-H torsion
[ 11005 11000 10999 10996 ] final  -83.63 input  -57.11 | X-H torsion

> <Gold.Protein.ActiveResidues>
 VAL166  LYS551  ARG553  GLY616  TRP617  ASP618  TYR619  PRO620  LYS621  CYS622 
 ASP623  PHE694  ASN695  SER759  ASP760  ASP761  ALA762  ILE779  LEU786  VAL792 
 PHE793  MET794  SER795  GLU796  ALA797  LYS798  CYS799  TRP800  GLU811  SER814 

> <Gold.Protein.RotatedAtoms>
  151.6994  135.0933  160.0247 H   0  0  0  0  0  0  0  0  0  0  0  0  # atno 6907 bound_to 6896
  152.3730  133.6439  159.6110 H   0  0  0  0  0  0  0  0  0  0  0  0  # atno 6908 bound_to 6896
  150.7687  133.9156  159.3424 H   0  0  0  0  0  0  0  0  0  0  0  0  # atno 6909 bound_to 6896
  145.9343  140.7721  142.9584 H   0  0  0  0  0  0  0  0  0  0  0  0  # atno 7974 bound_to 7965
  154.9145  140.3019  155.5248 H   0  0  0  0  0  0  0  0  0  0  0  0  # atno 8008 bound_to 7997
  156.3013  140.2383  156.4124 H   0  0  0  0  0  0  0  0  0  0  0  0  # atno 8009 bound_to 7997
  154.8392  140.0414  157.1518 H   0  0  0  0  0  0  0  0  0  0  0  0  # atno 8010 bound_to 7997
  139.9903  143.5648  152.2344 H   0  0  0  0  0  0  0  0  0  0  0  0  # atno 10167 bound_to 10162
  157.2630  131.0802  151.1652 H   0  0  0  0  0  0  0  0  0  0  0  0  # atno 10718 bound_to 10713
  153.9389  135.2982  155.3443 H   0  0  0  0  0  0  0  0  0  0  0  0  # atno 10763 bound_to 10752
  154.7488  135.4990  153.9254 H   0  0  0  0  0  0  0  0  0  0  0  0  # atno 10764 bound_to 10752
  153.1053  135.6745  153.9704 H   0  0  0  0  0  0  0  0  0  0  0  0  # atno 10765 bound_to 10752
  141.1656  133.7304  156.8749 H   0  0  0  0  0  0  0  0  0  0  0  0  # atno 11005 bound_to 11000
  144.6769  140.2177  143.7370 LP  0  0  0  0  0  0  0  0  0  0  0  0  # atno 17320 bound_to 7965
  145.8385  139.2118  143.1841 LP  0  0  0  0  0  0  0  0  0  0  0  0  # atno 17321 bound_to 7965
  139.6345  144.7648  151.2467 LP  0  0  0  0  0  0  0  0  0  0  0  0  # atno 17342 bound_to 10162
  140.7457  143.6422  150.8324 LP  0  0  0  0  0  0  0  0  0  0  0  0  # atno 17343 bound_to 10162
  157.3155  130.6911  149.6239 LP  0  0  0  0  0  0  0  0  0  0  0  0  # atno 17370 bound_to 10713
  155.9664  130.4351  150.5077 LP  0  0  0  0  0  0  0  0  0  0  0  0  # atno 17371 bound_to 10713
  140.1756  134.9069  157.2886 LP  0  0  0  0  0  0  0  0  0  0  0  0  # atno 17394 bound_to 11000
  140.2453  134.3747  155.7464 LP  0  0  0  0  0  0  0  0  0  0  0  0  # atno 17395 bound_to 11000

$$$$
