AV-unprocessed.smi:1965|AV-procd|sdf|7935|dock8
  -GOLD-   2272010103D 1   1.00000     0.00000
 Structure written by MMmdl.
 37 39  0  0  0  0  0  0  0  0  2 V2000
  145.7413  137.5286  154.5637 O   0  0  0  0  0  0  0  0  0  0  0  0
  146.5619  137.1646  153.7235 C   0  0  0  0  0  0  0  0  0  0  0  0
  147.6061  137.9484  153.3816 N   0  0  0  0  0  0  0  0  0  0  0  0
  147.9973  139.2419  153.8344 C   0  0  0  0  0  0  0  0  0  0  0  0
  149.2393  139.5879  154.1985 N   0  0  0  0  0  0  0  0  0  0  0  0
  149.3141  140.9176  154.6209 C   0  0  0  0  0  0  0  0  0  0  0  0
  148.1096  141.5739  154.5812 C   0  0  0  0  0  0  0  0  0  0  0  0
  146.8264  140.5417  154.0095 S   0  0  0  0  0  0  0  0  0  0  0  0
  146.4821  135.9793  153.0958 N   0  0  0  0  0  0  0  0  0  0  0  0
  145.4685  134.9536  153.3299 C   0  0  1  0  0  0  0  0  0  0  0  0
  144.0409  135.5301  153.3990 C   0  0  0  0  0  0  0  0  0  0  0  0
  143.1811  134.5359  152.6120 C   0  0  0  0  0  0  0  0  0  0  0  0
  144.1025  134.0534  151.5771 N   0  3  2  0  0  0  0  0  0  0  0  0
  143.7022  132.8880  150.7627 C   0  0  0  0  0  0  0  0  0  0  0  0
  144.7436  132.6971  149.6389 C   0  0  0  0  0  0  0  0  0  0  0  0
  146.1879  132.6286  150.1852 C   0  0  0  0  0  0  0  0  0  0  0  0
  146.4994  133.8077  151.1321 C   0  0  0  0  0  0  0  0  0  0  0  0
  145.4144  133.8752  152.2223 C   0  0  1  0  0  0  0  0  0  0  0  0
  148.1738  137.5839  152.6301 H   0  0  0  0  0  0  0  0  0  0  0  0
  150.2673  141.3161  154.9362 H   0  0  0  0  0  0  0  0  0  0  0  0
  147.8995  142.5974  154.8550 H   0  0  0  0  0  0  0  0  0  0  0  0
  147.1984  135.7656  152.4158 H   0  0  0  0  0  0  0  0  0  0  0  0
  145.6747  134.4582  154.2808 H   0  0  0  0  0  0  0  0  0  0  0  0
  143.6905  135.6642  154.4229 H   0  0  0  0  0  0  0  0  0  0  0  0
  144.0014  136.5043  152.9088 H   0  0  0  0  0  0  0  0  0  0  0  0
  142.8735  133.7051  153.2490 H   0  0  0  0  0  0  0  0  0  0  0  0
  142.2895  134.9954  152.1842 H   0  0  0  0  0  0  0  0  0  0  0  0
  143.6365  131.9967  151.3883 H   0  0  0  0  0  0  0  0  0  0  0  0
  142.7136  133.0584  150.3353 H   0  0  0  0  0  0  0  0  0  0  0  0
  144.5162  131.7965  149.0677 H   0  0  0  0  0  0  0  0  0  0  0  0
  144.6689  133.5303  148.9384 H   0  0  0  0  0  0  0  0  0  0  0  0
  146.3223  131.6899  150.7244 H   0  0  0  0  0  0  0  0  0  0  0  0
  146.9005  132.6123  149.3601 H   0  0  0  0  0  0  0  0  0  0  0  0
  147.4844  133.6712  151.5792 H   0  0  0  0  0  0  0  0  0  0  0  0
  146.5312  134.7411  150.5682 H   0  0  0  0  0  0  0  0  0  0  0  0
  145.3976  132.9116  152.7364 H   0  0  0  0  0  0  0  0  0  0  0  0
  144.2119  134.8259  150.9358 H   0  0  0  0  0  0  0  0  0  0  0  0
  1  2  2  0  0  0  0
  2  3  1  0  0  0  0
  2  9  1  0  0  0  0
  3  4  1  0  0  0  0
  3 19  1  0  0  0  0
  4  8  1  0  0  0  0
  4  5  2  0  0  0  0
  5  6  1  0  0  0  0
  6  7  2  0  0  0  0
  6 20  1  0  0  0  0
  7  8  1  0  0  0  0
  7 21  1  0  0  0  0
  9 10  1  0  0  0  0
  9 22  1  0  0  0  0
 10 18  1  0  0  0  0
 10 11  1  0  0  0  0
 10 23  1  0  0  0  0
 11 12  1  0  0  0  0
 11 24  1  0  0  0  0
 11 25  1  0  0  0  0
 12 13  1  0  0  0  0
 12 26  1  0  0  0  0
 12 27  1  0  0  0  0
 13 18  1  0  0  0  0
 13 14  1  0  0  0  0
 13 37  1  0  0  0  0
 14 15  1  0  0  0  0
 14 28  1  0  0  0  0
 14 29  1  0  0  0  0
 15 16  1  0  0  0  0
 15 30  1  0  0  0  0
 15 31  1  0  0  0  0
 16 17  1  0  0  0  0
 16 32  1  0  0  0  0
 16 33  1  0  0  0  0
 17 18  1  0  0  0  0
 17 34  1  0  0  0  0
 17 35  1  0  0  0  0
 18 36  1  0  0  0  0
M  CHG  1  13   1
M  END
> <s_m_source_file>
AV-unprocessed.smi

> <i_m_source_file_index>
1965

> <i_lp_mmshare_version>
43012

> <i_f3d_flags>
0

> <s_epik_input>
czFbY0hdW2NIXW5jMVtOSF1DKD1PKVtOSF1bQ0BIXShbQ0gyXVtDSDJdMilbQ0BASF0oTjIzKVtDSDJdW0NIMl1bQ0gyXVtDSDJdMw==

> <s_epik_cmdline>
J2VwaWtfcHl0aG9uJywgJy1waCcsICc3LjAnLCAnLXRuJywgJzgnLCAnLW1hJywgJzIwMCcsICctbWV0YWxfYmluZGluZycsICctaW1hZScsICc8aW5maWxlLm1hZT4nLCAnLW9tYWUnLCAnPG91dGZpbGUubWFlPic=

> <r_lp_tautomer_probability>
1

> <r_epik_Ionization_Penalty>
0.00125962

> <r_epik_Ionization_Penalty_Charging>
0.00107044

> <r_epik_Ionization_Penalty_Neutral>
0.000189176

> <r_epik_State_Penalty>
-0

> <r_epik_Charging_Adjusted_Penalty>
0.00107044

> <i_epik_Tot_Q>
1

> <i_epik_Tot_abs_Q>
1

> <r_epik_Metal_State_Penalty>
0.0179285

> <b_epik_Metal_Only>
0

> <s_lp_Force_Field>
OPLS_2005

> <r_lp_Energy>
42.2865

> <b_lp_Chiralities_Consistent>
1

> <s_lp_Variant>
AV-unprocessed.smi:1965-4

> <Gold.Version>
5.8.1

> <Gold.Id.Protein>
6NUR|6NUR_protein|mol2

> <Gold.PLP.Fitness>
36.8026

> <Gold.PLP.PLP>
-29.2042

> <Gold.PLP.part.hbond>
-2.0000

> <Gold.PLP.part.metal>
0.0000

> <Gold.PLP.part.buried>
-3.5249

> <Gold.PLP.part.nonpolar>
-23.7331

> <Gold.PLP.part.repulsive>
0.9447

> <Gold.PLP.ligand.clash>
0.0000

> <Gold.PLP.ligand.torsion>
0.5691

> <Gold.PLP.Chemscore.Hbond>
1.9120

> <Gold.PLP.Chemscore.CHOScore>
1.0000

> <Gold.PLP.Chemscore.Metal>
0.0000

> <Gold.Chemscore.Hbonds>
donor molecule, donor type, donor heavy atom, donor atom, acceptor molecule, acceptor atom, score
      L1  H     3    19       P1  7948  1.00
      L1  H     9    22       P1  7948  0.90
      L1  C     7    21       P1  8028  1.00

> <Gold.PLP.Chemscore.Internal.Correction>
0.0007

> <Gold.Rescore>
     Score         DG    S(hbond)    S(metal)    S(lipo)     H(rot)  DE(clash)    DE(int)     intcor
     15.72     -17.65       1.89        0.00      71.91       1.00       0.03       1.90       ----

> <Gold.Chemscore.Fitness>
15.7196

> <Gold.Chemscore.DG>
-17.6460

> <Gold.Chemscore.ZeroCoef>
-5.4800

> <Gold.Chemscore.Hbond>
1.8901

> <Gold.Chemscore.Metal>
0.0000

> <Gold.Chemscore.Lipo>
71.9054

> <Gold.Chemscore.Internal_Hbond>
0.0000

> <Gold.Chemscore.DEClash>
0.0310

> <Gold.Chemscore.DEInternal>
1.8954

> <Gold.Chemscore.Rot>
1.0000

> <Gold.Chemscore.Internal.Correction>
   9.000000E+99

> <Gold.Chemscore.Hbonds>
donor molecule, donor type, donor heavy atom, donor atom, acceptor molecule, acceptor atom, score
      L1  H     3    19       P1  7948  0.95
      L1  H     9    22       P1  7948  0.86

> <Gold.Chemscore.Hbond.Weighted>
-6.3131

> <Gold.Chemscore.Metal.Weighted>
-0.0000

> <Gold.Chemscore.Lipo.Weighted>
-8.4129

> <Gold.Chemscore.Internal_Hbond.Weighted>
0.0000

> <Gold.Chemscore.DEClash.Weighted>
0.0310

> <Gold.Chemscore.DEInternal.Weighted>
1.8954

> <Gold.Chemscore.Rot.Weighted>
2.5600

> <Gold.Chemscore.Internal.Correction.Weighted>
   9.000000E+99

> <Gold.Protein.RotatedTorsions>
[ 6907 6896 6895 6894 ] final -109.70 input  -60.11 | X-H torsion
[ 7974 7965 7964 7962 ] final -170.13 input  175.53 | X-H torsion
[ 8008 7997 7996 7995 ] final -125.22 input   59.86 | X-H torsion
[ 10167 10162 10161 10158 ] final  -29.70 input  -65.29 | X-H torsion
[ 10718 10713 10712 10709 ] final  126.24 input   66.30 | X-H torsion
[ 10763 10752 10751 10750 ] final  -45.45 input  -60.55 | X-H torsion
[ 11005 11000 10999 10996 ] final   56.00 input  -57.11 | X-H torsion

> <Gold.Protein.ActiveResidues>
 VAL166  LYS551  ARG553  GLY616  TRP617  ASP618  TYR619  PRO620  LYS621  CYS622 
 ASP623  PHE694  ASN695  SER759  ASP760  ASP761  ALA762  ILE779  LEU786  VAL792 
 PHE793  MET794  SER795  GLU796  ALA797  LYS798  CYS799  TRP800  GLU811  SER814 

> <Gold.Protein.RotatedAtoms>
  150.7578  133.9490  159.3479 H   0  0  0  0  0  0  0  0  0  0  0  0  # atno 6907 bound_to 6896
  151.7406  135.0853  160.0324 H   0  0  0  0  0  0  0  0  0  0  0  0  # atno 6908 bound_to 6896
  152.3531  133.6166  159.5995 H   0  0  0  0  0  0  0  0  0  0  0  0  # atno 6909 bound_to 6896
  144.7174  140.2118  143.6326 H   0  0  0  0  0  0  0  0  0  0  0  0  # atno 7974 bound_to 7965
  155.2097  140.0418  157.2931 H   0  0  0  0  0  0  0  0  0  0  0  0  # atno 8008 bound_to 7997
  154.6020  140.2454  155.7752 H   0  0  0  0  0  0  0  0  0  0  0  0  # atno 8009 bound_to 7997
  156.2327  140.2932  156.0239 H   0  0  0  0  0  0  0  0  0  0  0  0  # atno 8010 bound_to 7997
  140.7257  143.3907  151.1434 H   0  0  0  0  0  0  0  0  0  0  0  0  # atno 10167 bound_to 10162
  157.5436  131.1096  150.8818 H   0  0  0  0  0  0  0  0  0  0  0  0  # atno 10718 bound_to 10713
  154.0288  135.6659  153.4779 H   0  0  0  0  0  0  0  0  0  0  0  0  # atno 10763 bound_to 10752
  153.0549  135.5062  154.7953 H   0  0  0  0  0  0  0  0  0  0  0  0  # atno 10764 bound_to 10752
  154.6891  135.3058  154.9470 H   0  0  0  0  0  0  0  0  0  0  0  0  # atno 10765 bound_to 10752
  140.0563  134.5665  155.9204 H   0  0  0  0  0  0  0  0  0  0  0  0  # atno 11005 bound_to 11000
  145.8584  139.2210  143.1731 LP  0  0  0  0  0  0  0  0  0  0  0  0  # atno 17320 bound_to 7965
  146.0196  140.8360  142.9930 LP  0  0  0  0  0  0  0  0  0  0  0  0  # atno 17321 bound_to 7965
  139.7512  143.8776  152.3077 LP  0  0  0  0  0  0  0  0  0  0  0  0  # atno 17342 bound_to 10162
  139.8630  144.7107  150.9077 LP  0  0  0  0  0  0  0  0  0  0  0  0  # atno 17343 bound_to 10162
  156.9364  130.5368  149.5279 LP  0  0  0  0  0  0  0  0  0  0  0  0  # atno 17370 bound_to 10713
  156.0517  130.5585  150.9003 LP  0  0  0  0  0  0  0  0  0  0  0  0  # atno 17371 bound_to 10713
  141.1953  133.6587  156.5638 LP  0  0  0  0  0  0  0  0  0  0  0  0  # atno 17394 bound_to 11000
  140.3839  134.7499  157.4678 LP  0  0  0  0  0  0  0  0  0  0  0  0  # atno 17395 bound_to 11000

$$$$
