AV-unprocessed.smi:2973|AV-procd|sdf|11351|dock7
  -GOLD-   2272016263D 1   1.00000     0.00000
 Structure written by MMmdl.
 49 51  0  0  0  0  0  0  0  0  3 V2000
  150.4501  141.7294  156.3629 C   0  0  0  0  0  0  0  0  0  0  0  0
  151.0217  140.9670  157.5784 C   0  0  2  0  0  0  0  0  0  0  0  0
  151.9046  141.8951  158.4403 C   0  0  0  0  0  0  0  0  0  0  0  0
  152.3976  141.1934  159.7144 C   0  0  0  0  0  0  0  0  0  0  0  0
  153.1589  139.9054  159.3767 C   0  0  0  0  0  0  0  0  0  0  0  0
  152.2978  138.9577  158.5247 C   0  0  0  0  0  0  0  0  0  0  0  0
  151.7586  139.6308  157.2357 C   0  0  2  0  0  0  0  0  0  0  0  0
  152.8422  139.8350  156.2881 N   0  5  0  0  0  0  0  0  0  0  0  0
  152.6075  139.0929  155.1810 C   0  0  0  0  0  0  0  0  0  0  0  0
  153.3240  139.0129  154.1840 O   0  0  0  0  0  0  0  0  0  0  0  0
  151.4510  138.4121  155.2930 N   0  0  0  0  0  0  0  0  0  0  0  0
  150.9076  137.4861  154.2907 C   0  0  0  0  0  0  0  0  0  0  0  0
  150.8538  136.0423  154.8046 C   0  0  0  0  0  0  0  0  0  0  0  0
  151.6226  135.6634  155.6892 O   0  0  0  0  0  0  0  0  0  0  0  0
  149.9373  135.2421  154.2376 N   0  0  0  0  0  0  0  0  0  0  0  0
  149.6872  133.8503  154.6063 C   0  0  0  0  0  0  0  0  0  0  0  0
  149.7912  132.8900  153.4036 C   0  0  0  0  0  0  0  0  0  0  0  0
  148.4672  132.6242  152.7066 C   0  0  0  0  0  0  0  0  0  0  0  0
  147.8451  131.3569  152.7325 C   0  0  0  0  0  0  0  0  0  0  0  0
  146.6308  131.1709  152.0401 C   0  0  0  0  0  0  0  0  0  0  0  0
  146.0637  132.2535  151.3376 C   0  0  0  0  0  0  0  0  0  0  0  0
  146.7251  133.4980  151.3476 C   0  0  0  0  0  0  0  0  0  0  0  0
  147.8850  133.6382  152.0261 N   0  3  0  0  0  0  0  0  0  0  0  0
  150.8728  138.6558  156.4742 C   0  0  0  0  0  0  0  0  0  0  0  0
  149.8169  138.1868  156.9026 O   0  0  0  0  0  0  0  0  0  0  0  0
  151.2400  142.0536  155.6849 H   0  0  0  0  0  0  0  0  0  0  0  0
  149.9103  142.6205  156.6833 H   0  0  0  0  0  0  0  0  0  0  0  0
  149.7497  141.1206  155.7918 H   0  0  0  0  0  0  0  0  0  0  0  0
  150.1622  140.7038  158.1974 H   0  0  0  0  0  0  0  0  0  0  0  0
  152.7606  142.2389  157.8582 H   0  0  0  0  0  0  0  0  0  0  0  0
  151.3451  142.7892  158.7167 H   0  0  0  0  0  0  0  0  0  0  0  0
  153.0405  141.8656  160.2831 H   0  0  0  0  0  0  0  0  0  0  0  0
  151.5474  140.9597  160.3564 H   0  0  0  0  0  0  0  0  0  0  0  0
  154.0771  140.1519  158.8421 H   0  0  0  0  0  0  0  0  0  0  0  0
  153.4640  139.4030  160.2948 H   0  0  0  0  0  0  0  0  0  0  0  0
  152.8751  138.0646  158.2796 H   0  0  0  0  0  0  0  0  0  0  0  0
  151.4603  138.6164  159.1348 H   0  0  0  0  0  0  0  0  0  0  0  0
  149.9093  137.8135  153.9938 H   0  0  0  0  0  0  0  0  0  0  0  0
  151.5087  137.5087  153.3806 H   0  0  0  0  0  0  0  0  0  0  0  0
  149.3562  135.6330  153.5100 H   0  0  0  0  0  0  0  0  0  0  0  0
  150.4153  133.5635  155.3653 H   0  0  0  0  0  0  0  0  0  0  0  0
  148.7081  133.7530  155.0786 H   0  0  0  0  0  0  0  0  0  0  0  0
  150.4942  133.2970  152.6757 H   0  0  0  0  0  0  0  0  0  0  0  0
  150.2131  131.9388  153.7297 H   0  0  0  0  0  0  0  0  0  0  0  0
  148.2979  130.5308  153.2610 H   0  0  0  0  0  0  0  0  0  0  0  0
  146.1469  130.2052  152.0386 H   0  0  0  0  0  0  0  0  0  0  0  0
  145.1400  132.1277  150.7919 H   0  0  0  0  0  0  0  0  0  0  0  0
  146.3678  134.3772  150.8319 H   0  0  0  0  0  0  0  0  0  0  0  0
  148.3518  134.5451  152.0092 H   0  0  0  0  0  0  0  0  0  0  0  0
  1  2  1  0  0  0  0
  1 26  1  0  0  0  0
  1 27  1  0  0  0  0
  1 28  1  0  0  0  0
  2  7  1  0  0  0  0
  2  3  1  0  0  0  0
  2 29  1  0  0  0  0
  3  4  1  0  0  0  0
  3 30  1  0  0  0  0
  3 31  1  0  0  0  0
  4  5  1  0  0  0  0
  4 32  1  0  0  0  0
  4 33  1  0  0  0  0
  5  6  1  0  0  0  0
  5 34  1  0  0  0  0
  5 35  1  0  0  0  0
  6  7  1  0  0  0  0
  6 36  1  0  0  0  0
  6 37  1  0  0  0  0
  7 24  1  0  0  0  0
  7  8  1  0  0  0  0
  8  9  1  0  0  0  0
  9 10  2  0  0  0  0
  9 11  1  0  0  0  0
 11 12  1  0  0  0  0
 11 24  1  0  0  0  0
 12 13  1  0  0  0  0
 12 38  1  0  0  0  0
 12 39  1  0  0  0  0
 13 14  2  0  0  0  0
 13 15  1  0  0  0  0
 15 16  1  0  0  0  0
 15 40  1  0  0  0  0
 16 17  1  0  0  0  0
 16 41  1  0  0  0  0
 16 42  1  0  0  0  0
 17 18  1  0  0  0  0
 17 43  1  0  0  0  0
 17 44  1  0  0  0  0
 18 23  1  0  0  0  0
 18 19  2  0  0  0  0
 19 20  1  0  0  0  0
 19 45  1  0  0  0  0
 20 21  2  0  0  0  0
 20 46  1  0  0  0  0
 21 22  1  0  0  0  0
 21 47  1  0  0  0  0
 22 23  2  0  0  0  0
 22 48  1  0  0  0  0
 23 49  1  0  0  0  0
 24 25  2  0  0  0  0
M  CHG  1   8  -1
M  CHG  1  23   1
M  END
> <s_m_source_file>
AV-unprocessed.smi

> <i_m_source_file_index>
2973

> <i_lp_mmshare_version>
43012

> <i_f3d_flags>
0

> <s_epik_input>
W0NIMl0xW0NIMl1bQ0gyXVtDSDJdW0NAQEhdKFtDSDNdKVtDQF0xMltOSF1DKD1PKU4oQzI9TylbQ0gyXUMoPU8pW05IXVtDSDJdW0NIMl1jM1tjSF1bY0hdW2NIXVtjSF1uMw==

> <s_epik_cmdline>
J2VwaWtfcHl0aG9uJywgJy1waCcsICc3LjAnLCAnLXRuJywgJzgnLCAnLW1hJywgJzIwMCcsICctbWV0YWxfYmluZGluZycsICctaW1hZScsICc8aW5maWxlLm1hZT4nLCAnLW9tYWUnLCAnPG91dGZpbGUubWFlPic=

> <r_lp_tautomer_probability>
1

> <r_epik_Ionization_Penalty>
7.89073

> <r_epik_Ionization_Penalty_Charging>
7.89073

> <r_epik_Ionization_Penalty_Neutral>
1.56557e-07

> <r_epik_State_Penalty>
8.01193

> <r_epik_Charging_Adjusted_Penalty>
15.9027

> <i_epik_Tot_Q>
0

> <i_epik_Tot_abs_Q>
2

> <r_epik_Metal_State_Penalty>
3.98737

> <b_epik_Metal_Only>
1

> <s_lp_Force_Field>
OPLS_2005

> <r_lp_Energy>
16.8567

> <b_lp_Chiralities_Consistent>
1

> <s_lp_Variant>
AV-unprocessed.smi:2973-15

> <Gold.Version>
5.8.1

> <Gold.Id.Protein>
6NUR|6NUR_protein|mol2

> <Gold.PLP.Fitness>
59.0791

> <Gold.PLP.PLP>
-42.3665

> <Gold.PLP.part.hbond>
-4.3065

> <Gold.PLP.part.metal>
0.0000

> <Gold.PLP.part.buried>
-2.6645

> <Gold.PLP.part.nonpolar>
-34.9160

> <Gold.PLP.part.repulsive>
0.1412

> <Gold.PLP.ligand.clash>
0.0000

> <Gold.PLP.ligand.torsion>
0.6625

> <Gold.PLP.Chemscore.Hbond>
5.9920

> <Gold.PLP.Chemscore.CHOScore>
0.0000

> <Gold.PLP.Chemscore.Metal>
0.0000

> <Gold.Chemscore.Hbonds>
donor molecule, donor type, donor heavy atom, donor atom, acceptor molecule, acceptor atom, score
      L1  H    15    40       P1  7948  1.00
      L1  H    23    49       P1  7948  1.00
      P1  H  7997  8010       L1     8  1.95
      P1  H 10752 10764       L1    14  1.00

> <Gold.PLP.Chemscore.Internal.Correction>
0.0616

> <Gold.Rescore>
     Score         DG    S(hbond)    S(metal)    S(lipo)     H(rot)  DE(clash)    DE(int)     intcor
     21.69     -22.43       3.35        0.00      91.26       1.92       0.04       0.70       ----

> <Gold.Chemscore.Fitness>
21.6911

> <Gold.Chemscore.DG>
-22.4289

> <Gold.Chemscore.ZeroCoef>
-5.4800

> <Gold.Chemscore.Hbond>
3.3473

> <Gold.Chemscore.Metal>
0.0000

> <Gold.Chemscore.Lipo>
91.2628

> <Gold.Chemscore.Internal_Hbond>
0.0000

> <Gold.Chemscore.DEClash>
0.0377

> <Gold.Chemscore.DEInternal>
0.7001

> <Gold.Chemscore.Rot>
1.9175

> <Gold.Chemscore.Internal.Correction>
   9.000000E+99

> <Gold.Chemscore.Hbonds>
donor molecule, donor type, donor heavy atom, donor atom, acceptor molecule, acceptor atom, score
      L1  H    15    40       P1  7948  0.34
      L1  H    23    49       P1  7948  0.02
      P1  H  7997  8010       L1     8  0.60
      P1  H 10752 10764       L1    14  0.73

> <Gold.Chemscore.Hbond.Weighted>
-11.1799

> <Gold.Chemscore.Metal.Weighted>
-0.0000

> <Gold.Chemscore.Lipo.Weighted>
-10.6777

> <Gold.Chemscore.Internal_Hbond.Weighted>
0.0000

> <Gold.Chemscore.DEClash.Weighted>
0.0377

> <Gold.Chemscore.DEInternal.Weighted>
0.7001

> <Gold.Chemscore.Rot.Weighted>
4.9087

> <Gold.Chemscore.Internal.Correction.Weighted>
   9.000000E+99

> <Gold.Protein.RotatedTorsions>
[ 6907 6896 6895 6894 ] final  -80.46 input  -60.11 | X-H torsion
[ 7974 7965 7964 7962 ] final -123.67 input  175.53 | X-H torsion
[ 8008 7997 7996 7995 ] final   77.26 input   59.86 | X-H torsion
[ 10167 10162 10161 10158 ] final -175.76 input  -65.29 | X-H torsion
[ 10718 10713 10712 10709 ] final   33.35 input   66.30 | X-H torsion
[ 10763 10752 10751 10750 ] final  -27.21 input  -60.55 | X-H torsion
[ 11005 11000 10999 10996 ] final  -86.69 input  -57.11 | X-H torsion

> <Gold.Protein.ActiveResidues>
 VAL166  LYS551  ARG553  GLY616  TRP617  ASP618  TYR619  PRO620  LYS621  CYS622 
 ASP623  PHE694  ASN695  SER759  ASP760  ASP761  ALA762  ILE779  LEU786  VAL792 
 PHE793  MET794  SER795  GLU796  ALA797  LYS798  CYS799  TRP800  GLU811  SER814 

> <Gold.Protein.RotatedAtoms>
  150.6929  134.3966  159.5099 H   0  0  0  0  0  0  0  0  0  0  0  0  # atno 6907 bound_to 6896
  152.1746  134.8803  160.0541 H   0  0  0  0  0  0  0  0  0  0  0  0  # atno 6908 bound_to 6896
  151.9816  133.3725  159.4146 H   0  0  0  0  0  0  0  0  0  0  0  0  # atno 6909 bound_to 6896
  145.0163  140.7949  143.4408 H   0  0  0  0  0  0  0  0  0  0  0  0  # atno 7974 bound_to 7965
  155.8390  140.3463  155.5620 H   0  0  0  0  0  0  0  0  0  0  0  0  # atno 8008 bound_to 7997
  155.8161  140.0906  157.1896 H   0  0  0  0  0  0  0  0  0  0  0  0  # atno 8009 bound_to 7997
  154.4005  140.1439  156.3431 H   0  0  0  0  0  0  0  0  0  0  0  0  # atno 8010 bound_to 7997
  139.5564  144.1978  152.1166 H   0  0  0  0  0  0  0  0  0  0  0  0  # atno 10167 bound_to 10162
  157.2968  130.7330  149.6643 H   0  0  0  0  0  0  0  0  0  0  0  0  # atno 10718 bound_to 10713
  153.7285  135.6940  153.4995 H   0  0  0  0  0  0  0  0  0  0  0  0  # atno 10763 bound_to 10752
  153.2153  135.4388  155.0426 H   0  0  0  0  0  0  0  0  0  0  0  0  # atno 10764 bound_to 10752
  154.8261  135.3447  154.6816 H   0  0  0  0  0  0  0  0  0  0  0  0  # atno 10765 bound_to 10752
  141.1627  133.7469  156.9198 H   0  0  0  0  0  0  0  0  0  0  0  0  # atno 11005 bound_to 11000
  145.1956  139.2278  143.5220 LP  0  0  0  0  0  0  0  0  0  0  0  0  # atno 17320 bound_to 7965
  146.3478  140.1762  142.8589 LP  0  0  0  0  0  0  0  0  0  0  0  0  # atno 17321 bound_to 7965
  140.1483  144.5138  150.6702 LP  0  0  0  0  0  0  0  0  0  0  0  0  # atno 17342 bound_to 10162
  140.6837  143.2339  151.5316 LP  0  0  0  0  0  0  0  0  0  0  0  0  # atno 17343 bound_to 10162
  155.9669  130.4292  150.4822 LP  0  0  0  0  0  0  0  0  0  0  0  0  # atno 17370 bound_to 10713
  157.2795  131.0604  151.2207 LP  0  0  0  0  0  0  0  0  0  0  0  0  # atno 17371 bound_to 10713
  140.1459  134.9263  157.2529 LP  0  0  0  0  0  0  0  0  0  0  0  0  # atno 17394 bound_to 11000
  140.2781  134.3382  155.7352 LP  0  0  0  0  0  0  0  0  0  0  0  0  # atno 17395 bound_to 11000

$$$$
