AV-unprocessed.smi:1971|AV-procd|sdf|7969|dock8
  -GOLD-   2272010143D 1   1.00000     0.00000
 Structure written by MMmdl.
 43 44  0  0  0  0  0  0  0  0  3 V2000
  151.9631  144.9954  159.0014 C   0  0  0  0  0  0  0  0  0  0  0  0
  151.3027  143.6635  159.3854 C   0  0  0  0  0  0  0  0  0  0  0  0
  151.7789  142.5307  158.5536 N   0  3  0  0  0  0  0  0  0  0  0  0
  151.1491  142.5121  157.2100 C   0  0  0  0  0  0  0  0  0  0  0  0
  151.6840  141.3325  156.3661 C   0  0  0  0  0  0  0  0  0  0  0  0
  151.4574  140.0345  157.0201 N   0  0  0  0  0  0  0  0  0  0  0  0
  150.0358  139.6304  157.1065 C   0  0  1  0  0  0  0  0  0  0  0  0
  149.4009  139.6150  155.6956 C   0  0  0  0  0  0  0  0  0  0  0  0
  149.8587  138.2467  157.7907 C   0  0  0  0  0  0  0  0  0  0  0  0
  148.9714  138.3065  158.9486 N   0  0  0  0  0  0  0  0  0  0  0  0
  148.5800  137.2572  159.6865 C   0  0  0  0  0  0  0  0  0  0  0  0
  148.9633  136.1216  159.3932 O   0  0  0  0  0  0  0  0  0  0  0  0
  147.7734  137.5889  160.7192 N   0  5  0  0  0  0  0  0  0  0  0  0
  147.0370  136.6451  161.3280 C   0  0  0  0  0  0  0  0  0  0  0  0
  147.4741  135.3968  161.5304 N   0  0  0  0  0  0  0  0  0  0  0  0
  146.5496  134.5849  162.1898 C   0  0  0  0  0  0  0  0  0  0  0  0
  145.3837  135.2320  162.5027 C   0  0  0  0  0  0  0  0  0  0  0  0
  145.4129  136.8906  161.9759 S   0  0  0  0  0  0  0  0  0  0  0  0
  152.1852  140.0948  158.2954 C   0  0  0  0  0  0  0  0  0  0  0  0
  151.6375  141.2078  159.2124 C   0  0  0  0  0  0  0  0  0  0  0  0
  151.5190  145.8190  159.5608 H   0  0  0  0  0  0  0  0  0  0  0  0
  151.8316  145.2095  157.9403 H   0  0  0  0  0  0  0  0  0  0  0  0
  153.0312  144.9993  159.2174 H   0  0  0  0  0  0  0  0  0  0  0  0
  151.4622  143.4454  160.4424 H   0  0  0  0  0  0  0  0  0  0  0  0
  150.2256  143.7730  159.2513 H   0  0  0  0  0  0  0  0  0  0  0  0
  150.0633  142.4760  157.3023 H   0  0  0  0  0  0  0  0  0  0  0  0
  151.3808  143.4460  156.6968 H   0  0  0  0  0  0  0  0  0  0  0  0
  151.2544  141.3547  155.3666 H   0  0  0  0  0  0  0  0  0  0  0  0
  152.7566  141.4596  156.2123 H   0  0  0  0  0  0  0  0  0  0  0  0
  149.4930  140.3591  157.7058 H   0  0  0  0  0  0  0  0  0  0  0  0
  148.3772  139.2416  155.7167 H   0  0  0  0  0  0  0  0  0  0  0  0
  149.9648  138.9773  155.0141 H   0  0  0  0  0  0  0  0  0  0  0  0
  149.3368  140.6090  155.2563 H   0  0  0  0  0  0  0  0  0  0  0  0
  149.4532  137.5237  157.0824 H   0  0  0  0  0  0  0  0  0  0  0  0
  150.8031  137.8377  158.1474 H   0  0  0  0  0  0  0  0  0  0  0  0
  148.6331  139.2180  159.2203 H   0  0  0  0  0  0  0  0  0  0  0  0
  146.8060  133.5569  162.3976 H   0  0  0  0  0  0  0  0  0  0  0  0
  144.5155  134.8380  163.0089 H   0  0  0  0  0  0  0  0  0  0  0  0
  152.1820  139.1325  158.8034 H   0  0  0  0  0  0  0  0  0  0  0  0
  153.2382  140.2889  158.0865 H   0  0  0  0  0  0  0  0  0  0  0  0
  152.2020  141.1969  160.1437 H   0  0  0  0  0  0  0  0  0  0  0  0
  150.5959  141.0239  159.4793 H   0  0  0  0  0  0  0  0  0  0  0  0
  152.7662  142.6758  158.3989 H   0  0  0  0  0  0  0  0  0  0  0  0
  1  2  1  0  0  0  0
  1 21  1  0  0  0  0
  1 22  1  0  0  0  0
  1 23  1  0  0  0  0
  2  3  1  0  0  0  0
  2 24  1  0  0  0  0
  2 25  1  0  0  0  0
  3 20  1  0  0  0  0
  3  4  1  0  0  0  0
  3 43  1  0  0  0  0
  4  5  1  0  0  0  0
  4 26  1  0  0  0  0
  4 27  1  0  0  0  0
  5  6  1  0  0  0  0
  5 28  1  0  0  0  0
  5 29  1  0  0  0  0
  6  7  1  0  0  0  0
  6 19  1  0  0  0  0
  7  8  1  0  0  0  0
  7  9  1  0  0  0  0
  7 30  1  0  0  0  0
  8 31  1  0  0  0  0
  8 32  1  0  0  0  0
  8 33  1  0  0  0  0
  9 10  1  0  0  0  0
  9 34  1  0  0  0  0
  9 35  1  0  0  0  0
 10 11  1  0  0  0  0
 10 36  1  0  0  0  0
 11 12  2  0  0  0  0
 11 13  1  0  0  0  0
 13 14  1  0  0  0  0
 14 18  1  0  0  0  0
 14 15  2  0  0  0  0
 15 16  1  0  0  0  0
 16 17  2  0  0  0  0
 16 37  1  0  0  0  0
 17 18  1  0  0  0  0
 17 38  1  0  0  0  0
 19 20  1  0  0  0  0
 19 39  1  0  0  0  0
 19 40  1  0  0  0  0
 20 41  1  0  0  0  0
 20 42  1  0  0  0  0
M  CHG  1   3   1
M  CHG  1  13  -1
M  END
> <s_m_source_file>
AV-unprocessed.smi

> <i_m_source_file_index>
1971

> <i_lp_mmshare_version>
43012

> <i_f3d_flags>
0

> <s_epik_input>
W0NIM11bQ0gyXU4xW0NIMl1bQ0gyXU4oW0NIMl1bQ0gyXTEpW0NASF0oW0NIM10pW0NIMl1bTkhdQyg9TylbTkhdYzJuW2NIXVtjSF1zMg==

> <s_epik_cmdline>
J2VwaWtfcHl0aG9uJywgJy1waCcsICc3LjAnLCAnLXRuJywgJzgnLCAnLW1hJywgJzIwMCcsICctbWV0YWxfYmluZGluZycsICctaW1hZScsICc8aW5maWxlLm1hZT4nLCAnLW9tYWUnLCAnPG91dGZpbGUubWFlPic=

> <r_lp_tautomer_probability>
0.999

> <r_epik_Ionization_Penalty>
7.06996

> <r_epik_Ionization_Penalty_Charging>
5.92347

> <r_epik_Ionization_Penalty_Neutral>
1.14649

> <r_epik_State_Penalty>
6.04391

> <r_epik_Charging_Adjusted_Penalty>
11.9674

> <i_epik_Tot_Q>
0

> <i_epik_Tot_abs_Q>
2

> <r_epik_Metal_State_Penalty>
2.01291

> <b_epik_Metal_Only>
1

> <s_lp_Force_Field>
OPLS_2005

> <r_lp_Energy>
11.7698

> <b_lp_Chiralities_Consistent>
1

> <s_lp_Variant>
AV-unprocessed.smi:1971-8

> <Gold.Version>
5.8.1

> <Gold.Id.Protein>
6NUR|6NUR_protein|mol2

> <Gold.PLP.Fitness>
45.4742

> <Gold.PLP.PLP>
-34.6697

> <Gold.PLP.part.hbond>
-3.0000

> <Gold.PLP.part.metal>
0.0000

> <Gold.PLP.part.buried>
-5.6584

> <Gold.PLP.part.nonpolar>
-26.2993

> <Gold.PLP.part.repulsive>
0.2575

> <Gold.PLP.ligand.clash>
0.0000

> <Gold.PLP.ligand.torsion>
1.2824

> <Gold.PLP.Chemscore.Hbond>
4.4240

> <Gold.PLP.Chemscore.CHOScore>
0.0000

> <Gold.PLP.Chemscore.Metal>
0.0000

> <Gold.Chemscore.Hbonds>
donor molecule, donor type, donor heavy atom, donor atom, acceptor molecule, acceptor atom, score
      P1  H  6896  6908       L1    12  0.23
      P1  H  6931  6943       L1    13  1.25
      P1  H  6934  6947       L1    13  1.60

> <Gold.PLP.Chemscore.Internal.Correction>
0.0973

> <Gold.Rescore>
     Score         DG    S(hbond)    S(metal)    S(lipo)     H(rot)  DE(clash)    DE(int)     intcor
     14.44     -17.17       2.16        0.00      76.69       1.75       0.01       2.72       ----

> <Gold.Chemscore.Fitness>
14.4376

> <Gold.Chemscore.DG>
-17.1713

> <Gold.Chemscore.ZeroCoef>
-5.4800

> <Gold.Chemscore.Hbond>
2.1557

> <Gold.Chemscore.Metal>
0.0000

> <Gold.Chemscore.Lipo>
76.6898

> <Gold.Chemscore.Internal_Hbond>
0.0000

> <Gold.Chemscore.DEClash>
0.0089

> <Gold.Chemscore.DEInternal>
2.7249

> <Gold.Chemscore.Rot>
1.7505

> <Gold.Chemscore.Internal.Correction>
   9.000000E+99

> <Gold.Chemscore.Hbonds>
donor molecule, donor type, donor heavy atom, donor atom, acceptor molecule, acceptor atom, score
      P1  H  6896  6908       L1    12  0.22
      P1  H  6931  6943       L1    13  0.12
      P1  H  6934  6947       L1    13  0.65

> <Gold.Chemscore.Hbond.Weighted>
-7.1999

> <Gold.Chemscore.Metal.Weighted>
-0.0000

> <Gold.Chemscore.Lipo.Weighted>
-8.9727

> <Gold.Chemscore.Internal_Hbond.Weighted>
0.0000

> <Gold.Chemscore.DEClash.Weighted>
0.0089

> <Gold.Chemscore.DEInternal.Weighted>
2.7249

> <Gold.Chemscore.Rot.Weighted>
4.4813

> <Gold.Chemscore.Internal.Correction.Weighted>
   9.000000E+99

> <Gold.Protein.RotatedTorsions>
[ 6907 6896 6895 6894 ] final  163.50 input  -60.11 | X-H torsion
[ 7974 7965 7964 7962 ] final  142.98 input  175.53 | X-H torsion
[ 8008 7997 7996 7995 ] final  143.91 input   59.86 | X-H torsion
[ 10167 10162 10161 10158 ] final   -5.97 input  -65.29 | X-H torsion
[ 10718 10713 10712 10709 ] final  -89.24 input   66.30 | X-H torsion
[ 10763 10752 10751 10750 ] final  -17.88 input  -60.55 | X-H torsion
[ 11005 11000 10999 10996 ] final  122.46 input  -57.11 | X-H torsion

> <Gold.Protein.ActiveResidues>
 VAL166  LYS551  ARG553  GLY616  TRP617  ASP618  TYR619  PRO620  LYS621  CYS622 
 ASP623  PHE694  ASN695  SER759  ASP760  ASP761  ALA762  ILE779  LEU786  VAL792 
 PHE793  MET794  SER795  GLU796  ALA797  LYS798  CYS799  TRP800  GLU811  SER814 

> <Gold.Protein.RotatedAtoms>
  151.9243  133.3594  159.3907 H   0  0  0  0  0  0  0  0  0  0  0  0  # atno 6907 bound_to 6896
  150.7030  134.4603  159.5387 H   0  0  0  0  0  0  0  0  0  0  0  0  # atno 6908 bound_to 6896
  152.2232  134.8393  160.0534 H   0  0  0  0  0  0  0  0  0  0  0  0  # atno 6909 bound_to 6896
  144.8961  139.5489  143.5776 H   0  0  0  0  0  0  0  0  0  0  0  0  # atno 7974 bound_to 7965
  156.2920  140.2250  156.4967 H   0  0  0  0  0  0  0  0  0  0  0  0  # atno 8008 bound_to 7997
  154.7725  140.0465  157.1084 H   0  0  0  0  0  0  0  0  0  0  0  0  # atno 8009 bound_to 7997
  154.9857  140.3084  155.4931 H   0  0  0  0  0  0  0  0  0  0  0  0  # atno 8010 bound_to 7997
  140.6981  143.6247  150.8579 H   0  0  0  0  0  0  0  0  0  0  0  0  # atno 10167 bound_to 10162
  155.9984  130.4865  150.5141 H   0  0  0  0  0  0  0  0  0  0  0  0  # atno 10718 bound_to 10713
  153.5807  135.7005  153.5465 H   0  0  0  0  0  0  0  0  0  0  0  0  # atno 10763 bound_to 10752
  153.3264  135.4059  155.1459 H   0  0  0  0  0  0  0  0  0  0  0  0  # atno 10764 bound_to 10752
  154.8618  135.3708  154.5334 H   0  0  0  0  0  0  0  0  0  0  0  0  # atno 10765 bound_to 10752
  139.9269  134.9641  156.8112 H   0  0  0  0  0  0  0  0  0  0  0  0  # atno 11005 bound_to 11000
  146.3082  139.7652  142.9040 LP  0  0  0  0  0  0  0  0  0  0  0  0  # atno 17320 bound_to 7965
  145.3698  141.0341  143.3237 LP  0  0  0  0  0  0  0  0  0  0  0  0  # atno 17321 bound_to 7965
  139.9967  143.5788  152.2890 LP  0  0  0  0  0  0  0  0  0  0  0  0  # atno 17342 bound_to 10162
  139.6463  144.7658  151.2238 LP  0  0  0  0  0  0  0  0  0  0  0  0  # atno 17343 bound_to 10162
  157.3111  131.0664  151.2000 LP  0  0  0  0  0  0  0  0  0  0  0  0  # atno 17370 bound_to 10713
  157.2946  130.6813  149.6132 LP  0  0  0  0  0  0  0  0  0  0  0  0  # atno 17371 bound_to 10713
  140.6310  133.9905  155.7662 LP  0  0  0  0  0  0  0  0  0  0  0  0  # atno 17394 bound_to 11000
  141.0833  134.0029  157.3352 LP  0  0  0  0  0  0  0  0  0  0  0  0  # atno 17395 bound_to 11000

$$$$
