AV-unprocessed.smi:1983|AV-procd|sdf|8031|dock8
  -GOLD-   2272010223D 1   1.00000     0.00000
 Structure written by MMmdl.
 49 50  0  0  0  0  0  0  0  0  1 V2000
  148.3662  133.3572  155.4345 C   0  0  0  0  0  0  0  0  0  0  0  0
  148.0912  134.7109  156.1064 C   0  0  1  0  0  0  0  0  0  0  0  0
  149.0709  134.9991  157.2620 C   0  0  0  0  0  0  0  0  0  0  0  0
  148.8774  134.0795  158.3157 O   0  0  0  0  0  0  0  0  0  0  0  0
  148.1654  135.7665  155.0998 N   0  0  0  0  0  0  0  0  0  0  0  0
  147.9543  137.0706  155.3286 C   0  0  0  0  0  0  0  0  0  0  0  0
  147.6693  137.5411  156.4302 O   0  0  0  0  0  0  0  0  0  0  0  0
  148.1022  137.8029  154.2158 N   0  0  0  0  0  0  0  0  0  0  0  0
  147.9794  139.2548  154.1585 C   0  0  0  0  0  0  0  0  0  0  0  0
  148.9060  139.9610  155.1323 C   0  0  0  0  0  0  0  0  0  0  0  0
  150.2809  139.6573  155.1752 C   0  0  0  0  0  0  0  0  0  0  0  0
  151.0985  140.3292  156.1037 C   0  0  0  0  0  0  0  0  0  0  0  0
  150.5166  141.2862  156.9683 C   0  0  0  0  0  0  0  0  0  0  0  0
  151.3199  141.9653  157.9079 N   0  0  0  0  0  0  0  0  0  0  0  0
  152.0178  141.1716  158.9149 C   0  0  0  0  0  0  0  0  0  0  0  0
  153.0880  142.0245  159.6183 C   0  0  2  0  0  0  0  0  0  0  0  0
  153.7588  141.2668  160.7686 C   0  0  0  0  0  0  0  0  0  0  0  0
  152.4836  143.2007  160.1553 O   0  0  0  0  0  0  0  0  0  0  0  0
  151.8105  144.0201  159.1962 C   0  0  1  0  0  0  0  0  0  0  0  0
  152.7927  144.7519  158.2642 C   0  0  0  0  0  0  0  0  0  0  0  0
  150.7472  143.1970  158.4421 C   0  0  0  0  0  0  0  0  0  0  0  0
  149.1916  141.5720  156.9261 N   0  0  0  0  0  0  0  0  0  0  0  0
  148.4130  140.9283  156.0311 C   0  0  0  0  0  0  0  0  0  0  0  0
  148.2736  132.5367  156.1464 H   0  0  0  0  0  0  0  0  0  0  0  0
  149.3713  133.3196  155.0133 H   0  0  0  0  0  0  0  0  0  0  0  0
  147.6585  133.1689  154.6266 H   0  0  0  0  0  0  0  0  0  0  0  0
  147.0738  134.6909  156.5022 H   0  0  0  0  0  0  0  0  0  0  0  0
  150.1057  134.9538  156.9212 H   0  0  0  0  0  0  0  0  0  0  0  0
  148.9100  135.9989  157.6667 H   0  0  0  0  0  0  0  0  0  0  0  0
  148.8535  133.2076  157.9520 H   0  0  0  0  0  0  0  0  0  0  0  0
  148.3973  135.4804  154.1600 H   0  0  0  0  0  0  0  0  0  0  0  0
  148.3327  137.3276  153.3556 H   0  0  0  0  0  0  0  0  0  0  0  0
  148.2256  139.5798  153.1474 H   0  0  0  0  0  0  0  0  0  0  0  0
  146.9440  139.5523  154.3336 H   0  0  0  0  0  0  0  0  0  0  0  0
  150.7036  138.9181  154.5108 H   0  0  0  0  0  0  0  0  0  0  0  0
  152.1516  140.0952  156.1546 H   0  0  0  0  0  0  0  0  0  0  0  0
  151.2950  140.7976  159.6413 H   0  0  0  0  0  0  0  0  0  0  0  0
  152.4913  140.3057  158.4501 H   0  0  0  0  0  0  0  0  0  0  0  0
  153.8621  142.3028  158.9027 H   0  0  0  0  0  0  0  0  0  0  0  0
  154.2510  140.3633  160.4081 H   0  0  0  0  0  0  0  0  0  0  0  0
  153.0316  140.9732  161.5261 H   0  0  0  0  0  0  0  0  0  0  0  0
  154.5140  141.8854  161.2541 H   0  0  0  0  0  0  0  0  0  0  0  0
  151.2892  144.7884  159.7677 H   0  0  0  0  0  0  0  0  0  0  0  0
  152.2647  145.4669  157.6329 H   0  0  0  0  0  0  0  0  0  0  0  0
  153.3237  144.0682  157.6023 H   0  0  0  0  0  0  0  0  0  0  0  0
  153.5346  145.3055  158.8398 H   0  0  0  0  0  0  0  0  0  0  0  0
  150.2979  143.8094  157.6610 H   0  0  0  0  0  0  0  0  0  0  0  0
  149.9423  142.9266  159.1270 H   0  0  0  0  0  0  0  0  0  0  0  0
  147.3649  141.1892  156.0401 H   0  0  0  0  0  0  0  0  0  0  0  0
  1  2  1  0  0  0  0
  1 24  1  0  0  0  0
  1 25  1  0  0  0  0
  1 26  1  0  0  0  0
  2  3  1  0  0  0  0
  2  5  1  0  0  0  0
  2 27  1  0  0  0  0
  3  4  1  0  0  0  0
  3 28  1  0  0  0  0
  3 29  1  0  0  0  0
  4 30  1  0  0  0  0
  5  6  1  0  0  0  0
  5 31  1  0  0  0  0
  6  7  2  0  0  0  0
  6  8  1  0  0  0  0
  8  9  1  0  0  0  0
  8 32  1  0  0  0  0
  9 10  1  0  0  0  0
  9 33  1  0  0  0  0
  9 34  1  0  0  0  0
 10 23  1  0  0  0  0
 10 11  2  0  0  0  0
 11 12  1  0  0  0  0
 11 35  1  0  0  0  0
 12 13  2  0  0  0  0
 12 36  1  0  0  0  0
 13 14  1  0  0  0  0
 13 22  1  0  0  0  0
 14 21  1  0  0  0  0
 14 15  1  0  0  0  0
 15 16  1  0  0  0  0
 15 37  1  0  0  0  0
 15 38  1  0  0  0  0
 16 17  1  0  0  0  0
 16 18  1  0  0  0  0
 16 39  1  0  0  0  0
 17 40  1  0  0  0  0
 17 41  1  0  0  0  0
 17 42  1  0  0  0  0
 18 19  1  0  0  0  0
 19 20  1  0  0  0  0
 19 21  1  0  0  0  0
 19 43  1  0  0  0  0
 20 44  1  0  0  0  0
 20 45  1  0  0  0  0
 20 46  1  0  0  0  0
 21 47  1  0  0  0  0
 21 48  1  0  0  0  0
 22 23  2  0  0  0  0
 23 49  1  0  0  0  0
M  END
> <s_m_source_file>
AV-unprocessed.smi

> <i_m_source_file_index>
1983

> <i_lp_mmshare_version>
43012

> <i_f3d_flags>
0

> <s_epik_input>
W09IXVtDSDJdW0NAQEhdKFtDSDNdKVtOSF1DKD1PKVtOSF1bQ0gyXWMxW2NIXVtjSF1jKG5bY0hdMSlOMltDSDJdW0NAQEhdKFtDSDNdKU9bQ0BASF0oW0NIM10pW0NIMl0y

> <s_epik_cmdline>
J2VwaWtfcHl0aG9uJywgJy1waCcsICc3LjAnLCAnLXRuJywgJzgnLCAnLW1hJywgJzIwMCcsICctbWV0YWxfYmluZGluZycsICctaW1hZScsICc8aW5maWxlLm1hZT4nLCAnLW9tYWUnLCAnPG91dGZpbGUubWFlPic=

> <r_lp_tautomer_probability>
1

> <r_epik_Ionization_Penalty>
0.00801967

> <r_epik_Ionization_Penalty_Charging>
0

> <r_epik_Ionization_Penalty_Neutral>
0.00801967

> <r_epik_State_Penalty>
0.00598289

> <r_epik_Charging_Adjusted_Penalty>
0.00598289

> <i_epik_Tot_Q>
0

> <i_epik_Tot_abs_Q>
0

> <r_epik_Metal_State_Penalty>
0.00590297

> <b_epik_Metal_Only>
0

> <s_lp_Force_Field>
OPLS_2005

> <r_lp_Energy>
16.1949

> <b_lp_Chiralities_Consistent>
1

> <s_lp_Variant>
AV-unprocessed.smi:1983-4

> <Gold.Version>
5.8.1

> <Gold.Id.Protein>
6NUR|6NUR_protein|mol2

> <Gold.PLP.Fitness>
49.0533

> <Gold.PLP.PLP>
-40.5252

> <Gold.PLP.part.hbond>
-3.0000

> <Gold.PLP.part.metal>
0.0000

> <Gold.PLP.part.buried>
-3.9582

> <Gold.PLP.part.nonpolar>
-33.5740

> <Gold.PLP.part.repulsive>
0.1763

> <Gold.PLP.ligand.clash>
0.0000

> <Gold.PLP.ligand.torsion>
0.3686

> <Gold.PLP.Chemscore.Hbond>
2.9680

> <Gold.PLP.Chemscore.CHOScore>
0.0000

> <Gold.PLP.Chemscore.Metal>
0.0000

> <Gold.Chemscore.Hbonds>
donor molecule, donor type, donor heavy atom, donor atom, acceptor molecule, acceptor atom, score
      L1  H     8    32       P1  7948  1.00
      P1  H  6896  6907       L1     4  0.62

> <Gold.PLP.Chemscore.Internal.Correction>
0.3613

> <Gold.Rescore>
     Score         DG    S(hbond)    S(metal)    S(lipo)     H(rot)  DE(clash)    DE(int)     intcor
     17.91     -20.01       2.82        0.00     100.80       2.61       0.21       1.89       ----

> <Gold.Chemscore.Fitness>
17.9118

> <Gold.Chemscore.DG>
-20.0113

> <Gold.Chemscore.ZeroCoef>
-5.4800

> <Gold.Chemscore.Hbond>
2.8198

> <Gold.Chemscore.Metal>
0.0000

> <Gold.Chemscore.Lipo>
100.8030

> <Gold.Chemscore.Internal_Hbond>
0.0000

> <Gold.Chemscore.DEClash>
0.2145

> <Gold.Chemscore.DEInternal>
1.8850

> <Gold.Chemscore.Rot>
2.6097

> <Gold.Chemscore.Internal.Correction>
   9.000000E+99

> <Gold.Chemscore.Hbonds>
donor molecule, donor type, donor heavy atom, donor atom, acceptor molecule, acceptor atom, score
      L1  H     5    31       P1  7948  0.03
      L1  H     8    32       P1  7948  0.99
      P1  H  6896  6907       L1     4  0.06

> <Gold.Chemscore.Hbond.Weighted>
-9.4182

> <Gold.Chemscore.Metal.Weighted>
-0.0000

> <Gold.Chemscore.Lipo.Weighted>
-11.7939

> <Gold.Chemscore.Internal_Hbond.Weighted>
0.0000

> <Gold.Chemscore.DEClash.Weighted>
0.2145

> <Gold.Chemscore.DEInternal.Weighted>
1.8850

> <Gold.Chemscore.Rot.Weighted>
6.6809

> <Gold.Chemscore.Internal.Correction.Weighted>
   9.000000E+99

> <Gold.Protein.RotatedTorsions>
[ 6907 6896 6895 6894 ] final -116.35 input  -60.11 | X-H torsion
[ 7974 7965 7964 7962 ] final   -7.67 input  175.53 | X-H torsion
[ 8008 7997 7996 7995 ] final  -93.73 input   59.86 | X-H torsion
[ 10167 10162 10161 10158 ] final  123.34 input  -65.29 | X-H torsion
[ 10718 10713 10712 10709 ] final -169.03 input   66.30 | X-H torsion
[ 10763 10752 10751 10750 ] final  -27.22 input  -60.55 | X-H torsion
[ 11005 11000 10999 10996 ] final   12.92 input  -57.11 | X-H torsion

> <Gold.Protein.ActiveResidues>
 VAL166  LYS551  ARG553  GLY616  TRP617  ASP618  TYR619  PRO620  LYS621  CYS622 
 ASP623  PHE694  ASN695  SER759  ASP760  ASP761  ALA762  ILE779  LEU786  VAL792 
 PHE793  MET794  SER795  GLU796  ALA797  LYS798  CYS799  TRP800  GLU811  SER814 

> <Gold.Protein.RotatedAtoms>
  150.8049  133.8529  159.3210 H   0  0  0  0  0  0  0  0  0  0  0  0  # atno 6907 bound_to 6896
  151.6330  135.1019  160.0135 H   0  0  0  0  0  0  0  0  0  0  0  0  # atno 6908 bound_to 6896
  152.4139  133.6967  159.6457 H   0  0  0  0  0  0  0  0  0  0  0  0  # atno 6909 bound_to 6896
  146.2301  140.2353  142.8341 H   0  0  0  0  0  0  0  0  0  0  0  0  # atno 7974 bound_to 7965
  154.7394  140.0496  157.0798 H   0  0  0  0  0  0  0  0  0  0  0  0  # atno 8008 bound_to 7997
  155.0198  140.3145  155.4778 H   0  0  0  0  0  0  0  0  0  0  0  0  # atno 8009 bound_to 7997
  156.2861  140.2169  156.5315 H   0  0  0  0  0  0  0  0  0  0  0  0  # atno 8010 bound_to 7997
  139.5805  144.6984  151.3541 H   0  0  0  0  0  0  0  0  0  0  0  0  # atno 10167 bound_to 10162
  156.7055  130.9213  151.3084 H   0  0  0  0  0  0  0  0  0  0  0  0  # atno 10718 bound_to 10713
  153.7286  135.6940  153.4995 H   0  0  0  0  0  0  0  0  0  0  0  0  # atno 10763 bound_to 10752
  153.2152  135.4389  155.0424 H   0  0  0  0  0  0  0  0  0  0  0  0  # atno 10764 bound_to 10752
  154.8260  135.3446  154.6817 H   0  0  0  0  0  0  0  0  0  0  0  0  # atno 10765 bound_to 10752
  140.4865  134.0883  155.7762 H   0  0  0  0  0  0  0  0  0  0  0  0  # atno 11005 bound_to 11000
  144.9526  140.8194  143.5562 LP  0  0  0  0  0  0  0  0  0  0  0  0  # atno 17320 bound_to 7965
  145.2315  139.2112  143.5040 LP  0  0  0  0  0  0  0  0  0  0  0  0  # atno 17321 bound_to 7965
  140.7084  143.7455  150.7522 LP  0  0  0  0  0  0  0  0  0  0  0  0  # atno 17342 bound_to 10162
  140.0986  143.4809  152.2438 LP  0  0  0  0  0  0  0  0  0  0  0  0  # atno 17343 bound_to 10162
  157.6956  130.9279  150.0636 LP  0  0  0  0  0  0  0  0  0  0  0  0  # atno 17370 bound_to 10713
  156.1698  130.3646  149.9181 LP  0  0  0  0  0  0  0  0  0  0  0  0  # atno 17371 bound_to 10713
  141.1505  133.8977  157.2109 LP  0  0  0  0  0  0  0  0  0  0  0  0  # atno 17394 bound_to 11000
  139.9795  135.0103  156.9713 LP  0  0  0  0  0  0  0  0  0  0  0  0  # atno 17395 bound_to 11000

$$$$
