#       Name:                AV-unprocessed.smi:437
#       Creating user name   scv26
#       Creation time:       Thu Mar 26 22:53:05 2020


#       File generated by GOLD software.
#

@<TRIPOS>MOLECULE
AV-unprocessed.smi:437
    56    57     1
SMALL
NO_CHARGES


@<TRIPOS>ATOM
      1 ****        -5.7098   2.7100   1.7295 C.3            1 S1                 0.0000
      2 ****        -5.0230   1.3797   1.5742 C.2            1 S1                 0.0000
      3 ****        -3.7311   1.3936   1.5356 N.2            1 S1                 0.0000
      4 ****        -3.0029   0.2287   1.3901 N.am           1 S1                 0.0000
      5 ****        -1.5471   0.4338   1.3509 C.3            1 S1                 0.0000
      6 ****        -0.9788   0.4681  -0.0766 C.2            1 S1                 0.0000
      7 ****        -1.7271   0.6653  -1.0376 O.2            1 S1                 0.0000
      8 ****         0.3538   0.2805  -0.1624 N.am           1 S1                 0.0000
      9 ****         1.1097   0.2594  -1.2770 C.2            1 S1                 0.0000
     10 ****         0.6961   0.3974  -2.4303 O.2            1 S1                 0.0000
     11 ****         2.4016   0.0647  -0.9752 N.am           1 S1                 0.0000
     12 ****         3.5007  -0.0119  -1.9387 C.3            1 S1                 0.0000
     13 ****         3.6732  -1.4559  -2.4564 C.3            1 S1                 0.0000
     14 ****         4.2218  -2.3998  -1.3726 C.3            1 S1                 0.0000
     15 ****         5.5335  -1.8635  -0.7801 C.3            1 S1                 0.0000
     16 ****         5.3619  -0.4340  -0.2420 C.3            1 S1                 0.0000
     17 ****         4.8199   0.5207  -1.3260 C.3            1 S1                 0.0000
     18 ****         4.6947   1.9607  -0.7994 C.3            1 S1                 0.0000
     19 ****        -3.5456  -1.0188   1.2864 C.2            1 S1                 0.0000
     20 ****        -2.8564  -2.0328   1.1646 O.2            1 S1                 0.0000
     21 ****        -5.0095  -1.0270   1.3310 C.2            1 S1                 0.0000
     22 ****        -5.6190  -2.3126   1.2180 C.1            1 S1                 0.0000
     23 ****        -6.1314  -3.3469   1.1300 N.1            1 S1                 0.0000
     24 ****        -5.7356   0.1106   1.4693 C.2            1 S1                 0.0000
     25 ****        -7.2565   0.1568   1.5219 C.3            1 S1                 0.0000
     26 ****        -6.2777   2.7455   2.6594 H              1 S1                 0.0000
     27 ****        -6.3994   2.8890   0.9044 H              1 S1                 0.0000
     28 ****        -4.9975   3.5364   1.7467 H              1 S1                 0.0000
     29 ****        -1.2870   1.3740   1.8407 H              1 S1                 0.0000
     30 ****        -1.0419  -0.3442   1.9266 H              1 S1                 0.0000
     31 ****         0.8407   0.1413   0.7105 H              1 S1                 0.0000
     32 ****         2.6512  -0.0382  -0.0026 H              1 S1                 0.0000
     33 ****         3.2549   0.6246  -2.7910 H              1 S1                 0.0000
     34 ****         2.7269  -1.8389  -2.8405 H              1 S1                 0.0000
     35 ****         4.3607  -1.4509  -3.3032 H              1 S1                 0.0000
     36 ****         3.4834  -2.5209  -0.5792 H              1 S1                 0.0000
     37 ****         4.3847  -3.3921  -1.7942 H              1 S1                 0.0000
     38 ****         5.8770  -2.5217   0.0184 H              1 S1                 0.0000
     39 ****         6.3111  -1.8745  -1.5452 H              1 S1                 0.0000
     40 ****         4.6876  -0.4464   0.6152 H              1 S1                 0.0000
     41 ****         6.3205  -0.0692   0.1285 H              1 S1                 0.0000
     42 ****         5.5567   0.5458  -2.1303 H              1 S1                 0.0000
     43 ****         4.0190   2.0221   0.0540 H              1 S1                 0.0000
     44 ****         4.3170   2.6296  -1.5731 H              1 S1                 0.0000
     45 ****         5.6637   2.3439  -0.4786 H              1 S1                 0.0000
     46 ****        -7.7016  -0.8370   1.4835 H              1 S1                 0.0000
     47 ****        -7.6499   0.7267   0.6793 H              1 S1                 0.0000
     48 ****        -7.5943   0.6299   2.4447 H              1 S1                 0.0000
     49 ****        -3.2485   2.2660   1.6127 LP             1 S1                 0.0000
     50 ****        -2.7063   0.8033  -0.8888 LP             1 S1                 0.0000
     51 ****        -1.3544   0.6870  -1.9653 LP             1 S1                 0.0000
     52 ****        -0.2794   0.5398  -2.5980 LP             1 S1                 0.0000
     53 ****         1.3362   0.3669  -3.1981 LP             1 S1                 0.0000
     54 ****        -1.8594  -1.9596   1.1386 LP             1 S1                 0.0000
     55 ****        -3.2940  -2.9290   1.0917 LP             1 S1                 0.0000
     56 ****        -6.5740  -4.2404   1.0540 LP             1 S1                 0.0000
@<TRIPOS>BOND
    1    1    2 1     
    2    1   26 1     
    3    1   27 1     
    4    1   28 1     
    5    2   24 1     
    6    2    3 2     
    7    3    4 1     
    8    4    5 1     
    9    4   19 am    
   10    5    6 1     
   11    5   29 1     
   12    5   30 1     
   13    6    7 2     
   14    6    8 1     
   15    8    9 1     
   16    8   31 1     
   17    9   10 2     
   18    9   11 1     
   19   11   12 1     
   20   11   32 1     
   21   12   17 1     
   22   12   13 1     
   23   12   33 1     
   24   13   14 1     
   25   13   34 1     
   26   13   35 1     
   27   14   15 1     
   28   14   36 1     
   29   14   37 1     
   30   15   16 1     
   31   15   38 1     
   32   15   39 1     
   33   16   17 1     
   34   16   40 1     
   35   16   41 1     
   36   17   18 1     
   37   17   42 1     
   38   18   43 1     
   39   18   44 1     
   40   18   45 1     
   41   19   20 2     
   42   19   21 1     
   43   21   22 1     
   44   21   24 2     
   45   22   23 3     
   46   24   25 1     
   47   25   46 1     
   48   25   47 1     
   49   25   48 1     
   50    3   49 1     
   51    7   50 1     
   52    7   51 1     
   53   10   52 1     
   54   10   53 1     
   55   20   54 1     
   56   20   55 1     
   57   23   56 1     
@<TRIPOS>SUBSTRUCTURE
      1 S1             1
@<TRIPOS>SET
LONE_PAIRS      STATIC     ATOMS    <user>   **** ""
8 49 50 51 52 53 54 55 56
DONOR_HYDROGENS      STATIC     ATOMS    <user>   **** ""
2 31 32
ATOM$BLUE        STATIC     ATOMS    COLORGROUP SYSTEM
8 49 50 51 52 53 54 55 56
ATOM$RED        STATIC     ATOMS    COLORGROUP SYSTEM
2 31 32
