#       Name:                AV-unprocessed.smi:686
#       Creating user name   scv26
#       Creation time:       Fri Mar 27 00:31:04 2020


#       File generated by GOLD software.
#

@<TRIPOS>MOLECULE
AV-unprocessed.smi:686
    45    46     1
SMALL
NO_CHARGES


@<TRIPOS>ATOM
      1 ****        -0.3598  -0.2284  -3.4311 C.3            1 S1                 0.0000
      2 ****        -1.2550   0.0685  -2.2161 C.3            1 S1                 0.0000
      3 ****        -1.5100  -1.1218  -1.2947 C.3            1 S1                 0.0000
      4 ****        -2.0571  -0.5384  -0.0490 N.4            1 S1                 1.0000
      5 ****        -1.8940  -1.3712   1.1764 C.3            1 S1                 0.0000
      6 ****        -2.3909  -2.8137   0.9594 C.3            1 S1                 0.0000
      7 ****        -2.6394  -0.7490   2.3730 C.3            1 S1                 0.0000
      8 ****        -1.5268   0.8466   0.0538 C.3            1 S1                 0.0000
      9 ****        -0.7595   1.1480  -1.2471 C.3            1 S1                 0.0000
     10 ****         0.6872   1.0342  -1.0270 N.3            1 S1                 0.0000
     11 ****         1.5604   2.3908  -0.4154 S.o2           1 S1                 0.0000
     12 ****         1.4192   3.4736  -1.4004 O.2            1 S1                 0.0000
     13 ****         1.1362   2.6007   0.9775 O.2            1 S1                 0.0000
     14 ****         3.3008   1.7810  -0.4480 C.3            1 S1                 0.0000
     15 ****         3.5328   0.8328   0.6949 C.2            1 S1                 0.0000
     16 ****         4.1906   1.0817   1.9310 C.2            1 S1                 0.0000
     17 ****         4.1069  -0.1146   2.5834 C.2            1 S1                 0.0000
     18 ****         3.4548  -1.0275   1.8200 O.3            1 S1                 0.0000
     19 ****         3.0947  -0.4146   0.6147 N.2            1 S1                 0.0000
     20 ****         0.6079  -0.6345  -3.1355 H              1 S1                 0.0000
     21 ****        -0.1798   0.6757  -4.0132 H              1 S1                 0.0000
     22 ****        -0.8317  -0.9578  -4.0898 H              1 S1                 0.0000
     23 ****        -2.2228   0.3988  -2.5979 H              1 S1                 0.0000
     24 ****        -2.1971  -1.8441  -1.7367 H              1 S1                 0.0000
     25 ****        -0.5692  -1.6328  -1.0814 H              1 S1                 0.0000
     26 ****        -0.8304  -1.4144   1.4170 H              1 S1                 0.0000
     27 ****        -2.3125  -3.3946   1.8788 H              1 S1                 0.0000
     28 ****        -1.8063  -3.3413   0.2057 H              1 S1                 0.0000
     29 ****        -3.4356  -2.8309   0.6470 H              1 S1                 0.0000
     30 ****        -2.5339  -1.3693   3.2635 H              1 S1                 0.0000
     31 ****        -3.7056  -0.6499   2.1662 H              1 S1                 0.0000
     32 ****        -2.2589   0.2389   2.6308 H              1 S1                 0.0000
     33 ****        -2.3711   1.5272   0.1670 H              1 S1                 0.0000
     34 ****        -0.8916   0.9752   0.9305 H              1 S1                 0.0000
     35 ****        -0.9831   2.1459  -1.6267 H              1 S1                 0.0000
     36 ****         0.9357   0.1774  -0.5322 H              1 S1                 0.0000
     37 ****         3.4937   1.3132  -1.4138 H              1 S1                 0.0000
     38 ****         3.9588   2.6460  -0.3636 H              1 S1                 0.0000
     39 ****         4.6493   1.9933   2.2845 H              1 S1                 0.0000
     40 ****         4.4451  -0.4586   3.5498 H              1 S1                 0.0000
     41 ****        -3.0502  -0.4417  -0.2067 H              1 S1                 0.0000
     42 ****         1.0107   1.0014  -1.9726 LP             1 S1                 0.0000
     43 ****         2.6346  -1.3434   2.2971 LP             1 S1                 0.0000
     44 ****         4.0549  -1.8063   1.6374 LP             1 S1                 0.0000
     45 ****         2.6062  -0.8330  -0.1510 LP             1 S1                 0.0000
@<TRIPOS>BOND
    1    1    2 1     
    2    1   20 1     
    3    1   21 1     
    4    1   22 1     
    5    2    9 1     
    6    2    3 1     
    7    2   23 1     
    8    3    4 1     
    9    3   24 1     
   10    3   25 1     
   11    4    5 1     
   12    4    8 1     
   13    4   41 1     
   14    5    6 1     
   15    5    7 1     
   16    5   26 1     
   17    6   27 1     
   18    6   28 1     
   19    6   29 1     
   20    7   30 1     
   21    7   31 1     
   22    7   32 1     
   23    8    9 1     
   24    8   33 1     
   25    8   34 1     
   26    9   10 1     
   27    9   35 1     
   28   10   11 1     
   29   10   36 1     
   30   11   12 2     
   31   11   13 2     
   32   11   14 1     
   33   14   15 1     
   34   14   37 1     
   35   14   38 1     
   36   15   19 2     
   37   15   16 1     
   38   16   17 2     
   39   16   39 1     
   40   17   18 1     
   41   17   40 1     
   42   18   19 1     
   43   10   42 1     
   44   18   43 1     
   45   18   44 1     
   46   19   45 1     
@<TRIPOS>SUBSTRUCTURE
      1 S1             1
@<TRIPOS>SET
LONE_PAIRS      STATIC     ATOMS    <user>   **** ""
6 42 12 13 43 44 45
DONOR_HYDROGENS      STATIC     ATOMS    <user>   **** ""
2 41 36
ATOM$BLUE        STATIC     ATOMS    COLORGROUP SYSTEM
6 42 12 13 43 44 45
ATOM$RED        STATIC     ATOMS    COLORGROUP SYSTEM
2 41 36
