AV-unprocessed.smi:657|AV-procd|sdf|3224|dock10
  -GOLD-   22720 0163D 1   1.00000     0.00000
 Structure written by MMmdl.
 46 47  0  0  0  0  0  0  0  0  1 V2000
  147.3895  141.8763  153.8853 C   0  0  0  0  0  0  0  0  0  0  0  0
  147.7854  140.3882  153.7953 C   0  0  0  0  0  0  0  0  0  0  0  0
  147.0584  139.6762  152.6389 C   0  0  0  0  0  0  0  0  0  0  0  0
  147.6224  139.6554  155.0717 N   0  0  0  0  0  0  0  0  0  0  0  0
  146.2343  139.2352  155.3329 C   0  0  0  0  0  0  0  0  0  0  0  0
  146.1686  138.2384  156.5023 C   0  0  0  0  0  0  0  0  0  0  0  0
  146.7441  138.8542  157.7789 C   0  0  0  0  0  0  0  0  0  0  0  0
  148.1637  139.3518  157.4992 C   0  0  0  0  0  0  0  0  0  0  0  0
  148.1910  140.3182  156.2918 C   0  0  1  0  0  0  0  0  0  0  0  0
  149.6177  140.8765  156.1214 C   0  0  0  0  0  0  0  0  0  0  0  0
  150.2208  140.7305  155.0577 O   0  0  0  0  0  0  0  0  0  0  0  0
  150.1303  141.5364  157.1709 N   0  0  0  0  0  0  0  0  0  0  0  0
  151.4440  142.1646  157.2022 C   0  0  0  0  0  0  0  0  0  0  0  0
  151.3332  143.6183  157.6805 C   0  0  0  0  0  0  0  0  0  0  0  0
  151.7473  143.7574  159.1187 C   0  0  0  0  0  0  0  0  0  0  0  0
  151.7433  144.9350  159.9199 C   0  0  0  0  0  0  0  0  0  0  0  0
  152.1752  144.7207  161.1521 N   0  0  0  0  0  0  0  0  0  0  0  0
  152.4695  143.4047  161.1805 N   0  0  0  0  0  0  0  0  0  0  0  0
  152.9829  142.8149  162.3982 C   0  0  0  0  0  0  0  0  0  0  0  0
  152.2199  142.7975  159.9686 C   0  0  0  0  0  0  0  0  0  0  0  0
  147.6166  142.3883  152.9501 H   0  0  0  0  0  0  0  0  0  0  0  0
  147.9327  142.3970  154.6731 H   0  0  0  0  0  0  0  0  0  0  0  0
  146.3230  142.0054  154.0693 H   0  0  0  0  0  0  0  0  0  0  0  0
  148.8329  140.3490  153.5014 H   0  0  0  0  0  0  0  0  0  0  0  0
  147.3688  140.0928  151.6803 H   0  0  0  0  0  0  0  0  0  0  0  0
  145.9757  139.7860  152.6915 H   0  0  0  0  0  0  0  0  0  0  0  0
  147.2920  138.6113  152.6197 H   0  0  0  0  0  0  0  0  0  0  0  0
  145.6093  140.1006  155.5565 H   0  0  0  0  0  0  0  0  0  0  0  0
  145.7962  138.7493  154.4633 H   0  0  0  0  0  0  0  0  0  0  0  0
  145.1354  137.9351  156.6739 H   0  0  0  0  0  0  0  0  0  0  0  0
  146.7192  137.3321  156.2460 H   0  0  0  0  0  0  0  0  0  0  0  0
  146.1169  139.6840  158.1071 H   0  0  0  0  0  0  0  0  0  0  0  0
  146.7499  138.1217  158.5866 H   0  0  0  0  0  0  0  0  0  0  0  0
  148.5560  139.8434  158.3908 H   0  0  0  0  0  0  0  0  0  0  0  0
  148.8114  138.4940  157.3094 H   0  0  0  0  0  0  0  0  0  0  0  0
  147.5493  141.1648  156.5437 H   0  0  0  0  0  0  0  0  0  0  0  0
  149.5650  141.6145  158.0039 H   0  0  0  0  0  0  0  0  0  0  0  0
  152.0901  141.5932  157.8702 H   0  0  0  0  0  0  0  0  0  0  0  0
  151.9019  142.1391  156.2118 H   0  0  0  0  0  0  0  0  0  0  0  0
  151.9507  144.2535  157.0440 H   0  0  0  0  0  0  0  0  0  0  0  0
  150.3090  143.9680  157.5437 H   0  0  0  0  0  0  0  0  0  0  0  0
  151.4430  145.9347  159.6422 H   0  0  0  0  0  0  0  0  0  0  0  0
  153.1692  141.7510  162.2485 H   0  0  0  0  0  0  0  0  0  0  0  0
  152.2575  142.9382  163.2030 H   0  0  0  0  0  0  0  0  0  0  0  0
  153.9172  143.3021  162.6786 H   0  0  0  0  0  0  0  0  0  0  0  0
  152.3996  141.7442  159.8108 H   0  0  0  0  0  0  0  0  0  0  0  0
  1  2  1  0  0  0  0
  1 21  1  0  0  0  0
  1 22  1  0  0  0  0
  1 23  1  0  0  0  0
  2  3  1  0  0  0  0
  2  4  1  0  0  0  0
  2 24  1  0  0  0  0
  3 25  1  0  0  0  0
  3 26  1  0  0  0  0
  3 27  1  0  0  0  0
  4  9  1  0  0  0  0
  4  5  1  0  0  0  0
  5  6  1  0  0  0  0
  5 28  1  0  0  0  0
  5 29  1  0  0  0  0
  6  7  1  0  0  0  0
  6 30  1  0  0  0  0
  6 31  1  0  0  0  0
  7  8  1  0  0  0  0
  7 32  1  0  0  0  0
  7 33  1  0  0  0  0
  8  9  1  0  0  0  0
  8 34  1  0  0  0  0
  8 35  1  0  0  0  0
  9 10  1  0  0  0  0
  9 36  1  0  0  0  0
 10 11  2  0  0  0  0
 10 12  1  0  0  0  0
 12 13  1  0  0  0  0
 12 37  1  0  0  0  0
 13 14  1  0  0  0  0
 13 38  1  0  0  0  0
 13 39  1  0  0  0  0
 14 15  1  0  0  0  0
 14 40  1  0  0  0  0
 14 41  1  0  0  0  0
 15 20  2  0  0  0  0
 15 16  1  0  0  0  0
 16 17  2  0  0  0  0
 16 42  1  0  0  0  0
 17 18  1  0  0  0  0
 18 19  1  0  0  0  0
 18 20  1  0  0  0  0
 19 43  1  0  0  0  0
 19 44  1  0  0  0  0
 19 45  1  0  0  0  0
 20 46  1  0  0  0  0
M  END
> <s_m_source_file>
AV-unprocessed.smi

> <i_m_source_file_index>
657

> <i_lp_mmshare_version>
43012

> <i_f3d_flags>
0

> <s_epik_input>
W0NIM11bQ0hdKFtDSDNdKU4xW0NIMl1bQ0gyXVtDSDJdW0NIMl1bQ0BIXTFDKD1PKVtOSF1bQ0gyXVtDSDJdYzJbY0hdbm4oW0NIM10pW2NIXTI=

> <s_epik_cmdline>
J2VwaWtfcHl0aG9uJywgJy1waCcsICc3LjAnLCAnLXRuJywgJzgnLCAnLW1hJywgJzIwMCcsICctbWV0YWxfYmluZGluZycsICctaW1hZScsICc8aW5maWxlLm1hZT4nLCAnLW9tYWUnLCAnPG91dGZpbGUubWFlPic=

> <r_lp_tautomer_probability>
1

> <r_epik_Ionization_Penalty>
1.91154

> <r_epik_Ionization_Penalty_Charging>
0

> <r_epik_Ionization_Penalty_Neutral>
1.91154

> <r_epik_State_Penalty>
2.0331

> <r_epik_Charging_Adjusted_Penalty>
2.0331

> <i_epik_Tot_Q>
0

> <i_epik_Tot_abs_Q>
0

> <r_epik_Metal_State_Penalty>
2.04973

> <b_epik_Metal_Only>
0

> <s_lp_Force_Field>
OPLS_2005

> <r_lp_Energy>
17.3109

> <b_lp_Chiralities_Consistent>
1

> <s_lp_Variant>
AV-unprocessed.smi:657-5

> <Gold.Version>
5.8.1

> <Gold.Id.Protein>
6NUR|6NUR_protein|mol2

> <Gold.PLP.Fitness>
37.4572

> <Gold.PLP.PLP>
-35.8619

> <Gold.PLP.part.hbond>
-1.0000

> <Gold.PLP.part.metal>
0.0000

> <Gold.PLP.part.buried>
-3.1582

> <Gold.PLP.part.nonpolar>
-31.7078

> <Gold.PLP.part.repulsive>
0.3417

> <Gold.PLP.ligand.clash>
0.0000

> <Gold.PLP.ligand.torsion>
0.5427

> <Gold.PLP.Chemscore.Hbond>
0.8564

> <Gold.PLP.Chemscore.CHOScore>
0.0000

> <Gold.PLP.Chemscore.Metal>
0.0000

> <Gold.Chemscore.Hbonds>
donor molecule, donor type, donor heavy atom, donor atom, acceptor molecule, acceptor atom, score
      P1  H  7989  7998       L1    11  0.70

> <Gold.PLP.Chemscore.Internal.Correction>
0.1113

> <Gold.Rescore>
     Score         DG    S(hbond)    S(metal)    S(lipo)     H(rot)  DE(clash)    DE(int)     intcor
     12.93     -15.24       0.91        0.00      91.89       1.57       0.21       2.10       ----

> <Gold.Chemscore.Fitness>
12.9272

> <Gold.Chemscore.DG>
-15.2387

> <Gold.Chemscore.ZeroCoef>
-5.4800

> <Gold.Chemscore.Hbond>
0.9089

> <Gold.Chemscore.Metal>
0.0000

> <Gold.Chemscore.Lipo>
91.8912

> <Gold.Chemscore.Internal_Hbond>
0.0000

> <Gold.Chemscore.DEClash>
0.2116

> <Gold.Chemscore.DEInternal>
2.0999

> <Gold.Chemscore.Rot>
1.5736

> <Gold.Chemscore.Internal.Correction>
   9.000000E+99

> <Gold.Chemscore.Hbonds>
donor molecule, donor type, donor heavy atom, donor atom, acceptor molecule, acceptor atom, score
      P1  H  7989  7998       L1    11  0.68

> <Gold.Chemscore.Hbond.Weighted>
-3.0359

> <Gold.Chemscore.Metal.Weighted>
-0.0000

> <Gold.Chemscore.Lipo.Weighted>
-10.7513

> <Gold.Chemscore.Internal_Hbond.Weighted>
0.0000

> <Gold.Chemscore.DEClash.Weighted>
0.2116

> <Gold.Chemscore.DEInternal.Weighted>
2.0999

> <Gold.Chemscore.Rot.Weighted>
4.0284

> <Gold.Chemscore.Internal.Correction.Weighted>
   9.000000E+99

> <Gold.Protein.RotatedTorsions>
[ 6907 6896 6895 6894 ] final  -50.78 input  -60.11 | X-H torsion
[ 7974 7965 7964 7962 ] final   27.09 input  175.53 | X-H torsion
[ 8008 7997 7996 7995 ] final -161.10 input   59.86 | X-H torsion
[ 10167 10162 10161 10158 ] final   34.53 input  -65.29 | X-H torsion
[ 10718 10713 10712 10709 ] final   29.38 input   66.30 | X-H torsion
[ 10763 10752 10751 10750 ] final   31.64 input  -60.55 | X-H torsion
[ 11005 11000 10999 10996 ] final  -45.10 input  -57.11 | X-H torsion

> <Gold.Protein.ActiveResidues>
 VAL166  LYS551  ARG553  GLY616  TRP617  ASP618  TYR619  PRO620  LYS621  CYS622 
 ASP623  PHE694  ASN695  SER759  ASP760  ASP761  ALA762  ILE779  LEU786  VAL792 
 PHE793  MET794  SER795  GLU796  ALA797  LYS798  CYS799  TRP800  GLU811  SER814 

> <Gold.Protein.RotatedAtoms>
  150.8674  134.8040  159.7128 H   0  0  0  0  0  0  0  0  0  0  0  0  # atno 6907 bound_to 6896
  152.4691  134.5002  159.9732 H   0  0  0  0  0  0  0  0  0  0  0  0  # atno 6908 bound_to 6896
  151.5096  133.3449  159.2918 H   0  0  0  0  0  0  0  0  0  0  0  0  # atno 6909 bound_to 6896
  146.1803  139.7238  142.8905 H   0  0  0  0  0  0  0  0  0  0  0  0  # atno 7974 bound_to 7965
  155.7872  140.0873  157.2028 H   0  0  0  0  0  0  0  0  0  0  0  0  # atno 8008 bound_to 7997
  154.3987  140.1496  156.3179 H   0  0  0  0  0  0  0  0  0  0  0  0  # atno 8009 bound_to 7997
  155.8595  140.3431  155.5749 H   0  0  0  0  0  0  0  0  0  0  0  0  # atno 8010 bound_to 7997
  140.4306  144.1330  150.6159 H   0  0  0  0  0  0  0  0  0  0  0  0  # atno 10167 bound_to 10162
  157.2458  130.7091  149.6381 H   0  0  0  0  0  0  0  0  0  0  0  0  # atno 10718 bound_to 10713
  153.0304  135.6433  154.1231 H   0  0  0  0  0  0  0  0  0  0  0  0  # atno 10763 bound_to 10752
  154.0954  135.2863  155.3264 H   0  0  0  0  0  0  0  0  0  0  0  0  # atno 10764 bound_to 10752
  154.6435  135.5451  153.7881 H   0  0  0  0  0  0  0  0  0  0  0  0  # atno 10765 bound_to 10752
  141.0493  133.6749  156.2965 H   0  0  0  0  0  0  0  0  0  0  0  0  # atno 11005 bound_to 11000
  145.4096  141.0395  143.3024 LP  0  0  0  0  0  0  0  0  0  0  0  0  # atno 17320 bound_to 7965
  144.8303  139.5639  143.6946 LP  0  0  0  0  0  0  0  0  0  0  0  0  # atno 17321 bound_to 7965
  140.4431  143.2518  151.9446 LP  0  0  0  0  0  0  0  0  0  0  0  0  # atno 17342 bound_to 10162
  139.4785  144.5635  151.8202 LP  0  0  0  0  0  0  0  0  0  0  0  0  # atno 17343 bound_to 10162
  155.9668  130.4443  150.5457 LP  0  0  0  0  0  0  0  0  0  0  0  0  # atno 17370 bound_to 10713
  157.3330  131.0703  151.1846 LP  0  0  0  0  0  0  0  0  0  0  0  0  # atno 17371 bound_to 10713
  140.6086  134.5482  157.5530 LP  0  0  0  0  0  0  0  0  0  0  0  0  # atno 17394 bound_to 11000
  139.9337  134.7915  156.0860 LP  0  0  0  0  0  0  0  0  0  0  0  0  # atno 17395 bound_to 11000

$$$$
