AV-unprocessed.smi:87|AV-procd|sdf|822|dock3
  -GOLD-   2262017233D 1   1.00000     0.00000
 Structure written by MMmdl.
 58 60  0  0  0  0  0  0  0  0  1 V2000
  152.1569  144.3890  157.8884 C   0  0  0  0  0  0  0  0  0  0  0  0
  151.2709  143.1797  158.2236 C   0  0  0  0  0  0  0  0  0  0  0  0
  151.6516  141.8883  157.4644 C   0  0  0  0  0  0  0  0  0  0  0  0
  151.0558  141.8758  156.0369 C   0  0  0  0  0  0  0  0  0  0  0  0
  149.5208  141.8902  155.9927 C   0  0  0  0  0  0  0  0  0  0  0  0
  151.2009  140.6322  158.2550 C   0  0  0  0  0  0  0  0  0  0  0  0
  152.3015  139.8267  158.7878 N   0  0  0  0  0  0  0  0  0  0  0  0
  153.4245  140.5376  159.3923 C   0  0  0  0  0  0  0  0  0  0  0  0
  153.9206  139.8718  160.6845 C   0  0  0  0  0  0  0  0  0  0  0  0
  155.3313  140.1760  160.9658 C   0  0  0  0  0  0  0  0  0  0  0  0
  156.4414  140.4156  161.1871 N   0  0  0  0  0  0  0  0  0  0  0  0
  152.6603  138.6923  158.1374 C   0  0  0  0  0  0  0  0  0  0  0  0
  151.6741  138.0065  157.5061 N   0  0  0  0  0  0  0  0  0  0  0  0
  151.9559  136.8872  156.8332 C   0  0  0  0  0  0  0  0  0  0  0  0
  153.1358  136.2855  156.6719 N   0  0  0  0  0  0  0  0  0  0  0  0
  154.1286  136.9617  157.3170 C   0  0  0  0  0  0  0  0  0  0  0  0
  153.9822  138.1615  158.0701 C   0  0  0  0  0  0  0  0  0  0  0  0
  155.2157  138.5420  158.5874 N   0  0  0  0  0  0  0  0  0  0  0  0
  156.0434  137.6325  158.1523 C   0  0  0  0  0  0  0  0  0  0  0  0
  155.4743  136.6465  157.3803 N   0  0  0  0  0  0  0  0  0  0  0  0
  156.1595  135.5200  156.7713 C   0  0  0  0  0  0  0  0  0  0  0  0
  157.2933  135.9619  155.8251 C   0  0  2  0  0  0  0  0  0  0  0  0
  158.5160  135.9923  156.5382 O   0  0  0  0  0  0  0  0  0  0  0  0
  157.0097  137.3388  155.1898 C   0  0  1  0  0  0  0  0  0  0  0  0
  158.0951  137.9162  154.2627 C   0  0  0  0  0  0  0  0  0  0  0  0
  157.3417  138.2509  152.9859 C   0  0  0  0  0  0  0  0  0  0  0  0
  155.8904  138.3190  153.4459 C   0  0  0  0  0  0  0  0  0  0  0  0
  155.8145  137.2909  154.4192 O   0  0  0  0  0  0  0  0  0  0  0  0
  151.7796  145.2877  158.3766 H   0  0  0  0  0  0  0  0  0  0  0  0
  152.1738  144.5794  156.8149 H   0  0  0  0  0  0  0  0  0  0  0  0
  153.1846  144.2486  158.2217 H   0  0  0  0  0  0  0  0  0  0  0  0
  151.2887  142.9987  159.2989 H   0  0  0  0  0  0  0  0  0  0  0  0
  150.2456  143.4590  157.9856 H   0  0  0  0  0  0  0  0  0  0  0  0
  152.7373  141.8807  157.3690 H   0  0  0  0  0  0  0  0  0  0  0  0
  151.3987  142.7540  155.4894 H   0  0  0  0  0  0  0  0  0  0  0  0
  151.4335  141.0154  155.4833 H   0  0  0  0  0  0  0  0  0  0  0  0
  149.1688  141.9711  154.9641 H   0  0  0  0  0  0  0  0  0  0  0  0
  149.1194  142.7399  156.5456 H   0  0  0  0  0  0  0  0  0  0  0  0
  149.0895  140.9814  156.4103 H   0  0  0  0  0  0  0  0  0  0  0  0
  150.5450  140.9027  159.0797 H   0  0  0  0  0  0  0  0  0  0  0  0
  150.5984  140.0020  157.5997 H   0  0  0  0  0  0  0  0  0  0  0  0
  154.2382  140.5789  158.6676 H   0  0  0  0  0  0  0  0  0  0  0  0
  153.1485  141.5739  159.5916 H   0  0  0  0  0  0  0  0  0  0  0  0
  153.3341  140.2040  161.5415 H   0  0  0  0  0  0  0  0  0  0  0  0
  153.8232  138.7879  160.6242 H   0  0  0  0  0  0  0  0  0  0  0  0
  151.1162  136.4061  156.3538 H   0  0  0  0  0  0  0  0  0  0  0  0
  157.0984  137.6563  158.3835 H   0  0  0  0  0  0  0  0  0  0  0  0
  156.5585  134.8954  157.5714 H   0  0  0  0  0  0  0  0  0  0  0  0
  155.4287  134.9103  156.2382 H   0  0  0  0  0  0  0  0  0  0  0  0
  157.3872  135.2231  155.0280 H   0  0  0  0  0  0  0  0  0  0  0  0
  159.1040  136.5891  156.1012 H   0  0  0  0  0  0  0  0  0  0  0  0
  156.8203  138.0598  155.9872 H   0  0  0  0  0  0  0  0  0  0  0  0
  158.5226  138.8163  154.7064 H   0  0  0  0  0  0  0  0  0  0  0  0
  158.9180  137.2286  154.0668 H   0  0  0  0  0  0  0  0  0  0  0  0
  157.6827  139.1743  152.5170 H   0  0  0  0  0  0  0  0  0  0  0  0
  157.4601  137.4406  152.2652 H   0  0  0  0  0  0  0  0  0  0  0  0
  155.6723  139.2819  153.9111 H   0  0  0  0  0  0  0  0  0  0  0  0
  155.1821  138.1584  152.6327 H   0  0  0  0  0  0  0  0  0  0  0  0
  1  2  1  0  0  0  0
  1 29  1  0  0  0  0
  1 30  1  0  0  0  0
  1 31  1  0  0  0  0
  2  3  1  0  0  0  0
  2 32  1  0  0  0  0
  2 33  1  0  0  0  0
  3  4  1  0  0  0  0
  3  6  1  0  0  0  0
  3 34  1  0  0  0  0
  4  5  1  0  0  0  0
  4 35  1  0  0  0  0
  4 36  1  0  0  0  0
  5 37  1  0  0  0  0
  5 38  1  0  0  0  0
  5 39  1  0  0  0  0
  6  7  1  0  0  0  0
  6 40  1  0  0  0  0
  6 41  1  0  0  0  0
  7  8  1  0  0  0  0
  7 12  1  0  0  0  0
  8  9  1  0  0  0  0
  8 42  1  0  0  0  0
  8 43  1  0  0  0  0
  9 10  1  0  0  0  0
  9 44  1  0  0  0  0
  9 45  1  0  0  0  0
 10 11  3  0  0  0  0
 12 17  1  0  0  0  0
 12 13  2  0  0  0  0
 13 14  1  0  0  0  0
 14 15  2  0  0  0  0
 14 46  1  0  0  0  0
 15 16  1  0  0  0  0
 16 20  1  0  0  0  0
 16 17  2  0  0  0  0
 17 18  1  0  0  0  0
 18 19  2  0  0  0  0
 19 20  1  0  0  0  0
 19 47  1  0  0  0  0
 20 21  1  0  0  0  0
 21 22  1  0  0  0  0
 21 48  1  0  0  0  0
 21 49  1  0  0  0  0
 22 23  1  0  0  0  0
 22 24  1  0  0  0  0
 22 50  1  0  0  0  0
 23 51  1  0  0  0  0
 24 28  1  0  0  0  0
 24 25  1  0  0  0  0
 24 52  1  0  0  0  0
 25 26  1  0  0  0  0
 25 53  1  0  0  0  0
 25 54  1  0  0  0  0
 26 27  1  0  0  0  0
 26 55  1  0  0  0  0
 26 56  1  0  0  0  0
 27 28  1  0  0  0  0
 27 57  1  0  0  0  0
 27 58  1  0  0  0  0
M  END
> <s_m_source_file>
AV-unprocessed.smi

> <i_m_source_file_index>
87

> <i_lp_mmshare_version>
43012

> <i_f3d_flags>
0

> <s_epik_input>
W0NIM11bQ0gyXVtDSF0oW0NIMl1bQ0gzXSlbQ0gyXU4oW0NIMl1bQ0gyXUMjTiljKG5bY0hdbjEpYyhjMTIpbltjSF1uMltDSDJdW0NASF0oW09IXSlbQ0BASF0zW0NIMl1bQ0gyXVtDSDJdTzM=

> <s_epik_cmdline>
J2VwaWtfcHl0aG9uJywgJy1waCcsICc3LjAnLCAnLXRuJywgJzgnLCAnLW1hJywgJzIwMCcsICctbWV0YWxfYmluZGluZycsICctaW1hZScsICc8aW5maWxlLm1hZT4nLCAnLW9tYWUnLCAnPG91dGZpbGUubWFlPic=

> <r_lp_tautomer_probability>
1

> <r_epik_Ionization_Penalty>
0.000348566

> <r_epik_Ionization_Penalty_Charging>
0

> <r_epik_Ionization_Penalty_Neutral>
0.000348566

> <r_epik_State_Penalty>
-0

> <r_epik_Charging_Adjusted_Penalty>
0

> <i_epik_Tot_Q>
0

> <i_epik_Tot_abs_Q>
0

> <r_epik_Metal_State_Penalty>
-0

> <b_epik_Metal_Only>
0

> <s_lp_Force_Field>
OPLS_2005

> <r_lp_Energy>
36.8585

> <b_lp_Chiralities_Consistent>
1

> <s_lp_Variant>
AV-unprocessed.smi:87-3

> <Gold.Version>
5.8.1

> <Gold.Id.Protein>
6NUR|6NUR_protein|mol2

> <Gold.PLP.Fitness>
49.4119

> <Gold.PLP.PLP>
-44.5576

> <Gold.PLP.part.hbond>
-4.9910

> <Gold.PLP.part.metal>
0.0000

> <Gold.PLP.part.buried>
-5.3189

> <Gold.PLP.part.nonpolar>
-33.4484

> <Gold.PLP.part.repulsive>
0.0005

> <Gold.PLP.ligand.clash>
0.0000

> <Gold.PLP.ligand.torsion>
2.2483

> <Gold.PLP.Chemscore.Hbond>
2.6320

> <Gold.PLP.Chemscore.CHOScore>
0.0000

> <Gold.PLP.Chemscore.Metal>
0.0000

> <Gold.Chemscore.Hbonds>
donor molecule, donor type, donor heavy atom, donor atom, acceptor molecule, acceptor atom, score
      P1  H  7997  8010       L1    18  0.82
      P1  H 10752 10764       L1    15  1.00
      P1  H 10752 10765       L1    28  0.62

> <Gold.PLP.Chemscore.Internal.Correction>
1.4549

> <Gold.Rescore>
     Score         DG    S(hbond)    S(metal)    S(lipo)     H(rot)  DE(clash)    DE(int)     intcor
     10.26     -14.94       1.56        0.00     110.16       3.37       0.90       3.78       ----

> <Gold.Chemscore.Fitness>
10.2589

> <Gold.Chemscore.DG>
-14.9438

> <Gold.Chemscore.ZeroCoef>
-5.4800

> <Gold.Chemscore.Hbond>
1.5555

> <Gold.Chemscore.Metal>
0.0000

> <Gold.Chemscore.Lipo>
110.1583

> <Gold.Chemscore.Internal_Hbond>
0.0000

> <Gold.Chemscore.DEClash>
0.9001

> <Gold.Chemscore.DEInternal>
3.7849

> <Gold.Chemscore.Rot>
3.3672

> <Gold.Chemscore.Internal.Correction>
   9.000000E+99

> <Gold.Chemscore.Hbonds>
donor molecule, donor type, donor heavy atom, donor atom, acceptor molecule, acceptor atom, score
      P1  H  7997  8010       L1    18  0.04
      P1  H 10752 10764       L1    15  0.94
      P1  H 10752 10765       L1    28  0.55

> <Gold.Chemscore.Hbond.Weighted>
-5.1954

> <Gold.Chemscore.Metal.Weighted>
-0.0000

> <Gold.Chemscore.Lipo.Weighted>
-12.8885

> <Gold.Chemscore.Internal_Hbond.Weighted>
0.0000

> <Gold.Chemscore.DEClash.Weighted>
0.9001

> <Gold.Chemscore.DEInternal.Weighted>
3.7849

> <Gold.Chemscore.Rot.Weighted>
8.6201

> <Gold.Chemscore.Internal.Correction.Weighted>
   9.000000E+99

> <Gold.Protein.RotatedTorsions>
[ 6907 6896 6895 6894 ] final  -52.82 input  -60.11 | X-H torsion
[ 7974 7965 7964 7962 ] final  -94.45 input  175.53 | X-H torsion
[ 8008 7997 7996 7995 ] final  -32.03 input   59.86 | X-H torsion
[ 10167 10162 10161 10158 ] final -154.28 input  -65.29 | X-H torsion
[ 10718 10713 10712 10709 ] final -167.22 input   66.30 | X-H torsion
[ 10763 10752 10751 10750 ] final   -0.67 input  -60.55 | X-H torsion
[ 11005 11000 10999 10996 ] final  -48.91 input  -57.11 | X-H torsion

> <Gold.Protein.ActiveResidues>
 VAL166  LYS551  ARG553  GLY616  TRP617  ASP618  TYR619  PRO620  LYS621  CYS622 
 ASP623  PHE694  ASN695  SER759  ASP760  ASP761  ALA762  ILE779  LEU786  VAL792 
 PHE793  MET794  SER795  GLU796  ALA797  LYS798  CYS799  TRP800  GLU811  SER814 

> <Gold.Protein.RotatedAtoms>
  150.8482  134.7799  159.6987 H   0  0  0  0  0  0  0  0  0  0  0  0  # atno 6907 bound_to 6896
  152.4554  134.5300  159.9818 H   0  0  0  0  0  0  0  0  0  0  0  0  # atno 6908 bound_to 6896
  151.5426  133.3392  159.2974 H   0  0  0  0  0  0  0  0  0  0  0  0  # atno 6909 bound_to 6896
  145.3731  140.9508  143.2436 H   0  0  0  0  0  0  0  0  0  0  0  0  # atno 7974 bound_to 7965
  154.4193  140.1748  156.1661 H   0  0  0  0  0  0  0  0  0  0  0  0  # atno 8008 bound_to 7997
  155.9798  140.3378  155.6628 H   0  0  0  0  0  0  0  0  0  0  0  0  # atno 8009 bound_to 7997
  155.6515  140.0691  157.2576 H   0  0  0  0  0  0  0  0  0  0  0  0  # atno 8010 bound_to 7997
  139.7026  143.9238  152.2435 H   0  0  0  0  0  0  0  0  0  0  0  0  # atno 10167 bound_to 10162
  156.6791  130.9115  151.3054 H   0  0  0  0  0  0  0  0  0  0  0  0  # atno 10718 bound_to 10713
  153.3349  135.6977  153.6916 H   0  0  0  0  0  0  0  0  0  0  0  0  # atno 10763 bound_to 10752
  153.5704  135.3517  155.2836 H   0  0  0  0  0  0  0  0  0  0  0  0  # atno 10764 bound_to 10752
  154.8625  135.4271  154.2547 H   0  0  0  0  0  0  0  0  0  0  0  0  # atno 10765 bound_to 10752
  141.0728  133.6674  156.3509 H   0  0  0  0  0  0  0  0  0  0  0  0  # atno 11005 bound_to 11000
  144.8562  139.5246  143.6833 LP  0  0  0  0  0  0  0  0  0  0  0  0  # atno 17320 bound_to 7965
  146.2876  139.7048  142.9184 LP  0  0  0  0  0  0  0  0  0  0  0  0  # atno 17321 bound_to 7965
  139.9084  144.6871  150.8588 LP  0  0  0  0  0  0  0  0  0  0  0  0  # atno 17342 bound_to 10162
  140.7713  143.3461  151.2108 LP  0  0  0  0  0  0  0  0  0  0  0  0  # atno 17343 bound_to 10162
  157.7050  130.9375  150.0902 LP  0  0  0  0  0  0  0  0  0  0  0  0  # atno 17370 bound_to 10713
  156.1881  130.3653  149.8946 LP  0  0  0  0  0  0  0  0  0  0  0  0  # atno 17371 bound_to 10713
  140.5637  134.5909  157.5440 LP  0  0  0  0  0  0  0  0  0  0  0  0  # atno 17394 bound_to 11000
  139.9541  134.7565  156.0381 LP  0  0  0  0  0  0  0  0  0  0  0  0  # atno 17395 bound_to 11000

$$$$
