AV-unprocessed.smi:3303|AV-procd|sdf|12672|dock9
  -GOLD-   2272019 03D 1   1.00000     0.00000
 Structure written by MMmdl.
 45 46  0  0  0  0  0  0  0  0  3 V2000
  146.7981  141.0560  154.0049 C   0  0  0  0  0  0  0  0  0  0  0  0
  148.2891  140.6936  154.1262 C   0  0  1  0  0  0  0  0  0  0  0  0
  148.9064  141.3937  155.3542 C   0  0  0  0  0  0  0  0  0  0  0  0
  150.3524  141.0879  155.5112 N   0  3  1  0  0  0  0  0  0  0  0  0
  150.9460  141.8894  156.6091 C   0  0  0  0  0  0  0  0  0  0  0  0
  150.6020  139.6199  155.6256 C   0  0  2  0  0  0  0  0  0  0  0  0
  152.0992  139.2800  155.7609 C   0  0  0  0  0  0  0  0  0  0  0  0
  150.0136  138.8848  154.4037 C   0  0  0  0  0  0  0  0  0  0  0  0
  148.5153  139.1694  154.2145 C   0  0  2  0  0  0  0  0  0  0  0  0
  148.0335  138.4886  152.9905 N   0  3  0  0  0  0  0  0  0  0  0  0
  146.5762  138.2561  152.9441 C   0  0  0  0  0  0  0  0  0  0  0  0
  146.1270  137.8632  151.5304 C   0  0  0  0  0  0  0  0  0  0  0  0
  145.2397  136.6336  151.5328 C   0  0  0  0  0  0  0  0  0  0  0  0
  144.1616  136.5239  152.4365 C   0  0  0  0  0  0  0  0  0  0  0  0
  143.3753  135.3558  152.4026 C   0  0  0  0  0  0  0  0  0  0  0  0
  143.6961  134.3493  151.4717 C   0  0  0  0  0  0  0  0  0  0  0  0
  144.7942  134.5549  150.6130 C   0  0  0  0  0  0  0  0  0  0  0  0
  145.5567  135.6700  150.6393 N   0  0  0  0  0  0  0  0  0  0  0  0
  146.2276  140.6834  154.8564 H   0  0  0  0  0  0  0  0  0  0  0  0
  146.3541  140.6401  153.1002 H   0  0  0  0  0  0  0  0  0  0  0  0
  146.6599  142.1368  153.9620 H   0  0  0  0  0  0  0  0  0  0  0  0
  148.7968  141.0689  153.2357 H   0  0  0  0  0  0  0  0  0  0  0  0
  148.7782  142.4724  155.2521 H   0  0  0  0  0  0  0  0  0  0  0  0
  148.3761  141.1005  156.2621 H   0  0  0  0  0  0  0  0  0  0  0  0
  150.5937  141.5439  157.5817 H   0  0  0  0  0  0  0  0  0  0  0  0
  150.6801  142.9423  156.5079 H   0  0  0  0  0  0  0  0  0  0  0  0
  152.0345  141.8422  156.5969 H   0  0  0  0  0  0  0  0  0  0  0  0
  150.0933  139.2599  156.5220 H   0  0  0  0  0  0  0  0  0  0  0  0
  152.2564  138.2012  155.7428 H   0  0  0  0  0  0  0  0  0  0  0  0
  152.5171  139.6366  156.7023 H   0  0  0  0  0  0  0  0  0  0  0  0
  152.6822  139.7106  154.9461 H   0  0  0  0  0  0  0  0  0  0  0  0
  150.5595  139.1804  153.5058 H   0  0  0  0  0  0  0  0  0  0  0  0
  150.1659  137.8100  154.5141 H   0  0  0  0  0  0  0  0  0  0  0  0
  147.9809  138.7838  155.0850 H   0  0  0  0  0  0  0  0  0  0  0  0
  148.2899  139.0517  152.1918 H   0  0  0  0  0  0  0  0  0  0  0  0
  146.3180  137.4696  153.6546 H   0  0  0  0  0  0  0  0  0  0  0  0
  146.0559  139.1618  153.2588 H   0  0  0  0  0  0  0  0  0  0  0  0
  145.5894  138.6907  151.0654 H   0  0  0  0  0  0  0  0  0  0  0  0
  146.9966  137.6693  150.9002 H   0  0  0  0  0  0  0  0  0  0  0  0
  143.9401  137.3126  153.1405 H   0  0  0  0  0  0  0  0  0  0  0  0
  142.5423  135.2337  153.0792 H   0  0  0  0  0  0  0  0  0  0  0  0
  143.1150  133.4407  151.4174 H   0  0  0  0  0  0  0  0  0  0  0  0
  145.0688  133.8038  149.8874 H   0  0  0  0  0  0  0  0  0  0  0  0
  148.4994  137.5955  152.9138 H   0  0  0  0  0  0  0  0  0  0  0  0
  150.8045  141.3953  154.6615 H   0  0  0  0  0  0  0  0  0  0  0  0
  1  2  1  0  0  0  0
  1 19  1  0  0  0  0
  1 20  1  0  0  0  0
  1 21  1  0  0  0  0
  2  9  1  0  0  0  0
  2  3  1  0  0  0  0
  2 22  1  0  0  0  0
  3  4  1  0  0  0  0
  3 23  1  0  0  0  0
  3 24  1  0  0  0  0
  4  5  1  0  0  0  0
  4  6  1  0  0  0  0
  4 45  1  0  0  0  0
  5 25  1  0  0  0  0
  5 26  1  0  0  0  0
  5 27  1  0  0  0  0
  6  7  1  0  0  0  0
  6  8  1  0  0  0  0
  6 28  1  0  0  0  0
  7 29  1  0  0  0  0
  7 30  1  0  0  0  0
  7 31  1  0  0  0  0
  8  9  1  0  0  0  0
  8 32  1  0  0  0  0
  8 33  1  0  0  0  0
  9 10  1  0  0  0  0
  9 34  1  0  0  0  0
 10 11  1  0  0  0  0
 10 35  1  0  0  0  0
 10 44  1  0  0  0  0
 11 12  1  0  0  0  0
 11 36  1  0  0  0  0
 11 37  1  0  0  0  0
 12 13  1  0  0  0  0
 12 38  1  0  0  0  0
 12 39  1  0  0  0  0
 13 18  1  0  0  0  0
 13 14  2  0  0  0  0
 14 15  1  0  0  0  0
 14 40  1  0  0  0  0
 15 16  2  0  0  0  0
 15 41  1  0  0  0  0
 16 17  1  0  0  0  0
 16 42  1  0  0  0  0
 17 18  2  0  0  0  0
 17 43  1  0  0  0  0
M  CHG  1   4   1
M  CHG  1  10   1
M  END
> <s_m_source_file>
AV-unprocessed.smi

> <i_m_source_file_index>
3303

> <i_lp_mmshare_version>
43012

> <i_f3d_flags>
0

> <s_epik_input>
W0NIM11bQ0BASF0xW0NIMl1OKFtDSDNdKVtDQEBIXShbQ0gzXSlbQ0gyXVtDQEhdMVtOSF1bQ0gyXVtDSDJdYzJbY0hdW2NIXVtjSF1bY0hdbjI=

> <s_epik_cmdline>
J2VwaWtfcHl0aG9uJywgJy1waCcsICc3LjAnLCAnLXRuJywgJzgnLCAnLW1hJywgJzIwMCcsICctbWV0YWxfYmluZGluZycsICctaW1hZScsICc8aW5maWxlLm1hZT4nLCAnLW9tYWUnLCAnPG91dGZpbGUubWFlPic=

> <r_epik_Ionization_Penalty>
0.0769462

> <r_epik_Ionization_Penalty_Charging>
0.0759813

> <r_epik_Ionization_Penalty_Neutral>
0.000964829

> <r_epik_State_Penalty>
0.0654373

> <r_epik_Charging_Adjusted_Penalty>
0.141419

> <i_epik_Tot_Q>
2

> <i_epik_Tot_abs_Q>
2

> <r_epik_Metal_State_Penalty>
0.0656439

> <b_epik_Metal_Only>
0

> <s_lp_Force_Field>
OPLS_2005

> <r_lp_Energy>
29.1913

> <b_lp_Chiralities_Consistent>
1

> <s_lp_Variant>
AV-unprocessed.smi:3303-16

> <Gold.Version>
5.8.1

> <Gold.Id.Protein>
6NUR|6NUR_protein|mol2

> <Gold.PLP.Fitness>
44.5963

> <Gold.PLP.PLP>
-35.0443

> <Gold.PLP.part.hbond>
-2.0000

> <Gold.PLP.part.metal>
0.0000

> <Gold.PLP.part.buried>
0.4382

> <Gold.PLP.part.nonpolar>
-34.5822

> <Gold.PLP.part.repulsive>
1.1410

> <Gold.PLP.ligand.clash>
0.0000

> <Gold.PLP.ligand.torsion>
0.7292

> <Gold.PLP.Chemscore.Hbond>
2.9280

> <Gold.PLP.Chemscore.CHOScore>
0.7397

> <Gold.PLP.Chemscore.Metal>
0.0000

> <Gold.Chemscore.Hbonds>
donor molecule, donor type, donor heavy atom, donor atom, acceptor molecule, acceptor atom, score
      L1  H    10    35       P1  7957  1.00
      L1  H    10    44       P1  7948  1.86
      L1  C    17    43       P1  7921  0.41

> <Gold.PLP.Chemscore.Internal.Correction>
0.0073

> <Gold.Rescore>
     Score         DG    S(hbond)    S(metal)    S(lipo)     H(rot)  DE(clash)    DE(int)     intcor
     17.19     -18.91       1.75        0.00      94.82       1.37       0.97       0.75       ----

> <Gold.Chemscore.Fitness>
17.1905

> <Gold.Chemscore.DG>
-18.9117

> <Gold.Chemscore.ZeroCoef>
-5.4800

> <Gold.Chemscore.Hbond>
1.7532

> <Gold.Chemscore.Metal>
0.0000

> <Gold.Chemscore.Lipo>
94.8233

> <Gold.Chemscore.Internal_Hbond>
0.0000

> <Gold.Chemscore.DEClash>
0.9683

> <Gold.Chemscore.DEInternal>
0.7529

> <Gold.Chemscore.Rot>
1.3744

> <Gold.Chemscore.Internal.Correction>
   9.000000E+99

> <Gold.Chemscore.Hbonds>
donor molecule, donor type, donor heavy atom, donor atom, acceptor molecule, acceptor atom, score
      L1  H    10    35       P1  7957  0.95
      L1  H    10    44       P1  7948  0.91

> <Gold.Chemscore.Hbond.Weighted>
-5.8558

> <Gold.Chemscore.Metal.Weighted>
-0.0000

> <Gold.Chemscore.Lipo.Weighted>
-11.0943

> <Gold.Chemscore.Internal_Hbond.Weighted>
0.0000

> <Gold.Chemscore.DEClash.Weighted>
0.9683

> <Gold.Chemscore.DEInternal.Weighted>
0.7529

> <Gold.Chemscore.Rot.Weighted>
3.5185

> <Gold.Chemscore.Internal.Correction.Weighted>
   9.000000E+99

> <Gold.Protein.RotatedTorsions>
[ 6907 6896 6895 6894 ] final  -57.36 input  -60.11 | X-H torsion
[ 7974 7965 7964 7962 ] final  -80.23 input  175.53 | X-H torsion
[ 8008 7997 7996 7995 ] final  113.14 input   59.86 | X-H torsion
[ 10167 10162 10161 10158 ] final  108.60 input  -65.29 | X-H torsion
[ 10718 10713 10712 10709 ] final -111.29 input   66.30 | X-H torsion
[ 10763 10752 10751 10750 ] final  -93.49 input  -60.55 | X-H torsion
[ 11005 11000 10999 10996 ] final  149.11 input  -57.11 | X-H torsion

> <Gold.Protein.ActiveResidues>
 VAL166  LYS551  ARG553  GLY616  TRP617  ASP618  TYR619  PRO620  LYS621  CYS622 
 ASP623  PHE694  ASN695  SER759  ASP760  ASP761  ALA762  ILE779  LEU786  VAL792 
 PHE793  MET794  SER795  GLU796  ALA797  LYS798  CYS799  TRP800  GLU811  SER814 

> <Gold.Protein.RotatedAtoms>
  150.8092  134.7237  159.6672 H   0  0  0  0  0  0  0  0  0  0  0  0  # atno 6907 bound_to 6896
  152.4212  134.5948  159.9994 H   0  0  0  0  0  0  0  0  0  0  0  0  # atno 6908 bound_to 6896
  151.6163  133.3305  159.3114 H   0  0  0  0  0  0  0  0  0  0  0  0  # atno 6909 bound_to 6896
  145.5627  140.9479  143.1438 H   0  0  0  0  0  0  0  0  0  0  0  0  # atno 7974 bound_to 7965
  156.2238  140.2985  156.0018 H   0  0  0  0  0  0  0  0  0  0  0  0  # atno 8008 bound_to 7997
  155.2410  140.0422  157.2992 H   0  0  0  0  0  0  0  0  0  0  0  0  # atno 8009 bound_to 7997
  154.5883  140.2394  155.7964 H   0  0  0  0  0  0  0  0  0  0  0  0  # atno 8010 bound_to 7997
  139.6833  144.7116  151.1477 H   0  0  0  0  0  0  0  0  0  0  0  0  # atno 10167 bound_to 10162
  156.0638  130.5860  150.8353 H   0  0  0  0  0  0  0  0  0  0  0  0  # atno 10718 bound_to 10713
  154.6964  135.5192  153.8464 H   0  0  0  0  0  0  0  0  0  0  0  0  # atno 10763 bound_to 10752
  153.0670  135.6588  154.0341 H   0  0  0  0  0  0  0  0  0  0  0  0  # atno 10764 bound_to 10752
  154.0207  135.2994  155.3361 H   0  0  0  0  0  0  0  0  0  0  0  0  # atno 10765 bound_to 10752
  140.1016  134.8979  157.1805 H   0  0  0  0  0  0  0  0  0  0  0  0  # atno 11005 bound_to 11000
  144.7475  139.7281  143.7286 LP  0  0  0  0  0  0  0  0  0  0  0  0  # atno 17320 bound_to 7965
  146.1839  139.5045  142.9848 LP  0  0  0  0  0  0  0  0  0  0  0  0  # atno 17321 bound_to 7965
  140.7659  143.5667  150.9040 LP  0  0  0  0  0  0  0  0  0  0  0  0  # atno 17342 bound_to 10162
  139.9340  143.6459  152.3069 LP  0  0  0  0  0  0  0  0  0  0  0  0  # atno 17343 bound_to 10162
  157.5666  131.0946  150.9480 LP  0  0  0  0  0  0  0  0  0  0  0  0  # atno 17370 bound_to 10713
  156.9705  130.5489  149.5290 LP  0  0  0  0  0  0  0  0  0  0  0  0  # atno 17371 bound_to 10713
  140.3212  134.2914  155.7246 LP  0  0  0  0  0  0  0  0  0  0  0  0  # atno 17394 bound_to 11000
  141.2107  133.7711  156.9913 LP  0  0  0  0  0  0  0  0  0  0  0  0  # atno 17395 bound_to 11000

$$$$
