AV-unprocessed.smi:1891|AV-procd|sdf|7666|dock2
  -GOLD-   22720 9403D 1   1.00000     0.00000
 Structure written by MMmdl.
 36 38  0  0  0  0  0  0  0  0  1 V2000
  151.8390  137.0535  159.5504 O   0  0  0  0  0  0  0  0  0  0  0  0
  153.0561  137.7630  159.4375 C   0  0  0  0  0  0  0  0  0  0  0  0
  152.8945  139.2568  159.4084 C   0  0  0  0  0  0  0  0  0  0  0  0
  153.4216  140.0621  160.3339 N   0  0  0  0  0  0  0  0  0  0  0  0
  153.0306  141.3163  159.9098 C   0  0  0  0  0  0  0  0  0  0  0  0
  153.2715  142.5917  160.4685 C   0  0  0  0  0  0  0  0  0  0  0  0
  152.7632  143.7508  159.8464 C   0  0  0  0  0  0  0  0  0  0  0  0
  152.0105  143.6515  158.6583 C   0  0  0  0  0  0  0  0  0  0  0  0
  151.7588  142.3900  158.0855 C   0  0  0  0  0  0  0  0  0  0  0  0
  152.2660  141.2360  158.7125 C   0  0  0  0  0  0  0  0  0  0  0  0
  152.1940  139.8767  158.4243 N   0  0  0  0  0  0  0  0  0  0  0  0
  151.4989  139.2804  157.2905 C   0  0  0  0  0  0  0  0  0  0  0  0
  151.6544  140.1132  156.0012 C   0  0  1  0  0  0  0  0  0  0  0  0
  152.6678  139.5223  155.2120 O   0  0  0  0  0  0  0  0  0  0  0  0
  150.3406  140.2696  155.2429 C   0  0  0  0  0  0  0  0  0  0  0  0
  149.7371  141.5408  155.1105 C   0  0  0  0  0  0  0  0  0  0  0  0
  148.5358  141.6877  154.3907 C   0  0  0  0  0  0  0  0  0  0  0  0
  147.9291  140.5652  153.7964 C   0  0  0  0  0  0  0  0  0  0  0  0
  146.7747  140.7066  153.1031 F   0  0  0  0  0  0  0  0  0  0  0  0
  148.5247  139.2962  153.9221 C   0  0  0  0  0  0  0  0  0  0  0  0
  149.7258  139.1467  154.6421 C   0  0  0  0  0  0  0  0  0  0  0  0
  150.2893  137.9188  154.7437 F   0  0  0  0  0  0  0  0  0  0  0  0
  151.1307  137.6769  159.5988 H   0  0  0  0  0  0  0  0  0  0  0  0
  153.6956  137.4908  160.2773 H   0  0  0  0  0  0  0  0  0  0  0  0
  153.5537  137.4358  158.5259 H   0  0  0  0  0  0  0  0  0  0  0  0
  153.8475  142.6779  161.3778 H   0  0  0  0  0  0  0  0  0  0  0  0
  152.9519  144.7206  160.2829 H   0  0  0  0  0  0  0  0  0  0  0  0
  151.6252  144.5444  158.1879 H   0  0  0  0  0  0  0  0  0  0  0  0
  151.1804  142.3102  157.1772 H   0  0  0  0  0  0  0  0  0  0  0  0
  151.9174  138.2842  157.1394 H   0  0  0  0  0  0  0  0  0  0  0  0
  150.4465  139.1316  157.5312 H   0  0  0  0  0  0  0  0  0  0  0  0
  152.0262  141.1050  156.2596 H   0  0  0  0  0  0  0  0  0  0  0  0
  152.3682  139.4825  154.3170 H   0  0  0  0  0  0  0  0  0  0  0  0
  150.1968  142.4123  155.5526 H   0  0  0  0  0  0  0  0  0  0  0  0
  148.0814  142.6625  154.2919 H   0  0  0  0  0  0  0  0  0  0  0  0
  148.0616  138.4356  153.4626 H   0  0  0  0  0  0  0  0  0  0  0  0
  1  2  1  0  0  0  0
  1 23  1  0  0  0  0
  2  3  1  0  0  0  0
  2 24  1  0  0  0  0
  2 25  1  0  0  0  0
  3 11  1  0  0  0  0
  3  4  2  0  0  0  0
  4  5  1  0  0  0  0
  5 10  2  0  0  0  0
  5  6  1  0  0  0  0
  6  7  2  0  0  0  0
  6 26  1  0  0  0  0
  7  8  1  0  0  0  0
  7 27  1  0  0  0  0
  8  9  2  0  0  0  0
  8 28  1  0  0  0  0
  9 10  1  0  0  0  0
  9 29  1  0  0  0  0
 10 11  1  0  0  0  0
 11 12  1  0  0  0  0
 12 13  1  0  0  0  0
 12 30  1  0  0  0  0
 12 31  1  0  0  0  0
 13 14  1  0  0  0  0
 13 15  1  0  0  0  0
 13 32  1  0  0  0  0
 14 33  1  0  0  0  0
 15 21  1  0  0  0  0
 15 16  2  0  0  0  0
 16 17  1  0  0  0  0
 16 34  1  0  0  0  0
 17 18  2  0  0  0  0
 17 35  1  0  0  0  0
 18 19  1  0  0  0  0
 18 20  1  0  0  0  0
 20 21  2  0  0  0  0
 20 36  1  0  0  0  0
 21 22  1  0  0  0  0
M  END
> <s_m_source_file>
AV-unprocessed.smi

> <i_m_source_file_index>
1891

> <i_lp_mmshare_version>
43012

> <i_f3d_flags>
0

> <s_epik_input>
W2NIXTFbY0hdW2NIXVtjSF1jKGMxMiluKGMobjIpW0NIMl1bT0hdKVtDSDJdW0NASF0oW09IXSljM1tjSF1bY0hdYyhGKVtjSF1jM0Y=

> <s_epik_cmdline>
J2VwaWtfcHl0aG9uJywgJy1waCcsICc3LjAnLCAnLXRuJywgJzgnLCAnLW1hJywgJzIwMCcsICctbWV0YWxfYmluZGluZycsICctaW1hZScsICc8aW5maWxlLm1hZT4nLCAnLW9tYWUnLCAnPG91dGZpbGUubWFlPic=

> <r_epik_Ionization_Penalty>
0.0634724

> <r_epik_Ionization_Penalty_Charging>
0

> <r_epik_Ionization_Penalty_Neutral>
0.0634724

> <r_epik_State_Penalty>
0.0551572

> <r_epik_Charging_Adjusted_Penalty>
0.0551572

> <i_epik_Tot_Q>
0

> <i_epik_Tot_abs_Q>
0

> <r_epik_Metal_State_Penalty>
5.78034e-05

> <b_epik_Metal_Only>
0

> <s_lp_Force_Field>
OPLS_2005

> <r_lp_Energy>
13.0815

> <b_lp_Chiralities_Consistent>
1

> <s_lp_Variant>
AV-unprocessed.smi:1891-2

> <Gold.Version>
5.8.1

> <Gold.Id.Protein>
6NUR|6NUR_protein|mol2

> <Gold.PLP.Fitness>
52.2675

> <Gold.PLP.PLP>
-48.1501

> <Gold.PLP.part.hbond>
-2.7142

> <Gold.PLP.part.metal>
0.0000

> <Gold.PLP.part.buried>
-2.1347

> <Gold.PLP.part.nonpolar>
-43.4129

> <Gold.PLP.part.repulsive>
0.0000

> <Gold.PLP.ligand.clash>
0.0000

> <Gold.PLP.ligand.torsion>
0.9510

> <Gold.PLP.Chemscore.Hbond>
2.0000

> <Gold.PLP.Chemscore.CHOScore>
0.0000

> <Gold.PLP.Chemscore.Metal>
0.0000

> <Gold.Chemscore.Hbonds>
donor molecule, donor type, donor heavy atom, donor atom, acceptor molecule, acceptor atom, score
      P1  H  6896  6909       L1     1  1.00
      P1  H  7997  8010       L1    14  1.00

> <Gold.PLP.Chemscore.Internal.Correction>
0.0194

> <Gold.Rescore>
     Score         DG    S(hbond)    S(metal)    S(lipo)     H(rot)  DE(clash)    DE(int)     intcor
     15.11     -18.25       1.86        0.00     119.05       2.88       0.01       3.13       ----

> <Gold.Chemscore.Fitness>
15.1101

> <Gold.Chemscore.DG>
-18.2500

> <Gold.Chemscore.ZeroCoef>
-5.4800

> <Gold.Chemscore.Hbond>
1.8578

> <Gold.Chemscore.Metal>
0.0000

> <Gold.Chemscore.Lipo>
119.0540

> <Gold.Chemscore.Internal_Hbond>
0.0000

> <Gold.Chemscore.DEClash>
0.0135

> <Gold.Chemscore.DEInternal>
3.1263

> <Gold.Chemscore.Rot>
2.8767

> <Gold.Chemscore.Internal.Correction>
   9.000000E+99

> <Gold.Chemscore.Hbonds>
donor molecule, donor type, donor heavy atom, donor atom, acceptor molecule, acceptor atom, score
      P1  H  6896  6909       L1     1  0.98
      P1  H  7997  8010       L1    14  0.48

> <Gold.Chemscore.Hbond.Weighted>
-6.2051

> <Gold.Chemscore.Metal.Weighted>
-0.0000

> <Gold.Chemscore.Lipo.Weighted>
-13.9293

> <Gold.Chemscore.Internal_Hbond.Weighted>
0.0000

> <Gold.Chemscore.DEClash.Weighted>
0.0135

> <Gold.Chemscore.DEInternal.Weighted>
3.1263

> <Gold.Chemscore.Rot.Weighted>
7.3644

> <Gold.Chemscore.Internal.Correction.Weighted>
   9.000000E+99

> <Gold.Protein.RotatedTorsions>
[ 6907 6896 6895 6894 ] final  129.08 input  -60.11 | X-H torsion
[ 7974 7965 7964 7962 ] final  110.78 input  175.53 | X-H torsion
[ 8008 7997 7996 7995 ] final   95.63 input   59.86 | X-H torsion
[ 10167 10162 10161 10158 ] final   69.85 input  -65.29 | X-H torsion
[ 10718 10713 10712 10709 ] final  165.85 input   66.30 | X-H torsion
[ 10763 10752 10751 10750 ] final   78.48 input  -60.55 | X-H torsion
[ 11005 11000 10999 10996 ] final   58.49 input  -57.11 | X-H torsion

> <Gold.Protein.ActiveResidues>
 VAL166  LYS551  ARG553  GLY616  TRP617  ASP618  TYR619  PRO620  LYS621  CYS622 
 ASP623  PHE694  ASN695  SER759  ASP760  ASP761  ALA762  ILE779  LEU786  VAL792 
 PHE793  MET794  SER795  GLU796  ALA797  LYS798  CYS799  TRP800  GLU811  SER814 

> <Gold.Protein.RotatedAtoms>
  152.3658  133.6355  159.6049 H   0  0  0  0  0  0  0  0  0  0  0  0  # atno 6907 bound_to 6896
  150.7633  133.9350  159.3447 H   0  0  0  0  0  0  0  0  0  0  0  0  # atno 6908 bound_to 6896
  151.7181  135.0901  160.0330 H   0  0  0  0  0  0  0  0  0  0  0  0  # atno 6909 bound_to 6896
  145.2507  139.2741  143.4069 H   0  0  0  0  0  0  0  0  0  0  0  0  # atno 7974 bound_to 7965
  156.0709  140.3284  155.7575 H   0  0  0  0  0  0  0  0  0  0  0  0  # atno 8008 bound_to 7997
  155.5306  140.0593  157.2907 H   0  0  0  0  0  0  0  0  0  0  0  0  # atno 8009 bound_to 7997
  154.4530  140.1928  156.0481 H   0  0  0  0  0  0  0  0  0  0  0  0  # atno 8010 bound_to 7997
  140.0634  144.5214  150.7278 H   0  0  0  0  0  0  0  0  0  0  0  0  # atno 10167 bound_to 10162
  157.0743  131.0374  151.2600 H   0  0  0  0  0  0  0  0  0  0  0  0  # atno 10718 bound_to 10713
  153.0877  135.4875  154.8630 H   0  0  0  0  0  0  0  0  0  0  0  0  # atno 10763 bound_to 10752
  154.7231  135.3044  154.9017 H   0  0  0  0  0  0  0  0  0  0  0  0  # atno 10764 bound_to 10752
  153.9675  135.6805  153.4799 H   0  0  0  0  0  0  0  0  0  0  0  0  # atno 10765 bound_to 10752
  140.0373  134.5924  155.9427 H   0  0  0  0  0  0  0  0  0  0  0  0  # atno 11005 bound_to 11000
  146.3303  140.2896  142.8614 LP  0  0  0  0  0  0  0  0  0  0  0  0  # atno 17320 bound_to 7965
  144.9506  140.8174  143.5574 LP  0  0  0  0  0  0  0  0  0  0  0  0  # atno 17321 bound_to 7965
  140.7161  143.2546  151.4430 LP  0  0  0  0  0  0  0  0  0  0  0  0  # atno 17342 bound_to 10162
  139.5880  144.1562  152.2053 LP  0  0  0  0  0  0  0  0  0  0  0  0  # atno 17343 bound_to 10162
  157.4853  130.7789  149.7454 LP  0  0  0  0  0  0  0  0  0  0  0  0  # atno 17370 bound_to 10713
  155.9941  130.3920  150.2871 LP  0  0  0  0  0  0  0  0  0  0  0  0  # atno 17371 bound_to 10713
  141.1864  133.6557  156.5240 LP  0  0  0  0  0  0  0  0  0  0  0  0  # atno 17394 bound_to 11000
  140.4126  134.7259  157.4844 LP  0  0  0  0  0  0  0  0  0  0  0  0  # atno 17395 bound_to 11000

$$$$
