AV-unprocessed.smi:593|AV-procd|sdf|3013|dock2
  -GOLD-   2262023523D 1   1.00000     0.00000
 Structure written by MMmdl.
 40 41  0  0  0  0  0  0  0  0  3 V2000
  148.2328  140.0024  157.2423 O   0  0  0  0  0  0  0  0  0  0  0  0
  148.0534  141.1166  156.7527 C   0  0  0  0  0  0  0  0  0  0  0  0
  146.6167  141.5836  156.4586 C   0  0  0  0  0  0  0  0  0  0  0  0
  145.9483  142.2775  157.5756 N   0  0  0  0  0  0  0  0  0  0  0  0
  146.6771  142.4048  158.7745 C   0  0  0  0  0  0  0  0  0  0  0  0
  146.1725  143.0283  159.8570 C   0  0  0  0  0  0  0  0  0  0  0  0
  146.9386  143.1556  161.0771 N   0  3  0  0  0  0  0  0  0  0  0  0
  148.0228  142.5864  161.1532 O   0  0  0  0  0  0  0  0  0  0  0  0
  146.4835  143.8265  161.9988 O   0  5  0  0  0  0  0  0  0  0  0  0
  144.8335  143.5752  159.7567 C   0  0  0  0  0  0  0  0  0  0  0  0
  144.1325  143.4610  158.6115 C   0  0  0  0  0  0  0  0  0  0  0  0
  144.6857  142.7863  157.4330 C   0  0  0  0  0  0  0  0  0  0  0  0
  144.0564  142.6923  156.3793 O   0  0  0  0  0  0  0  0  0  0  0  0
  149.0628  141.9512  156.4580 N   0  0  0  0  0  0  0  0  0  0  0  0
  150.4779  141.6539  156.6274 C   0  0  0  0  0  0  0  0  0  0  0  0
  150.9687  142.0782  158.0250 C   0  0  0  0  0  0  0  0  0  0  0  0
  151.2420  143.5972  158.1183 C   0  0  0  0  0  0  0  0  0  0  0  0
  151.7481  144.0006  159.5127 C   0  0  0  0  0  0  0  0  0  0  0  0
  152.9961  143.1974  159.9086 C   0  0  0  0  0  0  0  0  0  0  0  0
  152.7291  141.6872  159.8270 C   0  0  0  0  0  0  0  0  0  0  0  0
  152.2272  141.2849  158.4307 C   0  0  0  0  0  0  0  0  0  0  0  0
  146.6372  142.2235  155.5748 H   0  0  0  0  0  0  0  0  0  0  0  0
  146.0349  140.7115  156.1569 H   0  0  0  0  0  0  0  0  0  0  0  0
  147.6663  141.9708  158.7449 H   0  0  0  0  0  0  0  0  0  0  0  0
  144.3836  144.0811  160.5983 H   0  0  0  0  0  0  0  0  0  0  0  0
  143.1371  143.8772  158.5583 H   0  0  0  0  0  0  0  0  0  0  0  0
  148.8332  142.8513  156.0625 H   0  0  0  0  0  0  0  0  0  0  0  0
  150.6269  140.5830  156.4837 H   0  0  0  0  0  0  0  0  0  0  0  0
  151.0603  142.1640  155.8578 H   0  0  0  0  0  0  0  0  0  0  0  0
  150.1811  141.8357  158.7404 H   0  0  0  0  0  0  0  0  0  0  0  0
  151.9794  143.8839  157.3675 H   0  0  0  0  0  0  0  0  0  0  0  0
  150.3385  144.1648  157.8932 H   0  0  0  0  0  0  0  0  0  0  0  0
  151.9728  145.0675  159.5315 H   0  0  0  0  0  0  0  0  0  0  0  0
  150.9596  143.8377  160.2484 H   0  0  0  0  0  0  0  0  0  0  0  0
  153.8243  143.4585  159.2487 H   0  0  0  0  0  0  0  0  0  0  0  0
  153.3078  143.4664  160.9181 H   0  0  0  0  0  0  0  0  0  0  0  0
  153.6387  141.1365  160.0677 H   0  0  0  0  0  0  0  0  0  0  0  0
  151.9891  141.4054  160.5771 H   0  0  0  0  0  0  0  0  0  0  0  0
  152.0145  140.2154  158.4159 H   0  0  0  0  0  0  0  0  0  0  0  0
  153.0194  141.4508  157.6992 H   0  0  0  0  0  0  0  0  0  0  0  0
  1  2  2  0  0  0  0
  2  3  1  0  0  0  0
  2 14  1  0  0  0  0
  3  4  1  0  0  0  0
  3 22  1  0  0  0  0
  3 23  1  0  0  0  0
  4 12  1  0  0  0  0
  4  5  1  0  0  0  0
  5  6  2  0  0  0  0
  5 24  1  0  0  0  0
  6  7  1  0  0  0  0
  6 10  1  0  0  0  0
  7  8  2  0  0  0  0
  7  9  1  0  0  0  0
 10 11  2  0  0  0  0
 10 25  1  0  0  0  0
 11 12  1  0  0  0  0
 11 26  1  0  0  0  0
 12 13  2  0  0  0  0
 14 15  1  0  0  0  0
 14 27  1  0  0  0  0
 15 16  1  0  0  0  0
 15 28  1  0  0  0  0
 15 29  1  0  0  0  0
 16 21  1  0  0  0  0
 16 17  1  0  0  0  0
 16 30  1  0  0  0  0
 17 18  1  0  0  0  0
 17 31  1  0  0  0  0
 17 32  1  0  0  0  0
 18 19  1  0  0  0  0
 18 33  1  0  0  0  0
 18 34  1  0  0  0  0
 19 20  1  0  0  0  0
 19 35  1  0  0  0  0
 19 36  1  0  0  0  0
 20 21  1  0  0  0  0
 20 37  1  0  0  0  0
 20 38  1  0  0  0  0
 21 39  1  0  0  0  0
 21 40  1  0  0  0  0
M  CHG  1   7   1
M  CHG  1   9  -1
M  END
> <s_m_source_file>
AV-unprocessed.smi

> <i_m_source_file_index>
593

> <i_lp_mmshare_version>
43012

> <i_f3d_flags>
0

> <s_epik_input>
W0NIMl0xW0NIMl1bQ0gyXVtDSDJdW0NIMl1bQ0hdMVtDSDJdW05IXUMoPU8pW0NIMl1uMltjSF1jKFtOK10oPU8pW08tXSlbY0hdW2NIXWMyPU8=

> <s_epik_cmdline>
J2VwaWtfcHl0aG9uJywgJy1waCcsICc3LjAnLCAnLXRuJywgJzgnLCAnLW1hJywgJzIwMCcsICctbWV0YWxfYmluZGluZycsICctaW1hZScsICc8aW5maWxlLm1hZT4nLCAnLW9tYWUnLCAnPG91dGZpbGUubWFlPic=

> <r_lp_tautomer_probability>
1

> <r_epik_Ionization_Penalty>
1.98738e-08

> <r_epik_Ionization_Penalty_Charging>
7.60687e-11

> <r_epik_Ionization_Penalty_Neutral>
1.97978e-08

> <r_epik_State_Penalty>
-0

> <r_epik_Charging_Adjusted_Penalty>
7.60687e-11

> <i_epik_Tot_Q>
0

> <i_epik_Tot_abs_Q>
2

> <r_epik_Metal_State_Penalty>
-0

> <b_epik_Metal_Only>
0

> <s_lp_Force_Field>
OPLS_2005

> <r_lp_Energy>
22.1176

> <b_lp_Chiralities_Consistent>
1

> <s_lp_Variant>
AV-unprocessed.smi:593-1

> <Gold.Version>
5.8.1

> <Gold.Id.Protein>
6NUR|6NUR_protein|mol2

> <Gold.PLP.Fitness>
43.8556

> <Gold.PLP.PLP>
-40.0256

> <Gold.PLP.part.hbond>
-5.0000

> <Gold.PLP.part.metal>
0.0000

> <Gold.PLP.part.buried>
-5.3660

> <Gold.PLP.part.nonpolar>
-29.5733

> <Gold.PLP.part.repulsive>
0.5156

> <Gold.PLP.ligand.clash>
0.0000

> <Gold.PLP.ligand.torsion>
0.7932

> <Gold.PLP.Chemscore.Hbond>
1.7840

> <Gold.PLP.Chemscore.CHOScore>
0.0000

> <Gold.PLP.Chemscore.Metal>
0.0000

> <Gold.Chemscore.Hbonds>
donor molecule, donor type, donor heavy atom, donor atom, acceptor molecule, acceptor atom, score
      L1  H    14    27       P1  8028  1.00
      P1  H  6934  6946       L1     8  0.04

> <Gold.PLP.Chemscore.Internal.Correction>
0.0644

> <Gold.Rescore>
     Score         DG    S(hbond)    S(metal)    S(lipo)     H(rot)  DE(clash)    DE(int)     intcor
     16.11     -16.83       1.95        0.00      80.40       1.78       0.12       0.60       ----

> <Gold.Chemscore.Fitness>
16.1080

> <Gold.Chemscore.DG>
-16.8301

> <Gold.Chemscore.ZeroCoef>
-5.4800

> <Gold.Chemscore.Hbond>
1.9480

> <Gold.Chemscore.Metal>
0.0000

> <Gold.Chemscore.Lipo>
80.3963

> <Gold.Chemscore.Internal_Hbond>
0.0000

> <Gold.Chemscore.DEClash>
0.1229

> <Gold.Chemscore.DEInternal>
0.5993

> <Gold.Chemscore.Rot>
1.7823

> <Gold.Chemscore.Internal.Correction>
   9.000000E+99

> <Gold.Chemscore.Hbonds>
donor molecule, donor type, donor heavy atom, donor atom, acceptor molecule, acceptor atom, score
      L1  H    14    27       P1  8028  1.00

> <Gold.Chemscore.Hbond.Weighted>
-6.5065

> <Gold.Chemscore.Metal.Weighted>
-0.0000

> <Gold.Chemscore.Lipo.Weighted>
-9.4064

> <Gold.Chemscore.Internal_Hbond.Weighted>
0.0000

> <Gold.Chemscore.DEClash.Weighted>
0.1229

> <Gold.Chemscore.DEInternal.Weighted>
0.5993

> <Gold.Chemscore.Rot.Weighted>
4.5627

> <Gold.Chemscore.Internal.Correction.Weighted>
   9.000000E+99

> <Gold.Protein.RotatedTorsions>
[ 6907 6896 6895 6894 ] final  -51.34 input  -60.11 | X-H torsion
[ 7974 7965 7964 7962 ] final -131.28 input  175.53 | X-H torsion
[ 8008 7997 7996 7995 ] final  -83.91 input   59.86 | X-H torsion
[ 10167 10162 10161 10158 ] final  -84.20 input  -65.29 | X-H torsion
[ 10718 10713 10712 10709 ] final  162.99 input   66.30 | X-H torsion
[ 10763 10752 10751 10750 ] final   40.83 input  -60.55 | X-H torsion
[ 11005 11000 10999 10996 ] final  152.23 input  -57.11 | X-H torsion

> <Gold.Protein.ActiveResidues>
 VAL166  LYS551  ARG553  GLY616  TRP617  ASP618  TYR619  PRO620  LYS621  CYS622 
 ASP623  PHE694  ASN695  SER759  ASP760  ASP761  ALA762  ILE779  LEU786  VAL792 
 PHE793  MET794  SER795  GLU796  ALA797  LYS798  CYS799  TRP800  GLU811  SER814 

> <Gold.Protein.RotatedAtoms>
  150.8621  134.7975  159.7090 H   0  0  0  0  0  0  0  0  0  0  0  0  # atno 6907 bound_to 6896
  152.4654  134.5083  159.9756 H   0  0  0  0  0  0  0  0  0  0  0  0  # atno 6908 bound_to 6896
  151.5185  133.3432  159.2933 H   0  0  0  0  0  0  0  0  0  0  0  0  # atno 6909 bound_to 6896
  144.9395  140.7222  143.4856 H   0  0  0  0  0  0  0  0  0  0  0  0  # atno 7974 bound_to 7965
  154.6242  140.0612  156.9652 H   0  0  0  0  0  0  0  0  0  0  0  0  # atno 8008 bound_to 7997
  155.1769  140.3296  155.4364 H   0  0  0  0  0  0  0  0  0  0  0  0  # atno 8009 bound_to 7997
  156.2448  140.1904  156.6868 H   0  0  0  0  0  0  0  0  0  0  0  0  # atno 8010 bound_to 7997
  140.4154  143.2605  151.8961 H   0  0  0  0  0  0  0  0  0  0  0  0  # atno 10167 bound_to 10162
  157.1147  131.0477  151.2441 H   0  0  0  0  0  0  0  0  0  0  0  0  # atno 10718 bound_to 10713
  152.9925  135.6180  154.2690 H   0  0  0  0  0  0  0  0  0  0  0  0  # atno 10763 bound_to 10752
  154.2423  135.2788  155.2851 H   0  0  0  0  0  0  0  0  0  0  0  0  # atno 10764 bound_to 10752
  154.5358  135.5775  153.6855 H   0  0  0  0  0  0  0  0  0  0  0  0  # atno 10765 bound_to 10752
  140.1289  134.8815  157.2176 H   0  0  0  0  0  0  0  0  0  0  0  0  # atno 11005 bound_to 11000
  145.3014  139.1849  143.4687 LP  0  0  0  0  0  0  0  0  0  0  0  0  # atno 17320 bound_to 7965
  146.3280  140.3006  142.8620 LP  0  0  0  0  0  0  0  0  0  0  0  0  # atno 17321 bound_to 7965
  139.4782  144.5493  151.8410 LP  0  0  0  0  0  0  0  0  0  0  0  0  # atno 17342 bound_to 10162
  140.4592  144.1746  150.5904 LP  0  0  0  0  0  0  0  0  0  0  0  0  # atno 17343 bound_to 10162
  157.4528  130.7608  149.7166 LP  0  0  0  0  0  0  0  0  0  0  0  0  # atno 17370 bound_to 10713
  155.9842  130.3993  150.3323 LP  0  0  0  0  0  0  0  0  0  0  0  0  # atno 17371 bound_to 10713
  140.2867  134.3287  155.7327 LP  0  0  0  0  0  0  0  0  0  0  0  0  # atno 17394 bound_to 11000
  141.2166  133.7510  156.9444 LP  0  0  0  0  0  0  0  0  0  0  0  0  # atno 17395 bound_to 11000

$$$$
