AV-unprocessed.smi:3261|AV-procd|sdf|12478|dock9
  -GOLD-   2272018383D 1   1.00000     0.00000
 Structure written by MMmdl.
 30 31  0  0  0  0  0  0  0  0  1 V2000
  146.4553  133.2655  153.5595 O   0  0  0  0  0  0  0  0  0  0  0  0
  147.2991  132.6783  152.8863 C   0  0  0  0  0  0  0  0  0  0  0  0
  147.1133  132.2460  151.6229 N   0  0  0  0  0  0  0  0  0  0  0  0
  145.9433  132.2998  150.8175 C   0  0  0  0  0  0  0  0  0  0  0  0
  144.7409  132.6924  151.4413 C   0  0  0  0  0  0  0  0  0  0  0  0
  143.5674  132.7733  150.6657 C   0  0  0  0  0  0  0  0  0  0  0  0
  143.5319  132.5009  149.3446 N   0  0  0  0  0  0  0  0  0  0  0  0
  144.6857  132.1372  148.7460 C   0  0  0  0  0  0  0  0  0  0  0  0
  145.9133  132.0250  149.4287 C   0  0  0  0  0  0  0  0  0  0  0  0
  148.5313  132.4436  153.3731 N   0  0  0  0  0  0  0  0  0  0  0  0
  149.0631  132.7793  154.6950 C   0  0  2  0  0  0  0  0  0  0  0  0
  150.0255  133.9788  154.6140 C   0  0  0  0  0  0  0  0  0  0  0  0
  150.8157  134.0644  155.9257 C   0  0  0  0  0  0  0  0  0  0  0  0
  150.9785  132.3431  156.5356 S   0  0  0  0  0  0  0  0  0  0  0  0
  152.3404  131.8525  156.2760 O   0  0  0  0  0  0  0  0  0  0  0  0
  150.3847  132.2557  157.8782 O   0  0  0  0  0  0  0  0  0  0  0  0
  149.8320  131.6013  155.3146 C   0  0  0  0  0  0  0  0  0  0  0  0
  147.9269  131.8571  151.1699 H   0  0  0  0  0  0  0  0  0  0  0  0
  144.7123  132.9250  152.4958 H   0  0  0  0  0  0  0  0  0  0  0  0
  142.6322  133.0672  151.1190 H   0  0  0  0  0  0  0  0  0  0  0  0
  144.6314  131.9347  147.6867 H   0  0  0  0  0  0  0  0  0  0  0  0
  146.7953  131.7464  148.8736 H   0  0  0  0  0  0  0  0  0  0  0  0
  149.1835  132.0040  152.7394 H   0  0  0  0  0  0  0  0  0  0  0  0
  148.2502  133.0625  155.3662 H   0  0  0  0  0  0  0  0  0  0  0  0
  150.7282  133.8217  153.7940 H   0  0  0  0  0  0  0  0  0  0  0  0
  149.4975  134.9099  154.4054 H   0  0  0  0  0  0  0  0  0  0  0  0
  151.8001  134.5157  155.8010 H   0  0  0  0  0  0  0  0  0  0  0  0
  150.2637  134.6349  156.6730 H   0  0  0  0  0  0  0  0  0  0  0  0
  149.1854  130.8721  155.8031 H   0  0  0  0  0  0  0  0  0  0  0  0
  150.4344  131.0860  154.5654 H   0  0  0  0  0  0  0  0  0  0  0  0
  1  2  2  0  0  0  0
  2  3  1  0  0  0  0
  2 10  1  0  0  0  0
  3  4  1  0  0  0  0
  3 18  1  0  0  0  0
  4  9  1  0  0  0  0
  4  5  2  0  0  0  0
  5  6  1  0  0  0  0
  5 19  1  0  0  0  0
  6  7  2  0  0  0  0
  6 20  1  0  0  0  0
  7  8  1  0  0  0  0
  8  9  2  0  0  0  0
  8 21  1  0  0  0  0
  9 22  1  0  0  0  0
 10 11  1  0  0  0  0
 10 23  1  0  0  0  0
 11 17  1  0  0  0  0
 11 12  1  0  0  0  0
 11 24  1  0  0  0  0
 12 13  1  0  0  0  0
 12 25  1  0  0  0  0
 12 26  1  0  0  0  0
 13 14  1  0  0  0  0
 13 27  1  0  0  0  0
 13 28  1  0  0  0  0
 14 15  2  0  0  0  0
 14 16  2  0  0  0  0
 14 17  1  0  0  0  0
 17 29  1  0  0  0  0
 17 30  1  0  0  0  0
M  END
> <s_m_source_file>
AV-unprocessed.smi

> <i_m_source_file_index>
3261

> <i_lp_mmshare_version>
43012

> <i_f3d_flags>
0

> <s_epik_input>
Tz1TMSg9TylbQ0gyXVtDSDJdW0NASF0oW0NIMl0xKVtOSF1DKD1PKVtOSF1jMltjSF1bY0hdbltjSF1bY0hdMg==

> <s_epik_cmdline>
J2VwaWtfcHl0aG9uJywgJy1waCcsICc3LjAnLCAnLXRuJywgJzgnLCAnLW1hJywgJzIwMCcsICctbWV0YWxfYmluZGluZycsICctaW1hZScsICc8aW5maWxlLm1hZT4nLCAnLW9tYWUnLCAnPG91dGZpbGUubWFlPic=

> <r_epik_Ionization_Penalty>
0.0999693

> <r_epik_Ionization_Penalty_Charging>
0

> <r_epik_Ionization_Penalty_Neutral>
0.0999693

> <r_epik_State_Penalty>
0.0899812

> <r_epik_Charging_Adjusted_Penalty>
0.0899812

> <i_epik_Tot_Q>
0

> <i_epik_Tot_abs_Q>
0

> <r_epik_Metal_State_Penalty>
0.0778619

> <b_epik_Metal_Only>
0

> <s_lp_Force_Field>
OPLS_2005

> <r_lp_Energy>
18.6703

> <b_lp_Chiralities_Consistent>
1

> <s_lp_Variant>
AV-unprocessed.smi:3261-1

> <Gold.Version>
5.8.1

> <Gold.Id.Protein>
6NUR|6NUR_protein|mol2

> <Gold.PLP.Fitness>
36.7849

> <Gold.PLP.PLP>
-28.8698

> <Gold.PLP.part.hbond>
-2.0882

> <Gold.PLP.part.metal>
0.0000

> <Gold.PLP.part.buried>
-2.3696

> <Gold.PLP.part.nonpolar>
-24.4195

> <Gold.PLP.part.repulsive>
0.3876

> <Gold.PLP.ligand.clash>
0.0000

> <Gold.PLP.ligand.torsion>
0.1975

> <Gold.PLP.Chemscore.Hbond>
2.0000

> <Gold.PLP.Chemscore.CHOScore>
0.7699

> <Gold.PLP.Chemscore.Metal>
0.0000

> <Gold.Chemscore.Hbonds>
donor molecule, donor type, donor heavy atom, donor atom, acceptor molecule, acceptor atom, score
      L1  H     3    18       P1 10747  1.00
      P1  H  6896  6909       L1    16  1.00
      L1  C     6    20       P1 10186  0.55

> <Gold.PLP.Chemscore.Internal.Correction>
0.0006

> <Gold.Rescore>
     Score         DG    S(hbond)    S(metal)    S(lipo)     H(rot)  DE(clash)    DE(int)     intcor
     16.07     -17.88       1.99        0.00      70.88       1.00       0.15       1.65       ----

> <Gold.Chemscore.Fitness>
16.0736

> <Gold.Chemscore.DG>
-17.8751

> <Gold.Chemscore.ZeroCoef>
-5.4800

> <Gold.Chemscore.Hbond>
1.9947

> <Gold.Chemscore.Metal>
0.0000

> <Gold.Chemscore.Lipo>
70.8779

> <Gold.Chemscore.Internal_Hbond>
0.0000

> <Gold.Chemscore.DEClash>
0.1487

> <Gold.Chemscore.DEInternal>
1.6528

> <Gold.Chemscore.Rot>
1.0000

> <Gold.Chemscore.Internal.Correction>
   9.000000E+99

> <Gold.Chemscore.Hbonds>
donor molecule, donor type, donor heavy atom, donor atom, acceptor molecule, acceptor atom, score
      L1  H     3    18       P1 10747  1.00
      P1  H  6896  6909       L1    16  0.94

> <Gold.Chemscore.Hbond.Weighted>
-6.6624

> <Gold.Chemscore.Metal.Weighted>
-0.0000

> <Gold.Chemscore.Lipo.Weighted>
-8.2927

> <Gold.Chemscore.Internal_Hbond.Weighted>
0.0000

> <Gold.Chemscore.DEClash.Weighted>
0.1487

> <Gold.Chemscore.DEInternal.Weighted>
1.6528

> <Gold.Chemscore.Rot.Weighted>
2.5600

> <Gold.Chemscore.Internal.Correction.Weighted>
   9.000000E+99

> <Gold.Protein.RotatedTorsions>
[ 6907 6896 6895 6894 ] final  -16.98 input  -60.11 | X-H torsion
[ 7974 7965 7964 7962 ] final   75.71 input  175.53 | X-H torsion
[ 8008 7997 7996 7995 ] final -130.11 input   59.86 | X-H torsion
[ 10167 10162 10161 10158 ] final  -96.43 input  -65.29 | X-H torsion
[ 10718 10713 10712 10709 ] final  -45.47 input   66.30 | X-H torsion
[ 10763 10752 10751 10750 ] final  -17.59 input  -60.55 | X-H torsion
[ 11005 11000 10999 10996 ] final -151.10 input  -57.11 | X-H torsion

> <Gold.Protein.ActiveResidues>
 VAL166  LYS551  ARG553  GLY616  TRP617  ASP618  TYR619  PRO620  LYS621  CYS622 
 ASP623  PHE694  ASN695  SER759  ASP760  ASP761  ALA762  ILE779  LEU786  VAL792 
 PHE793  MET794  SER795  GLU796  ALA797  LYS798  CYS799  TRP800  GLU811  SER814 

> <Gold.Protein.RotatedAtoms>
  151.3004  135.0767  159.9236 H   0  0  0  0  0  0  0  0  0  0  0  0  # atno 6907 bound_to 6896
  152.5299  133.9840  159.7830 H   0  0  0  0  0  0  0  0  0  0  0  0  # atno 6908 bound_to 6896
  151.0125  133.5900  159.2711 H   0  0  0  0  0  0  0  0  0  0  0  0  # atno 6909 bound_to 6896
  145.7122  139.2618  143.1644 H   0  0  0  0  0  0  0  0  0  0  0  0  # atno 7974 bound_to 7965
  155.2903  140.0448  157.3022 H   0  0  0  0  0  0  0  0  0  0  0  0  # atno 8008 bound_to 7997
  154.5545  140.2327  155.8400 H   0  0  0  0  0  0  0  0  0  0  0  0  # atno 8009 bound_to 7997
  156.1995  140.3029  155.9505 H   0  0  0  0  0  0  0  0  0  0  0  0  # atno 8010 bound_to 7997
  140.2939  143.3204  152.0318 H   0  0  0  0  0  0  0  0  0  0  0  0  # atno 10167 bound_to 10162
  156.2281  130.4170  149.8909 H   0  0  0  0  0  0  0  0  0  0  0  0  # atno 10718 bound_to 10713
  153.5762  135.7006  153.5483 H   0  0  0  0  0  0  0  0  0  0  0  0  # atno 10763 bound_to 10752
  153.3301  135.4050  155.1488 H   0  0  0  0  0  0  0  0  0  0  0  0  # atno 10764 bound_to 10752
  154.8625  135.3716  154.5287 H   0  0  0  0  0  0  0  0  0  0  0  0  # atno 10765 bound_to 10752
  140.7332  134.3598  157.5162 H   0  0  0  0  0  0  0  0  0  0  0  0  # atno 11005 bound_to 11000
  146.0702  140.7877  142.9691 LP  0  0  0  0  0  0  0  0  0  0  0  0  # atno 17320 bound_to 7965
  144.6939  140.3331  143.7212 LP  0  0  0  0  0  0  0  0  0  0  0  0  # atno 17321 bound_to 7965
  139.4931  144.6505  151.6686 LP  0  0  0  0  0  0  0  0  0  0  0  0  # atno 17342 bound_to 10162
  140.5709  144.0111  150.6216 LP  0  0  0  0  0  0  0  0  0  0  0  0  # atno 17343 bound_to 10162
  156.6533  130.8752  151.3535 LP  0  0  0  0  0  0  0  0  0  0  0  0  # atno 17370 bound_to 10713
  157.7120  130.9451  150.1122 LP  0  0  0  0  0  0  0  0  0  0  0  0  # atno 17371 bound_to 10713
  139.8822  134.9032  156.2849 LP  0  0  0  0  0  0  0  0  0  0  0  0  # atno 17394 bound_to 11000
  140.9903  133.7213  156.0803 LP  0  0  0  0  0  0  0  0  0  0  0  0  # atno 17395 bound_to 11000

$$$$
