#       Name:                AV-unprocessed.smi:2499
#       Creating user name   scv26
#       Creation time:       Fri Mar 27 13:46:29 2020


#       File generated by GOLD software.
#

@<TRIPOS>MOLECULE
AV-unprocessed.smi:2499
    32    33     1
SMALL
NO_CHARGES


@<TRIPOS>ATOM
      1 ****        -2.0437  -1.6983  -1.6147 C.3            1 S1                 0.0000
      2 ****        -1.5585  -0.8492  -0.4318 C.3            1 S1                 0.0000
      3 ****        -0.1071  -0.7180  -0.5174 N.am           1 S1                 0.0000
      4 ****         0.6227   0.2860  -0.0075 C.2            1 S1                 0.0000
      5 ****         0.0999   1.2337   0.5875 O.2            1 S1                 0.0000
      6 ****         1.9667   0.0886  -0.2834 N.2            1 S1                 0.0000
      7 ****         2.7576   1.1158  -0.3222 C.2            1 S1                 0.0000
      8 ****         4.1232   1.1256  -0.5574 N.pl3          1 S1                 0.0000
      9 ****         4.5519   2.4238  -0.5201 C.2            1 S1                 0.0000
     10 ****         3.5006   3.2001  -0.2736 C.2            1 S1                 0.0000
     11 ****         2.3847   2.4290  -0.1477 O.3            1 S1                 0.0000
     12 ****        -2.0353  -1.4355   0.8866 C.3            1 S1                 0.0000
     13 ****        -3.4680  -1.2724   1.3369 C.3            1 S1                 0.0000
     14 ****        -2.3588  -0.5545   2.0704 C.3            1 S1                 0.0000
     15 ****        -3.1311  -1.7781  -1.6212 H              1 S1                 0.0000
     16 ****        -1.6367  -2.7091  -1.5716 H              1 S1                 0.0000
     17 ****        -1.7426  -1.2575  -2.5658 H              1 S1                 0.0000
     18 ****        -2.0046   0.1412  -0.5424 H              1 S1                 0.0000
     19 ****         0.3857  -1.4552  -1.0007 H              1 S1                 0.0000
     20 ****         4.7338   0.3401  -0.7305 H              1 S1                 0.0000
     21 ****         5.5937   2.6601  -0.6793 H              1 S1                 0.0000
     22 ****         3.3865   4.2683  -0.1635 H              1 S1                 0.0000
     23 ****        -1.5811  -2.3966   1.1216 H              1 S1                 0.0000
     24 ****        -4.1298  -0.6702   0.7176 H              1 S1                 0.0000
     25 ****        -3.9365  -2.1185   1.8353 H              1 S1                 0.0000
     26 ****        -2.0851  -0.9220   3.0572 H              1 S1                 0.0000
     27 ****        -2.2886   0.5233   1.9385 H              1 S1                 0.0000
     28 ****        -0.8932   1.2669   0.6998 LP             1 S1                 0.0000
     29 ****         0.6697   1.9677   0.9569 LP             1 S1                 0.0000
     30 ****         2.3210  -0.8316  -0.4500 LP             1 S1                 0.0000
     31 ****         1.9875   2.5516   0.7618 LP             1 S1                 0.0000
     32 ****         1.7131   2.6869  -0.8423 LP             1 S1                 0.0000
@<TRIPOS>BOND
    1    1    2 1     
    2    1   15 1     
    3    1   16 1     
    4    1   17 1     
    5    2    3 1     
    6    2   12 1     
    7    2   18 1     
    8    3   19 1     
    9    3    4 am    
   10    4    6 1     
   11    4    5 2     
   12    6    7 2     
   13    7   11 1     
   14    7    8 1     
   15    8   20 1     
   16    8    9 1     
   17    9   21 1     
   18    9   10 2     
   19   10   22 1     
   20   10   11 1     
   21   12   14 1     
   22   12   13 1     
   23   12   23 1     
   24   13   14 1     
   25   13   24 1     
   26   13   25 1     
   27   14   26 1     
   28   14   27 1     
   29    5   28 1     
   30    5   29 1     
   31    6   30 1     
   32   11   31 1     
   33   11   32 1     
@<TRIPOS>SUBSTRUCTURE
      1 S1             1
@<TRIPOS>SET
LONE_PAIRS      STATIC     ATOMS    <user>   **** ""
5 28 29 30 31 32
DONOR_HYDROGENS      STATIC     ATOMS    <user>   **** ""
2 19 20
ATOM$BLUE        STATIC     ATOMS    COLORGROUP SYSTEM
5 28 29 30 31 32
ATOM$RED        STATIC     ATOMS    COLORGROUP SYSTEM
2 19 20
