AV-unprocessed.smi:1839|AV-procd|sdf|7484|dock9
  -GOLD-   22720 9183D 1   1.00000     0.00000
 Structure written by MMmdl.
 46 47  0  0  0  0  0  0  0  0  1 V2000
  151.4918  141.3126  157.0752 C   0  0  0  0  0  0  0  0  0  0  0  0
  150.1912  141.1358  156.4291 N   0  0  0  0  0  0  0  0  0  0  0  0
  149.0440  141.3574  157.3178 C   0  0  0  0  0  0  0  0  0  0  0  0
  150.1057  140.5280  155.2195 C   0  0  0  0  0  0  0  0  0  0  0  0
  150.9920  139.7806  154.8002 O   0  0  0  0  0  0  0  0  0  0  0  0
  148.9716  140.7582  154.5160 N   0  0  0  0  0  0  0  0  0  0  0  0
  148.3598  142.0903  154.4007 C   0  0  0  0  0  0  0  0  0  0  0  0
  146.8293  141.9672  154.5050 C   0  0  0  0  0  0  0  0  0  0  0  0
  146.2839  140.9831  153.4553 C   0  0  0  0  0  0  0  0  0  0  0  0
  147.0340  139.6343  153.5111 C   0  0  1  0  0  0  0  0  0  0  0  0
  146.5735  138.6803  152.4023 C   0  0  0  0  0  0  0  0  0  0  0  0
  146.9949  138.8090  151.2526 O   0  0  0  0  0  0  0  0  0  0  0  0
  145.7270  137.7074  152.7715 N   0  0  0  0  0  0  0  0  0  0  0  0
  145.2706  136.6199  151.9124 C   0  0  0  0  0  0  0  0  0  0  0  0
  145.7557  135.2336  152.3872 C   0  0  0  0  0  0  0  0  0  0  0  0
  145.3982  134.0981  151.4403 C   0  0  0  0  0  0  0  0  0  0  0  0
  144.0505  133.7379  151.2280 C   0  0  0  0  0  0  0  0  0  0  0  0
  143.7719  132.6623  150.3622 C   0  0  0  0  0  0  0  0  0  0  0  0
  144.8457  131.9898  149.7470 C   0  0  0  0  0  0  0  0  0  0  0  0
  146.1565  132.4264  150.0235 C   0  0  0  0  0  0  0  0  0  0  0  0
  146.4331  133.4574  150.8499 N   0  0  0  0  0  0  0  0  0  0  0  0
  148.5581  139.8684  153.4261 C   0  0  0  0  0  0  0  0  0  0  0  0
  152.2588  141.6071  156.3569 H   0  0  0  0  0  0  0  0  0  0  0  0
  151.8082  140.3847  157.5531 H   0  0  0  0  0  0  0  0  0  0  0  0
  151.4516  142.0914  157.8378 H   0  0  0  0  0  0  0  0  0  0  0  0
  148.2229  140.6691  157.1119 H   0  0  0  0  0  0  0  0  0  0  0  0
  148.6729  142.3773  157.2185 H   0  0  0  0  0  0  0  0  0  0  0  0
  149.3201  141.2073  158.3624 H   0  0  0  0  0  0  0  0  0  0  0  0
  148.7315  142.7883  155.1511 H   0  0  0  0  0  0  0  0  0  0  0  0
  148.6321  142.5220  153.4365 H   0  0  0  0  0  0  0  0  0  0  0  0
  146.5548  141.6257  155.5035 H   0  0  0  0  0  0  0  0  0  0  0  0
  146.3650  142.9451  154.3752 H   0  0  0  0  0  0  0  0  0  0  0  0
  145.2153  140.8307  153.6111 H   0  0  0  0  0  0  0  0  0  0  0  0
  146.3915  141.4301  152.4658 H   0  0  0  0  0  0  0  0  0  0  0  0
  146.8174  139.1692  154.4750 H   0  0  0  0  0  0  0  0  0  0  0  0
  145.4314  137.6793  153.7365 H   0  0  0  0  0  0  0  0  0  0  0  0
  144.1805  136.6406  151.9167 H   0  0  0  0  0  0  0  0  0  0  0  0
  145.5770  136.7978  150.8808 H   0  0  0  0  0  0  0  0  0  0  0  0
  146.8372  135.2531  152.5257 H   0  0  0  0  0  0  0  0  0  0  0  0
  145.3345  135.0162  153.3701 H   0  0  0  0  0  0  0  0  0  0  0  0
  143.2489  134.2685  151.7205 H   0  0  0  0  0  0  0  0  0  0  0  0
  142.7529  132.3563  150.1762 H   0  0  0  0  0  0  0  0  0  0  0  0
  144.6696  131.1594  149.0793 H   0  0  0  0  0  0  0  0  0  0  0  0
  147.0050  131.9347  149.5713 H   0  0  0  0  0  0  0  0  0  0  0  0
  148.8365  140.3120  152.4683 H   0  0  0  0  0  0  0  0  0  0  0  0
  149.0726  138.9074  153.4847 H   0  0  0  0  0  0  0  0  0  0  0  0
  1  2  1  0  0  0  0
  1 23  1  0  0  0  0
  1 24  1  0  0  0  0
  1 25  1  0  0  0  0
  2  3  1  0  0  0  0
  2  4  1  0  0  0  0
  3 26  1  0  0  0  0
  3 27  1  0  0  0  0
  3 28  1  0  0  0  0
  4  5  2  0  0  0  0
  4  6  1  0  0  0  0
  6 22  1  0  0  0  0
  6  7  1  0  0  0  0
  7  8  1  0  0  0  0
  7 29  1  0  0  0  0
  7 30  1  0  0  0  0
  8  9  1  0  0  0  0
  8 31  1  0  0  0  0
  8 32  1  0  0  0  0
  9 10  1  0  0  0  0
  9 33  1  0  0  0  0
  9 34  1  0  0  0  0
 10 11  1  0  0  0  0
 10 22  1  0  0  0  0
 10 35  1  0  0  0  0
 11 12  2  0  0  0  0
 11 13  1  0  0  0  0
 13 14  1  0  0  0  0
 13 36  1  0  0  0  0
 14 15  1  0  0  0  0
 14 37  1  0  0  0  0
 14 38  1  0  0  0  0
 15 16  1  0  0  0  0
 15 39  1  0  0  0  0
 15 40  1  0  0  0  0
 16 21  1  0  0  0  0
 16 17  2  0  0  0  0
 17 18  1  0  0  0  0
 17 41  1  0  0  0  0
 18 19  2  0  0  0  0
 18 42  1  0  0  0  0
 19 20  1  0  0  0  0
 19 43  1  0  0  0  0
 20 21  2  0  0  0  0
 20 44  1  0  0  0  0
 22 45  1  0  0  0  0
 22 46  1  0  0  0  0
M  END
> <s_m_source_file>
AV-unprocessed.smi

> <i_m_source_file_index>
1839

> <i_lp_mmshare_version>
43012

> <i_f3d_flags>
0

> <s_epik_input>
W0NIM11OKFtDSDNdKUMoPU8pTjFbQ0gyXVtDSDJdW0NIMl1bQ0BIXShbQ0gyXTEpQyg9TylbTkhdW0NIMl1bQ0gyXWMyW2NIXVtjSF1bY0hdW2NIXW4y

> <s_epik_cmdline>
J2VwaWtfcHl0aG9uJywgJy1waCcsICc3LjAnLCAnLXRuJywgJzgnLCAnLW1hJywgJzIwMCcsICctbWV0YWxfYmluZGluZycsICctaW1hZScsICc8aW5maWxlLm1hZT4nLCAnLW9tYWUnLCAnPG91dGZpbGUubWFlPic=

> <r_epik_Ionization_Penalty>
0.0268631

> <r_epik_Ionization_Penalty_Charging>
0

> <r_epik_Ionization_Penalty_Neutral>
0.0268631

> <r_epik_State_Penalty>
0.0219025

> <r_epik_Charging_Adjusted_Penalty>
0.0219025

> <i_epik_Tot_Q>
0

> <i_epik_Tot_abs_Q>
0

> <r_epik_Metal_State_Penalty>
0.0209511

> <b_epik_Metal_Only>
0

> <s_lp_Force_Field>
OPLS_2005

> <r_lp_Energy>
49.2306

> <b_lp_Chiralities_Consistent>
1

> <s_lp_Variant>
AV-unprocessed.smi:1839-1

> <Gold.Version>
5.8.1

> <Gold.Id.Protein>
6NUR|6NUR_protein|mol2

> <Gold.PLP.Fitness>
43.7012

> <Gold.PLP.PLP>
-36.1811

> <Gold.PLP.part.hbond>
-2.0000

> <Gold.PLP.part.metal>
0.0000

> <Gold.PLP.part.buried>
3.4690

> <Gold.PLP.part.nonpolar>
-40.3356

> <Gold.PLP.part.repulsive>
2.4127

> <Gold.PLP.ligand.clash>
0.0000

> <Gold.PLP.ligand.torsion>
1.2675

> <Gold.PLP.Chemscore.Hbond>
1.9100

> <Gold.PLP.Chemscore.CHOScore>
1.0000

> <Gold.PLP.Chemscore.Metal>
0.0000

> <Gold.Chemscore.Hbonds>
donor molecule, donor type, donor heavy atom, donor atom, acceptor molecule, acceptor atom, score
      P1  H  7954  7966       L1    12  0.96
      P1  H  7989  7998       L1     5  0.90
      L1  C    20    44       P1 10747  1.00

> <Gold.PLP.Chemscore.Internal.Correction>
1.3251

> <Gold.Rescore>
     Score         DG    S(hbond)    S(metal)    S(lipo)     H(rot)  DE(clash)    DE(int)     intcor
     13.10     -18.48       1.80        0.00      92.95       1.52       3.36       2.02       ----

> <Gold.Chemscore.Fitness>
13.1023

> <Gold.Chemscore.DG>
-18.4820

> <Gold.Chemscore.ZeroCoef>
-5.4800

> <Gold.Chemscore.Hbond>
1.7982

> <Gold.Chemscore.Metal>
0.0000

> <Gold.Chemscore.Lipo>
92.9528

> <Gold.Chemscore.Internal_Hbond>
0.0000

> <Gold.Chemscore.DEClash>
3.3563

> <Gold.Chemscore.DEInternal>
2.0233

> <Gold.Chemscore.Rot>
1.5155

> <Gold.Chemscore.Internal.Correction>
   9.000000E+99

> <Gold.Chemscore.Hbonds>
donor molecule, donor type, donor heavy atom, donor atom, acceptor molecule, acceptor atom, score
      P1  H  7954  7966       L1    12  0.87
      P1  H  7989  7998       L1     5  0.18

> <Gold.Chemscore.Hbond.Weighted>
-6.0061

> <Gold.Chemscore.Metal.Weighted>
-0.0000

> <Gold.Chemscore.Lipo.Weighted>
-10.8755

> <Gold.Chemscore.Internal_Hbond.Weighted>
0.0000

> <Gold.Chemscore.DEClash.Weighted>
3.3563

> <Gold.Chemscore.DEInternal.Weighted>
2.0233

> <Gold.Chemscore.Rot.Weighted>
3.8796

> <Gold.Chemscore.Internal.Correction.Weighted>
   9.000000E+99

> <Gold.Protein.RotatedTorsions>
[ 6907 6896 6895 6894 ] final  133.94 input  -60.11 | X-H torsion
[ 7974 7965 7964 7962 ] final  138.41 input  175.53 | X-H torsion
[ 8008 7997 7996 7995 ] final  -41.39 input   59.86 | X-H torsion
[ 10167 10162 10161 10158 ] final -109.04 input  -65.29 | X-H torsion
[ 10718 10713 10712 10709 ] final    2.75 input   66.30 | X-H torsion
[ 10763 10752 10751 10750 ] final   59.83 input  -60.55 | X-H torsion
[ 11005 11000 10999 10996 ] final  106.60 input  -57.11 | X-H torsion

> <Gold.Protein.ActiveResidues>
 VAL166  LYS551  ARG553  GLY616  TRP617  ASP618  TYR619  PRO620  LYS621  CYS622 
 ASP623  PHE694  ASN695  SER759  ASP760  ASP761  ALA762  ILE779  LEU786  VAL792 
 PHE793  MET794  SER795  GLU796  ALA797  LYS798  CYS799  TRP800  GLU811  SER814 

> <Gold.Protein.RotatedAtoms>
  152.3167  133.5809  159.5716 H   0  0  0  0  0  0  0  0  0  0  0  0  # atno 6907 bound_to 6896
  150.7350  134.0072  159.3666 H   0  0  0  0  0  0  0  0  0  0  0  0  # atno 6908 bound_to 6896
  151.7961  135.0723  160.0445 H   0  0  0  0  0  0  0  0  0  0  0  0  # atno 6909 bound_to 6896
  144.9375  139.4971  143.5588 H   0  0  0  0  0  0  0  0  0  0  0  0  # atno 7974 bound_to 7965
  154.4004  140.1500  156.3183 H   0  0  0  0  0  0  0  0  0  0  0  0  # atno 8008 bound_to 7997
  155.8553  140.3456  155.5699 H   0  0  0  0  0  0  0  0  0  0  0  0  # atno 8009 bound_to 7997
  155.7940  140.0860  157.1984 H   0  0  0  0  0  0  0  0  0  0  0  0  # atno 8010 bound_to 7997
  140.1596  143.4131  152.1435 H   0  0  0  0  0  0  0  0  0  0  0  0  # atno 10167 bound_to 10162
  156.8677  130.5609  149.5659 H   0  0  0  0  0  0  0  0  0  0  0  0  # atno 10718 bound_to 10713
  152.9905  135.5558  154.5776 H   0  0  0  0  0  0  0  0  0  0  0  0  # atno 10763 bound_to 10752
  154.5164  135.2805  155.1302 H   0  0  0  0  0  0  0  0  0  0  0  0  # atno 10764 bound_to 10752
  154.2673  135.6370  153.5349 H   0  0  0  0  0  0  0  0  0  0  0  0  # atno 10765 bound_to 10752
  139.8816  134.9374  156.5692 H   0  0  0  0  0  0  0  0  0  0  0  0  # atno 11005 bound_to 11000
  146.3272  139.8370  142.8897 LP  0  0  0  0  0  0  0  0  0  0  0  0  # atno 17320 bound_to 7965
  145.3044  141.0203  143.3590 LP  0  0  0  0  0  0  0  0  0  0  0  0  # atno 17321 bound_to 7965
  139.5387  144.7235  151.4805 LP  0  0  0  0  0  0  0  0  0  0  0  0  # atno 17342 bound_to 10162
  140.6651  143.8415  150.6933 LP  0  0  0  0  0  0  0  0  0  0  0  0  # atno 17343 bound_to 10162
  156.0743  130.5769  150.9443 LP  0  0  0  0  0  0  0  0  0  0  0  0  # atno 17370 bound_to 10713
  157.6214  131.0929  150.8616 LP  0  0  0  0  0  0  0  0  0  0  0  0  # atno 17371 bound_to 10713
  140.8111  133.8428  155.8811 LP  0  0  0  0  0  0  0  0  0  0  0  0  # atno 17394 bound_to 11000
  140.9505  134.1785  157.4731 LP  0  0  0  0  0  0  0  0  0  0  0  0  # atno 17395 bound_to 11000

$$$$
