AV-unprocessed.smi:1219|AV-procd|sdf|5113|dock10
  -GOLD-   22720 4173D 1   1.00000     0.00000
 Structure written by MMmdl.
 43 44  0  0  0  0  0  0  0  0  2 V2000
  144.6542  137.5311  152.5854 O   0  0  0  0  0  0  0  0  0  0  0  0
  145.8134  137.1950  152.3428 C   0  0  0  0  0  0  0  0  0  0  0  0
  146.8510  138.0440  152.3779 N   0  0  0  0  0  0  0  0  0  0  0  0
  146.7695  139.4659  152.7017 C   0  0  0  0  0  0  0  0  0  0  0  0
  147.7057  139.8788  153.8582 C   0  0  1  0  0  0  0  0  0  0  0  0
  148.9526  139.2461  153.6541 O   0  0  0  0  0  0  0  0  0  0  0  0
  147.9385  141.4025  153.9533 C   0  0  0  0  0  0  0  0  0  0  0  0
  148.5298  141.7951  155.2578 N   0  3  0  0  0  0  0  0  0  0  0  0
  147.7826  141.2348  156.4134 C   0  0  0  0  0  0  0  0  0  0  0  0
  148.3312  141.7770  157.7446 C   0  0  0  0  0  0  0  0  0  0  0  0
  149.8341  141.4977  157.8773 C   0  0  0  0  0  0  0  0  0  0  0  0
  150.5801  142.0507  156.6559 C   0  0  0  0  0  0  0  0  0  0  0  0
  149.9848  141.4962  155.3513 C   0  0  0  0  0  0  0  0  0  0  0  0
  146.2102  135.9549  152.0083 N   0  0  0  0  0  0  0  0  0  0  0  0
  145.4057  134.8027  151.8027 C   0  0  0  0  0  0  0  0  0  0  0  0
  146.1155  133.6306  151.4565 C   0  0  0  0  0  0  0  0  0  0  0  0
  145.4079  132.4352  151.2243 C   0  0  0  0  0  0  0  0  0  0  0  0
  144.0067  132.4432  151.3431 C   0  0  0  0  0  0  0  0  0  0  0  0
  143.3774  133.6527  151.6908 C   0  0  0  0  0  0  0  0  0  0  0  0
  144.0537  134.7996  151.9132 N   0  0  0  0  0  0  0  0  0  0  0  0
  147.7695  137.6776  152.1745 H   0  0  0  0  0  0  0  0  0  0  0  0
  146.9937  140.0482  151.8063 H   0  0  0  0  0  0  0  0  0  0  0  0
  145.7338  139.6872  152.9622 H   0  0  0  0  0  0  0  0  0  0  0  0
  147.3001  139.4946  154.7930 H   0  0  0  0  0  0  0  0  0  0  0  0
  149.1548  139.2630  152.7308 H   0  0  0  0  0  0  0  0  0  0  0  0
  148.5901  141.7074  153.1327 H   0  0  0  0  0  0  0  0  0  0  0  0
  147.0084  141.9555  153.8162 H   0  0  0  0  0  0  0  0  0  0  0  0
  146.7268  141.4966  156.3312 H   0  0  0  0  0  0  0  0  0  0  0  0
  147.8428  140.1453  156.3944 H   0  0  0  0  0  0  0  0  0  0  0  0
  148.1522  142.8514  157.8032 H   0  0  0  0  0  0  0  0  0  0  0  0
  147.7939  141.3281  158.5804 H   0  0  0  0  0  0  0  0  0  0  0  0
  150.2228  141.9465  158.7919 H   0  0  0  0  0  0  0  0  0  0  0  0
  150.0049  140.4234  157.9584 H   0  0  0  0  0  0  0  0  0  0  0  0
  150.5219  143.1400  156.6512 H   0  0  0  0  0  0  0  0  0  0  0  0
  151.6389  141.7976  156.7199 H   0  0  0  0  0  0  0  0  0  0  0  0
  150.1393  140.4171  155.3005 H   0  0  0  0  0  0  0  0  0  0  0  0
  150.5198  141.9274  154.5058 H   0  0  0  0  0  0  0  0  0  0  0  0
  147.2008  135.8219  151.8673 H   0  0  0  0  0  0  0  0  0  0  0  0
  147.1923  133.6419  151.3690 H   0  0  0  0  0  0  0  0  0  0  0  0
  145.9317  131.5289  150.9590 H   0  0  0  0  0  0  0  0  0  0  0  0
  143.4294  131.5466  151.1722 H   0  0  0  0  0  0  0  0  0  0  0  0
  142.3034  133.7021  151.7919 H   0  0  0  0  0  0  0  0  0  0  0  0
  148.4292  142.7986  155.3197 H   0  0  0  0  0  0  0  0  0  0  0  0
  1  2  2  0  0  0  0
  2  3  1  0  0  0  0
  2 14  1  0  0  0  0
  3  4  1  0  0  0  0
  3 21  1  0  0  0  0
  4  5  1  0  0  0  0
  4 22  1  0  0  0  0
  4 23  1  0  0  0  0
  5  6  1  0  0  0  0
  5  7  1  0  0  0  0
  5 24  1  0  0  0  0
  6 25  1  0  0  0  0
  7  8  1  0  0  0  0
  7 26  1  0  0  0  0
  7 27  1  0  0  0  0
  8 13  1  0  0  0  0
  8  9  1  0  0  0  0
  8 43  1  0  0  0  0
  9 10  1  0  0  0  0
  9 28  1  0  0  0  0
  9 29  1  0  0  0  0
 10 11  1  0  0  0  0
 10 30  1  0  0  0  0
 10 31  1  0  0  0  0
 11 12  1  0  0  0  0
 11 32  1  0  0  0  0
 11 33  1  0  0  0  0
 12 13  1  0  0  0  0
 12 34  1  0  0  0  0
 12 35  1  0  0  0  0
 13 36  1  0  0  0  0
 13 37  1  0  0  0  0
 14 15  1  0  0  0  0
 14 38  1  0  0  0  0
 15 20  1  0  0  0  0
 15 16  2  0  0  0  0
 16 17  1  0  0  0  0
 16 39  1  0  0  0  0
 17 18  2  0  0  0  0
 17 40  1  0  0  0  0
 18 19  1  0  0  0  0
 18 41  1  0  0  0  0
 19 20  2  0  0  0  0
 19 42  1  0  0  0  0
M  CHG  1   8   1
M  END
> <s_m_source_file>
AV-unprocessed.smi

> <i_m_source_file_index>
1219

> <i_lp_mmshare_version>
43012

> <i_f3d_flags>
0

> <s_epik_input>
bjFbY0hdW2NIXVtjSF1bY0hdYzFbTkhdQyg9TylbTkhdW0NIMl1bQ0BIXShbT0hdKVtDSDJdTjJbQ0gyXVtDSDJdW0NIMl1bQ0gyXVtDSDJdMg==

> <s_epik_cmdline>
J2VwaWtfcHl0aG9uJywgJy1waCcsICc3LjAnLCAnLXRuJywgJzgnLCAnLW1hJywgJzIwMCcsICctbWV0YWxfYmluZGluZycsICctaW1hZScsICc8aW5maWxlLm1hZT4nLCAnLW9tYWUnLCAnPG91dGZpbGUubWFlPic=

> <r_epik_Ionization_Penalty>
0.00510026

> <r_epik_Ionization_Penalty_Charging>
0.00506051

> <r_epik_Ionization_Penalty_Neutral>
3.97538e-05

> <r_epik_State_Penalty>
0.00368188

> <r_epik_Charging_Adjusted_Penalty>
0.0087424

> <i_epik_Tot_Q>
1

> <i_epik_Tot_abs_Q>
1

> <r_epik_Metal_State_Penalty>
-0

> <b_epik_Metal_Only>
0

> <s_lp_Force_Field>
OPLS_2005

> <r_lp_Energy>
19.3775

> <b_lp_Chiralities_Consistent>
1

> <s_lp_Variant>
AV-unprocessed.smi:1219-2

> <Gold.Version>
5.8.1

> <Gold.Id.Protein>
6NUR|6NUR_protein|mol2

> <Gold.PLP.Fitness>
51.1510

> <Gold.PLP.PLP>
-34.3458

> <Gold.PLP.part.hbond>
-3.9151

> <Gold.PLP.part.metal>
0.0000

> <Gold.PLP.part.buried>
-5.5226

> <Gold.PLP.part.nonpolar>
-27.4651

> <Gold.PLP.part.repulsive>
1.8875

> <Gold.PLP.ligand.clash>
0.0000

> <Gold.PLP.ligand.torsion>
0.3475

> <Gold.PLP.Chemscore.Hbond>
4.8960

> <Gold.PLP.Chemscore.CHOScore>
0.9210

> <Gold.PLP.Chemscore.Metal>
0.0000

> <Gold.Chemscore.Hbonds>
donor molecule, donor type, donor heavy atom, donor atom, acceptor molecule, acceptor atom, score
      L1  H     3    21       P1  7948  1.00
      L1  H     6    25       P1  7957  1.00
      L1  H     8    43       P1  8028  2.00
      L1  H    14    38       P1  7948  1.00
      L1  C    19    42       P1 10186  0.37

> <Gold.PLP.Chemscore.Internal.Correction>
0.0492

> <Gold.Rescore>
     Score         DG    S(hbond)    S(metal)    S(lipo)     H(rot)  DE(clash)    DE(int)     intcor
     18.81     -20.81       3.89        0.00      72.54       2.41       0.26       1.75       ----

> <Gold.Chemscore.Fitness>
18.8105

> <Gold.Chemscore.DG>
-20.8145

> <Gold.Chemscore.ZeroCoef>
-5.4800

> <Gold.Chemscore.Hbond>
3.8946

> <Gold.Chemscore.Metal>
0.0000

> <Gold.Chemscore.Lipo>
72.5446

> <Gold.Chemscore.Internal_Hbond>
0.0000

> <Gold.Chemscore.DEClash>
0.2556

> <Gold.Chemscore.DEInternal>
1.7483

> <Gold.Chemscore.Rot>
2.4067

> <Gold.Chemscore.Internal.Correction>
   9.000000E+99

> <Gold.Chemscore.Hbonds>
donor molecule, donor type, donor heavy atom, donor atom, acceptor molecule, acceptor atom, score
      L1  H     3    21       P1  7948  0.96
      L1  H     6    25       P1  7957  0.99
      L1  H     8    43       P1  8028  0.97
      L1  H    14    38       P1  7948  0.99

> <Gold.Chemscore.Hbond.Weighted>
-13.0080

> <Gold.Chemscore.Metal.Weighted>
-0.0000

> <Gold.Chemscore.Lipo.Weighted>
-8.4877

> <Gold.Chemscore.Internal_Hbond.Weighted>
0.0000

> <Gold.Chemscore.DEClash.Weighted>
0.2556

> <Gold.Chemscore.DEInternal.Weighted>
1.7483

> <Gold.Chemscore.Rot.Weighted>
6.1612

> <Gold.Chemscore.Internal.Correction.Weighted>
   9.000000E+99

> <Gold.Protein.RotatedTorsions>
[ 6907 6896 6895 6894 ] final  -96.22 input  -60.11 | X-H torsion
[ 7974 7965 7964 7962 ] final  -47.76 input  175.53 | X-H torsion
[ 8008 7997 7996 7995 ] final  -33.32 input   59.86 | X-H torsion
[ 10167 10162 10161 10158 ] final  110.83 input  -65.29 | X-H torsion
[ 10718 10713 10712 10709 ] final -156.92 input   66.30 | X-H torsion
[ 10763 10752 10751 10750 ] final  -55.18 input  -60.55 | X-H torsion
[ 11005 11000 10999 10996 ] final   84.51 input  -57.11 | X-H torsion

> <Gold.Protein.ActiveResidues>
 VAL166  LYS551  ARG553  GLY616  TRP617  ASP618  TYR619  PRO620  LYS621  CYS622 
 ASP623  PHE694  ASN695  SER759  ASP760  ASP761  ALA762  ILE779  LEU786  VAL792 
 PHE793  MET794  SER795  GLU796  ALA797  LYS798  CYS799  TRP800  GLU811  SER814 

> <Gold.Protein.RotatedAtoms>
  150.6983  134.1537  159.4149 H   0  0  0  0  0  0  0  0  0  0  0  0  # atno 6907 bound_to 6896
  151.9519  135.0163  160.0552 H   0  0  0  0  0  0  0  0  0  0  0  0  # atno 6908 bound_to 6896
  152.2003  133.4801  159.5092 H   0  0  0  0  0  0  0  0  0  0  0  0  # atno 6909 bound_to 6896
  145.9582  140.7505  142.9470 H   0  0  0  0  0  0  0  0  0  0  0  0  # atno 7974 bound_to 7965
  154.4152  140.1714  156.1869 H   0  0  0  0  0  0  0  0  0  0  0  0  # atno 8008 bound_to 7997
  155.9636  140.3391  155.6488 H   0  0  0  0  0  0  0  0  0  0  0  0  # atno 8009 bound_to 7997
  155.6717  140.0712  157.2508 H   0  0  0  0  0  0  0  0  0  0  0  0  # atno 8010 bound_to 7997
  139.6658  144.7127  151.1779 H   0  0  0  0  0  0  0  0  0  0  0  0  # atno 10167 bound_to 10162
  156.5331  130.8530  151.2723 H   0  0  0  0  0  0  0  0  0  0  0  0  # atno 10718 bound_to 10713
  154.1866  135.6434  153.5048 H   0  0  0  0  0  0  0  0  0  0  0  0  # atno 10763 bound_to 10752
  153.0045  135.5419  154.6458 H   0  0  0  0  0  0  0  0  0  0  0  0  # atno 10764 bound_to 10752
  154.5836  135.2927  155.0680 H   0  0  0  0  0  0  0  0  0  0  0  0  # atno 10765 bound_to 10752
  139.8998  134.8221  156.2455 H   0  0  0  0  0  0  0  0  0  0  0  0  # atno 11005 bound_to 11000
  144.6809  140.2547  143.7327 LP  0  0  0  0  0  0  0  0  0  0  0  0  # atno 17320 bound_to 7965
  145.8077  139.1990  143.2011 LP  0  0  0  0  0  0  0  0  0  0  0  0  # atno 17321 bound_to 7965
  140.7599  143.5921  150.8785 LP  0  0  0  0  0  0  0  0  0  0  0  0  # atno 17342 bound_to 10162
  139.9583  143.6193  152.3010 LP  0  0  0  0  0  0  0  0  0  0  0  0  # atno 17343 bound_to 10162
  157.7418  130.9878  150.2472 LP  0  0  0  0  0  0  0  0  0  0  0  0  # atno 17370 bound_to 10713
  156.3041  130.3762  149.7723 LP  0  0  0  0  0  0  0  0  0  0  0  0  # atno 17371 bound_to 10713
  141.0257  133.7016  156.1344 LP  0  0  0  0  0  0  0  0  0  0  0  0  # atno 17394 bound_to 11000
  140.7169  134.4401  157.5578 LP  0  0  0  0  0  0  0  0  0  0  0  0  # atno 17395 bound_to 11000

$$$$
