AV-unprocessed.smi:2717|AV-procd|sdf|10485|dock9
  -GOLD-   2272014533D 1   1.00000     0.00000
 Structure written by MMmdl.
 43 44  0  0  0  0  0  0  0  0  1 V2000
  144.2719  135.6929  151.1054 C   0  0  0  0  0  0  0  0  0  0  0  0
  145.0197  135.9877  152.4102 C   0  0  0  0  0  0  0  0  0  0  0  0
  145.7612  137.2817  152.3667 C   0  0  0  0  0  0  0  0  0  0  0  0
  146.2918  137.8632  153.4460 N   0  0  0  0  0  0  0  0  0  0  0  0
  146.9615  139.0522  153.1416 C   0  0  0  0  0  0  0  0  0  0  0  0
  147.5989  139.8569  154.2369 C   0  0  0  0  0  0  0  0  0  0  0  0
  148.2928  141.1395  153.7345 C   0  0  0  0  0  0  0  0  0  0  0  0
  148.8523  141.9458  154.8155 N   0  0  0  0  0  0  0  0  0  0  0  0
  149.9388  141.6252  155.5309 C   0  0  0  0  0  0  0  0  0  0  0  0
  150.5797  140.5842  155.3838 O   0  0  0  0  0  0  0  0  0  0  0  0
  150.2550  142.5865  156.4095 N   0  0  0  0  0  0  0  0  0  0  0  0
  151.4162  142.5686  157.2931 C   0  0  2  0  0  0  0  0  0  0  0  0
  151.2813  141.4107  158.2984 C   0  0  0  0  0  0  0  0  0  0  0  0
  152.4571  141.3838  159.2909 C   0  0  0  0  0  0  0  0  0  0  0  0
  152.6395  142.7305  160.0159 C   0  0  2  0  0  0  0  0  0  0  0  0
  151.5723  142.9449  160.9183 O   0  0  0  0  0  0  0  0  0  0  0  0
  152.7301  143.9023  159.0206 C   0  0  0  0  0  0  0  0  0  0  0  0
  151.5541  143.9173  158.0283 C   0  0  0  0  0  0  0  0  0  0  0  0
  146.9440  139.3564  151.8030 C   0  0  0  0  0  0  0  0  0  0  0  0
  146.0806  138.1614  150.8762 S   0  0  0  0  0  0  0  0  0  0  0  0
  143.7398  134.7436  151.1682 H   0  0  0  0  0  0  0  0  0  0  0  0
  144.9605  135.6339  150.2619 H   0  0  0  0  0  0  0  0  0  0  0  0
  143.5403  136.4716  150.8876 H   0  0  0  0  0  0  0  0  0  0  0  0
  144.3167  136.0165  153.2432 H   0  0  0  0  0  0  0  0  0  0  0  0
  145.7253  135.1837  152.6243 H   0  0  0  0  0  0  0  0  0  0  0  0
  146.8519  140.1261  154.9843 H   0  0  0  0  0  0  0  0  0  0  0  0
  148.3267  139.2404  154.7657 H   0  0  0  0  0  0  0  0  0  0  0  0
  149.1171  140.8688  153.0743 H   0  0  0  0  0  0  0  0  0  0  0  0
  147.6031  141.7378  153.1375 H   0  0  0  0  0  0  0  0  0  0  0  0
  148.3972  142.8262  155.0085 H   0  0  0  0  0  0  0  0  0  0  0  0
  149.6651  143.4046  156.4517 H   0  0  0  0  0  0  0  0  0  0  0  0
  152.3152  142.3971  156.6973 H   0  0  0  0  0  0  0  0  0  0  0  0
  150.3436  141.5050  158.8482 H   0  0  0  0  0  0  0  0  0  0  0  0
  151.2311  140.4594  157.7672 H   0  0  0  0  0  0  0  0  0  0  0  0
  152.3190  140.5796  160.0146 H   0  0  0  0  0  0  0  0  0  0  0  0
  153.3722  141.1472  158.7466 H   0  0  0  0  0  0  0  0  0  0  0  0
  153.5543  142.6953  160.6084 H   0  0  0  0  0  0  0  0  0  0  0  0
  151.9293  143.2411  161.7414 H   0  0  0  0  0  0  0  0  0  0  0  0
  152.7802  144.8511  159.5560 H   0  0  0  0  0  0  0  0  0  0  0  0
  153.6626  143.8211  158.4607 H   0  0  0  0  0  0  0  0  0  0  0  0
  151.6968  144.7253  157.3096 H   0  0  0  0  0  0  0  0  0  0  0  0
  150.6300  144.1432  158.5624 H   0  0  0  0  0  0  0  0  0  0  0  0
  147.3819  140.2117  151.3097 H   0  0  0  0  0  0  0  0  0  0  0  0
  1  2  1  0  0  0  0
  1 21  1  0  0  0  0
  1 22  1  0  0  0  0
  1 23  1  0  0  0  0
  2  3  1  0  0  0  0
  2 24  1  0  0  0  0
  2 25  1  0  0  0  0
  3 20  1  0  0  0  0
  3  4  2  0  0  0  0
  4  5  1  0  0  0  0
  5  6  1  0  0  0  0
  5 19  2  0  0  0  0
  6  7  1  0  0  0  0
  6 26  1  0  0  0  0
  6 27  1  0  0  0  0
  7  8  1  0  0  0  0
  7 28  1  0  0  0  0
  7 29  1  0  0  0  0
  8  9  1  0  0  0  0
  8 30  1  0  0  0  0
  9 10  2  0  0  0  0
  9 11  1  0  0  0  0
 11 12  1  0  0  0  0
 11 31  1  0  0  0  0
 12 18  1  0  0  0  0
 12 13  1  0  0  0  0
 12 32  1  0  0  0  0
 13 14  1  0  0  0  0
 13 33  1  0  0  0  0
 13 34  1  0  0  0  0
 14 15  1  0  0  0  0
 14 35  1  0  0  0  0
 14 36  1  0  0  0  0
 15 16  1  0  0  0  0
 15 17  1  0  0  0  0
 15 37  1  0  0  0  0
 16 38  1  0  0  0  0
 17 18  1  0  0  0  0
 17 39  1  0  0  0  0
 17 40  1  0  0  0  0
 18 41  1  0  0  0  0
 18 42  1  0  0  0  0
 19 20  1  0  0  0  0
 19 43  1  0  0  0  0
M  END
> <s_m_source_file>
AV-unprocessed.smi

> <i_m_source_file_index>
2717

> <i_lp_mmshare_version>
43012

> <i_f3d_flags>
0

> <s_epik_input>
W0NIM11bQ0gyXWMxbmMoW2NIXXMxKVtDSDJdW0NIMl1bTkhdQyg9TylbTkhdW0NAQEhdMltDSDJdW0NIMl1bQ0BASF0oW09IXSlbQ0gyXVtDSDJdMg==

> <s_epik_cmdline>
J2VwaWtfcHl0aG9uJywgJy1waCcsICc3LjAnLCAnLXRuJywgJzgnLCAnLW1hJywgJzIwMCcsICctbWV0YWxfYmluZGluZycsICctaW1hZScsICc8aW5maWxlLm1hZT4nLCAnLW9tYWUnLCAnPG91dGZpbGUubWFlPic=

> <r_epik_Ionization_Penalty>
0.00202099

> <r_epik_Ionization_Penalty_Charging>
0

> <r_epik_Ionization_Penalty_Neutral>
0.00202099

> <r_epik_State_Penalty>
0.00133629

> <r_epik_Charging_Adjusted_Penalty>
0.00133629

> <i_epik_Tot_Q>
0

> <i_epik_Tot_abs_Q>
0

> <r_epik_Metal_State_Penalty>
-0

> <b_epik_Metal_Only>
0

> <s_lp_Force_Field>
OPLS_2005

> <r_lp_Energy>
0.0101123

> <b_lp_Chiralities_Consistent>
1

> <s_lp_Variant>
AV-unprocessed.smi:2717-2

> <Gold.Version>
5.8.1

> <Gold.Id.Protein>
6NUR|6NUR_protein|mol2

> <Gold.PLP.Fitness>
49.6070

> <Gold.PLP.PLP>
-40.2983

> <Gold.PLP.part.hbond>
-3.7352

> <Gold.PLP.part.metal>
0.0000

> <Gold.PLP.part.buried>
4.1678

> <Gold.PLP.part.nonpolar>
-39.6945

> <Gold.PLP.part.repulsive>
0.5616

> <Gold.PLP.ligand.clash>
0.0000

> <Gold.PLP.ligand.torsion>
0.2599

> <Gold.PLP.Chemscore.Hbond>
2.6507

> <Gold.PLP.Chemscore.CHOScore>
0.6167

> <Gold.PLP.Chemscore.Metal>
0.0000

> <Gold.Chemscore.Hbonds>
donor molecule, donor type, donor heavy atom, donor atom, acceptor molecule, acceptor atom, score
      L1  H     8    30       P1  8028  0.78
      L1  H    11    31       P1  8028  1.00
      P1  H  6933  6945       L1    16  0.02
      P1  H  7989  7998       L1    10  0.61
      L1  C    19    43       P1  7957  0.65

> <Gold.PLP.Chemscore.Internal.Correction>
0.0261

> <Gold.Rescore>
     Score         DG    S(hbond)    S(metal)    S(lipo)     H(rot)  DE(clash)    DE(int)     intcor
     17.07     -20.83       2.09        0.00     119.78       2.21       2.51       1.24       ----

> <Gold.Chemscore.Fitness>
17.0743

> <Gold.Chemscore.DG>
-20.8284

> <Gold.Chemscore.ZeroCoef>
-5.4800

> <Gold.Chemscore.Hbond>
2.0923

> <Gold.Chemscore.Metal>
0.0000

> <Gold.Chemscore.Lipo>
119.7758

> <Gold.Chemscore.Internal_Hbond>
0.0000

> <Gold.Chemscore.DEClash>
2.5142

> <Gold.Chemscore.DEInternal>
1.2399

> <Gold.Chemscore.Rot>
2.2084

> <Gold.Chemscore.Internal.Correction>
   9.000000E+99

> <Gold.Chemscore.Hbonds>
donor molecule, donor type, donor heavy atom, donor atom, acceptor molecule, acceptor atom, score
      L1  H     8    30       P1  8028  0.73
      L1  H    11    31       P1  8028  0.94
      P1  H  7989  7998       L1    10  0.26

> <Gold.Chemscore.Hbond.Weighted>
-6.9881

> <Gold.Chemscore.Metal.Weighted>
-0.0000

> <Gold.Chemscore.Lipo.Weighted>
-14.0138

> <Gold.Chemscore.Internal_Hbond.Weighted>
0.0000

> <Gold.Chemscore.DEClash.Weighted>
2.5142

> <Gold.Chemscore.DEInternal.Weighted>
1.2399

> <Gold.Chemscore.Rot.Weighted>
5.6535

> <Gold.Chemscore.Internal.Correction.Weighted>
   9.000000E+99

> <Gold.Protein.RotatedTorsions>
[ 6907 6896 6895 6894 ] final   -8.18 input  -60.11 | X-H torsion
[ 7974 7965 7964 7962 ] final  178.50 input  175.53 | X-H torsion
[ 8008 7997 7996 7995 ] final   33.03 input   59.86 | X-H torsion
[ 10167 10162 10161 10158 ] final  -99.26 input  -65.29 | X-H torsion
[ 10718 10713 10712 10709 ] final -101.90 input   66.30 | X-H torsion
[ 10763 10752 10751 10750 ] final  153.13 input  -60.55 | X-H torsion
[ 11005 11000 10999 10996 ] final  -96.68 input  -57.11 | X-H torsion

> <Gold.Protein.ActiveResidues>
 VAL166  LYS551  ARG553  GLY616  TRP617  ASP618  TYR619  PRO620  LYS621  CYS622 
 ASP623  PHE694  ASN695  SER759  ASP760  ASP761  ALA762  ILE779  LEU786  VAL792 
 PHE793  MET794  SER795  GLU796  ALA797  LYS798  CYS799  TRP800  GLU811  SER814 

> <Gold.Protein.RotatedAtoms>
  151.4377  135.1017  159.9660 H   0  0  0  0  0  0  0  0  0  0  0  0  # atno 6907 bound_to 6896
  152.4934  133.8558  159.7235 H   0  0  0  0  0  0  0  0  0  0  0  0  # atno 6908 bound_to 6896
  150.9110  133.6939  159.2882 H   0  0  0  0  0  0  0  0  0  0  0  0  # atno 6909 bound_to 6896
  144.7155  140.0407  143.6437 H   0  0  0  0  0  0  0  0  0  0  0  0  # atno 7974 bound_to 7965
  155.1320  140.3258  155.4472 H   0  0  0  0  0  0  0  0  0  0  0  0  # atno 8008 bound_to 7997
  156.2631  140.2008  156.6388 H   0  0  0  0  0  0  0  0  0  0  0  0  # atno 8009 bound_to 7997
  154.6605  140.0548  157.0043 H   0  0  0  0  0  0  0  0  0  0  0  0  # atno 8010 bound_to 7997
  140.2643  143.3386  152.0596 H   0  0  0  0  0  0  0  0  0  0  0  0  # atno 10167 bound_to 10162
  156.0210  130.5395  150.7031 H   0  0  0  0  0  0  0  0  0  0  0  0  # atno 10718 bound_to 10713
  154.1312  135.2826  155.3184 H   0  0  0  0  0  0  0  0  0  0  0  0  # atno 10763 bound_to 10752
  154.6354  135.5421  153.7731 H   0  0  0  0  0  0  0  0  0  0  0  0  # atno 10764 bound_to 10752
  153.0280  135.6473  154.1462 H   0  0  0  0  0  0  0  0  0  0  0  0  # atno 10765 bound_to 10752
  141.1403  133.8116  157.0604 H   0  0  0  0  0  0  0  0  0  0  0  0  # atno 11005 bound_to 11000
  146.0026  139.3103  143.0918 LP  0  0  0  0  0  0  0  0  0  0  0  0  # atno 17320 bound_to 7965
  145.8776  140.9382  143.0618 LP  0  0  0  0  0  0  0  0  0  0  0  0  # atno 17321 bound_to 7965
  139.5007  144.6698  151.6269 LP  0  0  0  0  0  0  0  0  0  0  0  0  # atno 17342 bound_to 10162
  140.5941  143.9728  150.6343 LP  0  0  0  0  0  0  0  0  0  0  0  0  # atno 17343 bound_to 10162
  157.4686  131.0891  151.0667 LP  0  0  0  0  0  0  0  0  0  0  0  0  # atno 17370 bound_to 10713
  157.1134  130.6031  149.5487 LP  0  0  0  0  0  0  0  0  0  0  0  0  # atno 17371 bound_to 10713
  140.0575  134.9773  157.1245 LP  0  0  0  0  0  0  0  0  0  0  0  0  # atno 17394 bound_to 11000
  140.3898  134.2197  155.7166 LP  0  0  0  0  0  0  0  0  0  0  0  0  # atno 17395 bound_to 11000

$$$$
