AV-unprocessed.smi:454|AV-procd|sdf|2613|dock7
  -GOLD-   2262023 13D 1   1.00000     0.00000
 Structure written by MMmdl.
 44 45  0  0  0  0  0  0  0  0  2 V2000
  144.6121  132.6334  149.9754 C   0  0  0  0  0  0  0  0  0  0  0  0
  144.1631  133.4904  151.0096 O   0  0  0  0  0  0  0  0  0  0  0  0
  144.9235  134.6840  151.1005 C   0  0  0  0  0  0  0  0  0  0  0  0
  144.2589  135.6578  152.0860 C   0  0  0  0  0  0  0  0  0  0  0  0
  144.8062  137.0068  151.9927 N   0  0  0  0  0  0  0  0  0  0  0  0
  145.6993  137.4910  152.9595 C   0  0  0  0  0  0  0  0  0  0  0  0
  145.7576  136.8374  154.2101 C   0  0  0  0  0  0  0  0  0  0  0  0
  146.6652  137.3035  155.1814 C   0  0  0  0  0  0  0  0  0  0  0  0
  147.4752  138.4089  154.8598 C   0  0  0  0  0  0  0  0  0  0  0  0
  148.6907  139.0234  156.0141 S   0  0  0  0  0  0  0  0  0  0  0  0
  148.3409  138.5002  157.3435 O   0  0  0  0  0  0  0  0  0  0  0  0
  150.0393  138.8112  155.4663 O   0  0  0  0  0  0  0  0  0  0  0  0
  148.3700  140.7308  156.0127 N   0  0  0  0  0  0  0  0  0  0  0  0
  147.9471  141.3603  157.2754 C   0  0  0  0  0  0  0  0  0  0  0  0
  149.1779  141.7544  158.1104 C   0  0  0  0  0  0  0  0  0  0  0  0
  150.0518  142.6722  157.3413 N   0  3  0  0  0  0  0  0  0  0  0  0
  151.1900  143.1757  158.1391 C   0  0  0  0  0  0  0  0  0  0  0  0
  150.4820  142.0425  156.0701 C   0  0  0  0  0  0  0  0  0  0  0  0
  149.2634  141.6069  155.2315 C   0  0  0  0  0  0  0  0  0  0  0  0
  147.3419  139.0093  153.5933 C   0  0  0  0  0  0  0  0  0  0  0  0
  146.4720  138.5643  152.6627 N   0  0  0  0  0  0  0  0  0  0  0  0
  143.9956  131.7349  149.9520 H   0  0  0  0  0  0  0  0  0  0  0  0
  145.6466  132.3278  150.1374 H   0  0  0  0  0  0  0  0  0  0  0  0
  144.5374  133.1185  149.0012 H   0  0  0  0  0  0  0  0  0  0  0  0
  145.9232  134.4379  151.4611 H   0  0  0  0  0  0  0  0  0  0  0  0
  145.0389  135.1489  150.1197 H   0  0  0  0  0  0  0  0  0  0  0  0
  143.1749  135.6555  151.9679 H   0  0  0  0  0  0  0  0  0  0  0  0
  144.4500  135.3121  153.1019 H   0  0  0  0  0  0  0  0  0  0  0  0
  144.3003  137.6777  151.4330 H   0  0  0  0  0  0  0  0  0  0  0  0
  145.1258  135.9868  154.4211 H   0  0  0  0  0  0  0  0  0  0  0  0
  146.7388  136.8144  156.1411 H   0  0  0  0  0  0  0  0  0  0  0  0
  147.3513  142.2454  157.0475 H   0  0  0  0  0  0  0  0  0  0  0  0
  147.2974  140.6886  157.8360 H   0  0  0  0  0  0  0  0  0  0  0  0
  148.8521  142.2458  159.0278 H   0  0  0  0  0  0  0  0  0  0  0  0
  149.7383  140.8660  158.4070 H   0  0  0  0  0  0  0  0  0  0  0  0
  151.8416  142.3584  158.4515 H   0  0  0  0  0  0  0  0  0  0  0  0
  150.8352  143.6913  159.0321 H   0  0  0  0  0  0  0  0  0  0  0  0
  151.7831  143.8839  157.5593 H   0  0  0  0  0  0  0  0  0  0  0  0
  151.0785  142.7538  155.4976 H   0  0  0  0  0  0  0  0  0  0  0  0
  151.1314  141.1927  156.2821 H   0  0  0  0  0  0  0  0  0  0  0  0
  149.5863  141.0966  154.3238 H   0  0  0  0  0  0  0  0  0  0  0  0
  148.7007  142.4842  154.9100 H   0  0  0  0  0  0  0  0  0  0  0  0
  147.9522  139.8559  153.3154 H   0  0  0  0  0  0  0  0  0  0  0  0
  149.4897  143.4746  157.0951 H   0  0  0  0  0  0  0  0  0  0  0  0
  1  2  1  0  0  0  0
  1 22  1  0  0  0  0
  1 23  1  0  0  0  0
  1 24  1  0  0  0  0
  2  3  1  0  0  0  0
  3  4  1  0  0  0  0
  3 25  1  0  0  0  0
  3 26  1  0  0  0  0
  4  5  1  0  0  0  0
  4 27  1  0  0  0  0
  4 28  1  0  0  0  0
  5  6  1  0  0  0  0
  5 29  1  0  0  0  0
  6 21  1  0  0  0  0
  6  7  2  0  0  0  0
  7  8  1  0  0  0  0
  7 30  1  0  0  0  0
  8  9  2  0  0  0  0
  8 31  1  0  0  0  0
  9 10  1  0  0  0  0
  9 20  1  0  0  0  0
 10 11  2  0  0  0  0
 10 12  2  0  0  0  0
 10 13  1  0  0  0  0
 13 19  1  0  0  0  0
 13 14  1  0  0  0  0
 14 15  1  0  0  0  0
 14 32  1  0  0  0  0
 14 33  1  0  0  0  0
 15 16  1  0  0  0  0
 15 34  1  0  0  0  0
 15 35  1  0  0  0  0
 16 17  1  0  0  0  0
 16 18  1  0  0  0  0
 16 44  1  0  0  0  0
 17 36  1  0  0  0  0
 17 37  1  0  0  0  0
 17 38  1  0  0  0  0
 18 19  1  0  0  0  0
 18 39  1  0  0  0  0
 18 40  1  0  0  0  0
 19 41  1  0  0  0  0
 19 42  1  0  0  0  0
 20 21  2  0  0  0  0
 20 43  1  0  0  0  0
M  CHG  1  16   1
M  END
> <s_m_source_file>
AV-unprocessed.smi

> <i_m_source_file_index>
454

> <i_lp_mmshare_version>
43012

> <i_f3d_flags>
0

> <s_epik_input>
W0NIM11PW0NIMl1bQ0gyXVtOSF1jMVtjSF1bY0hdYyhbY0hdbjEpUyg9TykoPU8pTjJbQ0gyXVtDSDJdTihbQ0gzXSlbQ0gyXVtDSDJdMg==

> <s_epik_cmdline>
J2VwaWtfcHl0aG9uJywgJy1waCcsICc3LjAnLCAnLXRuJywgJzgnLCAnLW1hJywgJzIwMCcsICctbWV0YWxfYmluZGluZycsICctaW1hZScsICc8aW5maWxlLm1hZT4nLCAnLW9tYWUnLCAnPG91dGZpbGUubWFlPic=

> <r_lp_tautomer_probability>
1

> <r_epik_Ionization_Penalty>
1.23801

> <r_epik_Ionization_Penalty_Charging>
1.23786

> <r_epik_Ionization_Penalty_Neutral>
0.00015121

> <r_epik_State_Penalty>
1.30655

> <r_epik_Charging_Adjusted_Penalty>
2.54442

> <i_epik_Tot_Q>
1

> <i_epik_Tot_abs_Q>
1

> <r_epik_Metal_State_Penalty>
1.30672

> <b_epik_Metal_Only>
0

> <s_lp_Force_Field>
OPLS_2005

> <r_lp_Energy>
1.84277

> <b_lp_Chiralities_Consistent>
1

> <s_lp_Variant>
AV-unprocessed.smi:454-2

> <Gold.Version>
5.8.1

> <Gold.Id.Protein>
6NUR|6NUR_protein|mol2

> <Gold.PLP.Fitness>
37.7633

> <Gold.PLP.PLP>
-26.6216

> <Gold.PLP.part.hbond>
-2.0000

> <Gold.PLP.part.metal>
0.0000

> <Gold.PLP.part.buried>
-6.8420

> <Gold.PLP.part.nonpolar>
-18.6878

> <Gold.PLP.part.repulsive>
0.6612

> <Gold.PLP.ligand.clash>
0.0000

> <Gold.PLP.ligand.torsion>
1.7778

> <Gold.PLP.Chemscore.Hbond>
3.0000

> <Gold.PLP.Chemscore.CHOScore>
1.0000

> <Gold.PLP.Chemscore.Metal>
0.0000

> <Gold.Chemscore.Hbonds>
donor molecule, donor type, donor heavy atom, donor atom, acceptor molecule, acceptor atom, score
      L1  H     5    29       P1 10171  1.00
      L1  H    16    44       P1  8028  1.92
      L1  C    20    43       P1  7957  0.50

> <Gold.PLP.Chemscore.Internal.Correction>
2.6974

> <Gold.Rescore>
     Score         DG    S(hbond)    S(metal)    S(lipo)     H(rot)  DE(clash)    DE(int)     intcor
     13.16     -15.32       1.99        0.00      63.41       1.65       0.03       2.13       ----

> <Gold.Chemscore.Fitness>
13.1571

> <Gold.Chemscore.DG>
-15.3165

> <Gold.Chemscore.ZeroCoef>
-5.4800

> <Gold.Chemscore.Hbond>
1.9879

> <Gold.Chemscore.Metal>
0.0000

> <Gold.Chemscore.Lipo>
63.4073

> <Gold.Chemscore.Internal_Hbond>
0.0000

> <Gold.Chemscore.DEClash>
0.0255

> <Gold.Chemscore.DEInternal>
2.1339

> <Gold.Chemscore.Rot>
1.6491

> <Gold.Chemscore.Internal.Correction>
   9.000000E+99

> <Gold.Chemscore.Hbonds>
donor molecule, donor type, donor heavy atom, donor atom, acceptor molecule, acceptor atom, score
      L1  H     5    29       P1 10171  0.98
      L1  H    16    44       P1  8028  0.81

> <Gold.Chemscore.Hbond.Weighted>
-6.6396

> <Gold.Chemscore.Metal.Weighted>
-0.0000

> <Gold.Chemscore.Lipo.Weighted>
-7.4187

> <Gold.Chemscore.Internal_Hbond.Weighted>
0.0000

> <Gold.Chemscore.DEClash.Weighted>
0.0255

> <Gold.Chemscore.DEInternal.Weighted>
2.1339

> <Gold.Chemscore.Rot.Weighted>
4.2218

> <Gold.Chemscore.Internal.Correction.Weighted>
   9.000000E+99

> <Gold.Protein.RotatedTorsions>
[ 6907 6896 6895 6894 ] final  -62.76 input  -60.11 | X-H torsion
[ 7974 7965 7964 7962 ] final -137.78 input  175.53 | X-H torsion
[ 8008 7997 7996 7995 ] final   72.10 input   59.86 | X-H torsion
[ 10167 10162 10161 10158 ] final -172.83 input  -65.29 | X-H torsion
[ 10718 10713 10712 10709 ] final  150.22 input   66.30 | X-H torsion
[ 10763 10752 10751 10750 ] final   17.81 input  -60.55 | X-H torsion
[ 11005 11000 10999 10996 ] final  -54.33 input  -57.11 | X-H torsion

> <Gold.Protein.ActiveResidues>
 VAL166  LYS551  ARG553  GLY616  TRP617  ASP618  TYR619  PRO620  LYS621  CYS622 
 ASP623  PHE694  ASN695  SER759  ASP760  ASP761  ALA762  ILE779  LEU786  VAL792 
 PHE793  MET794  SER795  GLU796  ALA797  LYS798  CYS799  TRP800  GLU811  SER814 

> <Gold.Protein.RotatedAtoms>
  150.7694  134.6527  159.6296 H   0  0  0  0  0  0  0  0  0  0  0  0  # atno 6907 bound_to 6896
  152.3740  134.6688  160.0175 H   0  0  0  0  0  0  0  0  0  0  0  0  # atno 6908 bound_to 6896
  151.7039  133.3275  159.3310 H   0  0  0  0  0  0  0  0  0  0  0  0  # atno 6909 bound_to 6896
  144.8813  140.6511  143.5204 H   0  0  0  0  0  0  0  0  0  0  0  0  # atno 7974 bound_to 7965
  155.7638  140.3486  155.5212 H   0  0  0  0  0  0  0  0  0  0  0  0  # atno 8008 bound_to 7997
  155.8888  140.1014  157.1454 H   0  0  0  0  0  0  0  0  0  0  0  0  # atno 8009 bound_to 7997
  154.4031  140.1308  156.4276 H   0  0  0  0  0  0  0  0  0  0  0  0  # atno 8010 bound_to 7997
  139.5722  144.1615  152.1400 H   0  0  0  0  0  0  0  0  0  0  0  0  # atno 10167 bound_to 10162
  157.2862  131.0845  151.1495 H   0  0  0  0  0  0  0  0  0  0  0  0  # atno 10718 bound_to 10713
  153.1305  135.6739  153.9186 H   0  0  0  0  0  0  0  0  0  0  0  0  # atno 10763 bound_to 10752
  153.8674  135.3074  155.3442 H   0  0  0  0  0  0  0  0  0  0  0  0  # atno 10764 bound_to 10752
  154.7703  135.4943  153.9717 H   0  0  0  0  0  0  0  0  0  0  0  0  # atno 10765 bound_to 10752
  141.1020  133.6617  156.4305 H   0  0  0  0  0  0  0  0  0  0  0  0  # atno 11005 bound_to 11000
  145.3949  139.1609  143.4209 LP  0  0  0  0  0  0  0  0  0  0  0  0  # atno 17320 bound_to 7965
  146.2996  140.4041  142.8709 LP  0  0  0  0  0  0  0  0  0  0  0  0  # atno 17321 bound_to 7965
  140.1150  144.5423  150.6900 LP  0  0  0  0  0  0  0  0  0  0  0  0  # atno 17342 bound_to 10162
  140.7006  143.2432  151.4875 LP  0  0  0  0  0  0  0  0  0  0  0  0  # atno 17343 bound_to 10162
  157.2910  130.6796  149.6114 LP  0  0  0  0  0  0  0  0  0  0  0  0  # atno 17370 bound_to 10713
  155.9665  130.4421  150.5366 LP  0  0  0  0  0  0  0  0  0  0  0  0  # atno 17371 bound_to 10713
  140.4997  134.6497  157.5243 LP  0  0  0  0  0  0  0  0  0  0  0  0  # atno 17394 bound_to 11000
  139.9876  134.7037  155.9747 LP  0  0  0  0  0  0  0  0  0  0  0  0  # atno 17395 bound_to 11000

$$$$
