#       Name:                AV-unprocessed.smi:3284
#       Creating user name   scv26
#       Creation time:       Fri Mar 27 18:49:30 2020


#       File generated by GOLD software.
#

@<TRIPOS>MOLECULE
AV-unprocessed.smi:3284
    45    46     1
SMALL
NO_CHARGES


@<TRIPOS>ATOM
      1 ****        -1.1968   1.3551  -2.4582 C.3            1 S1                 0.0000
      2 ****        -2.0787   1.7322  -1.2794 C.2            1 S1                 0.0000
      3 ****        -3.3245   2.1945  -1.4985 C.2            1 S1                 0.0000
      4 ****        -4.2604   2.6712  -0.4120 C.3            1 S1                 0.0000
      5 ****        -3.4869   3.0405   0.8558 C.3            1 S1                 0.0000
      6 ****        -2.5110   1.9250   1.2644 C.3            1 S1                 0.0000
      7 ****        -1.8255   2.3061   2.5911 C.3            1 S1                 0.0000
      8 ****        -1.4853   1.5888   0.1373 C.3            1 S1                 0.0000
      9 ****        -0.8615   0.1903   0.3890 C.3            1 S1                 0.0000
     10 ****         0.4288  -0.0021  -0.3046 N.4            1 S1                 1.0000
     11 ****         1.0249  -1.3366  -0.1031 C.3            1 S1                 0.0000
     12 ****         2.3451  -1.4759  -0.8717 C.3            1 S1                 0.0000
     13 ****         2.9651  -2.8266  -0.6921 C.2            1 S1                 0.0000
     14 ****         2.6320  -3.8885  -1.4191 N.2            1 S1                 0.0000
     15 ****         3.4148  -4.9228  -0.9168 C.2            1 S1                 0.0000
     16 ****         4.1940  -4.4466   0.1098 C.2            1 S1                 0.0000
     17 ****         3.8906  -3.0986   0.2486 N.pl3          1 S1                 0.0000
     18 ****         4.4705  -2.1920   1.2206 C.3            1 S1                 0.0000
     19 ****        -0.2244   1.8416  -2.3794 H              1 S1                 0.0000
     20 ****        -1.6445   1.6662  -3.4029 H              1 S1                 0.0000
     21 ****        -1.0526   0.2759  -2.5083 H              1 S1                 0.0000
     22 ****        -3.7074   2.2560  -2.5070 H              1 S1                 0.0000
     23 ****        -4.8129   3.5395  -0.7717 H              1 S1                 0.0000
     24 ****        -4.9904   1.8871  -0.2089 H              1 S1                 0.0000
     25 ****        -2.9337   3.9659   0.6881 H              1 S1                 0.0000
     26 ****        -4.1925   3.2450   1.6618 H              1 S1                 0.0000
     27 ****        -3.1137   1.0338   1.4483 H              1 S1                 0.0000
     28 ****        -1.1943   3.1872   2.4706 H              1 S1                 0.0000
     29 ****        -1.2021   1.5046   2.9846 H              1 S1                 0.0000
     30 ****        -2.5645   2.5359   3.3593 H              1 S1                 0.0000
     31 ****        -0.6896   2.3331   0.1944 H              1 S1                 0.0000
     32 ****        -0.6768   0.0297   1.4498 H              1 S1                 0.0000
     33 ****        -1.5624  -0.5867   0.0803 H              1 S1                 0.0000
     34 ****         0.2804   0.1361  -1.2942 H              1 S1                 0.0000
     35 ****         1.1939  -1.4975   0.9625 H              1 S1                 0.0000
     36 ****         0.3190  -2.0984  -0.4370 H              1 S1                 0.0000
     37 ****         2.1706  -1.3185  -1.9369 H              1 S1                 0.0000
     38 ****         3.0503  -0.7038  -0.5626 H              1 S1                 0.0000
     39 ****         3.3556  -5.9200  -1.3273 H              1 S1                 0.0000
     40 ****         4.9178  -4.9446   0.7383 H              1 S1                 0.0000
     41 ****         5.0792  -2.7469   1.9352 H              1 S1                 0.0000
     42 ****         3.6809  -1.6718   1.7632 H              1 S1                 0.0000
     43 ****         5.1007  -1.4619   0.7124 H              1 S1                 0.0000
     44 ****         1.0789   0.6969   0.0254 H              1 S1                 0.0000
     45 ****         1.9655  -3.9337  -2.1632 LP             1 S1                 0.0000
@<TRIPOS>BOND
    1    1    2 1     
    2    1   19 1     
    3    1   20 1     
    4    1   21 1     
    5    2    8 1     
    6    2    3 2     
    7    3    4 1     
    8    3   22 1     
    9    4    5 1     
   10    4   23 1     
   11    4   24 1     
   12    5    6 1     
   13    5   25 1     
   14    5   26 1     
   15    6    7 1     
   16    6    8 1     
   17    6   27 1     
   18    7   28 1     
   19    7   29 1     
   20    7   30 1     
   21    8    9 1     
   22    8   31 1     
   23    9   10 1     
   24    9   32 1     
   25    9   33 1     
   26   10   11 1     
   27   10   34 1     
   28   10   44 1     
   29   11   12 1     
   30   11   35 1     
   31   11   36 1     
   32   12   13 1     
   33   12   37 1     
   34   12   38 1     
   35   13   17 1     
   36   13   14 2     
   37   14   15 1     
   38   15   16 2     
   39   15   39 1     
   40   16   17 1     
   41   16   40 1     
   42   17   18 1     
   43   18   41 1     
   44   18   42 1     
   45   18   43 1     
   46   14   45 1     
@<TRIPOS>SUBSTRUCTURE
      1 S1             1
@<TRIPOS>SET
LONE_PAIRS      STATIC     ATOMS    <user>   **** ""
1 45
DONOR_HYDROGENS      STATIC     ATOMS    <user>   **** ""
2 34 44
ATOM$BLUE        STATIC     ATOMS    COLORGROUP SYSTEM
1 45
ATOM$RED        STATIC     ATOMS    COLORGROUP SYSTEM
2 34 44
