AV-unprocessed.smi:35|AV-procd|sdf|257|dock2
  -GOLD-   2262016 23D 1   1.00000     0.00000
 Structure written by MMmdl.
 29 30  0  0  0  0  0  0  0  0  1 V2000
  152.2634  136.9606  159.7735 O   0  0  0  0  0  0  0  0  0  0  0  0
  151.8722  137.4923  158.7369 C   0  0  0  0  0  0  0  0  0  0  0  0
  152.7916  137.9586  157.7919 N   0  0  0  0  0  0  0  0  0  0  0  0
  152.4695  138.5786  156.5826 C   0  0  0  0  0  0  0  0  0  0  0  0
  153.3658  138.9361  155.8194 O   0  0  0  0  0  0  0  0  0  0  0  0
  151.0969  138.7523  156.2948 N   0  0  0  0  0  0  0  0  0  0  0  0
  150.6662  139.4332  155.0134 C   0  0  2  0  0  0  0  0  0  0  0  0
  149.7990  140.4683  155.3561 O   0  0  0  0  0  0  0  0  0  0  0  0
  148.7540  140.5434  154.3995 C   0  0  2  0  0  0  0  0  0  0  0  0
  147.5387  141.2363  155.0359 C   0  0  0  0  0  0  0  0  0  0  0  0
  147.6877  142.6391  154.9929 O   0  0  0  0  0  0  0  0  0  0  0  0
  148.5261  139.0829  153.9910 C   0  0  1  0  0  0  0  0  0  0  0  0
  147.9965  139.0080  152.6818 O   0  0  0  0  0  0  0  0  0  0  0  0
  149.9292  138.4876  154.0359 C   0  0  2  0  0  0  0  0  0  0  0  0
  149.8880  137.1316  154.4450 O   0  0  0  0  0  0  0  0  0  0  0  0
  150.1475  138.2995  157.2006 C   0  0  0  0  0  0  0  0  0  0  0  0
  150.4761  137.6975  158.3671 C   0  0  0  0  0  0  0  0  0  0  0  0
  148.9723  137.1194  159.5196 Br  0  0  0  0  0  0  0  0  0  0  0  0
  153.7716  137.8339  158.0012 H   0  0  0  0  0  0  0  0  0  0  0  0
  151.5517  139.8841  154.5632 H   0  0  0  0  0  0  0  0  0  0  0  0
  149.1310  141.1246  153.5553 H   0  0  0  0  0  0  0  0  0  0  0  0
  146.6143  140.9467  154.5352 H   0  0  0  0  0  0  0  0  0  0  0  0
  147.4451  140.9391  156.0807 H   0  0  0  0  0  0  0  0  0  0  0  0
  147.1761  143.0178  155.6914 H   0  0  0  0  0  0  0  0  0  0  0  0
  147.8670  138.5852  154.7045 H   0  0  0  0  0  0  0  0  0  0  0  0
  148.5095  139.5641  152.1161 H   0  0  0  0  0  0  0  0  0  0  0  0
  150.4241  138.5632  153.0663 H   0  0  0  0  0  0  0  0  0  0  0  0
  149.7599  136.5923  153.6794 H   0  0  0  0  0  0  0  0  0  0  0  0
  149.0999  138.4240  156.9658 H   0  0  0  0  0  0  0  0  0  0  0  0
  1  2  2  0  0  0  0
  2 17  1  0  0  0  0
  2  3  1  0  0  0  0
  3 19  1  0  0  0  0
  3  4  1  0  0  0  0
  4  5  2  0  0  0  0
  4  6  1  0  0  0  0
  6  7  1  0  0  0  0
  6 16  1  0  0  0  0
  7 14  1  0  0  0  0
  7  8  1  0  0  0  0
  7 20  1  0  0  0  0
  8  9  1  0  0  0  0
  9 10  1  0  0  0  0
  9 12  1  0  0  0  0
  9 21  1  0  0  0  0
 10 11  1  0  0  0  0
 10 22  1  0  0  0  0
 10 23  1  0  0  0  0
 11 24  1  0  0  0  0
 12 13  1  0  0  0  0
 12 14  1  0  0  0  0
 12 25  1  0  0  0  0
 13 26  1  0  0  0  0
 14 15  1  0  0  0  0
 14 27  1  0  0  0  0
 15 28  1  0  0  0  0
 16 17  2  0  0  0  0
 16 29  1  0  0  0  0
 17 18  1  0  0  0  0
M  END
> <s_m_source_file>
AV-unprocessed.smi

> <i_m_source_file_index>
35

> <i_lp_mmshare_version>
43012

> <i_f3d_flags>
0

> <s_epik_input>
Tz1jMVtuSF1jKD1PKW4oW2NIXWMxQnIpW0NAQEhdMk9bQ0BASF0oW0NIMl1bT0hdKVtDQEBIXShbT0hdKVtDQEhdMltPSF0=

> <s_epik_cmdline>
J2VwaWtfcHl0aG9uJywgJy1waCcsICc3LjAnLCAnLXRuJywgJzgnLCAnLW1hJywgJzIwMCcsICctbWV0YWxfYmluZGluZycsICctaW1hZScsICc8aW5maWxlLm1hZT4nLCAnLW9tYWUnLCAnPG91dGZpbGUubWFlPic=

> <r_lp_tautomer_probability>
0.999537

> <r_epik_Ionization_Penalty>
0.10812

> <r_epik_Ionization_Penalty_Charging>
0.108119

> <r_epik_Ionization_Penalty_Neutral>
4.93006e-07

> <r_epik_State_Penalty>
0.0979238

> <r_epik_Charging_Adjusted_Penalty>
0.206043

> <i_epik_Tot_Q>
0

> <i_epik_Tot_abs_Q>
0

> <r_epik_Metal_State_Penalty>
3.07911

> <b_epik_Metal_Only>
0

> <s_epik_Chemistry_Notes>
This compound contains an acetal/aminal-like group ( X-CH(R)-Y where X, Y are N, S, or O) that may be acid/base labile, releasing an aldehyde.

> <s_lp_Force_Field>
OPLS_2005

> <r_lp_Energy>
32.3775

> <b_lp_Chiralities_Consistent>
1

> <s_lp_Variant>
AV-unprocessed.smi:35-11

> <Gold.Version>
5.8.1

> <Gold.Id.Protein>
6NUR|6NUR_protein|mol2

> <Gold.PLP.Fitness>
36.4002

> <Gold.PLP.PLP>
-24.7978

> <Gold.PLP.part.hbond>
-5.3735

> <Gold.PLP.part.metal>
0.0000

> <Gold.PLP.part.buried>
-2.6469

> <Gold.PLP.part.nonpolar>
-17.0979

> <Gold.PLP.part.repulsive>
0.1882

> <Gold.PLP.ligand.clash>
0.0000

> <Gold.PLP.ligand.torsion>
0.2800

> <Gold.PLP.Chemscore.Hbond>
3.9920

> <Gold.PLP.Chemscore.CHOScore>
0.0000

> <Gold.PLP.Chemscore.Metal>
0.0000

> <Gold.Chemscore.Hbonds>
donor molecule, donor type, donor heavy atom, donor atom, acceptor molecule, acceptor atom, score
      L1  H    13    26       P1  7957  0.96
      L1  H    15    28       P1  7948  1.00
      P1  H  6896  6908       L1     1  1.00
      P1  H  7997  8008       L1     5  0.96

> <Gold.PLP.Chemscore.Internal.Correction>
0.1864

> <Gold.Rescore>
     Score         DG    S(hbond)    S(metal)    S(lipo)     H(rot)  DE(clash)    DE(int)     intcor
     11.42     -12.86       3.81        0.00      34.72       3.67       0.09       1.35       ----

> <Gold.Chemscore.Fitness>
11.4247

> <Gold.Chemscore.DG>
-12.8616

> <Gold.Chemscore.ZeroCoef>
-5.4800

> <Gold.Chemscore.Hbond>
3.8067

> <Gold.Chemscore.Metal>
0.0000

> <Gold.Chemscore.Lipo>
34.7242

> <Gold.Chemscore.Internal_Hbond>
0.0000

> <Gold.Chemscore.DEClash>
0.0854

> <Gold.Chemscore.DEInternal>
1.3515

> <Gold.Chemscore.Rot>
3.6701

> <Gold.Chemscore.Internal.Correction>
   9.000000E+99

> <Gold.Chemscore.Hbonds>
donor molecule, donor type, donor heavy atom, donor atom, acceptor molecule, acceptor atom, score
      L1  H    13    26       P1  7957  0.91
      L1  H    15    28       P1  7948  0.47
      P1  H  6896  6908       L1     1  0.93
      P1  H  7997  8008       L1     5  0.91

> <Gold.Chemscore.Hbond.Weighted>
-12.7144

> <Gold.Chemscore.Metal.Weighted>
-0.0000

> <Gold.Chemscore.Lipo.Weighted>
-4.0627

> <Gold.Chemscore.Internal_Hbond.Weighted>
0.0000

> <Gold.Chemscore.DEClash.Weighted>
0.0854

> <Gold.Chemscore.DEInternal.Weighted>
1.3515

> <Gold.Chemscore.Rot.Weighted>
9.3955

> <Gold.Chemscore.Internal.Correction.Weighted>
   9.000000E+99

> <Gold.Protein.RotatedTorsions>
[ 6907 6896 6895 6894 ] final -109.08 input  -60.11 | X-H torsion
[ 7974 7965 7964 7962 ] final -120.50 input  175.53 | X-H torsion
[ 8008 7997 7996 7995 ] final  -22.01 input   59.86 | X-H torsion
[ 10167 10162 10161 10158 ] final  -89.97 input  -65.29 | X-H torsion
[ 10718 10713 10712 10709 ] final  141.05 input   66.30 | X-H torsion
[ 10763 10752 10751 10750 ] final   73.07 input  -60.55 | X-H torsion
[ 11005 11000 10999 10996 ] final   14.69 input  -57.11 | X-H torsion

> <Gold.Protein.ActiveResidues>
 VAL166  LYS551  ARG553  GLY616  TRP617  ASP618  TYR619  PRO620  LYS621  CYS622 
 ASP623  PHE694  ASN695  SER759  ASP760  ASP761  ALA762  ILE779  LEU786  VAL792 
 PHE793  MET794  SER795  GLU796  ALA797  LYS798  CYS799  TRP800  GLU811  SER814 

> <Gold.Protein.RotatedAtoms>
  150.7540  133.9582  159.3506 H   0  0  0  0  0  0  0  0  0  0  0  0  # atno 6907 bound_to 6896
  151.7505  135.0832  160.0339 H   0  0  0  0  0  0  0  0  0  0  0  0  # atno 6908 bound_to 6896
  152.3469  133.6096  159.5953 H   0  0  0  0  0  0  0  0  0  0  0  0  # atno 6909 bound_to 6896
  145.0507  140.8216  143.4211 H   0  0  0  0  0  0  0  0  0  0  0  0  # atno 7974 bound_to 7965
  154.4670  140.2019  156.0093 H   0  0  0  0  0  0  0  0  0  0  0  0  # atno 8008 bound_to 7997
  156.0944  140.3253  155.7829 H   0  0  0  0  0  0  0  0  0  0  0  0  # atno 8009 bound_to 7997
  155.4903  140.0545  157.2945 H   0  0  0  0  0  0  0  0  0  0  0  0  # atno 8010 bound_to 7997
  140.3595  143.2849  151.9631 H   0  0  0  0  0  0  0  0  0  0  0  0  # atno 10167 bound_to 10162
  157.3964  131.1011  151.0596 H   0  0  0  0  0  0  0  0  0  0  0  0  # atno 10718 bound_to 10713
  153.0498  135.5076  154.7838 H   0  0  0  0  0  0  0  0  0  0  0  0  # atno 10763 bound_to 10752
  154.6709  135.2953  154.9745 H   0  0  0  0  0  0  0  0  0  0  0  0  # atno 10764 bound_to 10752
  154.0563  135.6697  153.4859 H   0  0  0  0  0  0  0  0  0  0  0  0  # atno 10765 bound_to 10752
  140.4666  134.1073  155.7725 H   0  0  0  0  0  0  0  0  0  0  0  0  # atno 11005 bound_to 11000
  145.1531  139.2502  143.5430 LP  0  0  0  0  0  0  0  0  0  0  0  0  # atno 17320 bound_to 7965
  146.3517  140.1239  142.8599 LP  0  0  0  0  0  0  0  0  0  0  0  0  # atno 17321 bound_to 7965
  139.4816  144.6005  151.7614 LP  0  0  0  0  0  0  0  0  0  0  0  0  # atno 17342 bound_to 10162
  140.5141  144.0980  150.6003 LP  0  0  0  0  0  0  0  0  0  0  0  0  # atno 17343 bound_to 10162
  157.1610  130.6226  149.5611 LP  0  0  0  0  0  0  0  0  0  0  0  0  # atno 17370 bound_to 10713
  155.9811  130.4817  150.6812 LP  0  0  0  0  0  0  0  0  0  0  0  0  # atno 17371 bound_to 10713
  141.1596  133.8817  157.1883 LP  0  0  0  0  0  0  0  0  0  0  0  0  # atno 17394 bound_to 11000
  139.9911  135.0064  156.9977 LP  0  0  0  0  0  0  0  0  0  0  0  0  # atno 17395 bound_to 11000

$$$$
