AV-unprocessed.smi:937|AV-procd|sdf|4210|dock7
  -GOLD-   22720 2113D 1   1.00000     0.00000
 Structure written by MMmdl.
 45 46  0  0  0  0  0  0  0  0  1 V2000
  145.1911  132.2127  149.5191 C   0  0  0  0  0  0  0  0  0  0  0  0
  145.4508  133.3776  150.4514 C   0  0  0  0  0  0  0  0  0  0  0  0
  146.4061  133.2743  151.4844 C   0  0  0  0  0  0  0  0  0  0  0  0
  146.6141  134.3888  152.3197 C   0  0  0  0  0  0  0  0  0  0  0  0
  145.8626  135.5594  152.0902 C   0  0  0  0  0  0  0  0  0  0  0  0
  146.0455  136.7867  152.9604 C   0  0  0  0  0  0  0  0  0  0  0  0
  146.2193  138.0663  152.1269 C   0  0  0  0  0  0  0  0  0  0  0  0
  147.5216  138.6785  152.3599 N   0  0  0  0  0  0  0  0  0  0  0  0
  148.0162  139.0004  153.5672 C   0  0  0  0  0  0  0  0  0  0  0  0
  147.4190  138.7892  154.6211 O   0  0  0  0  0  0  0  0  0  0  0  0
  149.2293  139.5814  153.5451 N   0  0  0  0  0  0  0  0  0  0  0  0
  150.0371  140.0482  154.6737 C   0  0  1  0  0  0  0  0  0  0  0  0
  149.3640  141.2511  155.3657 C   0  0  0  0  0  0  0  0  0  0  0  0
  150.1591  141.6996  156.6003 C   0  0  0  0  0  0  0  0  0  0  0  0
  150.3551  140.5398  157.5887 C   0  0  0  0  0  0  0  0  0  0  0  0
  151.0350  139.3276  156.9176 C   0  0  1  0  0  0  0  0  0  0  0  0
  151.2443  138.1629  157.9076 C   0  0  0  0  0  0  0  0  0  0  0  0
  150.0776  137.7364  158.3921 F   0  0  0  0  0  0  0  0  0  0  0  0
  151.8540  137.1475  157.2962 F   0  0  0  0  0  0  0  0  0  0  0  0
  152.0130  138.5586  158.9221 F   0  0  0  0  0  0  0  0  0  0  0  0
  150.2332  138.8912  155.6720 C   0  0  0  0  0  0  0  0  0  0  0  0
  144.9312  135.5590  151.0302 C   0  0  0  0  0  0  0  0  0  0  0  0
  144.7257  134.4954  150.2239 N   0  0  0  0  0  0  0  0  0  0  0  0
  145.4427  131.2665  149.9989 H   0  0  0  0  0  0  0  0  0  0  0  0
  145.7956  132.3117  148.6173 H   0  0  0  0  0  0  0  0  0  0  0  0
  144.1411  132.1736  149.2267 H   0  0  0  0  0  0  0  0  0  0  0  0
  146.9678  132.3637  151.6340 H   0  0  0  0  0  0  0  0  0  0  0  0
  147.3368  134.3435  153.1212 H   0  0  0  0  0  0  0  0  0  0  0  0
  145.1846  136.8851  153.6234 H   0  0  0  0  0  0  0  0  0  0  0  0
  146.9129  136.6326  153.6039 H   0  0  0  0  0  0  0  0  0  0  0  0
  146.0907  137.8523  151.0643 H   0  0  0  0  0  0  0  0  0  0  0  0
  145.4502  138.7919  152.3930 H   0  0  0  0  0  0  0  0  0  0  0  0
  148.0825  138.8834  151.5460 H   0  0  0  0  0  0  0  0  0  0  0  0
  149.6481  139.6982  152.6338 H   0  0  0  0  0  0  0  0  0  0  0  0
  151.0239  140.3467  154.3152 H   0  0  0  0  0  0  0  0  0  0  0  0
  149.2689  142.0874  154.6723 H   0  0  0  0  0  0  0  0  0  0  0  0
  148.3497  140.9840  155.6664 H   0  0  0  0  0  0  0  0  0  0  0  0
  151.1312  142.0845  156.2892 H   0  0  0  0  0  0  0  0  0  0  0  0
  149.6440  142.5243  157.0940 H   0  0  0  0  0  0  0  0  0  0  0  0
  150.9508  140.8834  158.4345 H   0  0  0  0  0  0  0  0  0  0  0  0
  149.3874  140.2429  157.9947 H   0  0  0  0  0  0  0  0  0  0  0  0
  152.0219  139.6478  156.5795 H   0  0  0  0  0  0  0  0  0  0  0  0
  149.2604  138.5061  155.9821 H   0  0  0  0  0  0  0  0  0  0  0  0
  150.7445  138.0663  155.1745 H   0  0  0  0  0  0  0  0  0  0  0  0
  144.3336  136.4347  150.8234 H   0  0  0  0  0  0  0  0  0  0  0  0
  1  2  1  0  0  0  0
  1 24  1  0  0  0  0
  1 25  1  0  0  0  0
  1 26  1  0  0  0  0
  2 23  1  0  0  0  0
  2  3  2  0  0  0  0
  3  4  1  0  0  0  0
  3 27  1  0  0  0  0
  4  5  2  0  0  0  0
  4 28  1  0  0  0  0
  5  6  1  0  0  0  0
  5 22  1  0  0  0  0
  6  7  1  0  0  0  0
  6 29  1  0  0  0  0
  6 30  1  0  0  0  0
  7  8  1  0  0  0  0
  7 31  1  0  0  0  0
  7 32  1  0  0  0  0
  8  9  1  0  0  0  0
  8 33  1  0  0  0  0
  9 10  2  0  0  0  0
  9 11  1  0  0  0  0
 11 12  1  0  0  0  0
 11 34  1  0  0  0  0
 12 21  1  0  0  0  0
 12 13  1  0  0  0  0
 12 35  1  0  0  0  0
 13 14  1  0  0  0  0
 13 36  1  0  0  0  0
 13 37  1  0  0  0  0
 14 15  1  0  0  0  0
 14 38  1  0  0  0  0
 14 39  1  0  0  0  0
 15 16  1  0  0  0  0
 15 40  1  0  0  0  0
 15 41  1  0  0  0  0
 16 17  1  0  0  0  0
 16 21  1  0  0  0  0
 16 42  1  0  0  0  0
 17 18  1  0  0  0  0
 17 19  1  0  0  0  0
 17 20  1  0  0  0  0
 21 43  1  0  0  0  0
 21 44  1  0  0  0  0
 22 23  2  0  0  0  0
 22 45  1  0  0  0  0
M  END
> <s_m_source_file>
AV-unprocessed.smi

> <i_m_source_file_index>
937

> <i_lp_mmshare_version>
43012

> <i_f3d_flags>
0

> <s_epik_input>
W0NIM11jMVtjSF1bY0hdYyhbY0hdbjEpW0NIMl1bQ0gyXVtOSF1DKD1PKVtOSF1bQ0BASF0yW0NIMl1bQ0gyXVtDSDJdW0NAQEhdKEMoRikoRilGKVtDSDJdMg==

> <s_epik_cmdline>
J2VwaWtfcHl0aG9uJywgJy1waCcsICc3LjAnLCAnLXRuJywgJzgnLCAnLW1hJywgJzIwMCcsICctbWV0YWxfYmluZGluZycsICctaW1hZScsICc8aW5maWxlLm1hZT4nLCAnLW9tYWUnLCAnPG91dGZpbGUubWFlPic=

> <r_epik_Ionization_Penalty>
0.0563445

> <r_epik_Ionization_Penalty_Charging>
0

> <r_epik_Ionization_Penalty_Neutral>
0.0563445

> <r_epik_State_Penalty>
0.0485409

> <r_epik_Charging_Adjusted_Penalty>
0.0485409

> <i_epik_Tot_Q>
0

> <i_epik_Tot_abs_Q>
0

> <r_epik_Metal_State_Penalty>
0.0443056

> <b_epik_Metal_Only>
0

> <s_lp_Force_Field>
OPLS_2005

> <r_lp_Energy>
17.7613

> <b_lp_Chiralities_Consistent>
1

> <s_lp_Variant>
AV-unprocessed.smi:937-2

> <Gold.Version>
5.8.1

> <Gold.Id.Protein>
6NUR|6NUR_protein|mol2

> <Gold.PLP.Fitness>
43.7326

> <Gold.PLP.PLP>
-37.2795

> <Gold.PLP.part.hbond>
-2.8096

> <Gold.PLP.part.metal>
0.0000

> <Gold.PLP.part.buried>
-5.2635

> <Gold.PLP.part.nonpolar>
-30.1435

> <Gold.PLP.part.repulsive>
0.5421

> <Gold.PLP.ligand.clash>
0.0000

> <Gold.PLP.ligand.torsion>
0.5633

> <Gold.PLP.Chemscore.Hbond>
1.5200

> <Gold.PLP.Chemscore.CHOScore>
1.0000

> <Gold.PLP.Chemscore.Metal>
0.0000

> <Gold.Chemscore.Hbonds>
donor molecule, donor type, donor heavy atom, donor atom, acceptor molecule, acceptor atom, score
      L1  H     8    33       P1  7957  0.75
      L1  H    11    34       P1  7957  0.94
      L1  C    22    45       P1 10171  1.00

> <Gold.PLP.Chemscore.Internal.Correction>
0.0197

> <Gold.Rescore>
     Score         DG    S(hbond)    S(metal)    S(lipo)     H(rot)  DE(clash)    DE(int)     intcor
     14.94     -16.96       1.81        0.00      80.98       1.58       0.38       1.64       ----

> <Gold.Chemscore.Fitness>
14.9375

> <Gold.Chemscore.DG>
-16.9578

> <Gold.Chemscore.ZeroCoef>
-5.4800

> <Gold.Chemscore.Hbond>
1.8145

> <Gold.Chemscore.Metal>
0.0000

> <Gold.Chemscore.Lipo>
80.9808

> <Gold.Chemscore.Internal_Hbond>
0.0000

> <Gold.Chemscore.DEClash>
0.3833

> <Gold.Chemscore.DEInternal>
1.6370

> <Gold.Chemscore.Rot>
1.5849

> <Gold.Chemscore.Internal.Correction>
   9.000000E+99

> <Gold.Chemscore.Hbonds>
donor molecule, donor type, donor heavy atom, donor atom, acceptor molecule, acceptor atom, score
      L1  H     8    33       P1  7957  0.55
      L1  H    11    34       P1  7957  0.88

> <Gold.Chemscore.Hbond.Weighted>
-6.0604

> <Gold.Chemscore.Metal.Weighted>
-0.0000

> <Gold.Chemscore.Lipo.Weighted>
-9.4747

> <Gold.Chemscore.Internal_Hbond.Weighted>
0.0000

> <Gold.Chemscore.DEClash.Weighted>
0.3833

> <Gold.Chemscore.DEInternal.Weighted>
1.6370

> <Gold.Chemscore.Rot.Weighted>
4.0574

> <Gold.Chemscore.Internal.Correction.Weighted>
   9.000000E+99

> <Gold.Protein.RotatedTorsions>
[ 6907 6896 6895 6894 ] final -107.08 input  -60.11 | X-H torsion
[ 7974 7965 7964 7962 ] final  -17.96 input  175.53 | X-H torsion
[ 8008 7997 7996 7995 ] final  -45.13 input   59.86 | X-H torsion
[ 10167 10162 10161 10158 ] final   75.08 input  -65.29 | X-H torsion
[ 10718 10713 10712 10709 ] final  121.32 input   66.30 | X-H torsion
[ 10763 10752 10751 10750 ] final -163.28 input  -60.55 | X-H torsion
[ 11005 11000 10999 10996 ] final   38.22 input  -57.11 | X-H torsion

> <Gold.Protein.ActiveResidues>
 VAL166  LYS551  ARG553  GLY616  TRP617  ASP618  TYR619  PRO620  LYS621  CYS622 
 ASP623  PHE694  ASN695  SER759  ASP760  ASP761  ALA762  ILE779  LEU786  VAL792 
 PHE793  MET794  SER795  GLU796  ALA797  LYS798  CYS799  TRP800  GLU811  SER814 

> <Gold.Protein.RotatedAtoms>
  150.7424  133.9879  159.3597 H   0  0  0  0  0  0  0  0  0  0  0  0  # atno 6907 bound_to 6896
  151.7825  135.0755  160.0385 H   0  0  0  0  0  0  0  0  0  0  0  0  # atno 6908 bound_to 6896
  152.3264  133.5873  159.5815 H   0  0  0  0  0  0  0  0  0  0  0  0  # atno 6909 bound_to 6896
  146.1915  140.3854  142.8456 H   0  0  0  0  0  0  0  0  0  0  0  0  # atno 7974 bound_to 7965
  154.3999  140.1404  156.3796 H   0  0  0  0  0  0  0  0  0  0  0  0  # atno 8008 bound_to 7997
  155.8016  140.3476  155.5385 H   0  0  0  0  0  0  0  0  0  0  0  0  # atno 8009 bound_to 7997
  155.8478  140.0936  157.1684 H   0  0  0  0  0  0  0  0  0  0  0  0  # atno 8010 bound_to 7997
  140.0068  144.5644  150.7691 H   0  0  0  0  0  0  0  0  0  0  0  0  # atno 10167 bound_to 10162
  157.5826  131.1073  150.8157 H   0  0  0  0  0  0  0  0  0  0  0  0  # atno 10718 bound_to 10713
  154.7137  135.3011  154.9157 H   0  0  0  0  0  0  0  0  0  0  0  0  # atno 10763 bound_to 10752
  154.0050  135.6702  153.4765 H   0  0  0  0  0  0  0  0  0  0  0  0  # atno 10764 bound_to 10752
  153.0776  135.5026  154.8351 H   0  0  0  0  0  0  0  0  0  0  0  0  # atno 10765 bound_to 10752
  140.2148  134.3712  155.8032 H   0  0  0  0  0  0  0  0  0  0  0  0  # atno 11005 bound_to 11000
  144.8497  140.6982  143.6176 LP  0  0  0  0  0  0  0  0  0  0  0  0  # atno 17320 bound_to 7965
  145.3776  139.1644  143.4298 LP  0  0  0  0  0  0  0  0  0  0  0  0  # atno 17321 bound_to 7965
  140.7397  143.2795  151.3642 LP  0  0  0  0  0  0  0  0  0  0  0  0  # atno 17342 bound_to 10162
  139.6233  144.0865  152.2411 LP  0  0  0  0  0  0  0  0  0  0  0  0  # atno 17343 bound_to 10162
  156.8599  130.5109  149.5304 LP  0  0  0  0  0  0  0  0  0  0  0  0  # atno 17370 bound_to 10713
  156.0873  130.5868  150.9671 LP  0  0  0  0  0  0  0  0  0  0  0  0  # atno 17371 bound_to 10713
  141.2225  133.7162  156.8478 LP  0  0  0  0  0  0  0  0  0  0  0  0  # atno 17394 bound_to 11000
  140.1912  134.8964  157.3063 LP  0  0  0  0  0  0  0  0  0  0  0  0  # atno 17395 bound_to 11000

$$$$
