AV-unprocessed.smi:363|AV-procd|sdf|2424|dock9
  -GOLD-   2262022363D 1   1.00000     0.00000
 Structure written by MMmdl.
 39 40  0  0  0  0  0  0  0  0  1 V2000
  151.9120  139.5731  155.2729 C   0  0  0  0  0  0  0  0  0  0  0  0
  150.4835  139.1990  154.8972 C   0  0  0  0  0  0  0  0  0  0  0  0
  149.6285  140.2380  154.3723 C   0  0  0  0  0  0  0  0  0  0  0  0
  148.3461  139.9914  154.0614 C   0  0  0  0  0  0  0  0  0  0  0  0
  147.4512  141.0995  153.5160 C   0  0  0  0  0  0  0  0  0  0  0  0
  147.8015  138.6880  154.2267 N   0  0  0  0  0  0  0  0  0  0  0  0
  146.3817  138.4400  153.8838 C   0  0  0  0  0  0  0  0  0  0  0  0
  146.1568  138.2721  152.3615 C   0  0  1  0  0  0  0  0  0  0  0  0
  147.4066  138.2907  151.7017 O   0  0  0  0  0  0  0  0  0  0  0  0
  145.4104  136.9804  152.0616 C   0  0  0  0  0  0  0  0  0  0  0  0
  145.9656  136.0193  151.1880 C   0  0  0  0  0  0  0  0  0  0  0  0
  145.2773  134.8201  150.9209 C   0  0  0  0  0  0  0  0  0  0  0  0
  144.0305  134.5732  151.5273 C   0  0  0  0  0  0  0  0  0  0  0  0
  143.1878  133.1035  151.2005 Cl  0  0  0  0  0  0  0  0  0  0  0  0
  143.4730  135.5269  152.4009 C   0  0  0  0  0  0  0  0  0  0  0  0
  144.1607  136.7271  152.6674 C   0  0  0  0  0  0  0  0  0  0  0  0
  148.5534  137.6367  154.6864 C   0  0  0  0  0  0  0  0  0  0  0  0
  148.0638  136.5047  154.7561 O   0  0  0  0  0  0  0  0  0  0  0  0
  149.9593  137.9544  155.0606 C   0  0  0  0  0  0  0  0  0  0  0  0
  150.7693  136.8412  155.5938 C   0  0  0  0  0  0  0  0  0  0  0  0
  150.0686  135.8223  156.1105 N   0  0  0  0  0  0  0  0  0  0  0  0
  151.9977  136.8343  155.6583 O   0  0  0  0  0  0  0  0  0  0  0  0
  152.0604  140.6524  155.2300 H   0  0  0  0  0  0  0  0  0  0  0  0
  152.6217  139.1141  154.5843 H   0  0  0  0  0  0  0  0  0  0  0  0
  152.1484  139.2517  156.2877 H   0  0  0  0  0  0  0  0  0  0  0  0
  150.0269  141.2331  154.2355 H   0  0  0  0  0  0  0  0  0  0  0  0
  148.0444  141.9709  153.2369 H   0  0  0  0  0  0  0  0  0  0  0  0
  146.7371  141.4224  154.2739 H   0  0  0  0  0  0  0  0  0  0  0  0
  146.9074  140.7944  152.6241 H   0  0  0  0  0  0  0  0  0  0  0  0
  145.9597  137.5918  154.4267 H   0  0  0  0  0  0  0  0  0  0  0  0
  145.7799  139.2692  154.2531 H   0  0  0  0  0  0  0  0  0  0  0  0
  145.5748  139.1081  151.9721 H   0  0  0  0  0  0  0  0  0  0  0  0
  148.0014  137.7249  152.1697 H   0  0  0  0  0  0  0  0  0  0  0  0
  146.9234  136.1993  150.7222 H   0  0  0  0  0  0  0  0  0  0  0  0
  145.7085  134.0898  150.2519 H   0  0  0  0  0  0  0  0  0  0  0  0
  142.5179  135.3391  152.8692 H   0  0  0  0  0  0  0  0  0  0  0  0
  143.7243  137.4504  153.3407 H   0  0  0  0  0  0  0  0  0  0  0  0
  150.5501  135.0303  156.5112 H   0  0  0  0  0  0  0  0  0  0  0  0
  149.0596  135.8584  156.1127 H   0  0  0  0  0  0  0  0  0  0  0  0
  1  2  1  0  0  0  0
  1 23  1  0  0  0  0
  1 24  1  0  0  0  0
  1 25  1  0  0  0  0
  2 19  2  0  0  0  0
  2  3  1  0  0  0  0
  3  4  2  0  0  0  0
  3 26  1  0  0  0  0
  4  5  1  0  0  0  0
  4  6  1  0  0  0  0
  5 27  1  0  0  0  0
  5 28  1  0  0  0  0
  5 29  1  0  0  0  0
  6  7  1  0  0  0  0
  6 17  1  0  0  0  0
  7  8  1  0  0  0  0
  7 30  1  0  0  0  0
  7 31  1  0  0  0  0
  8  9  1  0  0  0  0
  8 10  1  0  0  0  0
  8 32  1  0  0  0  0
  9 33  1  0  0  0  0
 10 16  1  0  0  0  0
 10 11  2  0  0  0  0
 11 12  1  0  0  0  0
 11 34  1  0  0  0  0
 12 13  2  0  0  0  0
 12 35  1  0  0  0  0
 13 14  1  0  0  0  0
 13 15  1  0  0  0  0
 15 16  2  0  0  0  0
 15 36  1  0  0  0  0
 16 37  1  0  0  0  0
 17 18  2  0  0  0  0
 17 19  1  0  0  0  0
 19 20  1  0  0  0  0
 20 21  1  0  0  0  0
 20 22  2  0  0  0  0
 21 38  1  0  0  0  0
 21 39  1  0  0  0  0
M  END
> <s_m_source_file>
AV-unprocessed.smi

> <i_m_source_file_index>
363

> <i_lp_mmshare_version>
43012

> <i_f3d_flags>
0

> <s_epik_input>
W0NIM11jMVtjSF1jKFtDSDNdKW4oYyg9TyljMUMoPU8pW05IMl0pW0NIMl1bQ0BIXShbT0hdKWMyW2NIXVtjSF1jKENsKVtjSF1bY0hdMg==

> <s_epik_cmdline>
J2VwaWtfcHl0aG9uJywgJy1waCcsICc3LjAnLCAnLXRuJywgJzgnLCAnLW1hJywgJzIwMCcsICctbWV0YWxfYmluZGluZycsICctaW1hZScsICc8aW5maWxlLm1hZT4nLCAnLW9tYWUnLCAnPG91dGZpbGUubWFlPic=

> <r_lp_tautomer_probability>
1

> <r_epik_Ionization_Penalty>
3.91973e-07

> <r_epik_Ionization_Penalty_Charging>
1.35363e-07

> <r_epik_Ionization_Penalty_Neutral>
2.5661e-07

> <r_epik_State_Penalty>
-0

> <r_epik_Charging_Adjusted_Penalty>
1.35363e-07

> <i_epik_Tot_Q>
0

> <i_epik_Tot_abs_Q>
0

> <r_epik_Metal_State_Penalty>
-0

> <b_epik_Metal_Only>
0

> <s_lp_Force_Field>
OPLS_2005

> <r_lp_Energy>
39.726

> <b_lp_Chiralities_Consistent>
1

> <s_lp_Variant>
AV-unprocessed.smi:363-2

> <Gold.Version>
5.8.1

> <Gold.Id.Protein>
6NUR|6NUR_protein|mol2

> <Gold.PLP.Fitness>
42.1844

> <Gold.PLP.PLP>
-36.7749

> <Gold.PLP.part.hbond>
-3.7113

> <Gold.PLP.part.metal>
0.0000

> <Gold.PLP.part.buried>
-1.0165

> <Gold.PLP.part.nonpolar>
-32.5545

> <Gold.PLP.part.repulsive>
0.2069

> <Gold.PLP.ligand.clash>
0.4170

> <Gold.PLP.ligand.torsion>
1.1910

> <Gold.PLP.Chemscore.Hbond>
2.6400

> <Gold.PLP.Chemscore.CHOScore>
0.0000

> <Gold.PLP.Chemscore.Metal>
0.0000

> <Gold.Chemscore.Hbonds>
donor molecule, donor type, donor heavy atom, donor atom, acceptor molecule, acceptor atom, score
      L1  H     9    33       P1  7948  0.74
      P1  H  7954  7966       L1     9  0.70
      P1  H 10752 10765       L1    22  1.00

> <Gold.PLP.Chemscore.Internal.Correction>
0.2885

> <Gold.Rescore>
     Score         DG    S(hbond)    S(metal)    S(lipo)     H(rot)  DE(clash)    DE(int)     intcor
     14.59     -17.71       2.12        0.00      86.62       1.95       0.35       2.77       ----

> <Gold.Chemscore.Fitness>
14.5894

> <Gold.Chemscore.DG>
-17.7089

> <Gold.Chemscore.ZeroCoef>
-5.4800

> <Gold.Chemscore.Hbond>
2.1214

> <Gold.Chemscore.Metal>
0.0000

> <Gold.Chemscore.Lipo>
86.6174

> <Gold.Chemscore.Internal_Hbond>
0.0000

> <Gold.Chemscore.DEClash>
0.3513

> <Gold.Chemscore.DEInternal>
2.7682

> <Gold.Chemscore.Rot>
1.9495

> <Gold.Chemscore.Internal.Correction>
   9.000000E+99

> <Gold.Chemscore.Hbonds>
donor molecule, donor type, donor heavy atom, donor atom, acceptor molecule, acceptor atom, score
      L1  H     9    33       P1  7948  0.74
      P1  H  7954  7966       L1     9  0.07
      P1  H 10752 10765       L1    22  0.97

> <Gold.Chemscore.Hbond.Weighted>
-7.0854

> <Gold.Chemscore.Metal.Weighted>
-0.0000

> <Gold.Chemscore.Lipo.Weighted>
-10.1342

> <Gold.Chemscore.Internal_Hbond.Weighted>
0.0000

> <Gold.Chemscore.DEClash.Weighted>
0.3513

> <Gold.Chemscore.DEInternal.Weighted>
2.7682

> <Gold.Chemscore.Rot.Weighted>
4.9908

> <Gold.Chemscore.Internal.Correction.Weighted>
   9.000000E+99

> <Gold.Protein.RotatedTorsions>
[ 6907 6896 6895 6894 ] final  165.12 input  -60.11 | X-H torsion
[ 7974 7965 7964 7962 ] final   44.85 input  175.53 | X-H torsion
[ 8008 7997 7996 7995 ] final   47.95 input   59.86 | X-H torsion
[ 10167 10162 10161 10158 ] final   91.10 input  -65.29 | X-H torsion
[ 10718 10713 10712 10709 ] final -135.71 input   66.30 | X-H torsion
[ 10763 10752 10751 10750 ] final -161.22 input  -60.55 | X-H torsion
[ 11005 11000 10999 10996 ] final   21.81 input  -57.11 | X-H torsion

> <Gold.Protein.ActiveResidues>
 VAL166  LYS551  ARG553  GLY616  TRP617  ASP618  TYR619  PRO620  LYS621  CYS622 
 ASP623  PHE694  ASN695  SER759  ASP760  ASP761  ALA762  ILE779  LEU786  VAL792 
 PHE793  MET794  SER795  GLU796  ALA797  LYS798  CYS799  TRP800  GLU811  SER814 

> <Gold.Protein.RotatedAtoms>
  151.8993  133.3534  159.3824 H   0  0  0  0  0  0  0  0  0  0  0  0  # atno 6907 bound_to 6896
  150.7084  134.4844  159.5495 H   0  0  0  0  0  0  0  0  0  0  0  0  # atno 6908 bound_to 6896
  152.2430  134.8210  160.0508 H   0  0  0  0  0  0  0  0  0  0  0  0  # atno 6909 bound_to 6896
  146.0532  139.5028  142.9705 H   0  0  0  0  0  0  0  0  0  0  0  0  # atno 7974 bound_to 7965
  155.3775  140.3427  155.4245 H   0  0  0  0  0  0  0  0  0  0  0  0  # atno 8008 bound_to 7997
  156.1629  140.1606  156.8615 H   0  0  0  0  0  0  0  0  0  0  0  0  # atno 8009 bound_to 7997
  154.5157  140.0779  156.8058 H   0  0  0  0  0  0  0  0  0  0  0  0  # atno 8010 bound_to 7997
  139.8408  144.6642  150.9286 H   0  0  0  0  0  0  0  0  0  0  0  0  # atno 10167 bound_to 10162
  156.2692  130.7255  151.1216 H   0  0  0  0  0  0  0  0  0  0  0  0  # atno 10718 bound_to 10713
  154.7322  135.3049  154.8872 H   0  0  0  0  0  0  0  0  0  0  0  0  # atno 10763 bound_to 10752
  153.9711  135.6741  153.4751 H   0  0  0  0  0  0  0  0  0  0  0  0  # atno 10764 bound_to 10752
  153.0929  135.4950  154.8645 H   0  0  0  0  0  0  0  0  0  0  0  0  # atno 10765 bound_to 10752
  140.3875  134.1854  155.7663 H   0  0  0  0  0  0  0  0  0  0  0  0  # atno 11005 bound_to 11000
  145.6689  141.0221  143.1668 LP  0  0  0  0  0  0  0  0  0  0  0  0  # atno 17320 bound_to 7965
  144.7133  139.8287  143.7407 LP  0  0  0  0  0  0  0  0  0  0  0  0  # atno 17321 bound_to 7965
  140.7798  143.3915  151.1303 LP  0  0  0  0  0  0  0  0  0  0  0  0  # atno 17342 bound_to 10162
  139.7561  143.8705  152.3089 LP  0  0  0  0  0  0  0  0  0  0  0  0  # atno 17343 bound_to 10162
  157.7278  131.0636  150.5850 LP  0  0  0  0  0  0  0  0  0  0  0  0  # atno 17370 bound_to 10713
  156.5945  130.4338  149.5923 LP  0  0  0  0  0  0  0  0  0  0  0  0  # atno 17371 bound_to 10713
  141.1902  133.8221  157.0926 LP  0  0  0  0  0  0  0  0  0  0  0  0  # atno 17394 bound_to 11000
  140.0431  134.9844  157.0999 LP  0  0  0  0  0  0  0  0  0  0  0  0  # atno 17395 bound_to 11000

$$$$
