AV-unprocessed.smi:3255|AV-procd|sdf|12464|dock10
  -GOLD-   2272018363D 1   1.00000     0.00000
 Structure written by MMmdl.
 38 39  0  0  0  0  0  0  0  0  1 V2000
  152.1390  144.7509  158.4122 C   0  0  0  0  0  0  0  0  0  0  0  0
  151.8381  143.4324  159.1462 C   0  0  1  0  0  0  0  0  0  0  0  0
  151.8874  142.3192  158.2019 N   0  0  0  0  0  0  0  0  0  0  0  0
  150.8396  141.5685  157.8346 C   0  0  0  0  0  0  0  0  0  0  0  0
  149.6877  141.7483  158.2305 O   0  0  0  0  0  0  0  0  0  0  0  0
  151.1986  140.5943  156.9875 N   0  0  0  0  0  0  0  0  0  0  0  0
  150.2877  139.6087  156.4179 C   0  0  0  0  0  0  0  0  0  0  0  0
  150.2454  139.6997  154.8838 C   0  0  0  0  0  0  0  0  0  0  0  0
  148.9791  140.2269  154.4188 N   0  0  0  0  0  0  0  0  0  0  0  0
  148.0089  139.5518  153.6904 C   0  0  0  0  0  0  0  0  0  0  0  0
  146.9831  140.4455  153.4804 C   0  0  0  0  0  0  0  0  0  0  0  0
  147.2986  141.6683  154.0685 N   0  0  0  0  0  0  0  0  0  0  0  0
  148.4947  141.4623  154.6048 C   0  0  0  0  0  0  0  0  0  0  0  0
  152.8312  143.1630  160.2926 C   0  0  1  0  0  0  0  0  0  0  0  0
  152.4466  143.7871  161.6354 C   0  0  0  0  0  0  0  0  0  0  0  0
  153.1174  142.8858  162.6608 C   0  0  0  0  0  0  0  0  0  0  0  0
  153.5263  141.6468  161.8604 C   0  0  0  0  0  0  0  0  0  0  0  0
  152.8629  141.7799  160.6118 O   0  0  0  0  0  0  0  0  0  0  0  0
  152.0715  145.6049  159.0862 H   0  0  0  0  0  0  0  0  0  0  0  0
  151.4295  144.9239  157.6023 H   0  0  0  0  0  0  0  0  0  0  0  0
  153.1405  144.7450  157.9812 H   0  0  0  0  0  0  0  0  0  0  0  0
  150.8344  143.4916  159.5716 H   0  0  0  0  0  0  0  0  0  0  0  0
  152.7942  142.0875  157.8236 H   0  0  0  0  0  0  0  0  0  0  0  0
  152.1703  140.5261  156.7223 H   0  0  0  0  0  0  0  0  0  0  0  0
  150.5780  138.6053  156.7347 H   0  0  0  0  0  0  0  0  0  0  0  0
  149.2942  139.7887  156.8296 H   0  0  0  0  0  0  0  0  0  0  0  0
  151.0465  140.3422  154.5157 H   0  0  0  0  0  0  0  0  0  0  0  0
  150.3938  138.7174  154.4333 H   0  0  0  0  0  0  0  0  0  0  0  0
  148.1258  138.5204  153.3911 H   0  0  0  0  0  0  0  0  0  0  0  0
  146.0494  140.3032  152.9567 H   0  0  0  0  0  0  0  0  0  0  0  0
  149.0302  142.2276  155.1475 H   0  0  0  0  0  0  0  0  0  0  0  0
  153.8370  143.4813  160.0105 H   0  0  0  0  0  0  0  0  0  0  0  0
  152.7598  144.8281  161.7204 H   0  0  0  0  0  0  0  0  0  0  0  0
  151.3651  143.7498  161.7732 H   0  0  0  0  0  0  0  0  0  0  0  0
  153.9911  143.3633  163.1055 H   0  0  0  0  0  0  0  0  0  0  0  0
  152.4255  142.6342  163.4652 H   0  0  0  0  0  0  0  0  0  0  0  0
  154.6045  141.6366  161.6939 H   0  0  0  0  0  0  0  0  0  0  0  0
  153.2491  140.7161  162.3560 H   0  0  0  0  0  0  0  0  0  0  0  0
  1  2  1  0  0  0  0
  1 19  1  0  0  0  0
  1 20  1  0  0  0  0
  1 21  1  0  0  0  0
  2  3  1  0  0  0  0
  2 14  1  0  0  0  0
  2 22  1  0  0  0  0
  3  4  1  0  0  0  0
  3 23  1  0  0  0  0
  4  5  2  0  0  0  0
  4  6  1  0  0  0  0
  6  7  1  0  0  0  0
  6 24  1  0  0  0  0
  7  8  1  0  0  0  0
  7 25  1  0  0  0  0
  7 26  1  0  0  0  0
  8  9  1  0  0  0  0
  8 27  1  0  0  0  0
  8 28  1  0  0  0  0
  9 13  1  0  0  0  0
  9 10  1  0  0  0  0
 10 11  2  0  0  0  0
 10 29  1  0  0  0  0
 11 12  1  0  0  0  0
 11 30  1  0  0  0  0
 12 13  2  0  0  0  0
 13 31  1  0  0  0  0
 14 18  1  0  0  0  0
 14 15  1  0  0  0  0
 14 32  1  0  0  0  0
 15 16  1  0  0  0  0
 15 33  1  0  0  0  0
 15 34  1  0  0  0  0
 16 17  1  0  0  0  0
 16 35  1  0  0  0  0
 16 36  1  0  0  0  0
 17 18  1  0  0  0  0
 17 37  1  0  0  0  0
 17 38  1  0  0  0  0
M  END
> <s_m_source_file>
AV-unprocessed.smi

> <i_m_source_file_index>
3255

> <i_lp_mmshare_version>
43012

> <i_f3d_flags>
0

> <s_epik_input>
TzFbQ0gyXVtDSDJdW0NIMl1bQ0BIXTFbQ0BIXShbQ0gzXSlbTkhdQyg9TylbTkhdW0NIMl1bQ0gyXW4yW2NIXVtjSF1uW2NIXTI=

> <s_epik_cmdline>
J2VwaWtfcHl0aG9uJywgJy1waCcsICc3LjAnLCAnLXRuJywgJzgnLCAnLW1hJywgJzIwMCcsICctbWV0YWxfYmluZGluZycsICctaW1hZScsICc8aW5maWxlLm1hZT4nLCAnLW9tYWUnLCAnPG91dGZpbGUubWFlPic=

> <r_lp_tautomer_probability>
1

> <r_epik_Ionization_Penalty>
0.620274

> <r_epik_Ionization_Penalty_Charging>
0.620225

> <r_epik_Ionization_Penalty_Neutral>
4.91362e-05

> <r_epik_State_Penalty>
0.636186

> <r_epik_Charging_Adjusted_Penalty>
1.25641

> <i_epik_Tot_Q>
0

> <i_epik_Tot_abs_Q>
0

> <r_epik_Metal_State_Penalty>
0.306491

> <b_epik_Metal_Only>
0

> <s_lp_Force_Field>
OPLS_2005

> <r_lp_Energy>
17.3194

> <b_lp_Chiralities_Consistent>
1

> <s_lp_Variant>
AV-unprocessed.smi:3255-8

> <Gold.Version>
5.8.1

> <Gold.Id.Protein>
6NUR|6NUR_protein|mol2

> <Gold.PLP.Fitness>
45.7006

> <Gold.PLP.PLP>
-40.5164

> <Gold.PLP.part.hbond>
0.0000

> <Gold.PLP.part.metal>
0.0000

> <Gold.PLP.part.buried>
-2.7837

> <Gold.PLP.part.nonpolar>
-37.4919

> <Gold.PLP.part.repulsive>
0.3807

> <Gold.PLP.ligand.clash>
0.0000

> <Gold.PLP.ligand.torsion>
0.9886

> <Gold.PLP.Chemscore.Hbond>
0.0000

> <Gold.PLP.Chemscore.CHOScore>
2.3695

> <Gold.PLP.Chemscore.Metal>
0.0000

> <Gold.Chemscore.Hbonds>
donor molecule, donor type, donor heavy atom, donor atom, acceptor molecule, acceptor atom, score
      L1  C    10    29       P1  7948  0.18
      L1  C    11    30       P1 10175  1.00
      L1  C    13    31       P1  8028  0.98

> <Gold.PLP.Chemscore.Internal.Correction>
0.0529

> <Gold.Rescore>
     Score         DG    S(hbond)    S(metal)    S(lipo)     H(rot)  DE(clash)    DE(int)     intcor
     10.88     -11.42       0.00        0.00      98.57       2.18       0.09       0.46       ----

> <Gold.Chemscore.Fitness>
10.8756

> <Gold.Chemscore.DG>
-11.4241

> <Gold.Chemscore.ZeroCoef>
-5.4800

> <Gold.Chemscore.Hbond>
0.0000

> <Gold.Chemscore.Metal>
0.0000

> <Gold.Chemscore.Lipo>
98.5660

> <Gold.Chemscore.Internal_Hbond>
0.0000

> <Gold.Chemscore.DEClash>
0.0853

> <Gold.Chemscore.DEInternal>
0.4632

> <Gold.Chemscore.Rot>
2.1828

> <Gold.Chemscore.Internal.Correction>
   9.000000E+99

> <Gold.Chemscore.Hbond.Weighted>
-0.0000

> <Gold.Chemscore.Metal.Weighted>
-0.0000

> <Gold.Chemscore.Lipo.Weighted>
-11.5322

> <Gold.Chemscore.Internal_Hbond.Weighted>
0.0000

> <Gold.Chemscore.DEClash.Weighted>
0.0853

> <Gold.Chemscore.DEInternal.Weighted>
0.4632

> <Gold.Chemscore.Rot.Weighted>
5.5881

> <Gold.Chemscore.Internal.Correction.Weighted>
   9.000000E+99

> <Gold.Protein.RotatedTorsions>
[ 6907 6896 6895 6894 ] final   45.75 input  -60.11 | X-H torsion
[ 7974 7965 7964 7962 ] final  -64.31 input  175.53 | X-H torsion
[ 8008 7997 7996 7995 ] final  -61.88 input   59.86 | X-H torsion
[ 10167 10162 10161 10158 ] final -137.01 input  -65.29 | X-H torsion
[ 10718 10713 10712 10709 ] final   15.54 input   66.30 | X-H torsion
[ 10763 10752 10751 10750 ] final  124.67 input  -60.55 | X-H torsion
[ 11005 11000 10999 10996 ] final -151.03 input  -57.11 | X-H torsion

> <Gold.Protein.ActiveResidues>
 VAL166  LYS551  ARG553  GLY616  TRP617  ASP618  TYR619  PRO620  LYS621  CYS622 
 ASP623  PHE694  ASN695  SER759  ASP760  ASP761  ALA762  ILE779  LEU786  VAL792 
 PHE793  MET794  SER795  GLU796  ALA797  LYS798  CYS799  TRP800  GLU811  SER814 

> <Gold.Protein.RotatedAtoms>
  152.2483  134.8159  160.0449 H   0  0  0  0  0  0  0  0  0  0  0  0  # atno 6907 bound_to 6896
  151.8848  133.3498  159.3786 H   0  0  0  0  0  0  0  0  0  0  0  0  # atno 6908 bound_to 6896
  150.7075  134.4909  159.5559 H   0  0  0  0  0  0  0  0  0  0  0  0  # atno 6909 bound_to 6896
  145.7683  140.8826  143.0393 H   0  0  0  0  0  0  0  0  0  0  0  0  # atno 7974 bound_to 7965
  154.4470  140.1008  156.6500 H   0  0  0  0  0  0  0  0  0  0  0  0  # atno 8008 bound_to 7997
  155.5408  140.3483  155.4428 H   0  0  0  0  0  0  0  0  0  0  0  0  # atno 8009 bound_to 7997
  156.0598  140.1324  156.9943 H   0  0  0  0  0  0  0  0  0  0  0  0  # atno 8010 bound_to 7997
  139.8621  143.7064  152.2649 H   0  0  0  0  0  0  0  0  0  0  0  0  # atno 10167 bound_to 10162
  157.0549  130.6285  149.5775 H   0  0  0  0  0  0  0  0  0  0  0  0  # atno 10718 bound_to 10713
  153.6650  135.3340  155.3138 H   0  0  0  0  0  0  0  0  0  0  0  0  # atno 10763 bound_to 10752
  154.8505  135.4373  154.1764 H   0  0  0  0  0  0  0  0  0  0  0  0  # atno 10764 bound_to 10752
  153.2741  135.7003  153.7527 H   0  0  0  0  0  0  0  0  0  0  0  0  # atno 10765 bound_to 10752
  140.7339  134.3591  157.5161 H   0  0  0  0  0  0  0  0  0  0  0  0  # atno 11005 bound_to 11000
  144.6817  139.9820  143.7483 LP  0  0  0  0  0  0  0  0  0  0  0  0  # atno 17320 bound_to 7965
  146.0195  139.3238  143.0821 LP  0  0  0  0  0  0  0  0  0  0  0  0  # atno 17321 bound_to 7965
  139.7364  144.7570  151.0721 LP  0  0  0  0  0  0  0  0  0  0  0  0  # atno 17342 bound_to 10162
  140.7773  143.5025  150.9753 LP  0  0  0  0  0  0  0  0  0  0  0  0  # atno 17343 bound_to 10162
  155.9996  130.5072  150.7613 LP  0  0  0  0  0  0  0  0  0  0  0  0  # atno 17370 bound_to 10713
  157.5001  131.0918  151.0325 LP  0  0  0  0  0  0  0  0  0  0  0  0  # atno 17371 bound_to 10713
  139.8820  134.9036  156.2859 LP  0  0  0  0  0  0  0  0  0  0  0  0  # atno 17394 bound_to 11000
  140.9897  133.7216  156.0795 LP  0  0  0  0  0  0  0  0  0  0  0  0  # atno 17395 bound_to 11000

$$$$
