AV-unprocessed.smi:653|AV-procd|sdf|3210|dock4
  -GOLD-   22720 0143D 1   1.00000     0.00000
 Structure written by MMmdl.
 45 46  0  0  0  0  0  0  0  0  2 V2000
  144.2509  132.1728  149.7262 C   0  0  0  0  0  0  0  0  0  0  0  0
  144.2109  133.4426  150.5502 C   0  0  0  0  0  0  0  0  0  0  0  0
  143.5023  133.5262  151.7680 C   0  0  0  0  0  0  0  0  0  0  0  0
  143.5129  134.7379  152.4896 C   0  0  0  0  0  0  0  0  0  0  0  0
  144.2313  135.8421  151.9799 C   0  0  0  0  0  0  0  0  0  0  0  0
  144.2678  137.1597  152.7370 C   0  0  0  0  0  0  0  0  0  0  0  0
  145.7027  137.5825  153.0718 C   0  0  0  0  0  0  0  0  0  0  0  0
  146.5626  136.7406  153.3356 O   0  0  0  0  0  0  0  0  0  0  0  0
  145.9478  138.9013  153.0529 N   0  0  0  0  0  0  0  0  0  0  0  0
  147.2377  139.5189  153.3436 C   0  0  0  0  0  0  0  0  0  0  0  0
  147.2154  140.3360  154.6600 C   0  0  2  0  0  0  0  0  0  0  0  0
  146.1454  141.4197  154.6549 C   0  0  0  0  0  0  0  0  0  0  0  0
  146.8516  142.6172  154.0135 C   0  0  0  0  0  0  0  0  0  0  0  0
  148.2438  142.3153  154.0397 O   0  0  0  0  0  0  0  0  0  0  0  0
  148.4653  141.2018  154.8949 C   0  0  2  0  0  0  0  0  0  0  0  0
  149.8427  140.5494  154.6377 C   0  0  0  0  0  0  0  0  0  0  0  0
  149.8137  139.0349  154.9071 C   0  0  0  0  0  0  0  0  0  0  0  0
  150.9352  141.2135  155.4911 C   0  0  0  0  0  0  0  0  0  0  0  0
  144.9200  135.7000  150.7555 C   0  0  0  0  0  0  0  0  0  0  0  0
  144.8872  134.5216  150.0957 N   0  3  0  0  0  0  0  0  0  0  0  0
  143.3754  131.5541  149.9254 H   0  0  0  0  0  0  0  0  0  0  0  0
  145.1425  131.5942  149.9688 H   0  0  0  0  0  0  0  0  0  0  0  0
  144.2676  132.4016  148.6601 H   0  0  0  0  0  0  0  0  0  0  0  0
  142.9591  132.6728  152.1477 H   0  0  0  0  0  0  0  0  0  0  0  0
  142.9786  134.8158  153.4254 H   0  0  0  0  0  0  0  0  0  0  0  0
  143.7967  137.9419  152.1407 H   0  0  0  0  0  0  0  0  0  0  0  0
  143.6828  137.0642  153.6531 H   0  0  0  0  0  0  0  0  0  0  0  0
  145.1874  139.5241  152.8212 H   0  0  0  0  0  0  0  0  0  0  0  0
  147.9975  138.7380  153.3798 H   0  0  0  0  0  0  0  0  0  0  0  0
  147.5023  140.1611  152.5031 H   0  0  0  0  0  0  0  0  0  0  0  0
  147.0658  139.6568  155.5003 H   0  0  0  0  0  0  0  0  0  0  0  0
  145.2293  141.1412  154.1338 H   0  0  0  0  0  0  0  0  0  0  0  0
  145.8725  141.6663  155.6819 H   0  0  0  0  0  0  0  0  0  0  0  0
  146.5379  142.7574  152.9789 H   0  0  0  0  0  0  0  0  0  0  0  0
  146.6461  143.5387  154.5589 H   0  0  0  0  0  0  0  0  0  0  0  0
  148.4414  141.5719  155.9223 H   0  0  0  0  0  0  0  0  0  0  0  0
  150.1177  140.7044  153.5943 H   0  0  0  0  0  0  0  0  0  0  0  0
  149.5496  138.8240  155.9439 H   0  0  0  0  0  0  0  0  0  0  0  0
  150.7873  138.5836  154.7144 H   0  0  0  0  0  0  0  0  0  0  0  0
  149.0904  138.5240  154.2718 H   0  0  0  0  0  0  0  0  0  0  0  0
  150.7223  141.1166  156.5560 H   0  0  0  0  0  0  0  0  0  0  0  0
  151.0235  142.2763  155.2648 H   0  0  0  0  0  0  0  0  0  0  0  0
  151.9093  140.7606  155.3044 H   0  0  0  0  0  0  0  0  0  0  0  0
  145.4982  136.4852  150.2901 H   0  0  0  0  0  0  0  0  0  0  0  0
  145.3975  134.4419  149.2159 H   0  0  0  0  0  0  0  0  0  0  0  0
  1  2  1  0  0  0  0
  1 21  1  0  0  0  0
  1 22  1  0  0  0  0
  1 23  1  0  0  0  0
  2 20  1  0  0  0  0
  2  3  2  0  0  0  0
  3  4  1  0  0  0  0
  3 24  1  0  0  0  0
  4  5  2  0  0  0  0
  4 25  1  0  0  0  0
  5  6  1  0  0  0  0
  5 19  1  0  0  0  0
  6  7  1  0  0  0  0
  6 26  1  0  0  0  0
  6 27  1  0  0  0  0
  7  8  2  0  0  0  0
  7  9  1  0  0  0  0
  9 10  1  0  0  0  0
  9 28  1  0  0  0  0
 10 11  1  0  0  0  0
 10 29  1  0  0  0  0
 10 30  1  0  0  0  0
 11 15  1  0  0  0  0
 11 12  1  0  0  0  0
 11 31  1  0  0  0  0
 12 13  1  0  0  0  0
 12 32  1  0  0  0  0
 12 33  1  0  0  0  0
 13 14  1  0  0  0  0
 13 34  1  0  0  0  0
 13 35  1  0  0  0  0
 14 15  1  0  0  0  0
 15 16  1  0  0  0  0
 15 36  1  0  0  0  0
 16 17  1  0  0  0  0
 16 18  1  0  0  0  0
 16 37  1  0  0  0  0
 17 38  1  0  0  0  0
 17 39  1  0  0  0  0
 17 40  1  0  0  0  0
 18 41  1  0  0  0  0
 18 42  1  0  0  0  0
 18 43  1  0  0  0  0
 19 20  2  0  0  0  0
 19 44  1  0  0  0  0
 20 45  1  0  0  0  0
M  CHG  1  20   1
M  END
> <s_m_source_file>
AV-unprocessed.smi

> <i_m_source_file_index>
653

> <i_lp_mmshare_version>
43012

> <i_f3d_flags>
0

> <s_epik_input>
W0NIM11jMVtjSF1bY0hdYyhbY0hdbjEpW0NIMl1DKD1PKVtOSF1bQ0gyXVtDQEBIXTJbQ0gyXVtDSDJdT1tDQEhdMltDSF0oW0NIM10pW0NIM10=

> <s_epik_cmdline>
J2VwaWtfcHl0aG9uJywgJy1waCcsICc3LjAnLCAnLXRuJywgJzgnLCAnLW1hJywgJzIwMCcsICctbWV0YWxfYmluZGluZycsICctaW1hZScsICc8aW5maWxlLm1hZT4nLCAnLW9tYWUnLCAnPG91dGZpbGUubWFlPic=

> <r_epik_Ionization_Penalty>
2.12486

> <r_epik_Ionization_Penalty_Charging>
2.12486

> <r_epik_Ionization_Penalty_Neutral>
9.0873e-08

> <r_epik_State_Penalty>
2.26279

> <r_epik_Charging_Adjusted_Penalty>
4.38765

> <i_epik_Tot_Q>
1

> <i_epik_Tot_abs_Q>
1

> <r_epik_Metal_State_Penalty>
2.27914

> <b_epik_Metal_Only>
0

> <s_lp_Force_Field>
OPLS_2005

> <r_lp_Energy>
28.354

> <b_lp_Chiralities_Consistent>
1

> <s_lp_Variant>
AV-unprocessed.smi:653-7

> <Gold.Version>
5.8.1

> <Gold.Id.Protein>
6NUR|6NUR_protein|mol2

> <Gold.PLP.Fitness>
41.7364

> <Gold.PLP.PLP>
-37.6008

> <Gold.PLP.part.hbond>
-3.0000

> <Gold.PLP.part.metal>
0.0000

> <Gold.PLP.part.buried>
-4.8846

> <Gold.PLP.part.nonpolar>
-31.2745

> <Gold.PLP.part.repulsive>
2.4928

> <Gold.PLP.ligand.clash>
0.0000

> <Gold.PLP.ligand.torsion>
1.1271

> <Gold.PLP.Chemscore.Hbond>
2.1105

> <Gold.PLP.Chemscore.CHOScore>
0.0000

> <Gold.PLP.Chemscore.Metal>
0.0000

> <Gold.Chemscore.Hbonds>
donor molecule, donor type, donor heavy atom, donor atom, acceptor molecule, acceptor atom, score
      L1  H     9    28       P1 10175  1.00
      L1  H    20    45       P1  7921  1.00
      P1  H  8011  8017       L1    14  0.08

> <Gold.PLP.Chemscore.Internal.Correction>
0.0582

> <Gold.Rescore>
     Score         DG    S(hbond)    S(metal)    S(lipo)     H(rot)  DE(clash)    DE(int)     intcor
     16.97     -19.07       2.08        0.00      91.20       1.57       0.51       1.60       ----

> <Gold.Chemscore.Fitness>
16.9650

> <Gold.Chemscore.DG>
-19.0736

> <Gold.Chemscore.ZeroCoef>
-5.4800

> <Gold.Chemscore.Hbond>
2.0786

> <Gold.Chemscore.Metal>
0.0000

> <Gold.Chemscore.Lipo>
91.2013

> <Gold.Chemscore.Internal_Hbond>
0.0000

> <Gold.Chemscore.DEClash>
0.5058

> <Gold.Chemscore.DEInternal>
1.6028

> <Gold.Chemscore.Rot>
1.5701

> <Gold.Chemscore.Internal.Correction>
   9.000000E+99

> <Gold.Chemscore.Hbonds>
donor molecule, donor type, donor heavy atom, donor atom, acceptor molecule, acceptor atom, score
      L1  H     9    28       P1 10175  1.00
      L1  H    20    45       P1  7921  0.98
      P1  H  8011  8017       L1    14  0.07

> <Gold.Chemscore.Hbond.Weighted>
-6.9426

> <Gold.Chemscore.Metal.Weighted>
-0.0000

> <Gold.Chemscore.Lipo.Weighted>
-10.6706

> <Gold.Chemscore.Internal_Hbond.Weighted>
0.0000

> <Gold.Chemscore.DEClash.Weighted>
0.5058

> <Gold.Chemscore.DEInternal.Weighted>
1.6028

> <Gold.Chemscore.Rot.Weighted>
4.0196

> <Gold.Chemscore.Internal.Correction.Weighted>
   9.000000E+99

> <Gold.Protein.RotatedTorsions>
[ 6907 6896 6895 6894 ] final   66.17 input  -60.11 | X-H torsion
[ 7974 7965 7964 7962 ] final  140.26 input  175.53 | X-H torsion
[ 8008 7997 7996 7995 ] final    5.55 input   59.86 | X-H torsion
[ 10167 10162 10161 10158 ] final  -38.96 input  -65.29 | X-H torsion
[ 10718 10713 10712 10709 ] final   98.82 input   66.30 | X-H torsion
[ 10763 10752 10751 10750 ] final  131.58 input  -60.55 | X-H torsion
[ 11005 11000 10999 10996 ] final  114.67 input  -57.11 | X-H torsion

> <Gold.Protein.ActiveResidues>
 VAL166  LYS551  ARG553  GLY616  TRP617  ASP618  TYR619  PRO620  LYS621  CYS622 
 ASP623  PHE694  ASN695  SER759  ASP760  ASP761  ALA762  ILE779  LEU786  VAL792 
 PHE793  MET794  SER795  GLU796  ALA797  LYS798  CYS799  TRP800  GLU811  SER814 

> <Gold.Protein.RotatedAtoms>
  152.4461  134.5491  159.9861 H   0  0  0  0  0  0  0  0  0  0  0  0  # atno 6907 bound_to 6896
  151.5576  133.3402  159.2973 H   0  0  0  0  0  0  0  0  0  0  0  0  # atno 6908 bound_to 6896
  150.8378  134.7690  159.6970 H   0  0  0  0  0  0  0  0  0  0  0  0  # atno 6909 bound_to 6896
  144.9203  139.5177  143.5666 H   0  0  0  0  0  0  0  0  0  0  0  0  # atno 7974 bound_to 7965
  154.7297  140.2728  155.6467 H   0  0  0  0  0  0  0  0  0  0  0  0  # atno 8008 bound_to 7997
  156.2846  140.2718  156.1919 H   0  0  0  0  0  0  0  0  0  0  0  0  # atno 8009 bound_to 7997
  155.0397  140.0371  157.2495 H   0  0  0  0  0  0  0  0  0  0  0  0  # atno 8010 bound_to 7997
  140.7078  143.3244  151.2715 H   0  0  0  0  0  0  0  0  0  0  0  0  # atno 10167 bound_to 10162
  157.6888  131.0651  150.4854 H   0  0  0  0  0  0  0  0  0  0  0  0  # atno 10718 bound_to 10713
  153.7766  135.3174  155.3360 H   0  0  0  0  0  0  0  0  0  0  0  0  # atno 10763 bound_to 10752
  154.8177  135.4625  154.0692 H   0  0  0  0  0  0  0  0  0  0  0  0  # atno 10764 bound_to 10752
  153.1968  135.6916  153.8367 H   0  0  0  0  0  0  0  0  0  0  0  0  # atno 10765 bound_to 10752
  139.8987  134.9571  156.6927 H   0  0  0  0  0  0  0  0  0  0  0  0  # atno 11005 bound_to 11000
  146.3201  139.8077  142.8952 LP  0  0  0  0  0  0  0  0  0  0  0  0  # atno 17320 bound_to 7965
  145.3308  141.0266  143.3448 LP  0  0  0  0  0  0  0  0  0  0  0  0  # atno 17321 bound_to 7965
  139.6708  144.0024  152.2751 LP  0  0  0  0  0  0  0  0  0  0  0  0  # atno 17342 bound_to 10162
  139.9622  144.6550  150.8069 LP  0  0  0  0  0  0  0  0  0  0  0  0  # atno 17343 bound_to 10162
  156.5183  130.4156  149.6264 LP  0  0  0  0  0  0  0  0  0  0  0  0  # atno 17370 bound_to 10713
  156.3177  130.7263  151.2169 LP  0  0  0  0  0  0  0  0  0  0  0  0  # atno 17371 bound_to 10713
  140.7212  133.9139  155.8148 LP  0  0  0  0  0  0  0  0  0  0  0  0  # atno 17394 bound_to 11000
  141.0226  134.0868  157.4104 LP  0  0  0  0  0  0  0  0  0  0  0  0  # atno 17395 bound_to 11000

$$$$
