AV-unprocessed.smi:1816|AV-procd|sdf|7367|dock6
  -GOLD-   22720 9 33D 1   1.00000     0.00000
 Structure written by MMmdl.
 35 36  0  0  0  0  0  0  0  0  3 V2000
  145.9764  135.1431  154.5669 C   0  0  0  0  0  0  0  0  0  0  0  0
  146.7227  136.4261  154.9985 C   0  0  1  0  0  0  0  0  0  0  0  0
  147.9622  136.0776  155.8556 C   0  0  0  0  0  0  0  0  0  0  0  0
  147.8997  136.6943  157.1747 N   0  0  0  0  0  0  0  0  0  0  0  0
  148.5982  136.2965  158.2455 C   0  0  0  0  0  0  0  0  0  0  0  0
  149.3699  135.3391  158.1532 O   0  0  0  0  0  0  0  0  0  0  0  0
  148.3567  137.0320  159.3535 N   0  5  0  0  0  0  0  0  0  0  0  0
  147.9326  136.4331  160.4783 C   0  0  0  0  0  0  0  0  0  0  0  0
  147.5297  137.1119  161.5587 N   0  0  0  0  0  0  0  0  0  0  0  0
  147.1248  136.2897  162.6117 C   0  0  0  0  0  0  0  0  0  0  0  0
  147.2119  134.9536  162.3227 C   0  0  0  0  0  0  0  0  0  0  0  0
  147.8103  134.6867  160.7102 S   0  0  0  0  0  0  0  0  0  0  0  0
  147.1164  137.2452  153.8158 N   0  3  0  0  0  0  0  0  0  0  0  0
  146.0616  137.4595  152.8009 C   0  0  0  0  0  0  0  0  0  0  0  0
  146.5230  138.6719  152.0010 C   0  0  0  0  0  0  0  0  0  0  0  0
  147.1631  139.5587  153.0624 C   0  0  0  0  0  0  0  0  0  0  0  0
  147.6784  138.5838  154.1304 C   0  0  0  0  0  0  0  0  0  0  0  0
  145.6929  134.5327  155.4244 H   0  0  0  0  0  0  0  0  0  0  0  0
  146.5966  134.5258  153.9163 H   0  0  0  0  0  0  0  0  0  0  0  0
  145.0514  135.3654  154.0354 H   0  0  0  0  0  0  0  0  0  0  0  0
  146.0402  137.0238  155.6053 H   0  0  0  0  0  0  0  0  0  0  0  0
  148.0442  134.9950  155.9680 H   0  0  0  0  0  0  0  0  0  0  0  0
  148.8812  136.4170  155.3767 H   0  0  0  0  0  0  0  0  0  0  0  0
  147.2792  137.4822  157.2898 H   0  0  0  0  0  0  0  0  0  0  0  0
  146.7868  136.7415  163.5323 H   0  0  0  0  0  0  0  0  0  0  0  0
  146.9618  134.1150  162.9546 H   0  0  0  0  0  0  0  0  0  0  0  0
  145.9189  136.5840  152.1668 H   0  0  0  0  0  0  0  0  0  0  0  0
  145.1146  137.6837  153.2949 H   0  0  0  0  0  0  0  0  0  0  0  0
  147.2724  138.3696  151.2677 H   0  0  0  0  0  0  0  0  0  0  0  0
  145.7092  139.1654  151.4688 H   0  0  0  0  0  0  0  0  0  0  0  0
  147.9524  140.1912  152.6551 H   0  0  0  0  0  0  0  0  0  0  0  0
  146.4066  140.2127  153.4982 H   0  0  0  0  0  0  0  0  0  0  0  0
  147.3705  138.9296  155.1184 H   0  0  0  0  0  0  0  0  0  0  0  0
  148.7673  138.5259  154.1232 H   0  0  0  0  0  0  0  0  0  0  0  0
  147.8526  136.7403  153.3432 H   0  0  0  0  0  0  0  0  0  0  0  0
  1  2  1  0  0  0  0
  1 18  1  0  0  0  0
  1 19  1  0  0  0  0
  1 20  1  0  0  0  0
  2  3  1  0  0  0  0
  2 13  1  0  0  0  0
  2 21  1  0  0  0  0
  3  4  1  0  0  0  0
  3 22  1  0  0  0  0
  3 23  1  0  0  0  0
  4  5  1  0  0  0  0
  4 24  1  0  0  0  0
  5  6  2  0  0  0  0
  5  7  1  0  0  0  0
  7  8  1  0  0  0  0
  8 12  1  0  0  0  0
  8  9  2  0  0  0  0
  9 10  1  0  0  0  0
 10 11  2  0  0  0  0
 10 25  1  0  0  0  0
 11 12  1  0  0  0  0
 11 26  1  0  0  0  0
 13 17  1  0  0  0  0
 13 14  1  0  0  0  0
 13 35  1  0  0  0  0
 14 15  1  0  0  0  0
 14 27  1  0  0  0  0
 14 28  1  0  0  0  0
 15 16  1  0  0  0  0
 15 29  1  0  0  0  0
 15 30  1  0  0  0  0
 16 17  1  0  0  0  0
 16 31  1  0  0  0  0
 16 32  1  0  0  0  0
 17 33  1  0  0  0  0
 17 34  1  0  0  0  0
M  CHG  1   7  -1
M  CHG  1  13   1
M  END
> <s_m_source_file>
AV-unprocessed.smi

> <i_m_source_file_index>
1816

> <i_lp_mmshare_version>
43012

> <i_f3d_flags>
0

> <s_epik_input>
W0NIMl0xW0NIMl1bQ0gyXVtDSDJdTjFbQ0BIXShbQ0gzXSlbQ0gyXVtOSF1DKD1PKVtOSF1jMm5bY0hdW2NIXXMy

> <s_epik_cmdline>
J2VwaWtfcHl0aG9uJywgJy1waCcsICc3LjAnLCAnLXRuJywgJzgnLCAnLW1hJywgJzIwMCcsICctbWV0YWxfYmluZGluZycsICctaW1hZScsICc8aW5maWxlLm1hZT4nLCAnLW9tYWUnLCAnPG91dGZpbGUubWFlPic=

> <r_lp_tautomer_probability>
0.999

> <r_epik_Ionization_Penalty>
6.21769

> <r_epik_Ionization_Penalty_Charging>
5.38662

> <r_epik_Ionization_Penalty_Neutral>
0.831074

> <r_epik_State_Penalty>
5.38626

> <r_epik_Charging_Adjusted_Penalty>
10.7729

> <i_epik_Tot_Q>
0

> <i_epik_Tot_abs_Q>
2

> <r_epik_Metal_State_Penalty>
1.41347

> <b_epik_Metal_Only>
1

> <s_lp_Force_Field>
OPLS_2005

> <r_lp_Energy>
20.95

> <b_lp_Chiralities_Consistent>
1

> <s_lp_Variant>
AV-unprocessed.smi:1816-4

> <Gold.Version>
5.8.1

> <Gold.Id.Protein>
6NUR|6NUR_protein|mol2

> <Gold.PLP.Fitness>
37.9983

> <Gold.PLP.PLP>
-26.6056

> <Gold.PLP.part.hbond>
-4.0000

> <Gold.PLP.part.metal>
0.0000

> <Gold.PLP.part.buried>
-2.3714

> <Gold.PLP.part.nonpolar>
-19.9722

> <Gold.PLP.part.repulsive>
0.0000

> <Gold.PLP.ligand.clash>
0.0000

> <Gold.PLP.ligand.torsion>
1.5021

> <Gold.PLP.Chemscore.Hbond>
4.7840

> <Gold.PLP.Chemscore.CHOScore>
0.0000

> <Gold.PLP.Chemscore.Metal>
0.0000

> <Gold.Chemscore.Hbonds>
donor molecule, donor type, donor heavy atom, donor atom, acceptor molecule, acceptor atom, score
      L1  H    13    35       P1  7948  2.00
      P1  H  6896  6908       L1     6  0.91
      P1  H  6931  6943       L1     9  0.99
      P1  H  6934  6947       L1     9  0.82

> <Gold.PLP.Chemscore.Internal.Correction>
0.0450

> <Gold.Rescore>
     Score         DG    S(hbond)    S(metal)    S(lipo)     H(rot)  DE(clash)    DE(int)     intcor
     16.93     -18.54       3.22        0.00      54.20       1.57       0.04       1.58       ----

> <Gold.Chemscore.Fitness>
16.9265

> <Gold.Chemscore.DG>
-18.5382

> <Gold.Chemscore.ZeroCoef>
-5.4800

> <Gold.Chemscore.Hbond>
3.2151

> <Gold.Chemscore.Metal>
0.0000

> <Gold.Chemscore.Lipo>
54.2015

> <Gold.Chemscore.Internal_Hbond>
0.0000

> <Gold.Chemscore.DEClash>
0.0358

> <Gold.Chemscore.DEInternal>
1.5760

> <Gold.Chemscore.Rot>
1.5710

> <Gold.Chemscore.Internal.Correction>
   9.000000E+99

> <Gold.Chemscore.Hbonds>
donor molecule, donor type, donor heavy atom, donor atom, acceptor molecule, acceptor atom, score
      L1  H    13    35       P1  7948  0.98
      P1  H  6896  6908       L1     6  0.86
      P1  H  6931  6943       L1     9  0.35
      P1  H  6934  6947       L1     9  0.46

> <Gold.Chemscore.Hbond.Weighted>
-10.7386

> <Gold.Chemscore.Metal.Weighted>
-0.0000

> <Gold.Chemscore.Lipo.Weighted>
-6.3416

> <Gold.Chemscore.Internal_Hbond.Weighted>
0.0000

> <Gold.Chemscore.DEClash.Weighted>
0.0358

> <Gold.Chemscore.DEInternal.Weighted>
1.5760

> <Gold.Chemscore.Rot.Weighted>
4.0219

> <Gold.Chemscore.Internal.Correction.Weighted>
   9.000000E+99

> <Gold.Protein.RotatedTorsions>
[ 6907 6896 6895 6894 ] final  151.88 input  -60.11 | X-H torsion
[ 7974 7965 7964 7962 ] final -176.95 input  175.53 | X-H torsion
[ 8008 7997 7996 7995 ] final  -24.17 input   59.86 | X-H torsion
[ 10167 10162 10161 10158 ] final   -6.46 input  -65.29 | X-H torsion
[ 10718 10713 10712 10709 ] final    4.00 input   66.30 | X-H torsion
[ 10763 10752 10751 10750 ] final  -42.65 input  -60.55 | X-H torsion
[ 11005 11000 10999 10996 ] final  -42.88 input  -57.11 | X-H torsion

> <Gold.Protein.ActiveResidues>
 VAL166  LYS551  ARG553  GLY616  TRP617  ASP618  TYR619  PRO620  LYS621  CYS622 
 ASP623  PHE694  ASN695  SER759  ASP760  ASP761  ALA762  ILE779  LEU786  VAL792 
 PHE793  MET794  SER795  GLU796  ALA797  LYS798  CYS799  TRP800  GLU811  SER814 

> <Gold.Protein.RotatedAtoms>
  152.0944  133.4217  159.4558 H   0  0  0  0  0  0  0  0  0  0  0  0  # atno 6907 bound_to 6896
  150.6863  134.2833  159.4645 H   0  0  0  0  0  0  0  0  0  0  0  0  # atno 6908 bound_to 6896
  152.0688  134.9546  160.0625 H   0  0  0  0  0  0  0  0  0  0  0  0  # atno 6909 bound_to 6896
  144.7127  140.1092  143.6412 H   0  0  0  0  0  0  0  0  0  0  0  0  # atno 7974 bound_to 7965
  154.4544  140.1961  156.0422 H   0  0  0  0  0  0  0  0  0  0  0  0  # atno 8008 bound_to 7997
  156.0716  140.3283  155.7555 H   0  0  0  0  0  0  0  0  0  0  0  0  # atno 8009 bound_to 7997
  155.5254  140.0573  157.2889 H   0  0  0  0  0  0  0  0  0  0  0  0  # atno 8010 bound_to 7997
  140.6998  143.6191  150.8630 H   0  0  0  0  0  0  0  0  0  0  0  0  # atno 10167 bound_to 10162
  156.8862  130.5671  149.5651 H   0  0  0  0  0  0  0  0  0  0  0  0  # atno 10718 bound_to 10713
  153.9825  135.6715  153.4750 H   0  0  0  0  0  0  0  0  0  0  0  0  # atno 10763 bound_to 10752
  153.0742  135.4958  154.8365 H   0  0  0  0  0  0  0  0  0  0  0  0  # atno 10764 bound_to 10752
  154.7156  135.3106  154.9090 H   0  0  0  0  0  0  0  0  0  0  0  0  # atno 10765 bound_to 10752
  141.0346  133.6805  156.2655 H   0  0  0  0  0  0  0  0  0  0  0  0  # atno 11005 bound_to 11000
  145.9469  139.2707  143.1235 LP  0  0  0  0  0  0  0  0  0  0  0  0  # atno 17320 bound_to 7965
  145.9364  140.9011  143.0330 LP  0  0  0  0  0  0  0  0  0  0  0  0  # atno 17321 bound_to 7965
  139.9912  143.5845  152.2909 LP  0  0  0  0  0  0  0  0  0  0  0  0  # atno 17342 bound_to 10162
  139.6501  144.7660  151.2166 LP  0  0  0  0  0  0  0  0  0  0  0  0  # atno 17343 bound_to 10162
  156.0652  130.5697  150.9274 LP  0  0  0  0  0  0  0  0  0  0  0  0  # atno 17370 bound_to 10713
  157.6111  131.0936  150.8793 LP  0  0  0  0  0  0  0  0  0  0  0  0  # atno 17371 bound_to 10713
  140.6346  134.5229  157.5563 LP  0  0  0  0  0  0  0  0  0  0  0  0  # atno 17394 bound_to 11000
  139.9231  134.8109  156.1149 LP  0  0  0  0  0  0  0  0  0  0  0  0  # atno 17395 bound_to 11000

$$$$
