AV-unprocessed.smi:256|AV-procd|sdf|1961|dock4
  -GOLD-   2262021103D 1   1.00000     0.00000
 Structure written by MMmdl.
 61 64  0  0  0  0  0  0  0  0  1 V2000
  152.2719  138.6751  154.6738 C   0  0  0  0  0  0  0  0  0  0  0  0
  152.0269  139.4426  155.9842 C   0  0  0  0  0  0  0  0  0  0  0  0
  150.5597  139.8658  156.2328 C   0  0  2  0  0  0  0  0  0  0  0  0
  149.6187  138.8204  155.5835 C   0  0  0  0  0  0  0  0  0  0  0  0
  148.2184  139.1147  155.8785 N   0  0  0  0  0  0  0  0  0  0  0  0
  147.2912  138.1624  155.5999 C   0  0  0  0  0  0  0  0  0  0  0  0
  146.8726  137.3138  156.5776 N   0  0  0  0  0  0  0  0  0  0  0  0
  145.9643  136.3707  156.3118 C   0  0  0  0  0  0  0  0  0  0  0  0
  145.3521  136.1040  155.1572 N   0  0  0  0  0  0  0  0  0  0  0  0
  145.7621  136.9536  154.1726 C   0  0  0  0  0  0  0  0  0  0  0  0
  146.7151  138.0032  154.3072 C   0  0  0  0  0  0  0  0  0  0  0  0
  146.8580  138.6679  153.0945 N   0  0  0  0  0  0  0  0  0  0  0  0
  146.0455  138.0412  152.2886 C   0  0  0  0  0  0  0  0  0  0  0  0
  145.3546  136.9916  152.8505 N   0  0  0  0  0  0  0  0  0  0  0  0
  144.3914  136.1274  152.1849 C   0  0  0  0  0  0  0  0  0  0  0  0
  145.0302  135.0821  151.2366 C   0  0  0  0  0  0  0  0  0  0  0  0
  145.5296  135.7724  150.1045 O   0  0  0  0  0  0  0  0  0  0  0  0
  146.2107  134.3766  151.9344 C   0  0  0  0  0  0  0  0  0  0  0  0
  146.7683  133.2115  151.0978 C   0  0  0  0  0  0  0  0  0  0  0  0
  145.7268  132.2934  150.7887 O   0  0  0  0  0  0  0  0  0  0  0  0
  144.7032  132.8722  149.9887 C   0  0  0  0  0  0  0  0  0  0  0  0
  144.0188  134.0199  150.7519 C   0  0  0  0  0  0  0  0  0  0  0  0
  147.8447  140.4705  155.4951 C   0  0  0  0  0  0  0  0  0  0  0  0
  148.7916  141.4733  156.1672 C   0  0  0  0  0  0  0  0  0  0  0  0
  150.2039  141.2499  155.8362 N   0  0  0  0  0  0  0  0  0  0  0  0
  151.0150  142.2815  156.5007 C   0  0  0  0  0  0  0  0  0  0  0  0
  151.1008  142.1779  158.0326 C   0  0  0  0  0  0  0  0  0  0  0  0
  152.0593  143.1175  158.4896 O   0  0  0  0  0  0  0  0  0  0  0  0
  152.3721  142.9541  159.8620 C   0  0  0  0  0  0  0  0  0  0  0  0
  153.3379  138.5064  154.5221 H   0  0  0  0  0  0  0  0  0  0  0  0
  151.8973  139.2206  153.8081 H   0  0  0  0  0  0  0  0  0  0  0  0
  151.7896  137.6981  154.6843 H   0  0  0  0  0  0  0  0  0  0  0  0
  152.3510  138.8090  156.8108 H   0  0  0  0  0  0  0  0  0  0  0  0
  152.6822  140.3099  156.0405 H   0  0  0  0  0  0  0  0  0  0  0  0
  150.4068  139.7867  157.3107 H   0  0  0  0  0  0  0  0  0  0  0  0
  149.7508  138.8071  154.5011 H   0  0  0  0  0  0  0  0  0  0  0  0
  149.8674  137.8245  155.9535 H   0  0  0  0  0  0  0  0  0  0  0  0
  145.6884  135.7398  157.1438 H   0  0  0  0  0  0  0  0  0  0  0  0
  145.9309  138.3256  151.2525 H   0  0  0  0  0  0  0  0  0  0  0  0
  143.7903  135.6306  152.9481 H   0  0  0  0  0  0  0  0  0  0  0  0
  143.7036  136.7641  151.6271 H   0  0  0  0  0  0  0  0  0  0  0  0
  145.5960  135.1633  149.3852 H   0  0  0  0  0  0  0  0  0  0  0  0
  147.0051  135.0894  152.1596 H   0  0  0  0  0  0  0  0  0  0  0  0
  145.8771  133.9803  152.8944 H   0  0  0  0  0  0  0  0  0  0  0  0
  147.2364  133.5723  150.1808 H   0  0  0  0  0  0  0  0  0  0  0  0
  147.5410  132.6870  151.6597 H   0  0  0  0  0  0  0  0  0  0  0  0
  145.1195  133.2218  149.0427 H   0  0  0  0  0  0  0  0  0  0  0  0
  143.9722  132.1016  149.7440 H   0  0  0  0  0  0  0  0  0  0  0  0
  143.4980  133.6008  151.6138 H   0  0  0  0  0  0  0  0  0  0  0  0
  143.2526  134.4704  150.1196 H   0  0  0  0  0  0  0  0  0  0  0  0
  147.9019  140.5664  154.4100 H   0  0  0  0  0  0  0  0  0  0  0  0
  146.8183  140.6991  155.7786 H   0  0  0  0  0  0  0  0  0  0  0  0
  148.4973  142.4767  155.8576 H   0  0  0  0  0  0  0  0  0  0  0  0
  148.6523  141.4316  157.2488 H   0  0  0  0  0  0  0  0  0  0  0  0
  152.0451  142.2142  156.1470 H   0  0  0  0  0  0  0  0  0  0  0  0
  150.6792  143.2762  156.2047 H   0  0  0  0  0  0  0  0  0  0  0  0
  150.1477  142.3771  158.5163 H   0  0  0  0  0  0  0  0  0  0  0  0
  151.4079  141.1702  158.3172 H   0  0  0  0  0  0  0  0  0  0  0  0
  153.1174  143.6920  160.1589 H   0  0  0  0  0  0  0  0  0  0  0  0
  152.7839  141.9632  160.0582 H   0  0  0  0  0  0  0  0  0  0  0  0
  151.4897  143.0967  160.4870 H   0  0  0  0  0  0  0  0  0  0  0  0
  1  2  1  0  0  0  0
  1 30  1  0  0  0  0
  1 31  1  0  0  0  0
  1 32  1  0  0  0  0
  2  3  1  0  0  0  0
  2 33  1  0  0  0  0
  2 34  1  0  0  0  0
  3 25  1  0  0  0  0
  3  4  1  0  0  0  0
  3 35  1  0  0  0  0
  4  5  1  0  0  0  0
  4 36  1  0  0  0  0
  4 37  1  0  0  0  0
  5  6  1  0  0  0  0
  5 23  1  0  0  0  0
  6 11  1  0  0  0  0
  6  7  2  0  0  0  0
  7  8  1  0  0  0  0
  8  9  2  0  0  0  0
  8 38  1  0  0  0  0
  9 10  1  0  0  0  0
 10 14  1  0  0  0  0
 10 11  2  0  0  0  0
 11 12  1  0  0  0  0
 12 13  2  0  0  0  0
 13 14  1  0  0  0  0
 13 39  1  0  0  0  0
 14 15  1  0  0  0  0
 15 16  1  0  0  0  0
 15 40  1  0  0  0  0
 15 41  1  0  0  0  0
 16 22  1  0  0  0  0
 16 17  1  0  0  0  0
 16 18  1  0  0  0  0
 17 42  1  0  0  0  0
 18 19  1  0  0  0  0
 18 43  1  0  0  0  0
 18 44  1  0  0  0  0
 19 20  1  0  0  0  0
 19 45  1  0  0  0  0
 19 46  1  0  0  0  0
 20 21  1  0  0  0  0
 21 22  1  0  0  0  0
 21 47  1  0  0  0  0
 21 48  1  0  0  0  0
 22 49  1  0  0  0  0
 22 50  1  0  0  0  0
 23 24  1  0  0  0  0
 23 51  1  0  0  0  0
 23 52  1  0  0  0  0
 24 25  1  0  0  0  0
 24 53  1  0  0  0  0
 24 54  1  0  0  0  0
 25 26  1  0  0  0  0
 26 27  1  0  0  0  0
 26 55  1  0  0  0  0
 26 56  1  0  0  0  0
 27 28  1  0  0  0  0
 27 57  1  0  0  0  0
 27 58  1  0  0  0  0
 28 29  1  0  0  0  0
 29 59  1  0  0  0  0
 29 60  1  0  0  0  0
 29 61  1  0  0  0  0
M  END
> <s_m_source_file>
AV-unprocessed.smi

> <i_m_source_file_index>
256

> <i_lp_mmshare_version>
43012

> <i_f3d_flags>
0

> <s_epik_input>
W0NIM11PW0NIMl1bQ0gyXU4xW0NIMl1bQ0gyXU4oW0NIMl1bQ0BIXTFbQ0gyXVtDSDNdKWMobltjSF1uMiljKGMyMyluW2NIXW4zW0NIMl1DNChbT0hdKVtDSDJdW0NIMl1PW0NIMl1bQ0gyXTQ=

> <s_epik_cmdline>
J2VwaWtfcHl0aG9uJywgJy1waCcsICc3LjAnLCAnLXRuJywgJzgnLCAnLW1hJywgJzIwMCcsICctbWV0YWxfYmluZGluZycsICctaW1hZScsICc8aW5maWxlLm1hZT4nLCAnLW9tYWUnLCAnPG91dGZpbGUubWFlPic=

> <r_lp_tautomer_probability>
1

> <r_epik_Ionization_Penalty>
0.676279

> <r_epik_Ionization_Penalty_Charging>
0

> <r_epik_Ionization_Penalty_Neutral>
0.676279

> <r_epik_State_Penalty>
0.6855

> <r_epik_Charging_Adjusted_Penalty>
0.6855

> <i_epik_Tot_Q>
0

> <i_epik_Tot_abs_Q>
0

> <r_epik_Metal_State_Penalty>
0.678557

> <b_epik_Metal_Only>
0

> <s_lp_Force_Field>
OPLS_2005

> <r_lp_Energy>
62.0394

> <b_lp_Chiralities_Consistent>
1

> <s_lp_Variant>
AV-unprocessed.smi:256-5

> <Gold.Version>
5.8.1

> <Gold.Id.Protein>
6NUR|6NUR_protein|mol2

> <Gold.PLP.Fitness>
43.0948

> <Gold.PLP.PLP>
-39.0785

> <Gold.PLP.part.hbond>
-1.4626

> <Gold.PLP.part.metal>
0.0000

> <Gold.PLP.part.buried>
-6.7066

> <Gold.PLP.part.nonpolar>
-31.8404

> <Gold.PLP.part.repulsive>
0.4876

> <Gold.PLP.ligand.clash>
0.0000

> <Gold.PLP.ligand.torsion>
1.1900

> <Gold.PLP.Chemscore.Hbond>
1.0000

> <Gold.PLP.Chemscore.CHOScore>
1.0000

> <Gold.PLP.Chemscore.Metal>
0.0000

> <Gold.Chemscore.Hbonds>
donor molecule, donor type, donor heavy atom, donor atom, acceptor molecule, acceptor atom, score
      L1  H    17    42       P1  7921  0.96
      L1  C    13    39       P1 10171  1.00

> <Gold.PLP.Chemscore.Internal.Correction>
0.3962

> <Gold.Rescore>
     Score         DG    S(hbond)    S(metal)    S(lipo)     H(rot)  DE(clash)    DE(int)     intcor
     11.35     -13.15       0.97        0.00     100.56       2.87       0.71       1.09       ----

> <Gold.Chemscore.Fitness>
11.3483

> <Gold.Chemscore.DG>
-13.1470

> <Gold.Chemscore.ZeroCoef>
-5.4800

> <Gold.Chemscore.Hbond>
0.9726

> <Gold.Chemscore.Metal>
0.0000

> <Gold.Chemscore.Lipo>
100.5605

> <Gold.Chemscore.Internal_Hbond>
0.0000

> <Gold.Chemscore.DEClash>
0.7135

> <Gold.Chemscore.DEInternal>
1.0852

> <Gold.Chemscore.Rot>
2.8700

> <Gold.Chemscore.Internal.Correction>
   9.000000E+99

> <Gold.Chemscore.Hbonds>
donor molecule, donor type, donor heavy atom, donor atom, acceptor molecule, acceptor atom, score
      L1  H    17    42       P1  7921  0.92

> <Gold.Chemscore.Hbond.Weighted>
-3.2486

> <Gold.Chemscore.Metal.Weighted>
-0.0000

> <Gold.Chemscore.Lipo.Weighted>
-11.7656

> <Gold.Chemscore.Internal_Hbond.Weighted>
0.0000

> <Gold.Chemscore.DEClash.Weighted>
0.7135

> <Gold.Chemscore.DEInternal.Weighted>
1.0852

> <Gold.Chemscore.Rot.Weighted>
7.3472

> <Gold.Chemscore.Internal.Correction.Weighted>
   9.000000E+99

> <Gold.Protein.RotatedTorsions>
[ 6907 6896 6895 6894 ] final  -57.48 input  -60.11 | X-H torsion
[ 7974 7965 7964 7962 ] final -175.39 input  175.53 | X-H torsion
[ 8008 7997 7996 7995 ] final   10.46 input   59.86 | X-H torsion
[ 10167 10162 10161 10158 ] final   80.84 input  -65.29 | X-H torsion
[ 10718 10713 10712 10709 ] final   13.06 input   66.30 | X-H torsion
[ 10763 10752 10751 10750 ] final   74.70 input  -60.55 | X-H torsion
[ 11005 11000 10999 10996 ] final -148.67 input  -57.11 | X-H torsion

> <Gold.Protein.ActiveResidues>
 VAL166  LYS551  ARG553  GLY616  TRP617  ASP618  TYR619  PRO620  LYS621  CYS622 
 ASP623  PHE694  ASN695  SER759  ASP760  ASP761  ALA762  ILE779  LEU786  VAL792 
 PHE793  MET794  SER795  GLU796  ALA797  LYS798  CYS799  TRP800  GLU811  SER814 

> <Gold.Protein.RotatedAtoms>
  150.8082  134.7221  159.6663 H   0  0  0  0  0  0  0  0  0  0  0  0  # atno 6907 bound_to 6896
  152.4202  134.5965  159.9998 H   0  0  0  0  0  0  0  0  0  0  0  0  # atno 6908 bound_to 6896
  151.6183  133.3304  159.3118 H   0  0  0  0  0  0  0  0  0  0  0  0  # atno 6909 bound_to 6896
  144.7128  140.1327  143.6397 H   0  0  0  0  0  0  0  0  0  0  0  0  # atno 7974 bound_to 7965
  154.7937  140.2840  155.5973 H   0  0  0  0  0  0  0  0  0  0  0  0  # atno 8008 bound_to 7997
  156.2968  140.2600  156.2719 H   0  0  0  0  0  0  0  0  0  0  0  0  # atno 8009 bound_to 7997
  154.9640  140.0377  157.2193 H   0  0  0  0  0  0  0  0  0  0  0  0  # atno 8010 bound_to 7997
  139.9455  144.6061  150.8210 H   0  0  0  0  0  0  0  0  0  0  0  0  # atno 10167 bound_to 10162
  157.0192  130.6148  149.5719 H   0  0  0  0  0  0  0  0  0  0  0  0  # atno 10718 bound_to 10713
  153.0605  135.5016  154.8081 H   0  0  0  0  0  0  0  0  0  0  0  0  # atno 10763 bound_to 10752
  154.6874  135.2978  154.9530 H   0  0  0  0  0  0  0  0  0  0  0  0  # atno 10764 bound_to 10752
  154.0296  135.6731  153.4832 H   0  0  0  0  0  0  0  0  0  0  0  0  # atno 10765 bound_to 10752
  140.7588  134.3322  157.5107 H   0  0  0  0  0  0  0  0  0  0  0  0  # atno 11005 bound_to 11000
  145.9272  139.2583  143.1346 LP  0  0  0  0  0  0  0  0  0  0  0  0  # atno 17320 bound_to 7965
  145.9560  140.8872  143.0235 LP  0  0  0  0  0  0  0  0  0  0  0  0  # atno 17321 bound_to 7965
  140.7598  143.3138  151.2782 LP  0  0  0  0  0  0  0  0  0  0  0  0  # atno 17342 bound_to 10162
  139.6670  144.0087  152.2729 LP  0  0  0  0  0  0  0  0  0  0  0  0  # atno 17343 bound_to 10162
  156.0108  130.5199  150.7982 LP  0  0  0  0  0  0  0  0  0  0  0  0  # atno 17370 bound_to 10713
  157.5262  131.0934  151.0014 LP  0  0  0  0  0  0  0  0  0  0  0  0  # atno 17371 bound_to 10713
  139.8774  134.9189  156.3214 LP  0  0  0  0  0  0  0  0  0  0  0  0  # atno 17394 bound_to 11000
  140.9682  133.7344  156.0497 LP  0  0  0  0  0  0  0  0  0  0  0  0  # atno 17395 bound_to 11000

$$$$
