AV-unprocessed.smi:1706|AV-procd|sdf|6886|dock10
  -GOLD-   22720 8 93D 1   1.00000     0.00000
 Structure written by MMmdl.
 35 36  0  0  0  0  0  0  0  0  1 V2000
  146.4452  141.6312  154.0863 C   0  0  0  0  0  0  0  0  0  0  0  0
  147.5208  140.6750  154.2369 N   0  0  0  0  0  0  0  0  0  0  0  0
  148.7776  140.8720  154.7664 C   0  0  0  0  0  0  0  0  0  0  0  0
  149.4485  139.6843  154.6828 C   0  0  0  0  0  0  0  0  0  0  0  0
  150.8610  139.3686  155.1000 C   0  0  0  0  0  0  0  0  0  0  0  0
  150.9922  139.1851  156.6212 C   0  0  0  0  0  0  0  0  0  0  0  0
  151.3506  140.4416  157.2709 N   0  0  0  0  0  0  0  0  0  0  0  0
  152.4367  140.6499  158.0324 C   0  0  0  0  0  0  0  0  0  0  0  0
  153.2333  139.7498  158.3011 O   0  0  0  0  0  0  0  0  0  0  0  0
  152.6029  141.9341  158.4359 N   0  0  0  0  0  0  0  0  0  0  0  0
  151.8646  143.1114  157.9540 C   0  0  0  0  0  0  0  0  0  0  0  0
  150.9767  143.6283  159.1003 C   0  0  0  0  0  0  0  0  0  0  0  0
  151.7863  143.9401  160.2315 O   0  0  0  0  0  0  0  0  0  0  0  0
  152.5392  142.8257  160.7047 C   0  0  0  0  0  0  0  0  0  0  0  0
  153.4457  142.2983  159.5782 C   0  0  0  0  0  0  0  0  0  0  0  0
  148.4978  138.8093  154.0837 C   0  0  0  0  0  0  0  0  0  0  0  0
  147.3468  139.4050  153.8174 N   0  0  0  0  0  0  0  0  0  0  0  0
  146.6541  142.5241  154.6761 H   0  0  0  0  0  0  0  0  0  0  0  0
  145.5062  141.1939  154.4274 H   0  0  0  0  0  0  0  0  0  0  0  0
  146.3499  141.9126  153.0373 H   0  0  0  0  0  0  0  0  0  0  0  0
  149.0920  141.8331  155.1463 H   0  0  0  0  0  0  0  0  0  0  0  0
  151.2104  138.4630  154.6028 H   0  0  0  0  0  0  0  0  0  0  0  0
  151.5409  140.1580  154.7787 H   0  0  0  0  0  0  0  0  0  0  0  0
  150.0533  138.8219  157.0401 H   0  0  0  0  0  0  0  0  0  0  0  0
  151.7457  138.4218  156.8240 H   0  0  0  0  0  0  0  0  0  0  0  0
  150.7491  141.2316  157.0894 H   0  0  0  0  0  0  0  0  0  0  0  0
  152.5764  143.8829  157.6567 H   0  0  0  0  0  0  0  0  0  0  0  0
  151.2485  142.9241  157.0746 H   0  0  0  0  0  0  0  0  0  0  0  0
  150.4438  144.5270  158.7895 H   0  0  0  0  0  0  0  0  0  0  0  0
  150.2232  142.8877  159.3731 H   0  0  0  0  0  0  0  0  0  0  0  0
  153.1409  143.1426  161.5565 H   0  0  0  0  0  0  0  0  0  0  0  0
  151.8660  142.0441  161.0604 H   0  0  0  0  0  0  0  0  0  0  0  0
  154.0473  141.4654  159.9447 H   0  0  0  0  0  0  0  0  0  0  0  0
  154.1550  143.0690  159.2734 H   0  0  0  0  0  0  0  0  0  0  0  0
  148.6131  137.7661  153.8289 H   0  0  0  0  0  0  0  0  0  0  0  0
  1  2  1  0  0  0  0
  1 18  1  0  0  0  0
  1 19  1  0  0  0  0
  1 20  1  0  0  0  0
  2 17  1  0  0  0  0
  2  3  1  0  0  0  0
  3  4  2  0  0  0  0
  3 21  1  0  0  0  0
  4  5  1  0  0  0  0
  4 16  1  0  0  0  0
  5  6  1  0  0  0  0
  5 22  1  0  0  0  0
  5 23  1  0  0  0  0
  6  7  1  0  0  0  0
  6 24  1  0  0  0  0
  6 25  1  0  0  0  0
  7  8  1  0  0  0  0
  7 26  1  0  0  0  0
  8  9  2  0  0  0  0
  8 10  1  0  0  0  0
 10 15  1  0  0  0  0
 10 11  1  0  0  0  0
 11 12  1  0  0  0  0
 11 27  1  0  0  0  0
 11 28  1  0  0  0  0
 12 13  1  0  0  0  0
 12 29  1  0  0  0  0
 12 30  1  0  0  0  0
 13 14  1  0  0  0  0
 14 15  1  0  0  0  0
 14 31  1  0  0  0  0
 14 32  1  0  0  0  0
 15 33  1  0  0  0  0
 15 34  1  0  0  0  0
 16 17  2  0  0  0  0
 16 35  1  0  0  0  0
M  END
> <s_m_source_file>
AV-unprocessed.smi

> <i_m_source_file_index>
1706

> <i_lp_mmshare_version>
43012

> <i_f3d_flags>
0

> <s_epik_input>
W0NIM11uMVtjSF1jKFtjSF1uMSlbQ0gyXVtDSDJdW05IXUMoPU8pTjJbQ0gyXVtDSDJdT1tDSDJdW0NIMl0y

> <s_epik_cmdline>
J2VwaWtfcHl0aG9uJywgJy1waCcsICc3LjAnLCAnLXRuJywgJzgnLCAnLW1hJywgJzIwMCcsICctbWV0YWxfYmluZGluZycsICctaW1hZScsICc8aW5maWxlLm1hZT4nLCAnLW9tYWUnLCAnPG91dGZpbGUubWFlPic=

> <r_lp_tautomer_probability>
1

> <r_epik_Ionization_Penalty>
0.000534981

> <r_epik_Ionization_Penalty_Charging>
0

> <r_epik_Ionization_Penalty_Neutral>
0.000534981

> <r_epik_State_Penalty>
-0

> <r_epik_Charging_Adjusted_Penalty>
0

> <i_epik_Tot_Q>
0

> <i_epik_Tot_abs_Q>
0

> <r_epik_Metal_State_Penalty>
-0

> <b_epik_Metal_Only>
0

> <s_lp_Force_Field>
OPLS_2005

> <r_lp_Energy>
25.9186

> <b_lp_Chiralities_Consistent>
1

> <s_lp_Variant>
AV-unprocessed.smi:1706-1

> <Gold.Version>
5.8.1

> <Gold.Id.Protein>
6NUR|6NUR_protein|mol2

> <Gold.PLP.Fitness>
42.6050

> <Gold.PLP.PLP>
-36.8235

> <Gold.PLP.part.hbond>
-1.0000

> <Gold.PLP.part.metal>
0.0000

> <Gold.PLP.part.buried>
-2.4228

> <Gold.PLP.part.nonpolar>
-32.9349

> <Gold.PLP.part.repulsive>
0.4672

> <Gold.PLP.ligand.clash>
0.0000

> <Gold.PLP.ligand.torsion>
0.5731

> <Gold.PLP.Chemscore.Hbond>
1.0000

> <Gold.PLP.Chemscore.CHOScore>
1.3008

> <Gold.PLP.Chemscore.Metal>
0.0000

> <Gold.Chemscore.Hbonds>
donor molecule, donor type, donor heavy atom, donor atom, acceptor molecule, acceptor atom, score
      P1  H  7997  8009       L1     9  1.00
      L1  C    16    35       P1  7948  1.00

> <Gold.PLP.Chemscore.Internal.Correction>
0.0254

> <Gold.Rescore>
     Score         DG    S(hbond)    S(metal)    S(lipo)     H(rot)  DE(clash)    DE(int)     intcor
     12.89     -14.04       0.76        0.00      82.80       1.44       0.55       0.60       ----

> <Gold.Chemscore.Fitness>
12.8921

> <Gold.Chemscore.DG>
-14.0410

> <Gold.Chemscore.ZeroCoef>
-5.4800

> <Gold.Chemscore.Hbond>
0.7642

> <Gold.Chemscore.Metal>
0.0000

> <Gold.Chemscore.Lipo>
82.7997

> <Gold.Chemscore.Internal_Hbond>
0.0000

> <Gold.Chemscore.DEClash>
0.5510

> <Gold.Chemscore.DEInternal>
0.5978

> <Gold.Chemscore.Rot>
1.4371

> <Gold.Chemscore.Internal.Correction>
   9.000000E+99

> <Gold.Chemscore.Hbonds>
donor molecule, donor type, donor heavy atom, donor atom, acceptor molecule, acceptor atom, score
      P1  H  7997  8009       L1     9  0.45

> <Gold.Chemscore.Hbond.Weighted>
-2.5524

> <Gold.Chemscore.Metal.Weighted>
-0.0000

> <Gold.Chemscore.Lipo.Weighted>
-9.6876

> <Gold.Chemscore.Internal_Hbond.Weighted>
0.0000

> <Gold.Chemscore.DEClash.Weighted>
0.5510

> <Gold.Chemscore.DEInternal.Weighted>
0.5978

> <Gold.Chemscore.Rot.Weighted>
3.6790

> <Gold.Chemscore.Internal.Correction.Weighted>
   9.000000E+99

> <Gold.Protein.RotatedTorsions>
[ 6907 6896 6895 6894 ] final  -58.74 input  -60.11 | X-H torsion
[ 7974 7965 7964 7962 ] final   12.70 input  175.53 | X-H torsion
[ 8008 7997 7996 7995 ] final  148.38 input   59.86 | X-H torsion
[ 10167 10162 10161 10158 ] final  -56.68 input  -65.29 | X-H torsion
[ 10718 10713 10712 10709 ] final -106.53 input   66.30 | X-H torsion
[ 10763 10752 10751 10750 ] final  -36.38 input  -60.55 | X-H torsion
[ 11005 11000 10999 10996 ] final  -37.39 input  -57.11 | X-H torsion

> <Gold.Protein.ActiveResidues>
 VAL166  LYS551  ARG553  GLY616  TRP617  ASP618  TYR619  PRO620  LYS621  CYS622 
 ASP623  PHE694  ASN695  SER759  ASP760  ASP761  ALA762  ILE779  LEU786  VAL792 
 PHE793  MET794  SER795  GLU796  ALA797  LYS798  CYS799  TRP800  GLU811  SER814 

> <Gold.Protein.RotatedAtoms>
  150.7983  134.7059  159.6575 H   0  0  0  0  0  0  0  0  0  0  0  0  # atno 6907 bound_to 6896
  152.4098  134.6141  160.0043 H   0  0  0  0  0  0  0  0  0  0  0  0  # atno 6908 bound_to 6896
  151.6388  133.3290  159.3161 H   0  0  0  0  0  0  0  0  0  0  0  0  # atno 6909 bound_to 6896
  146.2345  139.9297  142.8498 H   0  0  0  0  0  0  0  0  0  0  0  0  # atno 7974 bound_to 7965
  156.2793  140.2130  156.5689 H   0  0  0  0  0  0  0  0  0  0  0  0  # atno 8008 bound_to 7997
  154.7152  140.0508  157.0611 H   0  0  0  0  0  0  0  0  0  0  0  0  # atno 8009 bound_to 7997
  155.0552  140.3160  155.4682 H   0  0  0  0  0  0  0  0  0  0  0  0  # atno 8010 bound_to 7997
  140.6303  143.2456  151.5259 H   0  0  0  0  0  0  0  0  0  0  0  0  # atno 10167 bound_to 10162
  156.0394  130.5617  150.7694 H   0  0  0  0  0  0  0  0  0  0  0  0  # atno 10718 bound_to 10713
  153.8788  135.6824  153.4768 H   0  0  0  0  0  0  0  0  0  0  0  0  # atno 10763 bound_to 10752
  153.1246  135.4725  154.9248 H   0  0  0  0  0  0  0  0  0  0  0  0  # atno 10764 bound_to 10752
  154.7679  135.3230  154.8201 H   0  0  0  0  0  0  0  0  0  0  0  0  # atno 10765 bound_to 10752
  140.9948  133.6986  156.1915 H   0  0  0  0  0  0  0  0  0  0  0  0  # atno 11005 bound_to 11000
  145.2056  140.9873  143.4130 LP  0  0  0  0  0  0  0  0  0  0  0  0  # atno 17320 bound_to 7965
  144.9736  139.3855  143.6297 LP  0  0  0  0  0  0  0  0  0  0  0  0  # atno 17321 bound_to 7965
  139.5518  144.2377  152.1543 LP  0  0  0  0  0  0  0  0  0  0  0  0  # atno 17342 bound_to 10162
  140.1619  144.5018  150.6628 LP  0  0  0  0  0  0  0  0  0  0  0  0  # atno 17343 bound_to 10162
  157.5192  131.0930  151.0100 LP  0  0  0  0  0  0  0  0  0  0  0  0  # atno 17370 bound_to 10713
  157.0435  130.5759  149.5359 LP  0  0  0  0  0  0  0  0  0  0  0  0  # atno 17371 bound_to 10713
  140.6983  134.4591  157.5587 LP  0  0  0  0  0  0  0  0  0  0  0  0  # atno 17394 bound_to 11000
  139.9009  134.8558  156.1899 LP  0  0  0  0  0  0  0  0  0  0  0  0  # atno 17395 bound_to 11000

$$$$
