AV-unprocessed.smi:1718|AV-procd|sdf|6924|dock3
  -GOLD-   22720 8133D 1   1.00000     0.00000
 Structure written by MMmdl.
 40 41  0  0  0  0  0  0  0  0  1 V2000
  151.6585  138.0766  153.9016 C   0  0  0  0  0  0  0  0  0  0  0  0
  150.7715  138.7251  154.9750 C   0  0  2  0  0  0  0  0  0  0  0  0
  149.8624  139.5958  154.3094 O   0  0  0  0  0  0  0  0  0  0  0  0
  148.8171  138.9534  153.5864 C   0  0  0  0  0  0  0  0  0  0  0  0
  147.5793  139.8604  153.5720 C   0  0  1  0  0  0  0  0  0  0  0  0
  147.2288  140.4775  154.9348 C   0  0  0  0  0  0  0  0  0  0  0  0
  147.4637  141.9606  154.7236 C   0  0  0  0  0  0  0  0  0  0  0  0
  147.2107  142.1169  153.2306 C   0  0  0  0  0  0  0  0  0  0  0  0
  147.7958  140.9488  152.6774 O   0  0  0  0  0  0  0  0  0  0  0  0
  151.6085  139.5137  155.9952 C   0  0  0  0  0  0  0  0  0  0  0  0
  152.8196  139.6389  155.8154 O   0  0  0  0  0  0  0  0  0  0  0  0
  150.9207  140.0187  157.0388 N   0  0  0  0  0  0  0  0  0  0  0  0
  151.3709  140.8027  158.1147 C   0  0  0  0  0  0  0  0  0  0  0  0
  151.0729  142.1154  158.3023 C   0  0  0  0  0  0  0  0  0  0  0  0
  151.5681  142.8638  159.4456 C   0  0  0  0  0  0  0  0  0  0  0  0
  151.3000  144.3533  159.5983 C   0  0  0  0  0  0  0  0  0  0  0  0
  151.6786  144.7928  160.7993 F   0  0  0  0  0  0  0  0  0  0  0  0
  151.9530  145.0540  158.6711 F   0  0  0  0  0  0  0  0  0  0  0  0
  149.9973  144.5950  159.4597 F   0  0  0  0  0  0  0  0  0  0  0  0
  152.3461  142.1899  160.3126 C   0  0  0  0  0  0  0  0  0  0  0  0
  152.6370  140.8348  160.1406 N   0  0  0  0  0  0  0  0  0  0  0  0
  152.2016  140.0902  159.0997 C   0  0  0  0  0  0  0  0  0  0  0  0
  152.5027  138.8998  159.0193 O   0  0  0  0  0  0  0  0  0  0  0  0
  153.2134  140.3963  160.8444 H   0  0  0  0  0  0  0  0  0  0  0  0
  152.3922  137.4037  154.3469 H   0  0  0  0  0  0  0  0  0  0  0  0
  152.1984  138.8243  153.3191 H   0  0  0  0  0  0  0  0  0  0  0  0
  151.0558  137.4925  153.2059 H   0  0  0  0  0  0  0  0  0  0  0  0
  150.2139  137.9337  155.4800 H   0  0  0  0  0  0  0  0  0  0  0  0
  149.1389  138.7440  152.5653 H   0  0  0  0  0  0  0  0  0  0  0  0
  148.5553  138.0005  154.0472 H   0  0  0  0  0  0  0  0  0  0  0  0
  146.7232  139.2916  153.2069 H   0  0  0  0  0  0  0  0  0  0  0  0
  146.1780  140.2960  155.1636 H   0  0  0  0  0  0  0  0  0  0  0  0
  147.8210  140.0774  155.7585 H   0  0  0  0  0  0  0  0  0  0  0  0
  146.8159  142.5885  155.3359 H   0  0  0  0  0  0  0  0  0  0  0  0
  148.5006  142.2102  154.9526 H   0  0  0  0  0  0  0  0  0  0  0  0
  146.1411  142.1261  153.0159 H   0  0  0  0  0  0  0  0  0  0  0  0
  147.6546  143.0236  152.8193 H   0  0  0  0  0  0  0  0  0  0  0  0
  149.9395  139.7819  157.0778 H   0  0  0  0  0  0  0  0  0  0  0  0
  150.4376  142.6470  157.6137 H   0  0  0  0  0  0  0  0  0  0  0  0
  152.8043  142.6284  161.1868 H   0  0  0  0  0  0  0  0  0  0  0  0
  1  2  1  0  0  0  0
  1 25  1  0  0  0  0
  1 26  1  0  0  0  0
  1 27  1  0  0  0  0
  2  3  1  0  0  0  0
  2 10  1  0  0  0  0
  2 28  1  0  0  0  0
  3  4  1  0  0  0  0
  4  5  1  0  0  0  0
  4 29  1  0  0  0  0
  4 30  1  0  0  0  0
  5  9  1  0  0  0  0
  5  6  1  0  0  0  0
  5 31  1  0  0  0  0
  6  7  1  0  0  0  0
  6 32  1  0  0  0  0
  6 33  1  0  0  0  0
  7  8  1  0  0  0  0
  7 34  1  0  0  0  0
  7 35  1  0  0  0  0
  8  9  1  0  0  0  0
  8 36  1  0  0  0  0
  8 37  1  0  0  0  0
 10 11  2  0  0  0  0
 10 12  1  0  0  0  0
 12 13  1  0  0  0  0
 12 38  1  0  0  0  0
 13 22  1  0  0  0  0
 13 14  2  0  0  0  0
 14 15  1  0  0  0  0
 14 39  1  0  0  0  0
 15 16  1  0  0  0  0
 15 20  2  0  0  0  0
 16 17  1  0  0  0  0
 16 18  1  0  0  0  0
 16 19  1  0  0  0  0
 20 21  1  0  0  0  0
 20 40  1  0  0  0  0
 21 24  1  0  0  0  0
 21 22  1  0  0  0  0
 22 23  2  0  0  0  0
M  END
> <s_m_source_file>
AV-unprocessed.smi

> <i_m_source_file_index>
1718

> <i_lp_mmshare_version>
43012

> <i_f3d_flags>
0

> <s_epik_input>
TzFbQ0gyXVtDSDJdW0NIMl1bQ0BIXTFbQ0gyXU9bQ0BASF0oW0NIM10pQyg9TylbTkhdYzJbY0hdYyhDKEYpKEYpRilbY0hdW25IXWMyPU8=

> <s_epik_cmdline>
J2VwaWtfcHl0aG9uJywgJy1waCcsICc3LjAnLCAnLXRuJywgJzgnLCAnLW1hJywgJzIwMCcsICctbWV0YWxfYmluZGluZycsICctaW1hZScsICc8aW5maWxlLm1hZT4nLCAnLW9tYWUnLCAnPG91dGZpbGUubWFlPic=

> <r_lp_tautomer_probability>
0.999

> <r_epik_Ionization_Penalty>
0.00894336

> <r_epik_Ionization_Penalty_Charging>
0.00894326

> <r_epik_Ionization_Penalty_Neutral>
1.00145e-07

> <r_epik_State_Penalty>
0.00676626

> <r_epik_Charging_Adjusted_Penalty>
0.0157095

> <i_epik_Tot_Q>
0

> <i_epik_Tot_abs_Q>
0

> <r_epik_Metal_State_Penalty>
0.321145

> <b_epik_Metal_Only>
0

> <s_lp_Force_Field>
OPLS_2005

> <r_lp_Energy>
34.3894

> <b_lp_Chiralities_Consistent>
1

> <s_lp_Variant>
AV-unprocessed.smi:1718-3

> <Gold.Version>
5.8.1

> <Gold.Id.Protein>
6NUR|6NUR_protein|mol2

> <Gold.PLP.Fitness>
45.1261

> <Gold.PLP.PLP>
-45.4241

> <Gold.PLP.part.hbond>
-1.0000

> <Gold.PLP.part.metal>
0.0000

> <Gold.PLP.part.buried>
-8.7661

> <Gold.PLP.part.nonpolar>
-35.7504

> <Gold.PLP.part.repulsive>
0.6798

> <Gold.PLP.ligand.clash>
0.6961

> <Gold.PLP.ligand.torsion>
1.4443

> <Gold.PLP.Chemscore.Hbond>
1.0000

> <Gold.PLP.Chemscore.CHOScore>
0.0000

> <Gold.PLP.Chemscore.Metal>
0.0000

> <Gold.Chemscore.Hbonds>
donor molecule, donor type, donor heavy atom, donor atom, acceptor molecule, acceptor atom, score
      P1  H  7989  7998       L1     3  0.15
      P1  H  7997  8010       L1    11  1.00

> <Gold.PLP.Chemscore.Internal.Correction>
0.2866

> <Gold.Rescore>
     Score         DG    S(hbond)    S(metal)    S(lipo)     H(rot)  DE(clash)    DE(int)     intcor
     11.27     -14.62       0.99        0.00      91.01       1.88       1.61       1.74       ----

> <Gold.Chemscore.Fitness>
11.2705

> <Gold.Chemscore.DG>
-14.6189

> <Gold.Chemscore.ZeroCoef>
-5.4800

> <Gold.Chemscore.Hbond>
0.9884

> <Gold.Chemscore.Metal>
0.0000

> <Gold.Chemscore.Lipo>
91.0063

> <Gold.Chemscore.Internal_Hbond>
0.0000

> <Gold.Chemscore.DEClash>
1.6117

> <Gold.Chemscore.DEInternal>
1.7367

> <Gold.Chemscore.Rot>
1.8790

> <Gold.Chemscore.Internal.Correction>
   9.000000E+99

> <Gold.Chemscore.Hbonds>
donor molecule, donor type, donor heavy atom, donor atom, acceptor molecule, acceptor atom, score
      P1  H  7989  7998       L1     3  0.01
      P1  H  7997  8010       L1    11  1.00

> <Gold.Chemscore.Hbond.Weighted>
-3.3013

> <Gold.Chemscore.Metal.Weighted>
-0.0000

> <Gold.Chemscore.Lipo.Weighted>
-10.6477

> <Gold.Chemscore.Internal_Hbond.Weighted>
0.0000

> <Gold.Chemscore.DEClash.Weighted>
1.6117

> <Gold.Chemscore.DEInternal.Weighted>
1.7367

> <Gold.Chemscore.Rot.Weighted>
4.8102

> <Gold.Chemscore.Internal.Correction.Weighted>
   9.000000E+99

> <Gold.Protein.RotatedTorsions>
[ 6907 6896 6895 6894 ] final -162.06 input  -60.11 | X-H torsion
[ 7974 7965 7964 7962 ] final  -47.70 input  175.53 | X-H torsion
[ 8008 7997 7996 7995 ] final   90.72 input   59.86 | X-H torsion
[ 10167 10162 10161 10158 ] final   30.98 input  -65.29 | X-H torsion
[ 10718 10713 10712 10709 ] final   -8.15 input   66.30 | X-H torsion
[ 10763 10752 10751 10750 ] final  154.11 input  -60.55 | X-H torsion
[ 11005 11000 10999 10996 ] final  144.39 input  -57.11 | X-H torsion

> <Gold.Protein.ActiveResidues>
 VAL166  LYS551  ARG553  GLY616  TRP617  ASP618  TYR619  PRO620  LYS621  CYS622 
 ASP623  PHE694  ASN695  SER759  ASP760  ASP761  ALA762  ILE779  LEU786  VAL792 
 PHE793  MET794  SER795  GLU796  ALA797  LYS798  CYS799  TRP800  GLU811  SER814 

> <Gold.Protein.RotatedAtoms>
  151.3744  133.3843  159.2702 H   0  0  0  0  0  0  0  0  0  0  0  0  # atno 6907 bound_to 6896
  150.9625  134.9012  159.7750 H   0  0  0  0  0  0  0  0  0  0  0  0  # atno 6908 bound_to 6896
  152.5155  134.3704  159.9368 H   0  0  0  0  0  0  0  0  0  0  0  0  # atno 6909 bound_to 6896
  145.9588  140.7499  142.9467 H   0  0  0  0  0  0  0  0  0  0  0  0  # atno 7974 bound_to 7965
  156.0153  140.3346  155.6982 H   0  0  0  0  0  0  0  0  0  0  0  0  # atno 8008 bound_to 7997
  155.6100  140.0664  157.2726 H   0  0  0  0  0  0  0  0  0  0  0  0  # atno 8009 bound_to 7997
  154.4296  140.1795  156.1250 H   0  0  0  0  0  0  0  0  0  0  0  0  # atno 8010 bound_to 7997
  140.4630  144.0878  150.6217 H   0  0  0  0  0  0  0  0  0  0  0  0  # atno 10167 bound_to 10162
  156.7067  130.5110  149.5902 H   0  0  0  0  0  0  0  0  0  0  0  0  # atno 10718 bound_to 10713
  154.1470  135.2817  155.3145 H   0  0  0  0  0  0  0  0  0  0  0  0  # atno 10763 bound_to 10752
  154.6245  135.5456  153.7615 H   0  0  0  0  0  0  0  0  0  0  0  0  # atno 10764 bound_to 10752
  153.0233  135.6447  154.1615 H   0  0  0  0  0  0  0  0  0  0  0  0  # atno 10765 bound_to 10752
  140.0629  134.9195  157.1214 H   0  0  0  0  0  0  0  0  0  0  0  0  # atno 11005 bound_to 11000
  144.6810  140.2557  143.7326 LP  0  0  0  0  0  0  0  0  0  0  0  0  # atno 17320 bound_to 7965
  145.8068  139.1987  143.2016 LP  0  0  0  0  0  0  0  0  0  0  0  0  # atno 17321 bound_to 7965
  140.4071  143.2675  151.9878 LP  0  0  0  0  0  0  0  0  0  0  0  0  # atno 17342 bound_to 10162
  139.4808  144.5948  151.7709 LP  0  0  0  0  0  0  0  0  0  0  0  0  # atno 17343 bound_to 10162
  156.1690  130.6424  151.0813 LP  0  0  0  0  0  0  0  0  0  0  0  0  # atno 17370 bound_to 10713
  157.6952  131.0796  150.6991 LP  0  0  0  0  0  0  0  0  0  0  0  0  # atno 17371 bound_to 10713
  140.3743  134.2356  155.7175 LP  0  0  0  0  0  0  0  0  0  0  0  0  # atno 17394 bound_to 11000
  141.1980  133.8045  157.0600 LP  0  0  0  0  0  0  0  0  0  0  0  0  # atno 17395 bound_to 11000

$$$$
