AV-unprocessed.smi:2583|AV-procd|sdf|10138|dock4
  -GOLD-   2272014153D 1   1.00000     0.00000
 Structure written by MMmdl.
 55 57  0  0  0  0  0  0  0  0  3 V2000
  153.4052  142.5266  161.2402 C   0  0  0  0  0  0  0  0  0  0  0  0
  152.4863  143.3728  160.3842 C   0  0  0  0  0  0  0  0  0  0  0  0
  152.2504  144.7289  160.6901 C   0  0  0  0  0  0  0  0  0  0  0  0
  151.4301  145.5189  159.9662 N   0  0  0  0  0  0  0  0  0  0  0  0
  150.8149  144.9770  158.8937 C   0  0  0  0  0  0  0  0  0  0  0  0
  150.9896  143.6382  158.4843 C   0  0  0  0  0  0  0  0  0  0  0  0
  150.2682  143.1891  157.3449 N   0  0  0  0  0  0  0  0  0  0  0  0
  150.4767  142.0851  156.6071 C   0  0  0  0  0  0  0  0  0  0  0  0
  151.3937  141.2818  156.7753 O   0  0  0  0  0  0  0  0  0  0  0  0
  149.5611  141.9732  155.6330 N   0  0  0  0  0  0  0  0  0  0  0  0
  149.4962  140.8986  154.6450 C   0  0  2  0  0  0  0  0  0  0  0  0
  148.0948  140.8420  154.0101 C   0  0  0  0  0  0  0  0  0  0  0  0
  147.9606  139.6243  153.0745 C   0  0  0  0  0  0  0  0  0  0  0  0
  148.2547  138.3428  153.7793 N   0  3  2  0  0  0  0  0  0  0  0  0
  147.2012  137.8865  154.7529 C   0  0  2  0  0  0  0  0  0  0  0  0
  147.5259  136.5301  155.4252 C   0  0  0  0  0  0  0  0  0  0  0  0
  147.4913  135.3672  154.4161 C   0  0  0  0  0  0  0  0  0  0  0  0
  146.1678  135.2775  153.7490 N   0  3  2  0  0  0  0  0  0  0  0  0
  146.0815  134.1280  152.8225 C   0  0  0  0  0  0  0  0  0  0  0  0
  145.7700  136.5539  153.1034 C   0  0  0  0  0  0  0  0  0  0  0  0
  145.8030  137.7194  154.1100 C   0  0  0  0  0  0  0  0  0  0  0  0
  149.6461  138.3879  154.3145 C   0  0  0  0  0  0  0  0  0  0  0  0
  149.8437  139.5520  155.3046 C   0  0  0  0  0  0  0  0  0  0  0  0
  151.8411  142.8163  159.2616 C   0  0  0  0  0  0  0  0  0  0  0  0
  153.8472  143.1122  162.0469 H   0  0  0  0  0  0  0  0  0  0  0  0
  154.2133  142.1151  160.6351 H   0  0  0  0  0  0  0  0  0  0  0  0
  152.8514  141.6984  161.6835 H   0  0  0  0  0  0  0  0  0  0  0  0
  152.7257  145.1929  161.5419 H   0  0  0  0  0  0  0  0  0  0  0  0
  150.1635  145.6381  158.3408 H   0  0  0  0  0  0  0  0  0  0  0  0
  149.5342  143.8059  157.0285 H   0  0  0  0  0  0  0  0  0  0  0  0
  148.8515  142.6889  155.5726 H   0  0  0  0  0  0  0  0  0  0  0  0
  150.2197  141.0723  153.8461 H   0  0  0  0  0  0  0  0  0  0  0  0
  147.3282  140.8044  154.7847 H   0  0  0  0  0  0  0  0  0  0  0  0
  147.9094  141.7574  153.4467 H   0  0  0  0  0  0  0  0  0  0  0  0
  146.9893  139.6143  152.5854 H   0  0  0  0  0  0  0  0  0  0  0  0
  148.6757  139.7304  152.2574 H   0  0  0  0  0  0  0  0  0  0  0  0
  147.1197  138.6355  155.5401 H   0  0  0  0  0  0  0  0  0  0  0  0
  148.4707  136.5480  155.9652 H   0  0  0  0  0  0  0  0  0  0  0  0
  146.7806  136.3362  156.1980 H   0  0  0  0  0  0  0  0  0  0  0  0
  148.2750  135.4900  153.6672 H   0  0  0  0  0  0  0  0  0  0  0  0
  147.6959  134.4300  154.9354 H   0  0  0  0  0  0  0  0  0  0  0  0
  146.7847  134.2367  151.9957 H   0  0  0  0  0  0  0  0  0  0  0  0
  145.0766  134.0425  152.4078 H   0  0  0  0  0  0  0  0  0  0  0  0
  146.3068  133.1963  153.3427 H   0  0  0  0  0  0  0  0  0  0  0  0
  146.4291  136.7625  152.2594 H   0  0  0  0  0  0  0  0  0  0  0  0
  144.7623  136.4528  152.6987 H   0  0  0  0  0  0  0  0  0  0  0  0
  145.0781  137.5124  154.8990 H   0  0  0  0  0  0  0  0  0  0  0  0
  145.4425  138.6373  153.6503 H   0  0  0  0  0  0  0  0  0  0  0  0
  149.9512  137.4421  154.7561 H   0  0  0  0  0  0  0  0  0  0  0  0
  150.3260  138.5258  153.4725 H   0  0  0  0  0  0  0  0  0  0  0  0
  150.8786  139.5679  155.6485 H   0  0  0  0  0  0  0  0  0  0  0  0
  149.2318  139.3948  156.1935 H   0  0  0  0  0  0  0  0  0  0  0  0
  151.9978  141.7744  159.0293 H   0  0  0  0  0  0  0  0  0  0  0  0
  148.2687  137.6365  153.0577 H   0  0  0  0  0  0  0  0  0  0  0  0
  145.4912  135.1035  154.4790 H   0  0  0  0  0  0  0  0  0  0  0  0
  1  2  1  0  0  0  0
  1 25  1  0  0  0  0
  1 26  1  0  0  0  0
  1 27  1  0  0  0  0
  2 24  1  0  0  0  0
  2  3  2  0  0  0  0
  3  4  1  0  0  0  0
  3 28  1  0  0  0  0
  4  5  2  0  0  0  0
  5  6  1  0  0  0  0
  5 29  1  0  0  0  0
  6  7  1  0  0  0  0
  6 24  2  0  0  0  0
  7  8  1  0  0  0  0
  7 30  1  0  0  0  0
  8  9  2  0  0  0  0
  8 10  1  0  0  0  0
 10 11  1  0  0  0  0
 10 31  1  0  0  0  0
 11 23  1  0  0  0  0
 11 12  1  0  0  0  0
 11 32  1  0  0  0  0
 12 13  1  0  0  0  0
 12 33  1  0  0  0  0
 12 34  1  0  0  0  0
 13 14  1  0  0  0  0
 13 35  1  0  0  0  0
 13 36  1  0  0  0  0
 14 15  1  0  0  0  0
 14 22  1  0  0  0  0
 14 54  1  0  0  0  0
 15 21  1  0  0  0  0
 15 16  1  0  0  0  0
 15 37  1  0  0  0  0
 16 17  1  0  0  0  0
 16 38  1  0  0  0  0
 16 39  1  0  0  0  0
 17 18  1  0  0  0  0
 17 40  1  0  0  0  0
 17 41  1  0  0  0  0
 18 19  1  0  0  0  0
 18 20  1  0  0  0  0
 18 55  1  0  0  0  0
 19 42  1  0  0  0  0
 19 43  1  0  0  0  0
 19 44  1  0  0  0  0
 20 21  1  0  0  0  0
 20 45  1  0  0  0  0
 20 46  1  0  0  0  0
 21 47  1  0  0  0  0
 21 48  1  0  0  0  0
 22 23  1  0  0  0  0
 22 49  1  0  0  0  0
 22 50  1  0  0  0  0
 23 51  1  0  0  0  0
 23 52  1  0  0  0  0
 24 53  1  0  0  0  0
M  CHG  1  14   1
M  CHG  1  18   1
M  END
> <s_m_source_file>
AV-unprocessed.smi

> <i_m_source_file_index>
2583

> <i_lp_mmshare_version>
43012

> <i_f3d_flags>
0

> <s_epik_input>
W0NIM11jMVtjSF1uW2NIXWMoW2NIXTEpW05IXUMoPU8pW05IXVtDSF0yW0NIMl1bQ0gyXU4oW0NIMl1bQ0gyXTIpW0NIXTNbQ0gyXVtDSDJdTihbQ0gzXSlbQ0gyXVtDSDJdMw==

> <s_epik_cmdline>
J2VwaWtfcHl0aG9uJywgJy1waCcsICc3LjAnLCAnLXRuJywgJzgnLCAnLW1hJywgJzIwMCcsICctbWV0YWxfYmluZGluZycsICctaW1hZScsICc8aW5maWxlLm1hZT4nLCAnLW9tYWUnLCAnPG91dGZpbGUubWFlPic=

> <r_epik_Ionization_Penalty>
0.188357

> <r_epik_Ionization_Penalty_Charging>
0.180787

> <r_epik_Ionization_Penalty_Neutral>
0.00756971

> <r_epik_State_Penalty>
0.157948

> <r_epik_Charging_Adjusted_Penalty>
0.338735

> <i_epik_Tot_Q>
2

> <i_epik_Tot_abs_Q>
2

> <r_epik_Metal_State_Penalty>
0.153874

> <b_epik_Metal_Only>
0

> <s_lp_Force_Field>
OPLS_2005

> <r_lp_Energy>
50.7645

> <b_lp_Chiralities_Consistent>
1

> <s_lp_Variant>
AV-unprocessed.smi:2583-4

> <Gold.Version>
5.8.1

> <Gold.Id.Protein>
6NUR|6NUR_protein|mol2

> <Gold.PLP.Fitness>
50.5219

> <Gold.PLP.PLP>
-37.1920

> <Gold.PLP.part.hbond>
-3.0000

> <Gold.PLP.part.metal>
0.0000

> <Gold.PLP.part.buried>
-0.7850

> <Gold.PLP.part.nonpolar>
-33.4198

> <Gold.PLP.part.repulsive>
0.3730

> <Gold.PLP.ligand.clash>
0.0296

> <Gold.PLP.ligand.torsion>
0.3632

> <Gold.PLP.Chemscore.Hbond>
3.6800

> <Gold.PLP.Chemscore.CHOScore>
1.0000

> <Gold.PLP.Chemscore.Metal>
0.0000

> <Gold.Chemscore.Hbonds>
donor molecule, donor type, donor heavy atom, donor atom, acceptor molecule, acceptor atom, score
      L1  H     7    30       P1  8028  0.93
      L1  H    10    31       P1  8028  0.69
      L1  H    14    54       P1  7948  2.00
      L1  C     5    29       P1  8029  1.00

> <Gold.PLP.Chemscore.Internal.Correction>
0.0458

> <Gold.Rescore>
     Score         DG    S(hbond)    S(metal)    S(lipo)     H(rot)  DE(clash)    DE(int)     intcor
     20.44     -25.73       2.84        0.00     118.56       1.21       2.18       3.11       ----

> <Gold.Chemscore.Fitness>
20.4380

> <Gold.Chemscore.DG>
-25.7300

> <Gold.Chemscore.ZeroCoef>
-5.4800

> <Gold.Chemscore.Hbond>
2.8367

> <Gold.Chemscore.Metal>
0.0000

> <Gold.Chemscore.Lipo>
118.5557

> <Gold.Chemscore.Internal_Hbond>
0.0000

> <Gold.Chemscore.DEClash>
2.1838

> <Gold.Chemscore.DEInternal>
3.1082

> <Gold.Chemscore.Rot>
1.2092

> <Gold.Chemscore.Internal.Correction>
   9.000000E+99

> <Gold.Chemscore.Hbonds>
donor molecule, donor type, donor heavy atom, donor atom, acceptor molecule, acceptor atom, score
      L1  H     7    30       P1  8028  0.74
      L1  H    10    31       P1  8028  0.65
      L1  H    14    54       P1  7948  0.98

> <Gold.Chemscore.Hbond.Weighted>
-9.4744

> <Gold.Chemscore.Metal.Weighted>
-0.0000

> <Gold.Chemscore.Lipo.Weighted>
-13.8710

> <Gold.Chemscore.Internal_Hbond.Weighted>
0.0000

> <Gold.Chemscore.DEClash.Weighted>
2.1838

> <Gold.Chemscore.DEInternal.Weighted>
3.1082

> <Gold.Chemscore.Rot.Weighted>
3.0955

> <Gold.Chemscore.Internal.Correction.Weighted>
   9.000000E+99

> <Gold.Protein.RotatedTorsions>
[ 6907 6896 6895 6894 ] final -124.04 input  -60.11 | X-H torsion
[ 7974 7965 7964 7962 ] final -166.55 input  175.53 | X-H torsion
[ 8008 7997 7996 7995 ] final -120.89 input   59.86 | X-H torsion
[ 10167 10162 10161 10158 ] final  105.41 input  -65.29 | X-H torsion
[ 10718 10713 10712 10709 ] final  -83.80 input   66.30 | X-H torsion
[ 10763 10752 10751 10750 ] final  147.32 input  -60.55 | X-H torsion
[ 11005 11000 10999 10996 ] final    0.89 input  -57.11 | X-H torsion

> <Gold.Protein.ActiveResidues>
 VAL166  LYS551  ARG553  GLY616  TRP617  ASP618  TYR619  PRO620  LYS621  CYS622 
 ASP623  PHE694  ASN695  SER759  ASP760  ASP761  ALA762  ILE779  LEU786  VAL792 
 PHE793  MET794  SER795  GLU796  ALA797  LYS798  CYS799  TRP800  GLU811  SER814 

> <Gold.Protein.RotatedAtoms>
  150.8729  133.7480  159.2955 H   0  0  0  0  0  0  0  0  0  0  0  0  # atno 6907 bound_to 6896
  151.5086  135.1063  159.9857 H   0  0  0  0  0  0  0  0  0  0  0  0  # atno 6908 bound_to 6896
  152.4707  133.7979  159.6993 H   0  0  0  0  0  0  0  0  0  0  0  0  # atno 6909 bound_to 6896
  144.7243  140.2649  143.6259 H   0  0  0  0  0  0  0  0  0  0  0  0  # atno 7974 bound_to 7965
  155.1391  140.0401  157.2794 H   0  0  0  0  0  0  0  0  0  0  0  0  # atno 8008 bound_to 7997
  154.6486  140.2564  155.7213 H   0  0  0  0  0  0  0  0  0  0  0  0  # atno 8009 bound_to 7997
  156.2567  140.2841  156.0911 H   0  0  0  0  0  0  0  0  0  0  0  0  # atno 8010 bound_to 7997
  139.7095  144.7080  151.1051 H   0  0  0  0  0  0  0  0  0  0  0  0  # atno 10167 bound_to 10162
  156.0014  130.4677  150.4313 H   0  0  0  0  0  0  0  0  0  0  0  0  # atno 10718 bound_to 10713
  154.0363  135.2893  155.3361 H   0  0  0  0  0  0  0  0  0  0  0  0  # atno 10763 bound_to 10752
  154.6957  135.5209  153.8457 H   0  0  0  0  0  0  0  0  0  0  0  0  # atno 10764 bound_to 10752
  153.0618  135.6616  154.0572 H   0  0  0  0  0  0  0  0  0  0  0  0  # atno 10765 bound_to 10752
  140.6216  133.9656  155.8227 H   0  0  0  0  0  0  0  0  0  0  0  0  # atno 11005 bound_to 11000
  145.8099  139.1999  143.1999 LP  0  0  0  0  0  0  0  0  0  0  0  0  # atno 17320 bound_to 7965
  146.0605  140.7976  142.9737 LP  0  0  0  0  0  0  0  0  0  0  0  0  # atno 17321 bound_to 7965
  140.7729  143.5313  150.9420 LP  0  0  0  0  0  0  0  0  0  0  0  0  # atno 17342 bound_to 10162
  139.8997  143.6851  152.3133 LP  0  0  0  0  0  0  0  0  0  0  0  0  # atno 17343 bound_to 10162
  157.2362  131.0515  151.2463 LP  0  0  0  0  0  0  0  0  0  0  0  0  # atno 17370 bound_to 10713
  157.3664  130.7158  149.6536 LP  0  0  0  0  0  0  0  0  0  0  0  0  # atno 17371 bound_to 10713
  141.0739  134.0165  157.3487 LP  0  0  0  0  0  0  0  0  0  0  0  0  # atno 17394 bound_to 11000
  139.9151  135.0196  156.7849 LP  0  0  0  0  0  0  0  0  0  0  0  0  # atno 17395 bound_to 11000

$$$$
