AV-unprocessed.smi:560|AV-procd|sdf|2928|dock7
  -GOLD-   2262023423D 1   1.00000     0.00000
 Structure written by MMmdl.
 42 43  0  0  0  0  0  0  0  0  2 V2000
  152.0009  144.4727  158.1069 C   0  0  0  0  0  0  0  0  0  0  0  0
  152.1997  142.9433  158.1238 C   0  0  2  0  0  0  0  0  0  0  0  0
  150.9289  142.1649  157.7391 C   0  0  0  0  0  0  0  0  0  0  0  0
  149.9847  142.0667  158.5239 O   0  0  0  0  0  0  0  0  0  0  0  0
  150.9175  141.6138  156.5142 N   0  0  0  0  0  0  0  0  0  0  0  0
  149.8302  140.8133  155.9612 C   0  0  2  0  0  0  0  0  0  0  0  0
  150.3778  139.7059  155.0409 C   0  0  0  0  0  0  0  0  0  0  0  0
  149.2348  138.9290  154.3684 C   0  0  0  0  0  0  0  0  0  0  0  0
  148.3440  139.8434  153.6050 N   0  3  1  0  0  0  0  0  0  0  0  0
  147.3050  139.1229  152.8229 C   0  0  0  0  0  0  0  0  0  0  0  0
  146.2939  138.3334  153.6689 C   0  0  0  0  0  0  0  0  0  0  0  0
  144.9898  138.6083  153.5523 N   0  0  0  0  0  0  0  0  0  0  0  0
  146.6996  137.4639  154.4354 O   0  0  0  0  0  0  0  0  0  0  0  0
  147.7662  140.8924  154.4838 C   0  0  0  0  0  0  0  0  0  0  0  0
  148.8723  141.7152  155.1661 C   0  0  0  0  0  0  0  0  0  0  0  0
  152.7214  142.4833  159.4066 N   0  0  0  0  0  0  0  0  0  0  0  0
  152.8221  143.1925  160.5864 C   0  0  0  0  0  0  0  0  0  0  0  0
  153.3899  142.3675  161.5145 C   0  0  0  0  0  0  0  0  0  0  0  0
  153.6111  141.1574  160.8005 C   0  0  0  0  0  0  0  0  0  0  0  0
  153.2178  141.2311  159.5397 N   0  0  0  0  0  0  0  0  0  0  0  0
  151.6788  144.8180  157.1238 H   0  0  0  0  0  0  0  0  0  0  0  0
  152.9326  144.9877  158.3425 H   0  0  0  0  0  0  0  0  0  0  0  0
  151.2533  144.7950  158.8329 H   0  0  0  0  0  0  0  0  0  0  0  0
  152.9505  142.7069  157.3680 H   0  0  0  0  0  0  0  0  0  0  0  0
  151.7314  141.7459  155.9311 H   0  0  0  0  0  0  0  0  0  0  0  0
  149.2722  140.3556  156.7805 H   0  0  0  0  0  0  0  0  0  0  0  0
  151.0203  140.1426  154.2745 H   0  0  0  0  0  0  0  0  0  0  0  0
  151.0022  139.0153  155.6090 H   0  0  0  0  0  0  0  0  0  0  0  0
  149.6570  138.1722  153.7069 H   0  0  0  0  0  0  0  0  0  0  0  0
  148.6518  138.3960  155.1213 H   0  0  0  0  0  0  0  0  0  0  0  0
  146.7774  139.8205  152.1704 H   0  0  0  0  0  0  0  0  0  0  0  0
  147.7841  138.3941  152.1677 H   0  0  0  0  0  0  0  0  0  0  0  0
  144.3031  138.1044  154.0928 H   0  0  0  0  0  0  0  0  0  0  0  0
  144.6930  139.3300  152.9100 H   0  0  0  0  0  0  0  0  0  0  0  0
  147.1370  141.5616  153.8956 H   0  0  0  0  0  0  0  0  0  0  0  0
  147.1229  140.4282  155.2332 H   0  0  0  0  0  0  0  0  0  0  0  0
  148.4233  142.4582  155.8265 H   0  0  0  0  0  0  0  0  0  0  0  0
  149.4276  142.2704  154.4084 H   0  0  0  0  0  0  0  0  0  0  0  0
  152.4839  144.2151  160.6674 H   0  0  0  0  0  0  0  0  0  0  0  0
  153.6133  142.5938  162.5465 H   0  0  0  0  0  0  0  0  0  0  0  0
  154.0451  140.2349  161.1574 H   0  0  0  0  0  0  0  0  0  0  0  0
  148.9192  140.3286  152.9318 H   0  0  0  0  0  0  0  0  0  0  0  0
  1  2  1  0  0  0  0
  1 21  1  0  0  0  0
  1 22  1  0  0  0  0
  1 23  1  0  0  0  0
  2  3  1  0  0  0  0
  2 16  1  0  0  0  0
  2 24  1  0  0  0  0
  3  4  2  0  0  0  0
  3  5  1  0  0  0  0
  5  6  1  0  0  0  0
  5 25  1  0  0  0  0
  6 15  1  0  0  0  0
  6  7  1  0  0  0  0
  6 26  1  0  0  0  0
  7  8  1  0  0  0  0
  7 27  1  0  0  0  0
  7 28  1  0  0  0  0
  8  9  1  0  0  0  0
  8 29  1  0  0  0  0
  8 30  1  0  0  0  0
  9 10  1  0  0  0  0
  9 14  1  0  0  0  0
  9 42  1  0  0  0  0
 10 11  1  0  0  0  0
 10 31  1  0  0  0  0
 10 32  1  0  0  0  0
 11 12  1  0  0  0  0
 11 13  2  0  0  0  0
 12 33  1  0  0  0  0
 12 34  1  0  0  0  0
 14 15  1  0  0  0  0
 14 35  1  0  0  0  0
 14 36  1  0  0  0  0
 15 37  1  0  0  0  0
 15 38  1  0  0  0  0
 16 20  1  0  0  0  0
 16 17  1  0  0  0  0
 17 18  2  0  0  0  0
 17 39  1  0  0  0  0
 18 19  1  0  0  0  0
 18 40  1  0  0  0  0
 19 20  2  0  0  0  0
 19 41  1  0  0  0  0
M  CHG  1   9   1
M  END
> <s_m_source_file>
AV-unprocessed.smi

> <i_m_source_file_index>
560

> <i_lp_mmshare_version>
43012

> <i_f3d_flags>
0

> <s_epik_input>
bjFbY0hdW2NIXVtjSF1uMVtDQEhdKFtDSDNdKUMoPU8pW05IXVtDSF0yW0NIMl1bQ0gyXU4oW0NIMl1bQ0gyXTIpW0NIMl1DKD1PKVtOSDJd

> <s_epik_cmdline>
J2VwaWtfcHl0aG9uJywgJy1waCcsICc3LjAnLCAnLXRuJywgJzgnLCAnLW1hJywgJzIwMCcsICctbWV0YWxfYmluZGluZycsICctaW1hZScsICc8aW5maWxlLm1hZT4nLCAnLW9tYWUnLCAnPG91dGZpbGUubWFlPic=

> <r_lp_tautomer_probability>
1

> <r_epik_Ionization_Penalty>
1.02943

> <r_epik_Ionization_Penalty_Charging>
1.02936

> <r_epik_Ionization_Penalty_Neutral>
7.4537e-05

> <r_epik_State_Penalty>
1.08036

> <r_epik_Charging_Adjusted_Penalty>
2.10972

> <i_epik_Tot_Q>
1

> <i_epik_Tot_abs_Q>
1

> <r_epik_Metal_State_Penalty>
1.09347

> <b_epik_Metal_Only>
0

> <s_lp_Force_Field>
OPLS_2005

> <r_lp_Energy>
17.0208

> <b_lp_Chiralities_Consistent>
1

> <s_lp_Variant>
AV-unprocessed.smi:560-3

> <Gold.Version>
5.8.1

> <Gold.Id.Protein>
6NUR|6NUR_protein|mol2

> <Gold.PLP.Fitness>
43.6340

> <Gold.PLP.PLP>
-39.8528

> <Gold.PLP.part.hbond>
-2.0462

> <Gold.PLP.part.metal>
0.0000

> <Gold.PLP.part.buried>
-3.5822

> <Gold.PLP.part.nonpolar>
-34.3323

> <Gold.PLP.part.repulsive>
0.3290

> <Gold.PLP.ligand.clash>
0.0000

> <Gold.PLP.ligand.torsion>
0.7783

> <Gold.PLP.Chemscore.Hbond>
1.7360

> <Gold.PLP.Chemscore.CHOScore>
0.0000

> <Gold.PLP.Chemscore.Metal>
0.0000

> <Gold.Chemscore.Hbonds>
donor molecule, donor type, donor heavy atom, donor atom, acceptor molecule, acceptor atom, score
      L1  H     9    42       P1  7957  0.77
      L1  H    12    34       P1 10175  1.00

> <Gold.PLP.Chemscore.Internal.Correction>
0.1298

> <Gold.Rescore>
     Score         DG    S(hbond)    S(metal)    S(lipo)     H(rot)  DE(clash)    DE(int)     intcor
     14.16     -16.29       1.80        0.00      96.27       2.52       0.20       1.92       ----

> <Gold.Chemscore.Fitness>
14.1597

> <Gold.Chemscore.DG>
-16.2855

> <Gold.Chemscore.ZeroCoef>
-5.4800

> <Gold.Chemscore.Hbond>
1.7976

> <Gold.Chemscore.Metal>
0.0000

> <Gold.Chemscore.Lipo>
96.2711

> <Gold.Chemscore.Internal_Hbond>
0.0000

> <Gold.Chemscore.DEClash>
0.2011

> <Gold.Chemscore.DEInternal>
1.9246

> <Gold.Chemscore.Rot>
2.5243

> <Gold.Chemscore.Internal.Correction>
   9.000000E+99

> <Gold.Chemscore.Hbonds>
donor molecule, donor type, donor heavy atom, donor atom, acceptor molecule, acceptor atom, score
      L1  H     9    42       P1  7957  0.75
      L1  H    12    34       P1 10175  0.93

> <Gold.Chemscore.Hbond.Weighted>
-6.0040

> <Gold.Chemscore.Metal.Weighted>
-0.0000

> <Gold.Chemscore.Lipo.Weighted>
-11.2637

> <Gold.Chemscore.Internal_Hbond.Weighted>
0.0000

> <Gold.Chemscore.DEClash.Weighted>
0.2011

> <Gold.Chemscore.DEInternal.Weighted>
1.9246

> <Gold.Chemscore.Rot.Weighted>
6.4622

> <Gold.Chemscore.Internal.Correction.Weighted>
   9.000000E+99

> <Gold.Protein.RotatedTorsions>
[ 6907 6896 6895 6894 ] final -140.81 input  -60.11 | X-H torsion
[ 7974 7965 7964 7962 ] final  -39.52 input  175.53 | X-H torsion
[ 8008 7997 7996 7995 ] final -169.86 input   59.86 | X-H torsion
[ 10167 10162 10161 10158 ] final  117.15 input  -65.29 | X-H torsion
[ 10718 10713 10712 10709 ] final   16.71 input   66.30 | X-H torsion
[ 10763 10752 10751 10750 ] final  -40.31 input  -60.55 | X-H torsion
[ 11005 11000 10999 10996 ] final  -60.68 input  -57.11 | X-H torsion

> <Gold.Protein.ActiveResidues>
 VAL166  LYS551  ARG553  GLY616  TRP617  ASP618  TYR619  PRO620  LYS621  CYS622 
 ASP623  PHE694  ASN695  SER759  ASP760  ASP761  ALA762  ILE779  LEU786  VAL792 
 PHE793  MET794  SER795  GLU796  ALA797  LYS798  CYS799  TRP800  GLU811  SER814 

> <Gold.Protein.RotatedAtoms>
  151.0655  133.5509  159.2630 H   0  0  0  0  0  0  0  0  0  0  0  0  # atno 6907 bound_to 6896
  151.2468  135.0607  159.9056 H   0  0  0  0  0  0  0  0  0  0  0  0  # atno 6908 bound_to 6896
  152.5404  134.0422  159.8126 H   0  0  0  0  0  0  0  0  0  0  0  0  # atno 6909 bound_to 6896
  146.0389  140.6635  142.9096 H   0  0  0  0  0  0  0  0  0  0  0  0  # atno 7974 bound_to 7965
  155.9106  140.1057  157.1282 H   0  0  0  0  0  0  0  0  0  0  0  0  # atno 8008 bound_to 7997
  154.4039  140.1275  156.4617 H   0  0  0  0  0  0  0  0  0  0  0  0  # atno 8009 bound_to 7997
  155.7314  140.3468  155.5063 H   0  0  0  0  0  0  0  0  0  0  0  0  # atno 8010 bound_to 7997
  139.6198  144.7099  151.2659 H   0  0  0  0  0  0  0  0  0  0  0  0  # atno 10167 bound_to 10162
  157.0717  130.6351  149.5807 H   0  0  0  0  0  0  0  0  0  0  0  0  # atno 10718 bound_to 10713
  153.9438  135.6758  153.4744 H   0  0  0  0  0  0  0  0  0  0  0  0  # atno 10763 bound_to 10752
  153.0918  135.4871  154.8701 H   0  0  0  0  0  0  0  0  0  0  0  0  # atno 10764 bound_to 10752
  154.7362  135.3150  154.8765 H   0  0  0  0  0  0  0  0  0  0  0  0  # atno 10765 bound_to 10752
  141.1296  133.6624  156.5260 H   0  0  0  0  0  0  0  0  0  0  0  0  # atno 11005 bound_to 11000
  144.7065  140.3872  143.7114 LP  0  0  0  0  0  0  0  0  0  0  0  0  # atno 17320 bound_to 7965
  145.6917  139.1640  143.2643 LP  0  0  0  0  0  0  0  0  0  0  0  0  # atno 17321 bound_to 7965
  140.7374  143.6677  150.8108 LP  0  0  0  0  0  0  0  0  0  0  0  0  # atno 17342 bound_to 10162
  140.0286  143.5467  152.2770 LP  0  0  0  0  0  0  0  0  0  0  0  0  # atno 17343 bound_to 10162
  155.9948  130.5013  150.7436 LP  0  0  0  0  0  0  0  0  0  0  0  0  # atno 17370 bound_to 10713
  157.4872  131.0908  151.0468 LP  0  0  0  0  0  0  0  0  0  0  0  0  # atno 17371 bound_to 10713
  140.4254  134.7150  157.4913 LP  0  0  0  0  0  0  0  0  0  0  0  0  # atno 17394 bound_to 11000
  140.0331  134.6377  155.9080 LP  0  0  0  0  0  0  0  0  0  0  0  0  # atno 17395 bound_to 11000

$$$$
