AV-unprocessed.smi:873|AV-procd|sdf|4016|dock4
  -GOLD-   22720 1503D 1   1.00000     0.00000
 Structure written by MMmdl.
 45 48  0  0  0  0  0  0  0  0  1 V2000
  149.0921  135.0970  156.0667 O   0  0  0  0  0  0  0  0  0  0  0  0
  149.0937  135.3717  154.8673 C   0  0  0  0  0  0  0  0  0  0  0  0
  149.4987  136.5369  154.3336 N   0  0  0  0  0  0  0  0  0  0  0  0
  150.0542  137.6727  154.9831 C   0  0  0  0  0  0  0  0  0  0  0  0
  150.4309  138.8833  154.3493 C   0  0  0  0  0  0  0  0  0  0  0  0
  150.9376  139.9221  155.0485 N   0  0  0  0  0  0  0  0  0  0  0  0
  151.0570  139.7647  156.3695 C   0  0  0  0  0  0  0  0  0  0  0  0
  151.6537  140.9070  157.1318 C   0  0  0  0  0  0  0  0  0  0  0  0
  150.9180  141.5284  158.3018 C   0  0  0  0  0  0  0  0  0  0  0  0
  151.0701  142.3010  157.0213 C   0  0  0  0  0  0  0  0  0  0  0  0
  150.7442  138.6726  157.0721 N   0  0  0  0  0  0  0  0  0  0  0  0
  150.2369  137.6294  156.3814 C   0  0  0  0  0  0  0  0  0  0  0  0
  148.6705  134.5281  153.9155 N   0  0  0  0  0  0  0  0  0  0  0  0
  148.1616  133.1798  154.1493 C   0  0  0  0  0  0  0  0  0  0  0  0
  149.2089  132.1197  153.7640 C   0  0  0  0  0  0  0  0  0  0  0  0
  148.6214  130.7009  153.8639 C   0  0  0  0  0  0  0  0  0  0  0  0
  147.4486  130.5757  152.9982 N   0  0  0  0  0  0  0  0  0  0  0  0
  146.9437  129.2151  153.0852 C   0  0  0  0  0  0  0  0  0  0  0  0
  147.2973  128.2635  151.9650 C   0  0  0  0  0  0  0  0  0  0  0  0
  145.8895  128.7947  152.0865 C   0  0  0  0  0  0  0  0  0  0  0  0
  146.4021  131.4963  153.4424 C   0  0  0  0  0  0  0  0  0  0  0  0
  146.8879  132.9513  153.3203 C   0  0  0  0  0  0  0  0  0  0  0  0
  149.3836  136.6274  153.3347 H   0  0  0  0  0  0  0  0  0  0  0  0
  150.3259  139.0515  153.2895 H   0  0  0  0  0  0  0  0  0  0  0  0
  152.7356  140.8129  157.2039 H   0  0  0  0  0  0  0  0  0  0  0  0
  149.9273  141.1467  158.5404 H   0  0  0  0  0  0  0  0  0  0  0  0
  151.5121  141.8481  159.1554 H   0  0  0  0  0  0  0  0  0  0  0  0
  151.7672  143.1361  157.0157 H   0  0  0  0  0  0  0  0  0  0  0  0
  150.1797  142.4334  156.4097 H   0  0  0  0  0  0  0  0  0  0  0  0
  149.9753  136.7508  156.9527 H   0  0  0  0  0  0  0  0  0  0  0  0
  148.7052  134.8390  152.9558 H   0  0  0  0  0  0  0  0  0  0  0  0
  147.9093  133.0667  155.2055 H   0  0  0  0  0  0  0  0  0  0  0  0
  149.5614  132.2947  152.7462 H   0  0  0  0  0  0  0  0  0  0  0  0
  150.0828  132.1998  154.4115 H   0  0  0  0  0  0  0  0  0  0  0  0
  149.3756  129.9737  153.5610 H   0  0  0  0  0  0  0  0  0  0  0  0
  148.3538  130.4736  154.8974 H   0  0  0  0  0  0  0  0  0  0  0  0
  146.8558  128.7576  154.0695 H   0  0  0  0  0  0  0  0  0  0  0  0
  147.9068  128.6420  151.1463 H   0  0  0  0  0  0  0  0  0  0  0  0
  147.4657  127.2211  152.2274 H   0  0  0  0  0  0  0  0  0  0  0  0
  145.1199  128.1068  152.4306 H   0  0  0  0  0  0  0  0  0  0  0  0
  145.5645  129.5260  151.3485 H   0  0  0  0  0  0  0  0  0  0  0  0
  145.5117  131.3586  152.8277 H   0  0  0  0  0  0  0  0  0  0  0  0
  146.1173  131.2761  154.4727 H   0  0  0  0  0  0  0  0  0  0  0  0
  146.1011  133.6311  153.6485 H   0  0  0  0  0  0  0  0  0  0  0  0
  147.0776  133.1809  152.2704 H   0  0  0  0  0  0  0  0  0  0  0  0
  1  2  2  0  0  0  0
  2  3  1  0  0  0  0
  2 13  1  0  0  0  0
  3  4  1  0  0  0  0
  3 23  1  0  0  0  0
  4 12  1  0  0  0  0
  4  5  2  0  0  0  0
  5  6  1  0  0  0  0
  5 24  1  0  0  0  0
  6  7  2  0  0  0  0
  7  8  1  0  0  0  0
  7 11  1  0  0  0  0
  8 10  1  0  0  0  0
  8  9  1  0  0  0  0
  8 25  1  0  0  0  0
  9 10  1  0  0  0  0
  9 26  1  0  0  0  0
  9 27  1  0  0  0  0
 10 28  1  0  0  0  0
 10 29  1  0  0  0  0
 11 12  2  0  0  0  0
 12 30  1  0  0  0  0
 13 14  1  0  0  0  0
 13 31  1  0  0  0  0
 14 22  1  0  0  0  0
 14 15  1  0  0  0  0
 14 32  1  0  0  0  0
 15 16  1  0  0  0  0
 15 33  1  0  0  0  0
 15 34  1  0  0  0  0
 16 17  1  0  0  0  0
 16 35  1  0  0  0  0
 16 36  1  0  0  0  0
 17 18  1  0  0  0  0
 17 21  1  0  0  0  0
 18 20  1  0  0  0  0
 18 19  1  0  0  0  0
 18 37  1  0  0  0  0
 19 20  1  0  0  0  0
 19 38  1  0  0  0  0
 19 39  1  0  0  0  0
 20 40  1  0  0  0  0
 20 41  1  0  0  0  0
 21 22  1  0  0  0  0
 21 42  1  0  0  0  0
 21 43  1  0  0  0  0
 22 44  1  0  0  0  0
 22 45  1  0  0  0  0
M  END
> <s_m_source_file>
AV-unprocessed.smi

> <i_m_source_file_index>
873

> <i_lp_mmshare_version>
43012

> <i_f3d_flags>
0

> <s_epik_input>
W0NIMl0xW0NIMl1bQ0hdMU4oW0NIMl1bQ0gyXTIpW0NIMl1bQ0gyXVtDSF0yW05IXUMoPU8pW05IXWMzW2NIXW5jKG5bY0hdMylbQ0hdNFtDSDJdW0NIMl00

> <s_epik_cmdline>
J2VwaWtfcHl0aG9uJywgJy1waCcsICc3LjAnLCAnLXRuJywgJzgnLCAnLW1hJywgJzIwMCcsICctbWV0YWxfYmluZGluZycsICctaW1hZScsICc8aW5maWxlLm1hZT4nLCAnLW9tYWUnLCAnPG91dGZpbGUubWFlPic=

> <r_lp_tautomer_probability>
1

> <r_epik_Ionization_Penalty>
0.990889

> <r_epik_Ionization_Penalty_Charging>
0

> <r_epik_Ionization_Penalty_Neutral>
0.990889

> <r_epik_State_Penalty>
1.03856

> <r_epik_Charging_Adjusted_Penalty>
1.03856

> <i_epik_Tot_Q>
0

> <i_epik_Tot_abs_Q>
0

> <r_epik_Metal_State_Penalty>
1.03856

> <b_epik_Metal_Only>
0

> <s_lp_Force_Field>
OPLS_2005

> <r_lp_Energy>
20.0784

> <b_lp_Chiralities_Consistent>
1

> <s_lp_Variant>
AV-unprocessed.smi:873-3

> <Gold.Version>
5.8.1

> <Gold.Id.Protein>
6NUR|6NUR_protein|mol2

> <Gold.PLP.Fitness>
44.8393

> <Gold.PLP.PLP>
-34.0916

> <Gold.PLP.part.hbond>
-2.9879

> <Gold.PLP.part.metal>
0.0000

> <Gold.PLP.part.buried>
-4.5332

> <Gold.PLP.part.nonpolar>
-27.0812

> <Gold.PLP.part.repulsive>
0.2764

> <Gold.PLP.ligand.clash>
0.0000

> <Gold.PLP.ligand.torsion>
0.8844

> <Gold.PLP.Chemscore.Hbond>
2.7440

> <Gold.PLP.Chemscore.CHOScore>
1.0000

> <Gold.PLP.Chemscore.Metal>
0.0000

> <Gold.Chemscore.Hbonds>
donor molecule, donor type, donor heavy atom, donor atom, acceptor molecule, acceptor atom, score
      L1  H     3    23       P1  7948  1.00
      L1  H    13    31       P1  7948  0.94
      P1  H  7989  7998       L1     6  0.80
      L1  C     5    24       P1  7957  1.00

> <Gold.PLP.Chemscore.Internal.Correction>
1.2845

> <Gold.Rescore>
     Score         DG    S(hbond)    S(metal)    S(lipo)     H(rot)  DE(clash)    DE(int)     intcor
     15.89     -18.27       1.83        0.00      86.16       1.33       0.01       2.36       ----

> <Gold.Chemscore.Fitness>
15.8947

> <Gold.Chemscore.DG>
-18.2656

> <Gold.Chemscore.ZeroCoef>
-5.4800

> <Gold.Chemscore.Hbond>
1.8299

> <Gold.Chemscore.Metal>
0.0000

> <Gold.Chemscore.Lipo>
86.1639

> <Gold.Chemscore.Internal_Hbond>
0.0000

> <Gold.Chemscore.DEClash>
0.0128

> <Gold.Chemscore.DEInternal>
2.3581

> <Gold.Chemscore.Rot>
1.3310

> <Gold.Chemscore.Internal.Correction>
   9.000000E+99

> <Gold.Chemscore.Hbonds>
donor molecule, donor type, donor heavy atom, donor atom, acceptor molecule, acceptor atom, score
      L1  H     3    23       P1  7948  0.81
      L1  H    13    31       P1  7948  0.23
      P1  H  7989  7998       L1     6  0.12

> <Gold.Chemscore.Hbond.Weighted>
-6.1118

> <Gold.Chemscore.Metal.Weighted>
-0.0000

> <Gold.Chemscore.Lipo.Weighted>
-10.0812

> <Gold.Chemscore.Internal_Hbond.Weighted>
0.0000

> <Gold.Chemscore.DEClash.Weighted>
0.0128

> <Gold.Chemscore.DEInternal.Weighted>
2.3581

> <Gold.Chemscore.Rot.Weighted>
3.4075

> <Gold.Chemscore.Internal.Correction.Weighted>
   9.000000E+99

> <Gold.Protein.RotatedTorsions>
[ 6907 6896 6895 6894 ] final -122.89 input  -60.11 | X-H torsion
[ 7974 7965 7964 7962 ] final -138.44 input  175.53 | X-H torsion
[ 8008 7997 7996 7995 ] final  -72.24 input   59.86 | X-H torsion
[ 10167 10162 10161 10158 ] final  -24.17 input  -65.29 | X-H torsion
[ 10718 10713 10712 10709 ] final  -72.10 input   66.30 | X-H torsion
[ 10763 10752 10751 10750 ] final   80.52 input  -60.55 | X-H torsion
[ 11005 11000 10999 10996 ] final   56.23 input  -57.11 | X-H torsion

> <Gold.Protein.ActiveResidues>
 VAL166  LYS551  ARG553  GLY616  TRP617  ASP618  TYR619  PRO620  LYS621  CYS622 
 ASP623  PHE694  ASN695  SER759  ASP760  ASP761  ALA762  ILE779  LEU786  VAL792 
 PHE793  MET794  SER795  GLU796  ALA797  LYS798  CYS799  TRP800  GLU811  SER814 

> <Gold.Protein.RotatedAtoms>
  150.8619  133.7631  159.2989 H   0  0  0  0  0  0  0  0  0  0  0  0  # atno 6907 bound_to 6896
  151.5271  135.1066  159.9903 H   0  0  0  0  0  0  0  0  0  0  0  0  # atno 6908 bound_to 6896
  152.4632  133.7823  159.6913 H   0  0  0  0  0  0  0  0  0  0  0  0  # atno 6909 bound_to 6896
  144.8758  140.6435  143.5237 H   0  0  0  0  0  0  0  0  0  0  0  0  # atno 7974 bound_to 7965
  154.5150  140.0801  156.8064 H   0  0  0  0  0  0  0  0  0  0  0  0  # atno 8008 bound_to 7997
  155.3700  140.3422  155.4225 H   0  0  0  0  0  0  0  0  0  0  0  0  # atno 8009 bound_to 7997
  156.1617  140.1591  156.8587 H   0  0  0  0  0  0  0  0  0  0  0  0  # atno 8010 bound_to 7997
  140.7288  143.4377  151.0704 H   0  0  0  0  0  0  0  0  0  0  0  0  # atno 10167 bound_to 10162
  156.0334  130.4365  150.2543 H   0  0  0  0  0  0  0  0  0  0  0  0  # atno 10718 bound_to 10713
  153.1040  135.4799  154.8918 H   0  0  0  0  0  0  0  0  0  0  0  0  # atno 10763 bound_to 10752
  154.7410  135.3082  154.8731 H   0  0  0  0  0  0  0  0  0  0  0  0  # atno 10764 bound_to 10752
  153.9339  135.6841  153.4798 H   0  0  0  0  0  0  0  0  0  0  0  0  # atno 10765 bound_to 10752
  140.0545  134.5689  155.9224 H   0  0  0  0  0  0  0  0  0  0  0  0  # atno 11005 bound_to 11000
  145.4045  139.1591  143.4159 LP  0  0  0  0  0  0  0  0  0  0  0  0  # atno 17320 bound_to 7965
  146.2962  140.4144  142.8721 LP  0  0  0  0  0  0  0  0  0  0  0  0  # atno 17321 bound_to 7965
  139.8041  143.8043  152.3165 LP  0  0  0  0  0  0  0  0  0  0  0  0  # atno 17342 bound_to 10162
  139.8069  144.7351  150.9749 LP  0  0  0  0  0  0  0  0  0  0  0  0  # atno 17343 bound_to 10162
  157.0644  131.0099  151.3212 LP  0  0  0  0  0  0  0  0  0  0  0  0  # atno 17370 bound_to 10713
  157.5046  130.7901  149.7641 LP  0  0  0  0  0  0  0  0  0  0  0  0  # atno 17371 bound_to 10713
  141.1946  133.6583  156.5601 LP  0  0  0  0  0  0  0  0  0  0  0  0  # atno 17394 bound_to 11000
  140.3865  134.7477  157.4694 LP  0  0  0  0  0  0  0  0  0  0  0  0  # atno 17395 bound_to 11000

$$$$
