#       Name:                AV-unprocessed.smi:2074
#       Creating user name   scv26
#       Creation time:       Fri Mar 27 11:14:50 2020


#       File generated by GOLD software.
#

@<TRIPOS>MOLECULE
AV-unprocessed.smi:2074
    51    52     1
SMALL
NO_CHARGES


@<TRIPOS>ATOM
      1 ****        -2.5423   1.7564  -1.4222 C.3            1 S1                 0.0000
      2 ****        -3.1784   1.9580  -0.0771 C.2            1 S1                 0.0000
      3 ****        -3.5791   3.1670   0.2781 N.2            1 S1                 0.0000
      4 ****        -4.1057   3.0325   1.5662 O.3            1 S1                 0.0000
      5 ****        -3.9975   1.7325   1.9410 C.2            1 S1                 0.0000
      6 ****        -4.5008   1.3841   3.3005 C.3            1 S1                 0.0000
      7 ****        -3.4221   0.9940   0.9440 C.2            1 S1                 0.0000
      8 ****        -3.1106  -0.4821   0.9274 C.3            1 S1                 0.0000
      9 ****        -1.6000  -0.7066   1.0344 C.2            1 S1                 0.0000
     10 ****        -0.9482  -0.1373   1.9105 O.2            1 S1                 0.0000
     11 ****        -1.0522  -1.5286   0.1261 N.am           1 S1                 0.0000
     12 ****         0.3758  -1.8096   0.0050 C.3            1 S1                 0.0000
     13 ****         1.1473  -0.6897  -0.7518 C.3            1 S1                 0.0000
     14 ****         0.5251  -0.5268  -2.1620 C.3            1 S1                 0.0000
     15 ****         2.6120  -0.9063  -0.7984 N.3            1 S1                 0.0000
     16 ****         3.2135  -1.0114   0.5363 C.3            1 S1                 0.0000
     17 ****         4.7396  -1.2018   0.4899 C.3            1 S1                 0.0000
     18 ****         5.3353  -0.1308  -0.2290 O.3            1 S1                 0.0000
     19 ****         4.8376  -0.0384  -1.5564 C.3            1 S1                 0.0000
     20 ****         3.3124   0.1599  -1.5247 C.3            1 S1                 0.0000
     21 ****        -2.8092   0.7862  -1.8412 H              1 S1                 0.0000
     22 ****        -1.4556   1.7983  -1.3459 H              1 S1                 0.0000
     23 ****        -2.8559   2.5203  -2.1344 H              1 S1                 0.0000
     24 ****        -3.8327   0.6752   3.7896 H              1 S1                 0.0000
     25 ****        -5.4904   0.9314   3.2406 H              1 S1                 0.0000
     26 ****        -4.5708   2.2702   3.9319 H              1 S1                 0.0000
     27 ****        -3.5920  -1.0010   1.7566 H              1 S1                 0.0000
     28 ****        -3.4924  -0.9480   0.0178 H              1 S1                 0.0000
     29 ****        -1.6611  -1.9608  -0.5534 H              1 S1                 0.0000
     30 ****         0.7545  -1.9668   1.0136 H              1 S1                 0.0000
     31 ****         0.4945  -2.7598  -0.5165 H              1 S1                 0.0000
     32 ****         0.9661   0.2425  -0.2141 H              1 S1                 0.0000
     33 ****        -0.5613  -0.4583  -2.1360 H              1 S1                 0.0000
     34 ****         0.7814  -1.3693  -2.8053 H              1 S1                 0.0000
     35 ****         0.8566   0.3871  -2.6535 H              1 S1                 0.0000
     36 ****         2.9773  -0.1204   1.1202 H              1 S1                 0.0000
     37 ****         2.8087  -1.8632   1.0783 H              1 S1                 0.0000
     38 ****         5.1490  -1.2229   1.4999 H              1 S1                 0.0000
     39 ****         4.9956  -2.1531   0.0208 H              1 S1                 0.0000
     40 ****         5.3178   0.8022  -2.0575 H              1 S1                 0.0000
     41 ****         5.0998  -0.9373  -2.1167 H              1 S1                 0.0000
     42 ****         2.9758   0.2054  -2.5589 H              1 S1                 0.0000
     43 ****         3.0828   1.1266  -1.0738 H              1 S1                 0.0000
     44 ****        -3.5180   4.0055  -0.2635 LP             1 S1                 0.0000
     45 ****        -5.0678   3.3052   1.5677 LP             1 S1                 0.0000
     46 ****        -3.5944   3.6107   2.2020 LP             1 S1                 0.0000
     47 ****        -1.4054   0.4747   2.5558 LP             1 S1                 0.0000
     48 ****         0.0383  -0.2869   1.9766 LP             1 S1                 0.0000
     49 ****         2.7224  -1.7746  -1.2820 LP             1 S1                 0.0000
     50 ****         6.3240  -0.2763  -0.2644 LP             1 S1                 0.0000
     51 ****         5.1414   0.7260   0.2488 LP             1 S1                 0.0000
@<TRIPOS>BOND
    1    1    2 1     
    2    1   21 1     
    3    1   22 1     
    4    1   23 1     
    5    2    7 1     
    6    2    3 2     
    7    3    4 1     
    8    4    5 1     
    9    5    6 1     
   10    5    7 2     
   11    6   24 1     
   12    6   25 1     
   13    6   26 1     
   14    7    8 1     
   15    8    9 1     
   16    8   27 1     
   17    8   28 1     
   18    9   10 2     
   19    9   11 am    
   20   11   12 1     
   21   11   29 1     
   22   12   13 1     
   23   12   30 1     
   24   12   31 1     
   25   13   14 1     
   26   13   15 1     
   27   13   32 1     
   28   14   33 1     
   29   14   34 1     
   30   14   35 1     
   31   15   20 1     
   32   15   16 1     
   33   16   17 1     
   34   16   36 1     
   35   16   37 1     
   36   17   18 1     
   37   17   38 1     
   38   17   39 1     
   39   18   19 1     
   40   19   20 1     
   41   19   40 1     
   42   19   41 1     
   43   20   42 1     
   44   20   43 1     
   45    3   44 1     
   46    4   45 1     
   47    4   46 1     
   48   10   47 1     
   49   10   48 1     
   50   15   49 1     
   51   18   50 1     
   52   18   51 1     
@<TRIPOS>SUBSTRUCTURE
      1 S1             1
@<TRIPOS>SET
LONE_PAIRS      STATIC     ATOMS    <user>   **** ""
8 44 45 46 47 48 49 50 51
DONOR_HYDROGENS      STATIC     ATOMS    <user>   **** ""
1 29
ATOM$BLUE        STATIC     ATOMS    COLORGROUP SYSTEM
8 44 45 46 47 48 49 50 51
ATOM$RED        STATIC     ATOMS    COLORGROUP SYSTEM
1 29
