AV-unprocessed.smi:103|AV-procd|sdf|984|dock2
  -GOLD-   2262017553D 1   1.00000     0.00000
 Structure written by MMmdl.
 53 55  0  0  0  0  0  0  0  0  1 V2000
  153.4116  137.6323  158.8630 C   0  0  0  0  0  0  0  0  0  0  0  0
  153.2032  138.4273  157.5810 C   0  0  0  0  0  0  0  0  0  0  0  0
  153.2320  139.6582  157.5738 O   0  0  0  0  0  0  0  0  0  0  0  0
  152.9993  137.6362  156.5173 O   0  0  0  0  0  0  0  0  0  0  0  0
  152.7442  138.2156  155.2473 C   0  0  0  0  0  0  0  0  0  0  0  0
  151.3054  137.8895  154.8012 C   0  0  1  0  0  0  0  0  0  0  0  0
  151.1508  136.4780  154.7897 O   0  0  0  0  0  0  0  0  0  0  0  0
  150.7947  136.0465  156.0659 C   0  0  2  0  0  0  0  0  0  0  0  0
  149.8936  134.8557  155.9257 N   0  0  0  0  0  0  0  0  0  0  0  0
  150.0788  133.5569  156.3553 C   0  0  0  0  0  0  0  0  0  0  0  0
  151.5289  132.9011  157.1718 S   0  0  0  0  0  0  0  0  0  0  0  0
  151.9989  131.5227  156.0505 C   0  0  0  0  0  0  0  0  0  0  0  0
  152.5687  133.9402  157.1217 O   0  0  0  0  0  0  0  0  0  0  0  0
  151.0825  132.3522  158.4618 O   0  0  0  0  0  0  0  0  0  0  0  0
  149.1454  132.6989  156.0441 N   0  0  0  0  0  0  0  0  0  0  0  0
  148.1922  133.4864  155.4141 C   0  0  0  0  0  0  0  0  0  0  0  0
  146.9177  133.2281  154.8495 C   0  0  0  0  0  0  0  0  0  0  0  0
  146.3595  132.0098  154.8294 N   0  0  0  0  0  0  0  0  0  0  0  0
  146.2301  134.2593  154.3060 N   0  0  0  0  0  0  0  0  0  0  0  0
  146.7648  135.4845  154.3134 C   0  0  0  0  0  0  0  0  0  0  0  0
  147.9458  135.8781  154.7977 N   0  0  0  0  0  0  0  0  0  0  0  0
  148.6404  134.8368  155.3443 C   0  0  0  0  0  0  0  0  0  0  0  0
  150.1205  137.2330  156.7904 C   0  0  2  0  0  0  0  0  0  0  0  0
  148.7579  136.9790  157.1218 O   0  0  0  0  0  0  0  0  0  0  0  0
  148.4386  136.1226  158.1056 C   0  0  0  0  0  0  0  0  0  0  0  0
  146.9349  135.9206  158.2260 C   0  0  0  0  0  0  0  0  0  0  0  0
  149.2278  135.5368  158.8459 O   0  0  0  0  0  0  0  0  0  0  0  0
  150.1997  138.3524  155.7591 C   0  0  1  0  0  0  0  0  0  0  0  0
  150.5065  139.6016  156.3671 O   0  0  0  0  0  0  0  0  0  0  0  0
  150.5939  140.7193  155.6276 C   0  0  0  0  0  0  0  0  0  0  0  0
  151.0467  141.9193  156.4482 C   0  0  0  0  0  0  0  0  0  0  0  0
  150.3461  140.8175  154.4259 O   0  0  0  0  0  0  0  0  0  0  0  0
  154.2716  136.9705  158.7603 H   0  0  0  0  0  0  0  0  0  0  0  0
  152.5315  137.0272  159.0812 H   0  0  0  0  0  0  0  0  0  0  0  0
  153.5891  138.3013  159.7051 H   0  0  0  0  0  0  0  0  0  0  0  0
  152.8680  139.2957  155.3348 H   0  0  0  0  0  0  0  0  0  0  0  0
  153.4632  137.8660  154.5048 H   0  0  0  0  0  0  0  0  0  0  0  0
  151.1396  138.2733  153.7940 H   0  0  0  0  0  0  0  0  0  0  0  0
  151.6865  135.6852  156.5746 H   0  0  0  0  0  0  0  0  0  0  0  0
  152.8824  131.0206  156.4435 H   0  0  0  0  0  0  0  0  0  0  0  0
  152.2149  131.9168  155.0578 H   0  0  0  0  0  0  0  0  0  0  0  0
  151.1756  130.8115  155.9873 H   0  0  0  0  0  0  0  0  0  0  0  0
  146.8516  131.2238  155.2294 H   0  0  0  0  0  0  0  0  0  0  0  0
  145.4486  131.8798  154.4138 H   0  0  0  0  0  0  0  0  0  0  0  0
  146.1618  136.2601  153.8644 H   0  0  0  0  0  0  0  0  0  0  0  0
  150.7296  137.4819  157.6610 H   0  0  0  0  0  0  0  0  0  0  0  0
  146.5385  135.4863  157.3081 H   0  0  0  0  0  0  0  0  0  0  0  0
  146.4381  136.8747  158.4013 H   0  0  0  0  0  0  0  0  0  0  0  0
  146.7022  135.2515  159.0544 H   0  0  0  0  0  0  0  0  0  0  0  0
  149.2666  138.4045  155.1950 H   0  0  0  0  0  0  0  0  0  0  0  0
  152.0318  141.7344  156.8767 H   0  0  0  0  0  0  0  0  0  0  0  0
  150.3454  142.1090  157.2607 H   0  0  0  0  0  0  0  0  0  0  0  0
  151.1022  142.8116  155.8244 H   0  0  0  0  0  0  0  0  0  0  0  0
  1  2  1  0  0  0  0
  1 33  1  0  0  0  0
  1 34  1  0  0  0  0
  1 35  1  0  0  0  0
  2  3  2  0  0  0  0
  2  4  1  0  0  0  0
  4  5  1  0  0  0  0
  5  6  1  0  0  0  0
  5 36  1  0  0  0  0
  5 37  1  0  0  0  0
  6 28  1  0  0  0  0
  6  7  1  0  0  0  0
  6 38  1  0  0  0  0
  7  8  1  0  0  0  0
  8  9  1  0  0  0  0
  8 23  1  0  0  0  0
  8 39  1  0  0  0  0
  9 22  1  0  0  0  0
  9 10  1  0  0  0  0
 10 11  1  0  0  0  0
 10 15  2  0  0  0  0
 11 12  1  0  0  0  0
 11 13  2  0  0  0  0
 11 14  2  0  0  0  0
 12 40  1  0  0  0  0
 12 41  1  0  0  0  0
 12 42  1  0  0  0  0
 15 16  1  0  0  0  0
 16 22  2  0  0  0  0
 16 17  1  0  0  0  0
 17 18  1  0  0  0  0
 17 19  2  0  0  0  0
 18 43  1  0  0  0  0
 18 44  1  0  0  0  0
 19 20  1  0  0  0  0
 20 21  2  0  0  0  0
 20 45  1  0  0  0  0
 21 22  1  0  0  0  0
 23 24  1  0  0  0  0
 23 28  1  0  0  0  0
 23 46  1  0  0  0  0
 24 25  1  0  0  0  0
 25 26  1  0  0  0  0
 25 27  2  0  0  0  0
 26 47  1  0  0  0  0
 26 48  1  0  0  0  0
 26 49  1  0  0  0  0
 28 29  1  0  0  0  0
 28 50  1  0  0  0  0
 29 30  1  0  0  0  0
 30 31  1  0  0  0  0
 30 32  2  0  0  0  0
 31 51  1  0  0  0  0
 31 52  1  0  0  0  0
 31 53  1  0  0  0  0
M  END
> <s_m_source_file>
AV-unprocessed.smi

> <i_m_source_file_index>
103

> <i_lp_mmshare_version>
43012

> <i_f3d_flags>
0

> <s_epik_input>
W0NIM11DKD1PKU9bQ0gyXVtDQEBIXTFPW0NASF0oW0NAQEhdKE9DKD1PKVtDSDNdKVtDQEhdMU9DKD1PKVtDSDNdKW4oYyhuMilTKD1PKSg9TylbQ0gzXSljKGMyMyluW2NIXW5jM1tOSDJd

> <s_epik_cmdline>
J2VwaWtfcHl0aG9uJywgJy1waCcsICc3LjAnLCAnLXRuJywgJzgnLCAnLW1hJywgJzIwMCcsICctbWV0YWxfYmluZGluZycsICctaW1hZScsICc8aW5maWxlLm1hZT4nLCAnLW9tYWUnLCAnPG91dGZpbGUubWFlPic=

> <r_lp_tautomer_probability>
1

> <r_epik_Ionization_Penalty>
1.51338e-05

> <r_epik_Ionization_Penalty_Charging>
0

> <r_epik_Ionization_Penalty_Neutral>
1.51338e-05

> <r_epik_State_Penalty>
-0

> <r_epik_Charging_Adjusted_Penalty>
0

> <i_epik_Tot_Q>
0

> <i_epik_Tot_abs_Q>
0

> <r_epik_Metal_State_Penalty>
-0

> <b_epik_Metal_Only>
0

> <s_epik_Chemistry_Notes>
This compound has an ester and may undergo hydrolysis at high or low pH. This compound contains an acetal/aminal-like group ( X-CH(R)-Y where X, Y are N, S, or O) that may be acid/base labile, releasing an aldehyde.

> <s_lp_Force_Field>
OPLS_2005

> <r_lp_Energy>
18.7929

> <b_lp_Chiralities_Consistent>
1

> <s_lp_Variant>
AV-unprocessed.smi:103-8

> <Gold.Version>
5.8.1

> <Gold.Id.Protein>
6NUR|6NUR_protein|mol2

> <Gold.PLP.Fitness>
42.5363

> <Gold.PLP.PLP>
-28.6896

> <Gold.PLP.part.hbond>
-6.6853

> <Gold.PLP.part.metal>
0.0000

> <Gold.PLP.part.buried>
-3.1293

> <Gold.PLP.part.nonpolar>
-20.8731

> <Gold.PLP.part.repulsive>
1.5980

> <Gold.PLP.ligand.clash>
0.0000

> <Gold.PLP.ligand.torsion>
1.5849

> <Gold.PLP.Chemscore.Hbond>
4.8800

> <Gold.PLP.Chemscore.CHOScore>
0.0000

> <Gold.PLP.Chemscore.Metal>
0.0000

> <Gold.Chemscore.Hbonds>
donor molecule, donor type, donor heavy atom, donor atom, acceptor molecule, acceptor atom, score
      P1  H  6896  6907       L1    27  1.00
      P1  H  6896  6909       L1    14  0.46
      P1  H  7989  7998       L1    32  0.75
      P1  H  7997  8008       L1     3  0.88
      P1  H 10752 10763       L1     7  1.00

> <Gold.PLP.Chemscore.Internal.Correction>
2.3765

> <Gold.Rescore>
     Score         DG    S(hbond)    S(metal)    S(lipo)     H(rot)  DE(clash)    DE(int)     intcor
      1.01      -9.76       3.13        0.00      40.21       4.25       0.01       8.75       ----

> <Gold.Chemscore.Fitness>
1.0069

> <Gold.Chemscore.DG>
-9.7594

> <Gold.Chemscore.ZeroCoef>
-5.4800

> <Gold.Chemscore.Hbond>
3.1268

> <Gold.Chemscore.Metal>
0.0000

> <Gold.Chemscore.Lipo>
40.2086

> <Gold.Chemscore.Internal_Hbond>
0.0000

> <Gold.Chemscore.DEClash>
0.0075

> <Gold.Chemscore.DEInternal>
8.7450

> <Gold.Chemscore.Rot>
4.2456

> <Gold.Chemscore.Internal.Correction>
   9.000000E+99

> <Gold.Chemscore.Hbonds>
donor molecule, donor type, donor heavy atom, donor atom, acceptor molecule, acceptor atom, score
      P1  H  6896  6907       L1    27  1.00
      P1  H  6896  6909       L1    14  0.10
      P1  H  7989  7998       L1    32  0.67
      P1  H  7997  8008       L1     3  0.52
      P1  H 10752 10763       L1     7  0.40

> <Gold.Chemscore.Hbond.Weighted>
-10.4436

> <Gold.Chemscore.Metal.Weighted>
-0.0000

> <Gold.Chemscore.Lipo.Weighted>
-4.7044

> <Gold.Chemscore.Internal_Hbond.Weighted>
0.0000

> <Gold.Chemscore.DEClash.Weighted>
0.0075

> <Gold.Chemscore.DEInternal.Weighted>
8.7450

> <Gold.Chemscore.Rot.Weighted>
10.8687

> <Gold.Chemscore.Internal.Correction.Weighted>
   9.000000E+99

> <Gold.Protein.RotatedTorsions>
[ 6907 6896 6895 6894 ] final  -56.42 input  -60.11 | X-H torsion
[ 7974 7965 7964 7962 ] final  163.16 input  175.53 | X-H torsion
[ 8008 7997 7996 7995 ] final  -76.08 input   59.86 | X-H torsion
[ 10167 10162 10161 10158 ] final -118.29 input  -65.29 | X-H torsion
[ 10718 10713 10712 10709 ] final  -12.80 input   66.30 | X-H torsion
[ 10763 10752 10751 10750 ] final   44.35 input  -60.55 | X-H torsion
[ 11005 11000 10999 10996 ] final  116.08 input  -57.11 | X-H torsion

> <Gold.Protein.ActiveResidues>
 VAL166  LYS551  ARG553  GLY616  TRP617  ASP618  TYR619  PRO620  LYS621  CYS622 
 ASP623  PHE694  ASN695  SER759  ASP760  ASP761  ALA762  ILE779  LEU786  VAL792 
 PHE793  MET794  SER795  GLU796  ALA797  LYS798  CYS799  TRP800  GLU811  SER814 

> <Gold.Protein.RotatedAtoms>
  150.8169  134.7356  159.6737 H   0  0  0  0  0  0  0  0  0  0  0  0  # atno 6907 bound_to 6896
  152.4287  134.5815  159.9959 H   0  0  0  0  0  0  0  0  0  0  0  0  # atno 6908 bound_to 6896
  151.6009  133.3319  159.3083 H   0  0  0  0  0  0  0  0  0  0  0  0  # atno 6909 bound_to 6896
  144.7603  139.8142  143.6335 H   0  0  0  0  0  0  0  0  0  0  0  0  # atno 7974 bound_to 7965
  154.5473  140.0733  156.8610 H   0  0  0  0  0  0  0  0  0  0  0  0  # atno 8008 bound_to 7997
  155.3062  140.3387  155.4227 H   0  0  0  0  0  0  0  0  0  0  0  0  # atno 8009 bound_to 7997
  156.1930  140.1693  156.8041 H   0  0  0  0  0  0  0  0  0  0  0  0  # atno 8010 bound_to 7997
  140.0591  143.4985  152.2041 H   0  0  0  0  0  0  0  0  0  0  0  0  # atno 10167 bound_to 10162
  156.6393  130.4923  149.6100 H   0  0  0  0  0  0  0  0  0  0  0  0  # atno 10718 bound_to 10713
  152.9843  135.6073  154.3260 H   0  0  0  0  0  0  0  0  0  0  0  0  # atno 10763 bound_to 10752
  154.2966  135.2773  155.2632 H   0  0  0  0  0  0  0  0  0  0  0  0  # atno 10764 bound_to 10752
  154.4903  135.5894  153.6510 H   0  0  0  0  0  0  0  0  0  0  0  0  # atno 10765 bound_to 10752
  139.9030  134.9593  156.7143 H   0  0  0  0  0  0  0  0  0  0  0  0  # atno 11005 bound_to 11000
  146.1658  139.4789  142.9959 LP  0  0  0  0  0  0  0  0  0  0  0  0  # atno 17320 bound_to 7965
  145.6642  141.0233  143.1692 LP  0  0  0  0  0  0  0  0  0  0  0  0  # atno 17321 bound_to 7965
  139.5905  144.7548  151.3413 LP  0  0  0  0  0  0  0  0  0  0  0  0  # atno 17342 bound_to 10162
  140.7180  143.7213  150.7693 LP  0  0  0  0  0  0  0  0  0  0  0  0  # atno 17343 bound_to 10162
  156.2171  130.6714  151.1330 LP  0  0  0  0  0  0  0  0  0  0  0  0  # atno 17370 bound_to 10713
  157.7176  131.0701  150.6266 LP  0  0  0  0  0  0  0  0  0  0  0  0  # atno 17371 bound_to 10713
  140.7051  133.9272  155.8049 LP  0  0  0  0  0  0  0  0  0  0  0  0  # atno 17394 bound_to 11000
  141.0342  134.0713  157.3978 LP  0  0  0  0  0  0  0  0  0  0  0  0  # atno 17395 bound_to 11000

$$$$
