AV-unprocessed.smi:2196|AV-procd|sdf|8908|dock6
  -GOLD-   2272012123D 1   1.00000     0.00000
 Structure written by MMmdl.
 45 46  0  0  0  0  0  0  0  0  1 V2000
  152.8070  139.0552  157.2041 C   0  0  0  0  0  0  0  0  0  0  0  0
  152.0368  140.0440  156.3191 C   0  0  0  0  0  0  0  0  0  0  0  0
  150.7676  140.4488  156.9176 N   0  0  0  0  0  0  0  0  0  0  0  0
  150.7864  140.7378  158.3518 C   0  0  0  0  0  0  0  0  0  0  0  0
  151.3905  142.0873  158.6987 C   0  0  0  0  0  0  0  0  0  0  0  0
  150.8293  143.2682  158.1696 C   0  0  0  0  0  0  0  0  0  0  0  0
  151.3685  144.5232  158.5129 C   0  0  0  0  0  0  0  0  0  0  0  0
  152.4696  144.6012  159.3875 C   0  0  0  0  0  0  0  0  0  0  0  0
  153.0312  143.4242  159.9188 C   0  0  0  0  0  0  0  0  0  0  0  0
  152.4928  142.1690  159.5753 C   0  0  0  0  0  0  0  0  0  0  0  0
  149.5839  140.4569  156.1789 C   0  0  0  0  0  0  0  0  0  0  0  0
  148.3824  140.8709  156.6790 C   0  0  0  0  0  0  0  0  0  0  0  0
  148.2843  141.2765  158.0008 N   0  0  0  0  0  0  0  0  0  0  0  0
  147.2268  140.9063  155.8935 N   0  0  0  0  0  0  0  0  0  0  0  0
  145.9403  141.3630  156.3788 C   0  0  0  0  0  0  0  0  0  0  0  0
  145.4162  142.5763  155.5971 C   0  0  0  0  0  0  0  0  0  0  0  0
  144.1272  142.9101  156.0823 O   0  0  0  0  0  0  0  0  0  0  0  0
  143.5483  143.9953  155.3791 C   0  0  0  0  0  0  0  0  0  0  0  0
  147.2875  140.5456  154.5267 C   0  0  0  0  0  0  0  0  0  0  0  0
  146.3213  140.5973  153.7649 O   0  0  0  0  0  0  0  0  0  0  0  0
  148.5169  140.1177  154.0401 N   0  0  0  0  0  0  0  0  0  0  0  0
  149.6961  140.0367  154.7760 C   0  0  0  0  0  0  0  0  0  0  0  0
  150.7241  139.6469  154.2229 O   0  0  0  0  0  0  0  0  0  0  0  0
  148.5617  139.8536  153.0669 H   0  0  0  0  0  0  0  0  0  0  0  0
  153.7368  138.7507  156.7235 H   0  0  0  0  0  0  0  0  0  0  0  0
  152.2194  138.1559  157.3901 H   0  0  0  0  0  0  0  0  0  0  0  0
  153.0631  139.4950  158.1683 H   0  0  0  0  0  0  0  0  0  0  0  0
  152.6442  140.9292  156.1270 H   0  0  0  0  0  0  0  0  0  0  0  0
  151.8579  139.5843  155.3460 H   0  0  0  0  0  0  0  0  0  0  0  0
  149.7732  140.6724  158.7485 H   0  0  0  0  0  0  0  0  0  0  0  0
  151.3600  139.9747  158.8799 H   0  0  0  0  0  0  0  0  0  0  0  0
  149.9779  143.2131  157.5070 H   0  0  0  0  0  0  0  0  0  0  0  0
  150.9347  145.4259  158.1087 H   0  0  0  0  0  0  0  0  0  0  0  0
  152.8812  145.5637  159.6527 H   0  0  0  0  0  0  0  0  0  0  0  0
  153.8730  143.4840  160.5925 H   0  0  0  0  0  0  0  0  0  0  0  0
  152.9219  141.2706  159.9942 H   0  0  0  0  0  0  0  0  0  0  0  0
  149.0865  141.2750  158.6140 H   0  0  0  0  0  0  0  0  0  0  0  0
  147.3986  141.5207  158.4201 H   0  0  0  0  0  0  0  0  0  0  0  0
  145.2441  140.5229  156.3494 H   0  0  0  0  0  0  0  0  0  0  0  0
  146.0608  141.5921  157.4372 H   0  0  0  0  0  0  0  0  0  0  0  0
  146.0922  143.4239  155.7219 H   0  0  0  0  0  0  0  0  0  0  0  0
  145.3662  142.3489  154.5310 H   0  0  0  0  0  0  0  0  0  0  0  0
  142.5615  144.2122  155.7877 H   0  0  0  0  0  0  0  0  0  0  0  0
  143.4298  143.7608  154.3204 H   0  0  0  0  0  0  0  0  0  0  0  0
  144.1572  144.8955  155.4726 H   0  0  0  0  0  0  0  0  0  0  0  0
  1  2  1  0  0  0  0
  1 25  1  0  0  0  0
  1 26  1  0  0  0  0
  1 27  1  0  0  0  0
  2  3  1  0  0  0  0
  2 28  1  0  0  0  0
  2 29  1  0  0  0  0
  3  4  1  0  0  0  0
  3 11  1  0  0  0  0
  4  5  1  0  0  0  0
  4 30  1  0  0  0  0
  4 31  1  0  0  0  0
  5 10  1  0  0  0  0
  5  6  2  0  0  0  0
  6  7  1  0  0  0  0
  6 32  1  0  0  0  0
  7  8  2  0  0  0  0
  7 33  1  0  0  0  0
  8  9  1  0  0  0  0
  8 34  1  0  0  0  0
  9 10  2  0  0  0  0
  9 35  1  0  0  0  0
 10 36  1  0  0  0  0
 11 22  1  0  0  0  0
 11 12  2  0  0  0  0
 12 13  1  0  0  0  0
 12 14  1  0  0  0  0
 13 37  1  0  0  0  0
 13 38  1  0  0  0  0
 14 15  1  0  0  0  0
 14 19  1  0  0  0  0
 15 16  1  0  0  0  0
 15 39  1  0  0  0  0
 15 40  1  0  0  0  0
 16 17  1  0  0  0  0
 16 41  1  0  0  0  0
 16 42  1  0  0  0  0
 17 18  1  0  0  0  0
 18 43  1  0  0  0  0
 18 44  1  0  0  0  0
 18 45  1  0  0  0  0
 19 20  2  0  0  0  0
 19 21  1  0  0  0  0
 21 24  1  0  0  0  0
 21 22  1  0  0  0  0
 22 23  2  0  0  0  0
M  END
> <s_m_source_file>
AV-unprocessed.smi

> <i_m_source_file_index>
2196

> <i_lp_mmshare_version>
43012

> <i_f3d_flags>
0

> <s_epik_input>
W0NIM11PW0NIMl1bQ0gyXW4oYyg9TylbbkhdYzE9TyljKFtOSDJdKWMxTihbQ0gyXVtDSDNdKVtDSDJdYzJbY0hdW2NIXVtjSF1bY0hdW2NIXTI=

> <s_epik_cmdline>
J2VwaWtfcHl0aG9uJywgJy1waCcsICc3LjAnLCAnLXRuJywgJzgnLCAnLW1hJywgJzIwMCcsICctbWV0YWxfYmluZGluZycsICctaW1hZScsICc8aW5maWxlLm1hZT4nLCAnLW9tYWUnLCAnPG91dGZpbGUubWFlPic=

> <r_lp_tautomer_probability>
1

> <r_epik_Ionization_Penalty>
0.000571321

> <r_epik_Ionization_Penalty_Charging>
3.00664e-06

> <r_epik_Ionization_Penalty_Neutral>
0.000568314

> <r_epik_State_Penalty>
-0

> <r_epik_Charging_Adjusted_Penalty>
3.00664e-06

> <i_epik_Tot_Q>
0

> <i_epik_Tot_abs_Q>
0

> <r_epik_Metal_State_Penalty>
-0

> <b_epik_Metal_Only>
0

> <s_lp_Force_Field>
OPLS_2005

> <r_lp_Energy>
20.6449

> <b_lp_Chiralities_Consistent>
1

> <s_lp_Variant>
AV-unprocessed.smi:2196-1

> <Gold.Version>
5.8.1

> <Gold.Id.Protein>
6NUR|6NUR_protein|mol2

> <Gold.PLP.Fitness>
48.0754

> <Gold.PLP.PLP>
-42.9602

> <Gold.PLP.part.hbond>
-2.0000

> <Gold.PLP.part.metal>
0.0000

> <Gold.PLP.part.buried>
-5.8428

> <Gold.PLP.part.nonpolar>
-36.8713

> <Gold.PLP.part.repulsive>
0.7677

> <Gold.PLP.ligand.clash>
21.4381

> <Gold.PLP.ligand.torsion>
0.3906

> <Gold.PLP.Chemscore.Hbond>
1.9500

> <Gold.PLP.Chemscore.CHOScore>
0.0000

> <Gold.PLP.Chemscore.Metal>
0.0000

> <Gold.Chemscore.Hbonds>
donor molecule, donor type, donor heavy atom, donor atom, acceptor molecule, acceptor atom, score
      L1  H    21    24       P1  7957  0.59
      P1  H  7989  7998       L1    23  1.00

> <Gold.PLP.Chemscore.Internal.Correction>
21.4847

> <Gold.Rescore>
     Score         DG    S(hbond)    S(metal)    S(lipo)     H(rot)  DE(clash)    DE(int)     intcor
     11.19     -16.58       1.24        0.00     104.35       2.06       0.16       5.22       ----

> <Gold.Chemscore.Fitness>
11.1895

> <Gold.Chemscore.DG>
-16.5788

> <Gold.Chemscore.ZeroCoef>
-5.4800

> <Gold.Chemscore.Hbond>
1.2442

> <Gold.Chemscore.Metal>
0.0000

> <Gold.Chemscore.Lipo>
104.3515

> <Gold.Chemscore.Internal_Hbond>
0.0000

> <Gold.Chemscore.DEClash>
0.1648

> <Gold.Chemscore.DEInternal>
5.2244

> <Gold.Chemscore.Rot>
2.0571

> <Gold.Chemscore.Internal.Correction>
   9.000000E+99

> <Gold.Chemscore.Hbonds>
donor molecule, donor type, donor heavy atom, donor atom, acceptor molecule, acceptor atom, score
      L1  H    21    24       P1  7957  0.58
      P1  H  7989  7998       L1    23  0.91

> <Gold.Chemscore.Hbond.Weighted>
-4.1558

> <Gold.Chemscore.Metal.Weighted>
-0.0000

> <Gold.Chemscore.Lipo.Weighted>
-12.2091

> <Gold.Chemscore.Internal_Hbond.Weighted>
0.0000

> <Gold.Chemscore.DEClash.Weighted>
0.1648

> <Gold.Chemscore.DEInternal.Weighted>
5.2244

> <Gold.Chemscore.Rot.Weighted>
5.2661

> <Gold.Chemscore.Internal.Correction.Weighted>
   9.000000E+99

> <Gold.Protein.RotatedTorsions>
[ 6907 6896 6895 6894 ] final  -36.50 input  -60.11 | X-H torsion
[ 7974 7965 7964 7962 ] final   69.04 input  175.53 | X-H torsion
[ 8008 7997 7996 7995 ] final   83.70 input   59.86 | X-H torsion
[ 10167 10162 10161 10158 ] final  130.37 input  -65.29 | X-H torsion
[ 10718 10713 10712 10709 ] final  -73.47 input   66.30 | X-H torsion
[ 10763 10752 10751 10750 ] final  -21.46 input  -60.55 | X-H torsion
[ 11005 11000 10999 10996 ] final   13.97 input  -57.11 | X-H torsion

> <Gold.Protein.ActiveResidues>
 VAL166  LYS551  ARG553  GLY616  TRP617  ASP618  TYR619  PRO620  LYS621  CYS622 
 ASP623  PHE694  ASN695  SER759  ASP760  ASP761  ALA762  ILE779  LEU786  VAL792 
 PHE793  MET794  SER795  GLU796  ALA797  LYS798  CYS799  TRP800  GLU811  SER814 

> <Gold.Protein.RotatedAtoms>
  151.0264  134.9507  159.8087 H   0  0  0  0  0  0  0  0  0  0  0  0  # atno 6907 bound_to 6896
  152.5336  134.2836  159.9027 H   0  0  0  0  0  0  0  0  0  0  0  0  # atno 6908 bound_to 6896
  151.2845  133.4152  159.2663 H   0  0  0  0  0  0  0  0  0  0  0  0  # atno 6909 bound_to 6896
  145.7953  139.2954  143.1186 H   0  0  0  0  0  0  0  0  0  0  0  0  # atno 7974 bound_to 7965
  155.9274  140.3417  155.6221 H   0  0  0  0  0  0  0  0  0  0  0  0  # atno 8008 bound_to 7997
  155.7199  140.0782  157.2354 H   0  0  0  0  0  0  0  0  0  0  0  0  # atno 8009 bound_to 7997
  154.4079  140.1607  156.2378 H   0  0  0  0  0  0  0  0  0  0  0  0  # atno 8010 bound_to 7997
  139.5433  144.6751  151.4553 H   0  0  0  0  0  0  0  0  0  0  0  0  # atno 10167 bound_to 10162
  156.0279  130.4395  150.2748 H   0  0  0  0  0  0  0  0  0  0  0  0  # atno 10718 bound_to 10713
  153.6365  135.6987  153.5257 H   0  0  0  0  0  0  0  0  0  0  0  0  # atno 10763 bound_to 10752
  153.2817  135.4183  155.1084 H   0  0  0  0  0  0  0  0  0  0  0  0  # atno 10764 bound_to 10752
  154.8510  135.3603  154.5908 H   0  0  0  0  0  0  0  0  0  0  0  0  # atno 10765 bound_to 10752
  140.4748  134.0995  155.7739 H   0  0  0  0  0  0  0  0  0  0  0  0  # atno 11005 bound_to 11000
  145.9934  140.8583  143.0055 LP  0  0  0  0  0  0  0  0  0  0  0  0  # atno 17320 bound_to 7965
  144.6776  140.2249  143.7362 LP  0  0  0  0  0  0  0  0  0  0  0  0  # atno 17321 bound_to 7965
  140.6672  143.8372  150.6956 LP  0  0  0  0  0  0  0  0  0  0  0  0  # atno 17342 bound_to 10162
  140.1785  143.4135  152.1950 LP  0  0  0  0  0  0  0  0  0  0  0  0  # atno 17343 bound_to 10162
  157.0851  131.0154  151.3142 LP  0  0  0  0  0  0  0  0  0  0  0  0  # atno 17370 bound_to 10713
  157.4897  130.7815  149.7496 LP  0  0  0  0  0  0  0  0  0  0  0  0  # atno 17371 bound_to 10713
  141.1560  133.8882  157.1976 LP  0  0  0  0  0  0  0  0  0  0  0  0  # atno 17394 bound_to 11000
  139.9863  135.0081  156.9870 LP  0  0  0  0  0  0  0  0  0  0  0  0  # atno 17395 bound_to 11000

$$$$
