AV-unprocessed.smi:109|AV-procd|sdf|1044|dock4
  -GOLD-   2262018 83D 1   1.00000     0.00000
 Structure written by MMmdl.
 58 61  0  0  0  0  0  0  0  0  1 V2000
  150.2465  140.3733  154.4185 O   0  0  0  0  0  0  0  0  0  0  0  0
  150.9133  140.2685  155.6579 C   0  0  0  0  0  0  0  0  0  0  0  0
  149.8901  140.2877  156.8071 C   0  0  0  0  0  0  0  0  0  0  0  0
  150.5248  140.2654  158.2194 C   0  0  1  0  0  0  0  0  0  0  0  0
  151.1102  138.9452  158.4673 N   0  0  0  0  0  0  0  0  0  0  0  0
  150.3501  137.8301  158.5497 C   0  0  0  0  0  0  0  0  0  0  0  0
  150.0555  137.2593  159.7464 N   0  0  0  0  0  0  0  0  0  0  0  0
  149.2981  136.1595  159.7953 C   0  0  0  0  0  0  0  0  0  0  0  0
  148.7409  135.4847  158.7871 N   0  0  0  0  0  0  0  0  0  0  0  0
  149.0318  136.0561  157.5824 C   0  0  0  0  0  0  0  0  0  0  0  0
  149.8284  137.2169  157.3815 C   0  0  0  0  0  0  0  0  0  0  0  0
  149.9117  137.4993  156.0253 N   0  0  0  0  0  0  0  0  0  0  0  0
  149.2060  136.5555  155.4625 C   0  0  0  0  0  0  0  0  0  0  0  0
  148.6251  135.6503  156.3291 N   0  0  0  0  0  0  0  0  0  0  0  0
  147.7815  134.4400  156.0435 C   0  0  2  0  0  0  0  0  0  0  0  0
  148.5253  133.5773  155.2448 O   0  0  0  0  0  0  0  0  0  0  0  0
  148.3199  133.9087  153.8793 C   0  0  1  0  0  0  0  0  0  0  0  0
  148.6855  132.7005  153.0034 C   0  0  0  0  0  0  0  0  0  0  0  0
  148.2938  132.9249  151.6660 O   0  0  0  0  0  0  0  0  0  0  0  0
  146.8387  134.3211  153.8251 C   0  0  2  0  0  0  0  0  0  0  0  0
  146.6596  135.3737  152.8978 O   0  0  0  0  0  0  0  0  0  0  0  0
  146.5151  134.7957  155.2468 C   0  0  1  0  0  0  0  0  0  0  0  0
  145.3879  134.1127  155.7569 O   0  0  0  0  0  0  0  0  0  0  0  0
  151.6067  141.3614  158.4393 C   0  0  0  0  0  0  0  0  0  0  0  0
  152.3340  141.1551  159.7930 C   0  0  0  0  0  0  0  0  0  0  0  0
  153.4079  142.2225  160.0563 C   0  0  0  0  0  0  0  0  0  0  0  0
  152.8106  143.6336  160.0021 C   0  0  0  0  0  0  0  0  0  0  0  0
  152.1109  143.8699  158.6587 C   0  0  0  0  0  0  0  0  0  0  0  0
  151.0384  142.8020  158.3860 C   0  0  0  0  0  0  0  0  0  0  0  0
  147.5773  134.0071  157.0236 H   0  0  0  0  0  0  0  0  0  0  0  0
  148.9712  134.7511  153.6401 H   0  0  0  0  0  0  0  0  0  0  0  0
  146.2118  133.4734  153.5435 H   0  0  0  0  0  0  0  0  0  0  0  0
  146.3118  135.8658  155.3092 H   0  0  0  0  0  0  0  0  0  0  0  0
  149.3865  139.9914  154.5062 H   0  0  0  0  0  0  0  0  0  0  0  0
  151.4908  139.3437  155.6726 H   0  0  0  0  0  0  0  0  0  0  0  0
  151.6178  141.0960  155.7402 H   0  0  0  0  0  0  0  0  0  0  0  0
  149.2407  141.1588  156.7083 H   0  0  0  0  0  0  0  0  0  0  0  0
  149.2552  139.4132  156.6746 H   0  0  0  0  0  0  0  0  0  0  0  0
  149.7274  140.4751  158.9316 H   0  0  0  0  0  0  0  0  0  0  0  0
  152.1170  138.9043  158.3987 H   0  0  0  0  0  0  0  0  0  0  0  0
  149.1103  135.7651  160.7831 H   0  0  0  0  0  0  0  0  0  0  0  0
  149.0936  136.5036  154.3901 H   0  0  0  0  0  0  0  0  0  0  0  0
  149.7640  132.5401  153.0198 H   0  0  0  0  0  0  0  0  0  0  0  0
  148.2182  131.7888  153.3768 H   0  0  0  0  0  0  0  0  0  0  0  0
  148.7461  132.3070  151.1120 H   0  0  0  0  0  0  0  0  0  0  0  0
  147.4864  135.5519  152.4775 H   0  0  0  0  0  0  0  0  0  0  0  0
  145.6523  133.6284  156.5242 H   0  0  0  0  0  0  0  0  0  0  0  0
  152.3466  141.2707  157.6422 H   0  0  0  0  0  0  0  0  0  0  0  0
  151.6053  141.1700  160.6046 H   0  0  0  0  0  0  0  0  0  0  0  0
  152.8087  140.1745  159.8307 H   0  0  0  0  0  0  0  0  0  0  0  0
  153.8684  142.0525  161.0299 H   0  0  0  0  0  0  0  0  0  0  0  0
  154.2046  142.1316  159.3170 H   0  0  0  0  0  0  0  0  0  0  0  0
  152.0966  143.7637  160.8164 H   0  0  0  0  0  0  0  0  0  0  0  0
  153.5933  144.3778  160.1519 H   0  0  0  0  0  0  0  0  0  0  0  0
  151.6573  144.8612  158.6466 H   0  0  0  0  0  0  0  0  0  0  0  0
  152.8495  143.8590  157.8560 H   0  0  0  0  0  0  0  0  0  0  0  0
  150.6124  143.0142  157.4068 H   0  0  0  0  0  0  0  0  0  0  0  0
  150.2279  142.9054  159.1087 H   0  0  0  0  0  0  0  0  0  0  0  0
  1  2  1  0  0  0  0
  1 34  1  0  0  0  0
  2  3  1  0  0  0  0
  2 35  1  0  0  0  0
  2 36  1  0  0  0  0
  3  4  1  0  0  0  0
  3 37  1  0  0  0  0
  3 38  1  0  0  0  0
  4  5  1  0  0  0  0
  4 24  1  0  0  0  0
  4 39  1  0  0  0  0
  5  6  1  0  0  0  0
  5 40  1  0  0  0  0
  6 11  1  0  0  0  0
  6  7  2  0  0  0  0
  7  8  1  0  0  0  0
  8  9  2  0  0  0  0
  8 41  1  0  0  0  0
  9 10  1  0  0  0  0
 10 14  1  0  0  0  0
 10 11  2  0  0  0  0
 11 12  1  0  0  0  0
 12 13  2  0  0  0  0
 13 14  1  0  0  0  0
 13 42  1  0  0  0  0
 14 15  1  0  0  0  0
 15 30  1  0  0  0  0
 15 22  1  0  0  0  0
 15 16  1  0  0  0  0
 16 17  1  0  0  0  0
 17 31  1  0  0  0  0
 17 18  1  0  0  0  0
 17 20  1  0  0  0  0
 18 19  1  0  0  0  0
 18 43  1  0  0  0  0
 18 44  1  0  0  0  0
 19 45  1  0  0  0  0
 20 32  1  0  0  0  0
 20 21  1  0  0  0  0
 20 22  1  0  0  0  0
 21 46  1  0  0  0  0
 22 33  1  0  0  0  0
 22 23  1  0  0  0  0
 23 47  1  0  0  0  0
 24 29  1  0  0  0  0
 24 25  1  0  0  0  0
 24 48  1  0  0  0  0
 25 26  1  0  0  0  0
 25 49  1  0  0  0  0
 25 50  1  0  0  0  0
 26 27  1  0  0  0  0
 26 51  1  0  0  0  0
 26 52  1  0  0  0  0
 27 28  1  0  0  0  0
 27 53  1  0  0  0  0
 27 54  1  0  0  0  0
 28 29  1  0  0  0  0
 28 55  1  0  0  0  0
 28 56  1  0  0  0  0
 29 57  1  0  0  0  0
 29 58  1  0  0  0  0
M  END
> <s_m_source_file>
AV-unprocessed.smi

> <i_m_source_file_index>
109

> <i_lp_mmshare_version>
43012

> <i_f3d_flags>
0

> <s_epik_input>
W0NIMl0xW0NIMl1bQ0gyXVtDSDJdW0NIMl1bQ0hdMVtDQEhdKFtDSDJdW0NIMl1bT0hdKVtOSF1jKG5bY0hdbjIpYyhjMjMpbltjSF1uM1tDQEBIXTRPW0NASF0oW0NIMl1bT0hdKVtDQEBIXShbT0hdKVtDQEhdNFtPSF0=

> <s_epik_cmdline>
J2VwaWtfcHl0aG9uJywgJy1waCcsICc3LjAnLCAnLXRuJywgJzgnLCAnLW1hJywgJzIwMCcsICctbWV0YWxfYmluZGluZycsICctaW1hZScsICc8aW5maWxlLm1hZT4nLCAnLW9tYWUnLCAnPG91dGZpbGUubWFlPic=

> <r_lp_tautomer_probability>
1

> <r_epik_Ionization_Penalty>
0.000793976

> <r_epik_Ionization_Penalty_Charging>
0

> <r_epik_Ionization_Penalty_Neutral>
0.000793976

> <r_epik_State_Penalty>
-0

> <r_epik_Charging_Adjusted_Penalty>
0

> <i_epik_Tot_Q>
0

> <i_epik_Tot_abs_Q>
0

> <r_epik_Metal_State_Penalty>
-0

> <b_epik_Metal_Only>
0

> <s_epik_Chemistry_Notes>
This compound contains an acetal/aminal-like group ( X-CH(R)-Y where X, Y are N, S, or O) that may be acid/base labile, releasing an aldehyde.

> <s_lp_Force_Field>
OPLS_2005

> <r_lp_Energy>
47.5037

> <b_lp_Chiralities_Consistent>
1

> <s_lp_Variant>
AV-unprocessed.smi:109-14

> <Gold.Version>
5.8.1

> <Gold.Id.Protein>
6NUR|6NUR_protein|mol2

> <Gold.PLP.Fitness>
50.9586

> <Gold.PLP.PLP>
-40.6501

> <Gold.PLP.part.hbond>
-4.2252

> <Gold.PLP.part.metal>
0.0000

> <Gold.PLP.part.buried>
-5.2220

> <Gold.PLP.part.nonpolar>
-30.9414

> <Gold.PLP.part.repulsive>
0.1717

> <Gold.PLP.ligand.clash>
0.0000

> <Gold.PLP.ligand.torsion>
0.9266

> <Gold.PLP.Chemscore.Hbond>
3.0213

> <Gold.PLP.Chemscore.CHOScore>
0.9990

> <Gold.PLP.Chemscore.Metal>
0.0000

> <Gold.Chemscore.Hbonds>
donor molecule, donor type, donor heavy atom, donor atom, acceptor molecule, acceptor atom, score
      L1  H    19    45       P1 10747  1.00
      L1  H    21    46       P1  7948  1.00
      P1  H  7989  7998       L1     1  0.83
      L1  C    13    42       P1  7948  1.00

> <Gold.PLP.Chemscore.Internal.Correction>
0.1007

> <Gold.Rescore>
     Score         DG    S(hbond)    S(metal)    S(lipo)     H(rot)  DE(clash)    DE(int)     intcor
      8.87     -11.37       2.89        0.00      87.41       5.47       0.00       2.51       ----

> <Gold.Chemscore.Fitness>
8.8672

> <Gold.Chemscore.DG>
-11.3740

> <Gold.Chemscore.ZeroCoef>
-5.4800

> <Gold.Chemscore.Hbond>
2.8923

> <Gold.Chemscore.Metal>
0.0000

> <Gold.Chemscore.Lipo>
87.4139

> <Gold.Chemscore.Internal_Hbond>
0.0000

> <Gold.Chemscore.DEClash>
0.0000

> <Gold.Chemscore.DEInternal>
2.5068

> <Gold.Chemscore.Rot>
5.4662

> <Gold.Chemscore.Internal.Correction>
   9.000000E+99

> <Gold.Chemscore.Hbonds>
donor molecule, donor type, donor heavy atom, donor atom, acceptor molecule, acceptor atom, score
      L1  H    19    45       P1 10747  0.99
      L1  H    21    46       P1  7948  1.00
      P1  H  7989  7998       L1     1  0.14

> <Gold.Chemscore.Hbond.Weighted>
-9.6601

> <Gold.Chemscore.Metal.Weighted>
-0.0000

> <Gold.Chemscore.Lipo.Weighted>
-10.2274

> <Gold.Chemscore.Internal_Hbond.Weighted>
0.0000

> <Gold.Chemscore.DEClash.Weighted>
0.0000

> <Gold.Chemscore.DEInternal.Weighted>
2.5068

> <Gold.Chemscore.Rot.Weighted>
13.9935

> <Gold.Chemscore.Internal.Correction.Weighted>
   9.000000E+99

> <Gold.Protein.RotatedTorsions>
[ 6907 6896 6895 6894 ] final   64.56 input  -60.11 | X-H torsion
[ 7974 7965 7964 7962 ] final  -21.89 input  175.53 | X-H torsion
[ 8008 7997 7996 7995 ] final   80.09 input   59.86 | X-H torsion
[ 10167 10162 10161 10158 ] final  133.65 input  -65.29 | X-H torsion
[ 10718 10713 10712 10709 ] final  145.93 input   66.30 | X-H torsion
[ 10763 10752 10751 10750 ] final   66.06 input  -60.55 | X-H torsion
[ 11005 11000 10999 10996 ] final  -76.96 input  -57.11 | X-H torsion

> <Gold.Protein.ActiveResidues>
 VAL166  LYS551  ARG553  GLY616  TRP617  ASP618  TYR619  PRO620  LYS621  CYS622 
 ASP623  PHE694  ASN695  SER759  ASP760  ASP761  ALA762  ILE779  LEU786  VAL792 
 PHE793  MET794  SER795  GLU796  ALA797  LYS798  CYS799  TRP800  GLU811  SER814 

> <Gold.Protein.RotatedAtoms>
  152.4341  134.5721  159.9923 H   0  0  0  0  0  0  0  0  0  0  0  0  # atno 6907 bound_to 6896
  151.5836  133.3369  159.3021 H   0  0  0  0  0  0  0  0  0  0  0  0  # atno 6908 bound_to 6896
  150.8237  134.7492  159.6859 H   0  0  0  0  0  0  0  0  0  0  0  0  # atno 6909 bound_to 6896
  146.1707  140.4404  142.8533 H   0  0  0  0  0  0  0  0  0  0  0  0  # atno 7974 bound_to 7965
  155.8786  140.3445  155.5872 H   0  0  0  0  0  0  0  0  0  0  0  0  # atno 8008 bound_to 7997
  155.7745  140.0850  157.2110 H   0  0  0  0  0  0  0  0  0  0  0  0  # atno 8009 bound_to 7997
  154.4023  140.1512  156.2968 H   0  0  0  0  0  0  0  0  0  0  0  0  # atno 8010 bound_to 7997
  139.5288  144.6606  151.5026 H   0  0  0  0  0  0  0  0  0  0  0  0  # atno 10167 bound_to 10162
  157.3393  131.0933  151.1096 H   0  0  0  0  0  0  0  0  0  0  0  0  # atno 10718 bound_to 10713
  153.0123  135.5334  154.6765 H   0  0  0  0  0  0  0  0  0  0  0  0  # atno 10763 bound_to 10752
  154.5936  135.2861  155.0612 H   0  0  0  0  0  0  0  0  0  0  0  0  # atno 10764 bound_to 10752
  154.1696  135.6534  153.5058 H   0  0  0  0  0  0  0  0  0  0  0  0  # atno 10765 bound_to 10752
  141.1657  133.7003  156.7747 H   0  0  0  0  0  0  0  0  0  0  0  0  # atno 11005 bound_to 11000
  144.8159  140.6466  143.6385 LP  0  0  0  0  0  0  0  0  0  0  0  0  # atno 17320 bound_to 7965
  145.4348  139.1544  143.4002 LP  0  0  0  0  0  0  0  0  0  0  0  0  # atno 17321 bound_to 7965
  140.6452  143.8809  150.6730 LP  0  0  0  0  0  0  0  0  0  0  0  0  # atno 17342 bound_to 10162
  140.2156  143.3849  152.1683 LP  0  0  0  0  0  0  0  0  0  0  0  0  # atno 17343 bound_to 10162
  157.2314  130.6527  149.5851 LP  0  0  0  0  0  0  0  0  0  0  0  0  # atno 17370 bound_to 10713
  155.9705  130.4597  150.6048 LP  0  0  0  0  0  0  0  0  0  0  0  0  # atno 17371 bound_to 10713
  140.2438  134.8593  157.3600 LP  0  0  0  0  0  0  0  0  0  0  0  0  # atno 17394 bound_to 11000
  140.1770  134.4538  155.7796 LP  0  0  0  0  0  0  0  0  0  0  0  0  # atno 17395 bound_to 11000

$$$$
