AV-unprocessed.smi:72|AV-procd|sdf|686|dock2
  -GOLD-   2262017 03D 1   1.00000     0.00000
 Structure written by MMmdl.
 29 30  0  0  0  0  0  0  0  0  1 V2000
  141.9566  138.0983  153.0933 N   0  0  0  0  0  0  0  0  0  0  0  0
  142.8349  137.2071  152.8021 C   0  0  0  0  0  0  0  0  0  0  0  0
  142.6417  135.8197  152.8829 N   0  0  0  0  0  0  0  0  0  0  0  0
  143.6252  135.0366  152.5618 C   0  0  0  0  0  0  0  0  0  0  0  0
  144.9158  135.5503  152.1286 N   0  0  0  0  0  0  0  0  0  0  0  0
  146.0445  134.6079  151.7667 C   0  0  1  0  0  0  0  0  0  0  0  0
  146.2488  133.7343  152.8337 O   0  0  0  0  0  0  0  0  0  0  0  0
  146.6108  132.4586  152.3261 C   0  0  1  0  0  0  0  0  0  0  0  0
  146.3155  131.3755  153.3747 C   0  0  0  0  0  0  0  0  0  0  0  0
  146.6143  130.0993  152.8503 O   0  0  0  0  0  0  0  0  0  0  0  0
  145.7487  132.3416  151.0652 C   0  0  2  0  0  0  0  0  0  0  0  0
  146.3315  131.4382  150.1480 O   0  0  0  0  0  0  0  0  0  0  0  0
  145.7620  133.7593  150.5057 C   0  0  1  0  0  0  0  0  0  0  0  0
  144.5401  134.0542  149.8529 O   0  0  0  0  0  0  0  0  0  0  0  0
  145.1204  136.9473  152.0217 C   0  0  0  0  0  0  0  0  0  0  0  0
  146.1795  137.4342  151.6270 O   0  0  0  0  0  0  0  0  0  0  0  0
  144.0672  137.7168  152.3721 N   0  0  0  0  0  0  0  0  0  0  0  0
  146.9441  135.2163  151.6632 H   0  0  0  0  0  0  0  0  0  0  0  0
  147.6684  132.4708  152.0534 H   0  0  0  0  0  0  0  0  0  0  0  0
  144.7349  132.0323  151.3259 H   0  0  0  0  0  0  0  0  0  0  0  0
  146.5939  133.9061  149.8152 H   0  0  0  0  0  0  0  0  0  0  0  0
  142.3401  139.0216  152.9503 H   0  0  0  0  0  0  0  0  0  0  0  0
  143.5492  133.9486  152.5896 H   0  0  0  0  0  0  0  0  0  0  0  0
  146.8737  131.5502  154.2950 H   0  0  0  0  0  0  0  0  0  0  0  0
  145.2560  131.3823  153.6322 H   0  0  0  0  0  0  0  0  0  0  0  0
  147.1522  130.2086  152.0810 H   0  0  0  0  0  0  0  0  0  0  0  0
  147.2517  131.3623  150.3496 H   0  0  0  0  0  0  0  0  0  0  0  0
  144.7356  134.3870  148.9903 H   0  0  0  0  0  0  0  0  0  0  0  0
  144.1782  138.7183  152.3123 H   0  0  0  0  0  0  0  0  0  0  0  0
  1  2  2  0  0  0  0
  1 22  1  0  0  0  0
  2 17  1  0  0  0  0
  2  3  1  0  0  0  0
  3  4  2  0  0  0  0
  4  5  1  0  0  0  0
  4 23  1  0  0  0  0
  5  6  1  0  0  0  0
  5 15  1  0  0  0  0
  6 18  1  0  0  0  0
  6 13  1  0  0  0  0
  6  7  1  0  0  0  0
  7  8  1  0  0  0  0
  8 19  1  0  0  0  0
  8  9  1  0  0  0  0
  8 11  1  0  0  0  0
  9 10  1  0  0  0  0
  9 24  1  0  0  0  0
  9 25  1  0  0  0  0
 10 26  1  0  0  0  0
 11 20  1  0  0  0  0
 11 12  1  0  0  0  0
 11 13  1  0  0  0  0
 12 27  1  0  0  0  0
 13 21  1  0  0  0  0
 13 14  1  0  0  0  0
 14 28  1  0  0  0  0
 15 16  2  0  0  0  0
 15 17  1  0  0  0  0
 17 29  1  0  0  0  0
M  END
> <s_m_source_file>
AV-unprocessed.smi

> <i_m_source_file_index>
72

> <i_lp_mmshare_version>
43012

> <i_f3d_flags>
0

> <s_epik_input>
W05IMl1jMW5bY0hdbihjKD1PKW4xKVtDQEBIXTJPW0NASF0oW0NIMl1bT0hdKVtDQEBIXShbT0hdKVtDQEhdMltPSF0=

> <s_epik_cmdline>
J2VwaWtfcHl0aG9uJywgJy1waCcsICc3LjAnLCAnLXRuJywgJzgnLCAnLW1hJywgJzIwMCcsICctbWV0YWxfYmluZGluZycsICctaW1hZScsICc8aW5maWxlLm1hZT4nLCAnLW9tYWUnLCAnPG91dGZpbGUubWFlPic=

> <r_lp_tautomer_probability>
7.17554e-07

> <r_epik_Ionization_Penalty>
0.0066451

> <r_epik_Ionization_Penalty_Charging>
0.00663793

> <r_epik_Ionization_Penalty_Neutral>
7.17052e-06

> <r_epik_State_Penalty>
0.419231

> <r_epik_Charging_Adjusted_Penalty>
0.425868

> <i_epik_Tot_Q>
0

> <i_epik_Tot_abs_Q>
0

> <r_epik_Metal_State_Penalty>
1.44144

> <b_epik_Metal_Only>
0

> <s_epik_Chemistry_Notes>
This compound contains an acetal/aminal-like group ( X-CH(R)-Y where X, Y are N, S, or O) that may be acid/base labile, releasing an aldehyde.

> <s_lp_Force_Field>
OPLS_2005

> <r_lp_Energy>
42.1084

> <b_lp_Chiralities_Consistent>
1

> <s_lp_Variant>
AV-unprocessed.smi:72-24

> <Gold.Version>
5.8.1

> <Gold.Id.Protein>
6NUR|6NUR_protein|mol2

> <Gold.PLP.Fitness>
35.6434

> <Gold.PLP.PLP>
-23.7700

> <Gold.PLP.part.hbond>
-5.0000

> <Gold.PLP.part.metal>
0.0000

> <Gold.PLP.part.buried>
-5.2825

> <Gold.PLP.part.nonpolar>
-15.0896

> <Gold.PLP.part.repulsive>
1.6928

> <Gold.PLP.ligand.clash>
0.0000

> <Gold.PLP.ligand.torsion>
0.0935

> <Gold.PLP.Chemscore.Hbond>
3.9760

> <Gold.PLP.Chemscore.CHOScore>
0.0000

> <Gold.PLP.Chemscore.Metal>
0.0000

> <Gold.Chemscore.Hbonds>
donor molecule, donor type, donor heavy atom, donor atom, acceptor molecule, acceptor atom, score
      L1  H     1    22       P1 10175  1.00
      L1  H    12    27       P1 10747  1.00
      L1  H    14    28       P1  7921  0.96
      L1  H    17    29       P1 10175  1.00

> <Gold.PLP.Chemscore.Internal.Correction>
0.1324

> <Gold.Rescore>
     Score         DG    S(hbond)    S(metal)    S(lipo)     H(rot)  DE(clash)    DE(int)     intcor
     11.72     -14.04       4.71        0.00      27.59       4.06       1.94       0.38       ----

> <Gold.Chemscore.Fitness>
11.7197

> <Gold.Chemscore.DG>
-14.0379

> <Gold.Chemscore.ZeroCoef>
-5.4800

> <Gold.Chemscore.Hbond>
4.7076

> <Gold.Chemscore.Metal>
0.0000

> <Gold.Chemscore.Lipo>
27.5922

> <Gold.Chemscore.Internal_Hbond>
0.0000

> <Gold.Chemscore.DEClash>
1.9409

> <Gold.Chemscore.DEInternal>
0.3773

> <Gold.Chemscore.Rot>
4.0600

> <Gold.Chemscore.Internal.Correction>
   9.000000E+99

> <Gold.Chemscore.Hbonds>
donor molecule, donor type, donor heavy atom, donor atom, acceptor molecule, acceptor atom, score
      L1  H     1    22       P1 10175  0.98
      L1  H    12    27       P1 10747  1.00
      L1  H    14    28       P1  7921  0.89
      L1  H    17    29       P1 10175  0.98

> <Gold.Chemscore.Hbond.Weighted>
-15.7232

> <Gold.Chemscore.Metal.Weighted>
-0.0000

> <Gold.Chemscore.Lipo.Weighted>
-3.2283

> <Gold.Chemscore.Internal_Hbond.Weighted>
0.0000

> <Gold.Chemscore.DEClash.Weighted>
1.9409

> <Gold.Chemscore.DEInternal.Weighted>
0.3773

> <Gold.Chemscore.Rot.Weighted>
10.3936

> <Gold.Chemscore.Internal.Correction.Weighted>
   9.000000E+99

> <Gold.Protein.RotatedTorsions>
[ 6907 6896 6895 6894 ] final  135.38 input  -60.11 | X-H torsion
[ 7974 7965 7964 7962 ] final -106.58 input  175.53 | X-H torsion
[ 8008 7997 7996 7995 ] final  126.52 input   59.86 | X-H torsion
[ 10167 10162 10161 10158 ] final   68.72 input  -65.29 | X-H torsion
[ 10718 10713 10712 10709 ] final   27.94 input   66.30 | X-H torsion
[ 10763 10752 10751 10750 ] final  -66.84 input  -60.55 | X-H torsion
[ 11005 11000 10999 10996 ] final   60.78 input  -57.11 | X-H torsion

> <Gold.Protein.ActiveResidues>
 VAL166  LYS551  ARG553  GLY616  TRP617  ASP618  TYR619  PRO620  LYS621  CYS622 
 ASP623  PHE694  ASN695  SER759  ASP760  ASP761  ALA762  ILE779  LEU786  VAL792 
 PHE793  MET794  SER795  GLU796  ALA797  LYS798  CYS799  TRP800  GLU811  SER814 

> <Gold.Protein.RotatedAtoms>
  152.3010  133.5656  159.5618 H   0  0  0  0  0  0  0  0  0  0  0  0  # atno 6907 bound_to 6896
  150.7278  134.0291  159.3736 H   0  0  0  0  0  0  0  0  0  0  0  0  # atno 6908 bound_to 6896
  151.8190  135.0658  160.0473 H   0  0  0  0  0  0  0  0  0  0  0  0  # atno 6909 bound_to 6896
  145.2160  140.9115  143.3287 H   0  0  0  0  0  0  0  0  0  0  0  0  # atno 7974 bound_to 7965
  156.2866  140.2691  156.2124 H   0  0  0  0  0  0  0  0  0  0  0  0  # atno 8008 bound_to 7997
  155.0251  140.0386  157.2470 H   0  0  0  0  0  0  0  0  0  0  0  0  # atno 8009 bound_to 7997
  154.7402  140.2723  155.6385 H   0  0  0  0  0  0  0  0  0  0  0  0  # atno 8010 bound_to 7997
  140.0756  144.5115  150.7197 H   0  0  0  0  0  0  0  0  0  0  0  0  # atno 10167 bound_to 10162
  157.2269  130.7005  149.6295 H   0  0  0  0  0  0  0  0  0  0  0  0  # atno 10718 bound_to 10713
  154.3657  135.6106  153.5713 H   0  0  0  0  0  0  0  0  0  0  0  0  # atno 10763 bound_to 10752
  152.9792  135.5826  154.4581 H   0  0  0  0  0  0  0  0  0  0  0  0  # atno 10764 bound_to 10752
  154.4326  135.2848  155.1879 H   0  0  0  0  0  0  0  0  0  0  0  0  # atno 10765 bound_to 10752
  140.0207  134.6157  155.9644 H   0  0  0  0  0  0  0  0  0  0  0  0  # atno 11005 bound_to 11000
  144.9810  139.3783  143.6262 LP  0  0  0  0  0  0  0  0  0  0  0  0  # atno 17320 bound_to 7965
  146.3387  139.8951  142.8803 LP  0  0  0  0  0  0  0  0  0  0  0  0  # atno 17321 bound_to 7965
  140.7104  143.2500  151.4600 LP  0  0  0  0  0  0  0  0  0  0  0  0  # atno 17342 bound_to 10162
  139.5810  144.1710  152.1968 LP  0  0  0  0  0  0  0  0  0  0  0  0  # atno 17343 bound_to 10162
  155.9678  130.4501  150.5686 LP  0  0  0  0  0  0  0  0  0  0  0  0  # atno 17370 bound_to 10713
  157.3518  131.0735  151.1707 LP  0  0  0  0  0  0  0  0  0  0  0  0  # atno 17371 bound_to 10713
  141.1772  133.6541  156.4874 LP  0  0  0  0  0  0  0  0  0  0  0  0  # atno 17394 bound_to 11000
  140.4392  134.7031  157.4983 LP  0  0  0  0  0  0  0  0  0  0  0  0  # atno 17395 bound_to 11000

$$$$
