AV-unprocessed.smi:393|AV-procd|sdf|2484|dock8
  -GOLD-   2262022423D 1   1.00000     0.00000
 Structure written by MMmdl.
 43 44  0  0  0  0  0  0  0  0  1 V2000
  144.3233  145.2391  153.5759 C   0  0  0  0  0  0  0  0  0  0  0  0
  143.9169  144.5399  154.8777 C   0  0  0  0  0  0  0  0  0  0  0  0
  144.4697  143.1110  154.9761 C   0  0  0  0  0  0  0  0  0  0  0  0
  145.8820  143.0673  155.5851 C   0  0  0  0  0  0  0  0  0  0  0  0
  146.6946  141.8776  155.0700 C   0  0  0  0  0  0  0  0  0  0  0  0
  146.1358  140.8123  154.8085 O   0  0  0  0  0  0  0  0  0  0  0  0
  148.0134  142.0734  154.9199 N   0  0  0  0  0  0  0  0  0  0  0  0
  148.9492  141.0867  154.3893 C   0  0  0  0  0  0  0  0  0  0  0  0
  150.1506  140.8018  155.2828 C   0  0  0  0  0  0  0  0  0  0  0  0
  150.8984  139.6245  155.0875 C   0  0  0  0  0  0  0  0  0  0  0  0
  152.0075  139.3872  155.9196 C   0  0  0  0  0  0  0  0  0  0  0  0
  152.3887  140.2289  156.9026 N   0  0  0  0  0  0  0  0  0  0  0  0
  151.6701  141.3594  157.1130 C   0  0  0  0  0  0  0  0  0  0  0  0
  152.0797  142.2303  158.1462 N   0  0  0  0  0  0  0  0  0  0  0  0
  151.5310  143.5832  158.0952 C   0  0  0  0  0  0  0  0  0  0  0  0
  152.2913  144.5057  159.0635 C   0  0  0  0  0  0  0  0  0  0  0  0
  152.2710  143.9509  160.3745 O   0  0  0  0  0  0  0  0  0  0  0  0
  152.9117  142.6802  160.4205 C   0  0  0  0  0  0  0  0  0  0  0  0
  152.1718  141.6927  159.5025 C   0  0  0  0  0  0  0  0  0  0  0  0
  150.5414  141.6782  156.3207 C   0  0  0  0  0  0  0  0  0  0  0  0
  143.9265  146.2538  153.5386 H   0  0  0  0  0  0  0  0  0  0  0  0
  143.9447  144.7016  152.7063 H   0  0  0  0  0  0  0  0  0  0  0  0
  145.4080  145.3026  153.4852 H   0  0  0  0  0  0  0  0  0  0  0  0
  144.2694  145.1279  155.7256 H   0  0  0  0  0  0  0  0  0  0  0  0
  142.8290  144.5163  154.9491 H   0  0  0  0  0  0  0  0  0  0  0  0
  143.7895  142.5035  155.5750 H   0  0  0  0  0  0  0  0  0  0  0  0
  144.4878  142.6629  153.9810 H   0  0  0  0  0  0  0  0  0  0  0  0
  146.4082  143.9971  155.3631 H   0  0  0  0  0  0  0  0  0  0  0  0
  145.8186  142.9968  156.6714 H   0  0  0  0  0  0  0  0  0  0  0  0
  148.3913  142.9781  155.1608 H   0  0  0  0  0  0  0  0  0  0  0  0
  148.4071  140.1528  154.2397 H   0  0  0  0  0  0  0  0  0  0  0  0
  149.2944  141.4045  153.4040 H   0  0  0  0  0  0  0  0  0  0  0  0
  150.6346  138.9201  154.3120 H   0  0  0  0  0  0  0  0  0  0  0  0
  152.6062  138.4976  155.7920 H   0  0  0  0  0  0  0  0  0  0  0  0
  151.5822  144.0050  157.0926 H   0  0  0  0  0  0  0  0  0  0  0  0
  150.4761  143.5446  158.3693 H   0  0  0  0  0  0  0  0  0  0  0  0
  153.3212  144.6506  158.7340 H   0  0  0  0  0  0  0  0  0  0  0  0
  151.8241  145.4901  159.0878 H   0  0  0  0  0  0  0  0  0  0  0  0
  153.9576  142.7775  160.1242 H   0  0  0  0  0  0  0  0  0  0  0  0
  152.9045  142.3153  161.4475 H   0  0  0  0  0  0  0  0  0  0  0  0
  151.1676  141.5064  159.8861 H   0  0  0  0  0  0  0  0  0  0  0  0
  152.7022  140.7397  159.4964 H   0  0  0  0  0  0  0  0  0  0  0  0
  149.9942  142.5927  156.4922 H   0  0  0  0  0  0  0  0  0  0  0  0
  1  2  1  0  0  0  0
  1 21  1  0  0  0  0
  1 22  1  0  0  0  0
  1 23  1  0  0  0  0
  2  3  1  0  0  0  0
  2 24  1  0  0  0  0
  2 25  1  0  0  0  0
  3  4  1  0  0  0  0
  3 26  1  0  0  0  0
  3 27  1  0  0  0  0
  4  5  1  0  0  0  0
  4 28  1  0  0  0  0
  4 29  1  0  0  0  0
  5  6  2  0  0  0  0
  5  7  1  0  0  0  0
  7  8  1  0  0  0  0
  7 30  1  0  0  0  0
  8  9  1  0  0  0  0
  8 31  1  0  0  0  0
  8 32  1  0  0  0  0
  9 20  1  0  0  0  0
  9 10  2  0  0  0  0
 10 11  1  0  0  0  0
 10 33  1  0  0  0  0
 11 12  2  0  0  0  0
 11 34  1  0  0  0  0
 12 13  1  0  0  0  0
 13 14  1  0  0  0  0
 13 20  2  0  0  0  0
 14 19  1  0  0  0  0
 14 15  1  0  0  0  0
 15 16  1  0  0  0  0
 15 35  1  0  0  0  0
 15 36  1  0  0  0  0
 16 17  1  0  0  0  0
 16 37  1  0  0  0  0
 16 38  1  0  0  0  0
 17 18  1  0  0  0  0
 18 19  1  0  0  0  0
 18 39  1  0  0  0  0
 18 40  1  0  0  0  0
 19 41  1  0  0  0  0
 19 42  1  0  0  0  0
 20 43  1  0  0  0  0
M  END
> <s_m_source_file>
AV-unprocessed.smi

> <i_m_source_file_index>
393

> <i_lp_mmshare_version>
43012

> <i_f3d_flags>
0

> <s_epik_input>
W0NIM11bQ0gyXVtDSDJdW0NIMl1DKD1PKVtOSF1bQ0gyXWMxW2NIXVtjSF1uYyhbY0hdMSlOMltDSDJdW0NIMl1PW0NIMl1bQ0gyXTI=

> <s_epik_cmdline>
J2VwaWtfcHl0aG9uJywgJy1waCcsICc3LjAnLCAnLXRuJywgJzgnLCAnLW1hJywgJzIwMCcsICctbWV0YWxfYmluZGluZycsICctaW1hZScsICc8aW5maWxlLm1hZT4nLCAnLW9tYWUnLCAnPG91dGZpbGUubWFlPic=

> <r_lp_tautomer_probability>
1

> <r_epik_Ionization_Penalty>
0.00585334

> <r_epik_Ionization_Penalty_Charging>
0

> <r_epik_Ionization_Penalty_Neutral>
0.00585334

> <r_epik_State_Penalty>
0.00430121

> <r_epik_Charging_Adjusted_Penalty>
0.00430121

> <i_epik_Tot_Q>
0

> <i_epik_Tot_abs_Q>
0

> <r_epik_Metal_State_Penalty>
-0

> <b_epik_Metal_Only>
0

> <s_lp_Force_Field>
OPLS_2005

> <r_lp_Energy>
14.3492

> <b_lp_Chiralities_Consistent>
1

> <s_lp_Variant>
AV-unprocessed.smi:393-1

> <Gold.Version>
5.8.1

> <Gold.Id.Protein>
6NUR|6NUR_protein|mol2

> <Gold.PLP.Fitness>
47.1348

> <Gold.PLP.PLP>
-43.3121

> <Gold.PLP.part.hbond>
-2.0000

> <Gold.PLP.part.metal>
0.0000

> <Gold.PLP.part.buried>
-4.5053

> <Gold.PLP.part.nonpolar>
-37.1032

> <Gold.PLP.part.repulsive>
0.3254

> <Gold.PLP.ligand.clash>
0.0000

> <Gold.PLP.ligand.torsion>
1.1902

> <Gold.PLP.Chemscore.Hbond>
1.9417

> <Gold.PLP.Chemscore.CHOScore>
0.0000

> <Gold.PLP.Chemscore.Metal>
0.0000

> <Gold.Chemscore.Hbonds>
donor molecule, donor type, donor heavy atom, donor atom, acceptor molecule, acceptor atom, score
      L1  H     7    30       P1  8028  1.00
      P1  H  7997  8009       L1    12  0.90

> <Gold.PLP.Chemscore.Internal.Correction>
0.3780

> <Gold.Rescore>
     Score         DG    S(hbond)    S(metal)    S(lipo)     H(rot)  DE(clash)    DE(int)     intcor
     16.33     -17.94       1.45        0.00     103.78       1.77       0.52       1.09       ----

> <Gold.Chemscore.Fitness>
16.3302

> <Gold.Chemscore.DG>
-17.9353

> <Gold.Chemscore.ZeroCoef>
-5.4800

> <Gold.Chemscore.Hbond>
1.4490

> <Gold.Chemscore.Metal>
0.0000

> <Gold.Chemscore.Lipo>
103.7827

> <Gold.Chemscore.Internal_Hbond>
0.0000

> <Gold.Chemscore.DEClash>
0.5150

> <Gold.Chemscore.DEInternal>
1.0900

> <Gold.Chemscore.Rot>
1.7684

> <Gold.Chemscore.Internal.Correction>
   9.000000E+99

> <Gold.Chemscore.Hbonds>
donor molecule, donor type, donor heavy atom, donor atom, acceptor molecule, acceptor atom, score
      L1  H     7    30       P1  8028  1.00
      P1  H  7997  8009       L1    12  0.16

> <Gold.Chemscore.Hbond.Weighted>
-4.8397

> <Gold.Chemscore.Metal.Weighted>
-0.0000

> <Gold.Chemscore.Lipo.Weighted>
-12.1426

> <Gold.Chemscore.Internal_Hbond.Weighted>
0.0000

> <Gold.Chemscore.DEClash.Weighted>
0.5150

> <Gold.Chemscore.DEInternal.Weighted>
1.0900

> <Gold.Chemscore.Rot.Weighted>
4.5271

> <Gold.Chemscore.Internal.Correction.Weighted>
   9.000000E+99

> <Gold.Protein.RotatedTorsions>
[ 6907 6896 6895 6894 ] final  155.99 input  -60.11 | X-H torsion
[ 7974 7965 7964 7962 ] final   82.41 input  175.53 | X-H torsion
[ 8008 7997 7996 7995 ] final  179.34 input   59.86 | X-H torsion
[ 10167 10162 10161 10158 ] final   21.07 input  -65.29 | X-H torsion
[ 10718 10713 10712 10709 ] final   15.85 input   66.30 | X-H torsion
[ 10763 10752 10751 10750 ] final -174.75 input  -60.55 | X-H torsion
[ 11005 11000 10999 10996 ] final  -47.86 input  -57.11 | X-H torsion

> <Gold.Protein.ActiveResidues>
 VAL166  LYS551  ARG553  GLY616  TRP617  ASP618  TYR619  PRO620  LYS621  CYS622 
 ASP623  PHE694  ASN695  SER759  ASP760  ASP761  ALA762  ILE779  LEU786  VAL792 
 PHE793  MET794  SER795  GLU796  ALA797  LYS798  CYS799  TRP800  GLU811  SER814 

> <Gold.Protein.RotatedAtoms>
  152.0361  133.3958  159.4317 H   0  0  0  0  0  0  0  0  0  0  0  0  # atno 6907 bound_to 6896
  150.6878  134.3466  159.4900 H   0  0  0  0  0  0  0  0  0  0  0  0  # atno 6908 bound_to 6896
  152.1259  134.9171  160.0611 H   0  0  0  0  0  0  0  0  0  0  0  0  # atno 6909 bound_to 6896
  145.6255  139.2394  143.2114 H   0  0  0  0  0  0  0  0  0  0  0  0  # atno 7974 bound_to 7965
  156.0445  140.1311  157.0119 H   0  0  0  0  0  0  0  0  0  0  0  0  # atno 8008 bound_to 7997
  154.4406  140.1023  156.6356 H   0  0  0  0  0  0  0  0  0  0  0  0  # atno 8009 bound_to 7997
  155.5616  140.3465  155.4495 H   0  0  0  0  0  0  0  0  0  0  0  0  # atno 8010 bound_to 7997
  140.5455  143.9602  150.6545 H   0  0  0  0  0  0  0  0  0  0  0  0  # atno 10167 bound_to 10162
  157.0594  130.6302  149.5783 H   0  0  0  0  0  0  0  0  0  0  0  0  # atno 10718 bound_to 10713
  154.5925  135.2846  155.0620 H   0  0  0  0  0  0  0  0  0  0  0  0  # atno 10763 bound_to 10752
  154.1916  135.6440  153.5065 H   0  0  0  0  0  0  0  0  0  0  0  0  # atno 10764 bound_to 10752
  153.0126  135.5447  154.6616 H   0  0  0  0  0  0  0  0  0  0  0  0  # atno 10765 bound_to 10752
  141.0666  133.6692  156.3358 H   0  0  0  0  0  0  0  0  0  0  0  0  # atno 11005 bound_to 11000
  146.1398  140.7073  142.9372 LP  0  0  0  0  0  0  0  0  0  0  0  0  # atno 17320 bound_to 7965
  144.7214  140.4386  143.7005 LP  0  0  0  0  0  0  0  0  0  0  0  0  # atno 17321 bound_to 7965
  140.3014  143.3258  152.0968 LP  0  0  0  0  0  0  0  0  0  0  0  0  # atno 17342 bound_to 10162
  139.5005  144.6694  151.6279 LP  0  0  0  0  0  0  0  0  0  0  0  0  # atno 17343 bound_to 10162
  155.9983  130.5057  150.7566 LP  0  0  0  0  0  0  0  0  0  0  0  0  # atno 17370 bound_to 10713
  157.4967  131.0915  151.0363 LP  0  0  0  0  0  0  0  0  0  0  0  0  # atno 17371 bound_to 10713
  140.5760  134.5792  157.5469 LP  0  0  0  0  0  0  0  0  0  0  0  0  # atno 17394 bound_to 11000
  139.9482  134.7664  156.0511 LP  0  0  0  0  0  0  0  0  0  0  0  0  # atno 17395 bound_to 11000

$$$$
