#       Name:                AV-unprocessed.smi:1875
#       Creating user name   scv26
#       Creation time:       Fri Mar 27 09:33:51 2020


#       File generated by GOLD software.
#

@<TRIPOS>MOLECULE
AV-unprocessed.smi:1875
    53    55     1
SMALL
NO_CHARGES


@<TRIPOS>ATOM
      1 ****        -3.0478   6.2891  -3.7909 C.3            1 S1                 0.0000
      2 ****        -3.1952   5.1319  -2.8247 C.ar           1 S1                 0.0000
      3 ****        -3.9170   5.3511  -1.7210 N.ar           1 S1                 0.0000
      4 ****        -4.0469   4.3172  -0.8612 C.ar           1 S1                 0.0000
      5 ****        -3.4524   3.0639  -1.1117 C.ar           1 S1                 0.0000
      6 ****        -2.7144   2.9530  -2.3093 C.ar           1 S1                 0.0000
      7 ****        -2.0221   1.6601  -2.6913 C.3            1 S1                 0.0000
      8 ****        -0.9425   1.3213  -1.7696 N.3            1 S1                 0.0000
      9 ****        -0.2226   0.1089  -2.1491 C.3            1 S1                 0.0000
     10 ****         0.8585  -0.2484  -1.1155 C.3            1 S1                 0.0000
     11 ****         1.9656   0.6090  -1.3131 O.3            1 S1                 0.0000
     12 ****         1.3256  -1.7092  -1.2649 C.3            1 S1                 0.0000
     13 ****         2.3233  -2.0802  -0.2771 N.pl3          1 S1                 0.0000
     14 ****         3.6586  -2.1324  -0.4471 C.2            1 S1                 0.0000
     15 ****         4.3913  -2.5045   0.5987 N.2            1 S1                 0.0000
     16 ****         3.4176  -2.7176   1.5595 C.ar           1 S1                 0.0000
     17 ****         3.5316  -3.1323   2.9045 C.ar           1 S1                 0.0000
     18 ****         2.3843  -3.2891   3.7144 C.ar           1 S1                 0.0000
     19 ****         2.5533  -3.7407   5.1544 C.3            1 S1                 0.0000
     20 ****         1.0966  -3.0269   3.1811 C.ar           1 S1                 0.0000
     21 ****        -0.1500  -3.1884   4.0328 C.3            1 S1                 0.0000
     22 ****         0.9646  -2.6104   1.8397 C.ar           1 S1                 0.0000
     23 ****         2.1138  -2.4606   1.0434 C.ar           1 S1                 0.0000
     24 ****        -2.5877   3.9913  -3.1652 N.ar           1 S1                 0.0000
     25 ****        -3.5827   7.1731  -3.4413 H              1 S1                 0.0000
     26 ****        -3.4447   6.0178  -4.7695 H              1 S1                 0.0000
     27 ****        -1.9963   6.5527  -3.9080 H              1 S1                 0.0000
     28 ****        -4.6293   4.4902   0.0317 H              1 S1                 0.0000
     29 ****        -3.5576   2.2381  -0.4240 H              1 S1                 0.0000
     30 ****        -2.7664   0.8630  -2.7086 H              1 S1                 0.0000
     31 ****        -1.6340   1.7472  -3.7073 H              1 S1                 0.0000
     32 ****        -1.3228   1.2073  -0.8355 H              1 S1                 0.0000
     33 ****        -0.9342  -0.7155  -2.2128 H              1 S1                 0.0000
     34 ****         0.2172   0.2130  -3.1422 H              1 S1                 0.0000
     35 ****         0.4722  -0.1002  -0.1058 H              1 S1                 0.0000
     36 ****         1.6681   1.5025  -1.2295 H              1 S1                 0.0000
     37 ****         0.4785  -2.3881  -1.1600 H              1 S1                 0.0000
     38 ****         1.7386  -1.8793  -2.2605 H              1 S1                 0.0000
     39 ****         4.1186  -1.8818  -1.3919 H              1 S1                 0.0000
     40 ****         4.5126  -3.3311   3.3101 H              1 S1                 0.0000
     41 ****         2.0171  -4.6740   5.3275 H              1 S1                 0.0000
     42 ****         2.1668  -2.9863   5.8400 H              1 S1                 0.0000
     43 ****         3.6028  -3.9085   5.3986 H              1 S1                 0.0000
     44 ****        -1.0502  -2.9328   3.4732 H              1 S1                 0.0000
     45 ****        -0.1031  -2.5375   4.9061 H              1 S1                 0.0000
     46 ****        -0.2488  -4.2194   4.3732 H              1 S1                 0.0000
     47 ****        -0.0094  -2.4076   1.4199 H              1 S1                 0.0000
     48 ****        -4.3408   6.2387  -1.5403 LP             1 S1                 0.0000
     49 ****        -0.2844   2.0737  -1.8002 LP             1 S1                 0.0000
     50 ****         2.3470   0.4637  -2.2260 LP             1 S1                 0.0000
     51 ****         2.6664   0.4203  -0.6252 LP             1 S1                 0.0000
     52 ****         5.3837  -2.6040   0.6717 LP             1 S1                 0.0000
     53 ****        -2.0641   3.9099  -4.0133 LP             1 S1                 0.0000
@<TRIPOS>BOND
    1    1    2 1     
    2    1   25 1     
    3    1   26 1     
    4    1   27 1     
    5    2   24 ar    
    6    2    3 ar    
    7    3    4 ar    
    8    4    5 ar    
    9    4   28 1     
   10    5    6 ar    
   11    5   29 1     
   12    6    7 1     
   13    6   24 ar    
   14    7    8 1     
   15    7   30 1     
   16    7   31 1     
   17    8    9 1     
   18    8   32 1     
   19    9   10 1     
   20    9   33 1     
   21    9   34 1     
   22   10   11 1     
   23   10   12 1     
   24   10   35 1     
   25   11   36 1     
   26   12   13 1     
   27   12   37 1     
   28   12   38 1     
   29   13   23 1     
   30   13   14 1     
   31   14   15 2     
   32   14   39 1     
   33   15   16 1     
   34   16   23 ar    
   35   16   17 ar    
   36   17   18 ar    
   37   17   40 1     
   38   18   19 1     
   39   18   20 ar    
   40   19   41 1     
   41   19   42 1     
   42   19   43 1     
   43   20   21 1     
   44   20   22 ar    
   45   21   44 1     
   46   21   45 1     
   47   21   46 1     
   48   22   23 ar    
   49   22   47 1     
   50    3   48 1     
   51    8   49 1     
   52   11   50 1     
   53   11   51 1     
   54   15   52 1     
   55   24   53 1     
@<TRIPOS>SUBSTRUCTURE
      1 S1             1
@<TRIPOS>SET
LONE_PAIRS      STATIC     ATOMS    <user>   **** ""
6 48 49 50 51 52 53
DONOR_HYDROGENS      STATIC     ATOMS    <user>   **** ""
2 32 36
ATOM$BLUE        STATIC     ATOMS    COLORGROUP SYSTEM
6 48 49 50 51 52 53
ATOM$RED        STATIC     ATOMS    COLORGROUP SYSTEM
2 32 36
