AV-unprocessed.smi:767|AV-procd|sdf|3658|dock4
  -GOLD-   22720 1 63D 1   1.00000     0.00000
 Structure written by MMmdl.
 47 49  0  0  0  0  0  0  0  0  1 V2000
  152.8923  141.9363  159.0279 C   0  0  0  0  0  0  0  0  0  0  0  0
  152.2342  141.1685  157.9007 C   0  0  0  0  0  0  0  0  0  0  0  0
  151.1365  141.7106  157.1993 C   0  0  0  0  0  0  0  0  0  0  0  0
  150.5617  140.9511  156.1624 C   0  0  0  0  0  0  0  0  0  0  0  0
  151.1045  139.6838  155.8674 C   0  0  0  0  0  0  0  0  0  0  0  0
  150.5139  138.8223  154.7691 C   0  0  0  0  0  0  0  0  0  0  0  0
  149.3536  139.5278  154.0495 C   0  0  0  0  0  0  0  0  0  0  0  0
  148.5688  138.5944  153.2509 N   0  0  0  0  0  0  0  0  0  0  0  0
  147.2413  138.6615  153.0813 C   0  0  0  0  0  0  0  0  0  0  0  0
  146.5254  139.5340  153.5731 O   0  0  0  0  0  0  0  0  0  0  0  0
  146.7845  137.6584  152.3202 N   0  0  0  0  0  0  0  0  0  0  0  0
  145.3729  137.4567  151.9775 C   0  0  1  0  0  0  0  0  0  0  0  0
  145.0924  136.0586  151.4203 C   0  0  1  0  0  0  0  0  0  0  0  0
  145.9066  134.9600  150.8391 C   0  0  0  0  0  0  0  0  0  0  0  0
  145.1898  133.7860  151.5599 C   0  0  0  0  0  0  0  0  0  0  0  0
  144.3266  134.3952  152.5545 O   0  0  0  0  0  0  0  0  0  0  0  0
  144.9713  135.6149  152.8632 C   0  0  2  0  0  0  0  0  0  0  0  0
  144.4356  137.0300  153.1767 C   0  0  0  0  0  0  0  0  0  0  0  0
  144.7863  137.5714  154.5673 C   0  0  0  0  0  0  0  0  0  0  0  0
  142.9242  137.2656  153.0052 C   0  0  0  0  0  0  0  0  0  0  0  0
  152.2041  139.2340  156.6282 C   0  0  0  0  0  0  0  0  0  0  0  0
  152.7616  139.9554  157.6243 N   0  0  0  0  0  0  0  0  0  0  0  0
  152.4214  142.9093  159.1715 H   0  0  0  0  0  0  0  0  0  0  0  0
  153.9484  142.0986  158.8106 H   0  0  0  0  0  0  0  0  0  0  0  0
  152.8141  141.3793  159.9619 H   0  0  0  0  0  0  0  0  0  0  0  0
  150.7406  142.6841  157.4485 H   0  0  0  0  0  0  0  0  0  0  0  0
  149.7182  141.3346  155.6072 H   0  0  0  0  0  0  0  0  0  0  0  0
  151.3017  138.5663  154.0590 H   0  0  0  0  0  0  0  0  0  0  0  0
  150.1713  137.8812  155.2014 H   0  0  0  0  0  0  0  0  0  0  0  0
  148.6882  139.9895  154.7797 H   0  0  0  0  0  0  0  0  0  0  0  0
  149.7294  140.3353  153.4186 H   0  0  0  0  0  0  0  0  0  0  0  0
  149.0707  137.8399  152.8062 H   0  0  0  0  0  0  0  0  0  0  0  0
  147.4463  136.9874  151.9590 H   0  0  0  0  0  0  0  0  0  0  0  0
  144.9499  138.2497  151.3582 H   0  0  0  0  0  0  0  0  0  0  0  0
  144.1295  136.0849  150.9042 H   0  0  0  0  0  0  0  0  0  0  0  0
  145.8253  134.8990  149.7536 H   0  0  0  0  0  0  0  0  0  0  0  0
  146.9585  135.0315  151.1183 H   0  0  0  0  0  0  0  0  0  0  0  0
  144.5892  133.1910  150.8715 H   0  0  0  0  0  0  0  0  0  0  0  0
  145.9130  133.1237  152.0377 H   0  0  0  0  0  0  0  0  0  0  0  0
  145.9315  135.4228  153.3529 H   0  0  0  0  0  0  0  0  0  0  0  0
  144.1424  137.1467  155.3382 H   0  0  0  0  0  0  0  0  0  0  0  0
  144.6814  138.6558  154.6100 H   0  0  0  0  0  0  0  0  0  0  0  0
  145.8116  137.3352  154.8521 H   0  0  0  0  0  0  0  0  0  0  0  0
  142.3499  136.6895  153.7312 H   0  0  0  0  0  0  0  0  0  0  0  0
  142.5495  136.9904  152.0210 H   0  0  0  0  0  0  0  0  0  0  0  0
  142.6706  138.3163  153.1502 H   0  0  0  0  0  0  0  0  0  0  0  0
  152.6463  138.2676  156.4359 H   0  0  0  0  0  0  0  0  0  0  0  0
  1  2  1  0  0  0  0
  1 23  1  0  0  0  0
  1 24  1  0  0  0  0
  1 25  1  0  0  0  0
  2 22  1  0  0  0  0
  2  3  2  0  0  0  0
  3  4  1  0  0  0  0
  3 26  1  0  0  0  0
  4  5  2  0  0  0  0
  4 27  1  0  0  0  0
  5  6  1  0  0  0  0
  5 21  1  0  0  0  0
  6  7  1  0  0  0  0
  6 28  1  0  0  0  0
  6 29  1  0  0  0  0
  7  8  1  0  0  0  0
  7 30  1  0  0  0  0
  7 31  1  0  0  0  0
  8  9  1  0  0  0  0
  8 32  1  0  0  0  0
  9 10  2  0  0  0  0
  9 11  1  0  0  0  0
 11 12  1  0  0  0  0
 11 33  1  0  0  0  0
 12 18  1  0  0  0  0
 12 13  1  0  0  0  0
 12 34  1  0  0  0  0
 13 17  1  0  0  0  0
 13 14  1  0  0  0  0
 13 35  1  0  0  0  0
 14 15  1  0  0  0  0
 14 36  1  0  0  0  0
 14 37  1  0  0  0  0
 15 16  1  0  0  0  0
 15 38  1  0  0  0  0
 15 39  1  0  0  0  0
 16 17  1  0  0  0  0
 17 18  1  0  0  0  0
 17 40  1  0  0  0  0
 18 19  1  0  0  0  0
 18 20  1  0  0  0  0
 19 41  1  0  0  0  0
 19 42  1  0  0  0  0
 19 43  1  0  0  0  0
 20 44  1  0  0  0  0
 20 45  1  0  0  0  0
 20 46  1  0  0  0  0
 21 22  2  0  0  0  0
 21 47  1  0  0  0  0
M  END
> <s_m_source_file>
AV-unprocessed.smi

> <i_m_source_file_index>
767

> <i_lp_mmshare_version>
43012

> <i_f3d_flags>
0

> <s_epik_input>
W0NIM11jMVtjSF1bY0hdYyhbY0hdbjEpW0NIMl1bQ0gyXVtOSF1DKD1PKVtOSF1bQ0BIXTJDKFtDSDNdKShbQ0gzXSlbQ0BIXShbQ0BASF0yMylPW0NIMl1bQ0gyXTM=

> <s_epik_cmdline>
J2VwaWtfcHl0aG9uJywgJy1waCcsICc3LjAnLCAnLXRuJywgJzgnLCAnLW1hJywgJzIwMCcsICctbWV0YWxfYmluZGluZycsICctaW1hZScsICc8aW5maWxlLm1hZT4nLCAnLW9tYWUnLCAnPG91dGZpbGUubWFlPic=

> <r_epik_Ionization_Penalty>
0.0567523

> <r_epik_Ionization_Penalty_Charging>
0

> <r_epik_Ionization_Penalty_Neutral>
0.0567523

> <r_epik_State_Penalty>
0.0489186

> <r_epik_Charging_Adjusted_Penalty>
0.0489186

> <i_epik_Tot_Q>
0

> <i_epik_Tot_abs_Q>
0

> <r_epik_Metal_State_Penalty>
0.044622

> <b_epik_Metal_Only>
0

> <s_lp_Force_Field>
OPLS_2005

> <r_lp_Energy>
57.787

> <b_lp_Chiralities_Consistent>
1

> <s_lp_Variant>
AV-unprocessed.smi:767-2

> <Gold.Version>
5.8.1

> <Gold.Id.Protein>
6NUR|6NUR_protein|mol2

> <Gold.PLP.Fitness>
42.4335

> <Gold.PLP.PLP>
-34.0126

> <Gold.PLP.part.hbond>
-4.0000

> <Gold.PLP.part.metal>
0.0000

> <Gold.PLP.part.buried>
-1.2923

> <Gold.PLP.part.nonpolar>
-29.2203

> <Gold.PLP.part.repulsive>
0.3986

> <Gold.PLP.ligand.clash>
0.0000

> <Gold.PLP.ligand.torsion>
0.3631

> <Gold.PLP.Chemscore.Hbond>
2.9600

> <Gold.PLP.Chemscore.CHOScore>
0.0000

> <Gold.PLP.Chemscore.Metal>
0.0000

> <Gold.Chemscore.Hbonds>
donor molecule, donor type, donor heavy atom, donor atom, acceptor molecule, acceptor atom, score
      L1  H     8    32       P1  7948  0.96
      L1  H    11    33       P1  7948  1.00
      P1  H  7997  8010       L1    22  0.98

> <Gold.PLP.Chemscore.Internal.Correction>
0.2670

> <Gold.Rescore>
     Score         DG    S(hbond)    S(metal)    S(lipo)     H(rot)  DE(clash)    DE(int)     intcor
     17.74     -19.51       2.29        0.00      86.19       1.45       0.13       1.64       ----

> <Gold.Chemscore.Fitness>
17.7427

> <Gold.Chemscore.DG>
-19.5104

> <Gold.Chemscore.ZeroCoef>
-5.4800

> <Gold.Chemscore.Hbond>
2.2928

> <Gold.Chemscore.Metal>
0.0000

> <Gold.Chemscore.Lipo>
86.1850

> <Gold.Chemscore.Internal_Hbond>
0.0000

> <Gold.Chemscore.DEClash>
0.1289

> <Gold.Chemscore.DEInternal>
1.6387

> <Gold.Chemscore.Rot>
1.4497

> <Gold.Chemscore.Internal.Correction>
   9.000000E+99

> <Gold.Chemscore.Hbonds>
donor molecule, donor type, donor heavy atom, donor atom, acceptor molecule, acceptor atom, score
      L1  H     8    32       P1  7948  0.92
      L1  H    11    33       P1  7948  0.98
      P1  H  7997  8010       L1    22  0.20

> <Gold.Chemscore.Hbond.Weighted>
-7.6580

> <Gold.Chemscore.Metal.Weighted>
-0.0000

> <Gold.Chemscore.Lipo.Weighted>
-10.0837

> <Gold.Chemscore.Internal_Hbond.Weighted>
0.0000

> <Gold.Chemscore.DEClash.Weighted>
0.1289

> <Gold.Chemscore.DEInternal.Weighted>
1.6387

> <Gold.Chemscore.Rot.Weighted>
3.7112

> <Gold.Chemscore.Internal.Correction.Weighted>
   9.000000E+99

> <Gold.Protein.RotatedTorsions>
[ 6907 6896 6895 6894 ] final -136.19 input  -60.11 | X-H torsion
[ 7974 7965 7964 7962 ] final   88.34 input  175.53 | X-H torsion
[ 8008 7997 7996 7995 ] final   35.53 input   59.86 | X-H torsion
[ 10167 10162 10161 10158 ] final    1.97 input  -65.29 | X-H torsion
[ 10718 10713 10712 10709 ] final -121.15 input   66.30 | X-H torsion
[ 10763 10752 10751 10750 ] final   35.91 input  -60.55 | X-H torsion
[ 11005 11000 10999 10996 ] final  -98.35 input  -57.11 | X-H torsion

> <Gold.Protein.ActiveResidues>
 VAL166  LYS551  ARG553  GLY616  TRP617  ASP618  TYR619  PRO620  LYS621  CYS622 
 ASP623  PHE694  ASN695  SER759  ASP760  ASP761  ALA762  ILE779  LEU786  VAL792 
 PHE793  MET794  SER795  GLU796  ALA797  LYS798  CYS799  TRP800  GLU811  SER814 

> <Gold.Protein.RotatedAtoms>
  151.0071  133.6001  159.2687 H   0  0  0  0  0  0  0  0  0  0  0  0  # atno 6907 bound_to 6896
  151.3166  135.0807  159.9301 H   0  0  0  0  0  0  0  0  0  0  0  0  # atno 6908 bound_to 6896
  152.5289  133.9726  159.7823 H   0  0  0  0  0  0  0  0  0  0  0  0  # atno 6909 bound_to 6896
  145.5470  139.2292  143.2534 H   0  0  0  0  0  0  0  0  0  0  0  0  # atno 7974 bound_to 7965
  155.1727  140.3293  155.4390 H   0  0  0  0  0  0  0  0  0  0  0  0  # atno 8008 bound_to 7997
  156.2504  140.1941  156.6779 H   0  0  0  0  0  0  0  0  0  0  0  0  # atno 8009 bound_to 7997
  154.6326  140.0580  156.9737 H   0  0  0  0  0  0  0  0  0  0  0  0  # atno 8010 bound_to 7997
  140.6657  143.7185  150.7823 H   0  0  0  0  0  0  0  0  0  0  0  0  # atno 10167 bound_to 10162
  156.1314  130.6398  150.9627 H   0  0  0  0  0  0  0  0  0  0  0  0  # atno 10718 bound_to 10713
  153.0099  135.6320  154.1902 H   0  0  0  0  0  0  0  0  0  0  0  0  # atno 10763 bound_to 10752
  154.1644  135.2822  155.3101 H   0  0  0  0  0  0  0  0  0  0  0  0  # atno 10764 bound_to 10752
  154.5956  135.5603  153.7383 H   0  0  0  0  0  0  0  0  0  0  0  0  # atno 10765 bound_to 10752
  141.1347  133.8239  157.0828 H   0  0  0  0  0  0  0  0  0  0  0  0  # atno 11005 bound_to 11000
  146.1942  140.6292  142.9131 LP  0  0  0  0  0  0  0  0  0  0  0  0  # atno 17320 bound_to 7965
  144.7548  140.5281  143.6776 LP  0  0  0  0  0  0  0  0  0  0  0  0  # atno 17321 bound_to 7965
  140.0862  143.4922  152.2504 LP  0  0  0  0  0  0  0  0  0  0  0  0  # atno 17342 bound_to 10162
  139.5906  144.7548  151.3411 LP  0  0  0  0  0  0  0  0  0  0  0  0  # atno 17343 bound_to 10162
  157.6492  131.0899  150.8088 LP  0  0  0  0  0  0  0  0  0  0  0  0  # atno 17370 bound_to 10713
  156.8173  130.4972  149.5348 LP  0  0  0  0  0  0  0  0  0  0  0  0  # atno 17371 bound_to 10713
  140.0441  134.9839  157.1016 LP  0  0  0  0  0  0  0  0  0  0  0  0  # atno 17394 bound_to 11000
  140.4090  134.2001  155.7163 LP  0  0  0  0  0  0  0  0  0  0  0  0  # atno 17395 bound_to 11000

$$$$
