#       Name:                AV-unprocessed.smi:1019
#       Creating user name   scv26
#       Creation time:       Fri Mar 27 02:40:23 2020


#       File generated by GOLD software.
#

@<TRIPOS>MOLECULE
AV-unprocessed.smi:1019
    47    49     1
SMALL
NO_CHARGES


@<TRIPOS>ATOM
      1 ****        -1.4993  -1.8559   2.5588 C.3            1 S1                 0.0000
      2 ****        -1.0800  -0.7138   1.7126 N.4            1 S1                 1.0000
      3 ****        -1.7457   0.5584   2.0945 C.3            1 S1                 0.0000
      4 ****        -3.2133   0.5668   1.7058 C.ar           1 S1                 0.0000
      5 ****        -3.5834   0.7832   0.3615 C.ar           1 S1                 0.0000
      6 ****        -4.9431   0.7873  -0.0059 C.ar           1 S1                 0.0000
      7 ****        -5.9373   0.5771   0.9691 C.ar           1 S1                 0.0000
      8 ****        -5.5717   0.3640   2.3124 C.ar           1 S1                 0.0000
      9 ****        -4.2124   0.3599   2.6810 C.ar           1 S1                 0.0000
     10 ****         0.3981  -0.5942   1.6275 C.3            1 S1                 0.0000
     11 ****         0.8552   0.0229   0.2910 C.3            1 S1                 0.0000
     12 ****         0.5133  -0.8632  -0.7582 O.3            1 S1                 0.0000
     13 ****         2.3736   0.2839   0.2689 C.3            1 S1                 0.0000
     14 ****         2.8211   0.8501  -0.9913 N.pl3          1 S1                 0.0000
     15 ****         2.7114   2.1333  -1.3858 C.2            1 S1                 0.0000
     16 ****         3.1842   2.4442  -2.5890 N.2            1 S1                 0.0000
     17 ****         3.6596   1.2202  -3.0271 C.ar           1 S1                 0.0000
     18 ****         4.2878   0.8620  -4.2413 C.ar           1 S1                 0.0000
     19 ****         4.6933  -0.4693  -4.4704 C.ar           1 S1                 0.0000
     20 ****         4.4773  -1.4611  -3.4918 C.ar           1 S1                 0.0000
     21 ****         3.8526  -1.1288  -2.2743 C.ar           1 S1                 0.0000
     22 ****         3.4494   0.2010  -2.0494 C.ar           1 S1                 0.0000
     23 ****        -1.1969  -1.7057   3.5959 H              1 S1                 0.0000
     24 ****        -1.0521  -2.7847   2.2031 H              1 S1                 0.0000
     25 ****        -2.5803  -1.9921   2.5334 H              1 S1                 0.0000
     26 ****        -1.6333   0.7332   3.1658 H              1 S1                 0.0000
     27 ****        -1.2718   1.4051   1.5987 H              1 S1                 0.0000
     28 ****        -2.8254   0.9441  -0.3915 H              1 S1                 0.0000
     29 ****        -5.2240   0.9516  -1.0359 H              1 S1                 0.0000
     30 ****        -6.9799   0.5798   0.6869 H              1 S1                 0.0000
     31 ****        -6.3347   0.2036   3.0600 H              1 S1                 0.0000
     32 ****        -3.9405   0.1939   3.7132 H              1 S1                 0.0000
     33 ****         0.7596  -0.0032   2.4707 H              1 S1                 0.0000
     34 ****         0.8609  -1.5775   1.7286 H              1 S1                 0.0000
     35 ****         0.3389   0.9662   0.1128 H              1 S1                 0.0000
     36 ****         1.0383  -1.6455  -0.6797 H              1 S1                 0.0000
     37 ****         2.6485   0.9740   1.0677 H              1 S1                 0.0000
     38 ****         2.9245  -0.6392   0.4539 H              1 S1                 0.0000
     39 ****         2.2544   2.8816  -0.7545 H              1 S1                 0.0000
     40 ****         4.4583   1.6131  -4.9984 H              1 S1                 0.0000
     41 ****         5.1730  -0.7310  -5.4021 H              1 S1                 0.0000
     42 ****         4.7924  -2.4777  -3.6767 H              1 S1                 0.0000
     43 ****         3.6864  -1.8875  -1.5245 H              1 S1                 0.0000
     44 ****        -1.3883  -0.9311   0.7751 H              1 S1                 0.0000
     45 ****         0.6921  -0.4255  -1.6394 LP             1 S1                 0.0000
     46 ****        -0.4559  -1.1011  -0.6948 LP             1 S1                 0.0000
     47 ****         3.1938   3.3291  -3.0547 LP             1 S1                 0.0000
@<TRIPOS>BOND
    1    1    2 1     
    2    1   23 1     
    3    1   24 1     
    4    1   25 1     
    5    2    3 1     
    6    2   10 1     
    7    2   44 1     
    8    3    4 1     
    9    3   26 1     
   10    3   27 1     
   11    4    9 ar    
   12    4    5 ar    
   13    5    6 ar    
   14    5   28 1     
   15    6    7 ar    
   16    6   29 1     
   17    7    8 ar    
   18    7   30 1     
   19    8    9 ar    
   20    8   31 1     
   21    9   32 1     
   22   10   11 1     
   23   10   33 1     
   24   10   34 1     
   25   11   12 1     
   26   11   13 1     
   27   11   35 1     
   28   12   36 1     
   29   13   14 1     
   30   13   37 1     
   31   13   38 1     
   32   14   22 1     
   33   14   15 1     
   34   15   16 2     
   35   15   39 1     
   36   16   17 1     
   37   17   22 ar    
   38   17   18 ar    
   39   18   19 ar    
   40   18   40 1     
   41   19   20 ar    
   42   19   41 1     
   43   20   21 ar    
   44   20   42 1     
   45   21   22 ar    
   46   21   43 1     
   47   12   45 1     
   48   12   46 1     
   49   16   47 1     
@<TRIPOS>SUBSTRUCTURE
      1 S1             1
@<TRIPOS>SET
LONE_PAIRS      STATIC     ATOMS    <user>   **** ""
3 45 46 47
DONOR_HYDROGENS      STATIC     ATOMS    <user>   **** ""
2 44 36
ATOM$BLUE        STATIC     ATOMS    COLORGROUP SYSTEM
3 45 46 47
ATOM$RED        STATIC     ATOMS    COLORGROUP SYSTEM
2 44 36
