AV-unprocessed.smi:69|AV-procd|sdf|644|dock9
  -GOLD-   2262016543D 1   1.00000     0.00000
 Structure written by MMmdl.
 32 34  0  0  0  0  0  0  0  0  1 V2000
  153.8710  138.1307  156.1172 N   0  0  0  0  0  0  0  0  0  0  0  0
  152.5798  137.8582  155.8845 C   0  0  0  0  0  0  0  0  0  0  0  0
  152.1996  136.5614  155.7984 N   0  0  0  0  0  0  0  0  0  0  0  0
  150.9163  136.2647  155.5652 C   0  0  0  0  0  0  0  0  0  0  0  0
  149.8835  137.0950  155.3921 N   0  0  0  0  0  0  0  0  0  0  0  0
  150.2723  138.4006  155.4818 C   0  0  0  0  0  0  0  0  0  0  0  0
  151.5941  138.8643  155.7233 C   0  0  0  0  0  0  0  0  0  0  0  0
  151.6105  140.2525  155.7438 N   0  0  0  0  0  0  0  0  0  0  0  0
  150.3661  140.5856  155.5240 C   0  0  0  0  0  0  0  0  0  0  0  0
  149.4942  139.5298  155.3521 N   0  0  0  0  0  0  0  0  0  0  0  0
  148.0179  139.5462  155.0886 C   0  0  1  0  0  0  0  0  0  0  0  0
  147.5813  140.8727  155.1143 O   0  0  0  0  0  0  0  0  0  0  0  0
  147.3769  141.3393  153.7850 C   0  0  2  0  0  0  0  0  0  0  0  0
  146.4281  142.5470  153.7968 C   0  0  0  0  0  0  0  0  0  0  0  0
  145.2214  142.2024  154.4432 O   0  0  0  0  0  0  0  0  0  0  0  0
  146.7872  140.0938  153.1238 C   0  0  1  0  0  0  0  0  0  0  0  0
  146.8009  140.1571  151.7096 O   0  0  0  0  0  0  0  0  0  0  0  0
  147.6552  138.9752  153.6957 C   0  0  1  0  0  0  0  0  0  0  0  0
  148.7817  138.6973  152.8759 O   0  0  0  0  0  0  0  0  0  0  0  0
  147.5805  138.9932  155.9208 H   0  0  0  0  0  0  0  0  0  0  0  0
  148.3326  141.5890  153.3196 H   0  0  0  0  0  0  0  0  0  0  0  0
  145.7587  139.9555  153.4611 H   0  0  0  0  0  0  0  0  0  0  0  0
  147.0836  138.0546  153.8178 H   0  0  0  0  0  0  0  0  0  0  0  0
  154.1760  139.0911  156.1843 H   0  0  0  0  0  0  0  0  0  0  0  0
  154.5344  137.3772  156.2262 H   0  0  0  0  0  0  0  0  0  0  0  0
  150.6842  135.2114  155.5090 H   0  0  0  0  0  0  0  0  0  0  0  0
  150.0542  141.6189  155.4830 H   0  0  0  0  0  0  0  0  0  0  0  0
  146.8740  143.3710  154.3546 H   0  0  0  0  0  0  0  0  0  0  0  0
  146.2297  142.9081  152.7872 H   0  0  0  0  0  0  0  0  0  0  0  0
  144.7931  141.5272  153.9397 H   0  0  0  0  0  0  0  0  0  0  0  0
  147.6973  140.1010  151.4159 H   0  0  0  0  0  0  0  0  0  0  0  0
  148.6016  137.9152  152.3767 H   0  0  0  0  0  0  0  0  0  0  0  0
  1  2  1  0  0  0  0
  1 24  1  0  0  0  0
  1 25  1  0  0  0  0
  2  7  1  0  0  0  0
  2  3  2  0  0  0  0
  3  4  1  0  0  0  0
  4  5  2  0  0  0  0
  4 26  1  0  0  0  0
  5  6  1  0  0  0  0
  6 10  1  0  0  0  0
  6  7  2  0  0  0  0
  7  8  1  0  0  0  0
  8  9  2  0  0  0  0
  9 10  1  0  0  0  0
  9 27  1  0  0  0  0
 10 11  1  0  0  0  0
 11 20  1  0  0  0  0
 11 18  1  0  0  0  0
 11 12  1  0  0  0  0
 12 13  1  0  0  0  0
 13 21  1  0  0  0  0
 13 14  1  0  0  0  0
 13 16  1  0  0  0  0
 14 15  1  0  0  0  0
 14 28  1  0  0  0  0
 14 29  1  0  0  0  0
 15 30  1  0  0  0  0
 16 22  1  0  0  0  0
 16 17  1  0  0  0  0
 16 18  1  0  0  0  0
 17 31  1  0  0  0  0
 18 23  1  0  0  0  0
 18 19  1  0  0  0  0
 19 32  1  0  0  0  0
M  END
> <s_m_source_file>
AV-unprocessed.smi

> <i_m_source_file_index>
69

> <i_lp_mmshare_version>
43012

> <i_f3d_flags>
0

> <s_epik_input>
bjFbY0hdbmMoW05IMl0pYyhjMTIpbltjSF1uMltDQEBIXTNPW0NASF0oW0NIMl1bT0hdKVtDQEBIXShbT0hdKVtDQEhdM1tPSF0=

> <s_epik_cmdline>
J2VwaWtfcHl0aG9uJywgJy1waCcsICc3LjAnLCAnLXRuJywgJzgnLCAnLW1hJywgJzIwMCcsICctbWV0YWxfYmluZGluZycsICctaW1hZScsICc8aW5maWxlLm1hZT4nLCAnLW9tYWUnLCAnPG91dGZpbGUubWFlPic=

> <r_lp_tautomer_probability>
1

> <r_epik_Ionization_Penalty>
0.000428445

> <r_epik_Ionization_Penalty_Charging>
0

> <r_epik_Ionization_Penalty_Neutral>
0.000428445

> <r_epik_State_Penalty>
-0

> <r_epik_Charging_Adjusted_Penalty>
0

> <i_epik_Tot_Q>
0

> <i_epik_Tot_abs_Q>
0

> <r_epik_Metal_State_Penalty>
-0

> <b_epik_Metal_Only>
0

> <s_epik_Chemistry_Notes>
This compound contains an acetal/aminal-like group ( X-CH(R)-Y where X, Y are N, S, or O) that may be acid/base labile, releasing an aldehyde.

> <s_lp_Force_Field>
OPLS_2005

> <r_lp_Energy>
41.389

> <b_lp_Chiralities_Consistent>
1

> <s_lp_Variant>
AV-unprocessed.smi:69-2

> <Gold.Version>
5.8.1

> <Gold.Id.Protein>
6NUR|6NUR_protein|mol2

> <Gold.PLP.Fitness>
36.9708

> <Gold.PLP.PLP>
-25.6475

> <Gold.PLP.part.hbond>
-5.2721

> <Gold.PLP.part.metal>
0.0000

> <Gold.PLP.part.buried>
-5.3831

> <Gold.PLP.part.nonpolar>
-17.2795

> <Gold.PLP.part.repulsive>
2.5561

> <Gold.PLP.ligand.clash>
0.0000

> <Gold.PLP.ligand.torsion>
0.0518

> <Gold.PLP.Chemscore.Hbond>
3.7873

> <Gold.PLP.Chemscore.CHOScore>
0.0000

> <Gold.PLP.Chemscore.Metal>
0.0000

> <Gold.Chemscore.Hbonds>
donor molecule, donor type, donor heavy atom, donor atom, acceptor molecule, acceptor atom, score
      L1  H    15    30       P1 10175  0.80
      L1  H    17    31       P1  7957  1.00
      L1  H    19    32       P1  7948  1.00
      P1  H 10752 10765       L1     3  1.00

> <Gold.PLP.Chemscore.Internal.Correction>
0.0649

> <Gold.Rescore>
     Score         DG    S(hbond)    S(metal)    S(lipo)     H(rot)  DE(clash)    DE(int)     intcor
      7.14      -9.05       3.02        0.00      32.36       4.03       0.74       1.17       ----

> <Gold.Chemscore.Fitness>
7.1427

> <Gold.Chemscore.DG>
-9.0511

> <Gold.Chemscore.ZeroCoef>
-5.4800

> <Gold.Chemscore.Hbond>
3.0229

> <Gold.Chemscore.Metal>
0.0000

> <Gold.Chemscore.Lipo>
32.3553

> <Gold.Chemscore.Internal_Hbond>
0.0000

> <Gold.Chemscore.DEClash>
0.7356

> <Gold.Chemscore.DEInternal>
1.1727

> <Gold.Chemscore.Rot>
4.0277

> <Gold.Chemscore.Internal.Correction>
   9.000000E+99

> <Gold.Chemscore.Hbonds>
donor molecule, donor type, donor heavy atom, donor atom, acceptor molecule, acceptor atom, score
      L1  H    15    30       P1 10175  0.18
      L1  H    17    31       P1  7957  1.00
      L1  H    19    32       P1  7948  0.97
      P1  H 10752 10765       L1     3  0.73

> <Gold.Chemscore.Hbond.Weighted>
-10.0965

> <Gold.Chemscore.Metal.Weighted>
-0.0000

> <Gold.Chemscore.Lipo.Weighted>
-3.7856

> <Gold.Chemscore.Internal_Hbond.Weighted>
0.0000

> <Gold.Chemscore.DEClash.Weighted>
0.7356

> <Gold.Chemscore.DEInternal.Weighted>
1.1727

> <Gold.Chemscore.Rot.Weighted>
10.3110

> <Gold.Chemscore.Internal.Correction.Weighted>
   9.000000E+99

> <Gold.Protein.RotatedTorsions>
[ 6907 6896 6895 6894 ] final -101.04 input  -60.11 | X-H torsion
[ 7974 7965 7964 7962 ] final  127.67 input  175.53 | X-H torsion
[ 8008 7997 7996 7995 ] final  110.86 input   59.86 | X-H torsion
[ 10167 10162 10161 10158 ] final  -74.68 input  -65.29 | X-H torsion
[ 10718 10713 10712 10709 ] final  109.64 input   66.30 | X-H torsion
[ 10763 10752 10751 10750 ] final -146.28 input  -60.55 | X-H torsion
[ 11005 11000 10999 10996 ] final  -46.34 input  -57.11 | X-H torsion

> <Gold.Protein.ActiveResidues>
 VAL166  LYS551  ARG553  GLY616  TRP617  ASP618  TYR619  PRO620  LYS621  CYS622 
 ASP623  PHE694  ASN695  SER759  ASP760  ASP761  ALA762  ILE779  LEU786  VAL792 
 PHE793  MET794  SER795  GLU796  ALA797  LYS798  CYS799  TRP800  GLU811  SER814 

> <Gold.Protein.RotatedAtoms>
  150.7139  134.0794  159.3892 H   0  0  0  0  0  0  0  0  0  0  0  0  # atno 6907 bound_to 6896
  151.8778  135.0463  160.0495 H   0  0  0  0  0  0  0  0  0  0  0  0  # atno 6908 bound_to 6896
  152.2592  133.5247  159.5408 H   0  0  0  0  0  0  0  0  0  0  0  0  # atno 6909 bound_to 6896
  145.0480  139.3907  143.5068 H   0  0  0  0  0  0  0  0  0  0  0  0  # atno 7974 bound_to 7965
  156.2083  140.3030  155.9676 H   0  0  0  0  0  0  0  0  0  0  0  0  # atno 8008 bound_to 7997
  155.2786  140.0437  157.3030 H   0  0  0  0  0  0  0  0  0  0  0  0  # atno 8009 bound_to 7997
  154.5664  140.2335  155.8265 H   0  0  0  0  0  0  0  0  0  0  0  0  # atno 8010 bound_to 7997
  140.5007  143.2362  151.7757 H   0  0  0  0  0  0  0  0  0  0  0  0  # atno 10167 bound_to 10162
  157.6532  131.0917  150.6484 H   0  0  0  0  0  0  0  0  0  0  0  0  # atno 10718 bound_to 10713
  154.8343  135.3390  154.6637 H   0  0  0  0  0  0  0  0  0  0  0  0  # atno 10763 bound_to 10752
  153.7253  135.6955  153.5007 H   0  0  0  0  0  0  0  0  0  0  0  0  # atno 10764 bound_to 10752
  153.2351  135.4403  155.0590 H   0  0  0  0  0  0  0  0  0  0  0  0  # atno 10765 bound_to 10752
  141.0572  133.6721  156.3140 H   0  0  0  0  0  0  0  0  0  0  0  0  # atno 11005 bound_to 11000
  146.3515  140.0115  142.8666 LP  0  0  0  0  0  0  0  0  0  0  0  0  # atno 17320 bound_to 7965
  145.1564  140.9650  143.4403 LP  0  0  0  0  0  0  0  0  0  0  0  0  # atno 17321 bound_to 7965
  139.4871  144.4526  151.9636 LP  0  0  0  0  0  0  0  0  0  0  0  0  # atno 17342 bound_to 10162
  140.3615  144.2967  150.5933 LP  0  0  0  0  0  0  0  0  0  0  0  0  # atno 17343 bound_to 10162
  156.6793  130.4562  149.5633 LP  0  0  0  0  0  0  0  0  0  0  0  0  # atno 17370 bound_to 10713
  156.1941  130.6578  151.1094 LP  0  0  0  0  0  0  0  0  0  0  0  0  # atno 17371 bound_to 10713
  140.5940  134.5622  157.5505 LP  0  0  0  0  0  0  0  0  0  0  0  0  # atno 17394 bound_to 11000
  139.9401  134.7803  156.0701 LP  0  0  0  0  0  0  0  0  0  0  0  0  # atno 17395 bound_to 11000

$$$$
