#       Name:                AV-unprocessed.smi:1111
#       Creating user name   scv26
#       Creation time:       Fri Mar 27 03:34:03 2020


#       File generated by GOLD software.
#

@<TRIPOS>MOLECULE
AV-unprocessed.smi:1111
    35    36     1
SMALL
NO_CHARGES


@<TRIPOS>ATOM
      1 ****        -2.0894   2.2374  -0.6320 C.3            1 S1                 0.0000
      2 ****        -1.4631   0.8351  -0.4848 C.3            1 S1                 0.0000
      3 ****         0.0010   0.9231  -0.4285 N.am           1 S1                 0.0000
      4 ****         0.7687   1.5264   0.4954 C.2            1 S1                 0.0000
      5 ****         0.3294   2.2053   1.4225 O.2            1 S1                 0.0000
      6 ****         2.2737   1.2993   0.3626 C.3            1 S1                 0.0000
      7 ****         2.6237  -0.0484   0.7721 N.pl3          1 S1                 0.0000
      8 ****         2.7485  -1.1685  -0.0408 C.2            1 S1                 0.0000
      9 ****         3.0728  -2.2200   0.7864 C.2            1 S1                 0.0000
     10 ****         3.1540  -1.7734   2.1031 N.2            1 S1                 0.0000
     11 ****         2.8740  -0.4794   2.0165 C.2            1 S1                 0.0000
     12 ****        -1.8167  -0.0420  -1.7096 C.3            1 S1                 0.0000
     13 ****        -1.5094  -1.5134  -1.3970 C.3            1 S1                 0.0000
     14 ****        -1.7775  -1.7064   0.4037 S.o2           1 S1                 0.0000
     15 ****        -3.0425  -2.4169   0.6448 O.2            1 S1                 0.0000
     16 ****        -0.5226  -2.1591   1.0229 O.2            1 S1                 0.0000
     17 ****        -2.0146   0.0791   0.7453 C.3            1 S1                 0.0000
     18 ****        -3.1680   2.1748  -0.7799 H              1 S1                 0.0000
     19 ****        -1.6722   2.7691  -1.4878 H              1 S1                 0.0000
     20 ****        -1.9255   2.8521   0.2530 H              1 S1                 0.0000
     21 ****         0.4905   0.4034  -1.1425 H              1 S1                 0.0000
     22 ****         2.5887   1.4541  -0.6703 H              1 S1                 0.0000
     23 ****         2.8204   2.0131   0.9801 H              1 S1                 0.0000
     24 ****         2.5949  -1.1281  -1.1090 H              1 S1                 0.0000
     25 ****         3.2503  -3.2558   0.5376 H              1 S1                 0.0000
     26 ****         2.8458   0.1700   2.8795 H              1 S1                 0.0000
     27 ****        -2.8854   0.0441  -1.9116 H              1 S1                 0.0000
     28 ****        -1.3048   0.2879  -2.6147 H              1 S1                 0.0000
     29 ****        -2.1432  -2.2070  -1.9494 H              1 S1                 0.0000
     30 ****        -0.4663  -1.7489  -1.6094 H              1 S1                 0.0000
     31 ****        -1.5479   0.3445   1.6936 H              1 S1                 0.0000
     32 ****        -3.0870   0.2478   0.8469 H              1 S1                 0.0000
     33 ****        -0.6569   2.3359   1.5230 LP             1 S1                 0.0000
     34 ****         0.9586   2.6266   2.0757 LP             1 S1                 0.0000
     35 ****         3.3723  -2.3039   2.9222 LP             1 S1                 0.0000
@<TRIPOS>BOND
    1    1    2 1     
    2    1   18 1     
    3    1   19 1     
    4    1   20 1     
    5    2   17 1     
    6    2    3 1     
    7    2   12 1     
    8    3    4 am    
    9    3   21 1     
   10    4    5 2     
   11    4    6 1     
   12    6    7 1     
   13    6   22 1     
   14    6   23 1     
   15    7   11 1     
   16    7    8 1     
   17    8    9 2     
   18    8   24 1     
   19    9   10 1     
   20    9   25 1     
   21   10   11 2     
   22   11   26 1     
   23   12   13 1     
   24   12   27 1     
   25   12   28 1     
   26   13   14 1     
   27   13   29 1     
   28   13   30 1     
   29   14   15 2     
   30   14   16 2     
   31   14   17 1     
   32   17   31 1     
   33   17   32 1     
   34    5   33 1     
   35    5   34 1     
   36   10   35 1     
@<TRIPOS>SUBSTRUCTURE
      1 S1             1
@<TRIPOS>SET
LONE_PAIRS      STATIC     ATOMS    <user>   **** ""
5 33 34 35 15 16
DONOR_HYDROGENS      STATIC     ATOMS    <user>   **** ""
1 21
ATOM$BLUE        STATIC     ATOMS    COLORGROUP SYSTEM
5 33 34 35 15 16
ATOM$RED        STATIC     ATOMS    COLORGROUP SYSTEM
1 21
