#       Name:                AV-unprocessed.smi:3232
#       Creating user name   scv26
#       Creation time:       Fri Mar 27 18:20:33 2020


#       File generated by GOLD software.
#

@<TRIPOS>MOLECULE
AV-unprocessed.smi:3232
    44    45     1
SMALL
NO_CHARGES


@<TRIPOS>ATOM
      1 ****        -4.8258   0.0387  -0.4453 C.3            1 S1                 0.0000
      2 ****        -3.3327   0.0887  -0.7954 C.3            1 S1                 0.0000
      3 ****        -2.4968   0.4746   0.3671 N.4            1 S1                 1.0000
      4 ****        -2.6920   1.8628   0.8369 C.3            1 S1                 0.0000
      5 ****        -1.4036   2.2180   1.5679 C.3            1 S1                 0.0000
      6 ****        -0.3386   1.5157   0.7345 C.3            1 S1                 0.0000
      7 ****        -1.0404   0.2646   0.1679 C.3            1 S1                 0.0000
      8 ****        -0.5939  -1.0526   0.8371 C.3            1 S1                 0.0000
      9 ****         0.8300  -1.3033   0.6501 N.am           1 S1                 0.0000
     10 ****         1.3938  -1.7237  -0.4936 C.2            1 S1                 0.0000
     11 ****         0.7361  -2.0293  -1.4891 O.2            1 S1                 0.0000
     12 ****         2.9305  -1.7825  -0.5099 C.3            1 S1                 0.0000
     13 ****         3.4955  -2.4918  -1.7574 C.3            1 S1                 0.0000
     14 ****         3.4850  -0.4429  -0.3504 N.pl3          1 S1                 0.0000
     15 ****         4.0177   0.1442   0.7236 C.2            1 S1                 0.0000
     16 ****         4.3745   1.4055   0.5266 N.2            1 S1                 0.0000
     17 ****         4.0067   1.5454  -0.7815 C.2            1 S1                 0.0000
     18 ****         3.4576   0.4728  -1.3512 N.2            1 S1                 0.0000
     19 ****        -5.4100  -0.3003  -1.3011 H              1 S1                 0.0000
     20 ****        -5.2061   1.0192  -0.1587 H              1 S1                 0.0000
     21 ****        -5.0149  -0.6508   0.3781 H              1 S1                 0.0000
     22 ****        -3.0224  -0.9002  -1.1356 H              1 S1                 0.0000
     23 ****        -3.1585   0.7745  -1.6260 H              1 S1                 0.0000
     24 ****        -2.8229   2.5299  -0.0168 H              1 S1                 0.0000
     25 ****        -3.5707   1.9538   1.4761 H              1 S1                 0.0000
     26 ****        -1.2414   3.2934   1.6468 H              1 S1                 0.0000
     27 ****        -1.4201   1.8027   2.5764 H              1 S1                 0.0000
     28 ****        -0.0375   2.1654  -0.0886 H              1 S1                 0.0000
     29 ****         0.5587   1.2961   1.3141 H              1 S1                 0.0000
     30 ****        -0.8257   0.2147  -0.9014 H              1 S1                 0.0000
     31 ****        -0.7933  -1.0145   1.9084 H              1 S1                 0.0000
     32 ****        -1.1674  -1.8949   0.4459 H              1 S1                 0.0000
     33 ****         1.4384  -1.0837   1.4257 H              1 S1                 0.0000
     34 ****         3.2362  -2.3638   0.3615 H              1 S1                 0.0000
     35 ****         3.1264  -3.5155  -1.8294 H              1 S1                 0.0000
     36 ****         4.5840  -2.5414  -1.7158 H              1 S1                 0.0000
     37 ****         3.2243  -1.9760  -2.6797 H              1 S1                 0.0000
     38 ****         4.1368  -0.3577   1.6729 H              1 S1                 0.0000
     39 ****         4.1379   2.4680  -1.3274 H              1 S1                 0.0000
     40 ****        -2.7566  -0.1250   1.1373 H              1 S1                 0.0000
     41 ****        -0.2618  -1.9692  -1.4668 LP             1 S1                 0.0000
     42 ****         1.2001  -2.3374  -2.3197 LP             1 S1                 0.0000
     43 ****         4.7918   2.0635   1.1535 LP             1 S1                 0.0000
     44 ****         3.1117   0.3689  -2.2837 LP             1 S1                 0.0000
@<TRIPOS>BOND
    1    1    2 1     
    2    1   19 1     
    3    1   20 1     
    4    1   21 1     
    5    2    3 1     
    6    2   22 1     
    7    2   23 1     
    8    3    7 1     
    9    3    4 1     
   10    3   40 1     
   11    4    5 1     
   12    4   24 1     
   13    4   25 1     
   14    5    6 1     
   15    5   26 1     
   16    5   27 1     
   17    6    7 1     
   18    6   28 1     
   19    6   29 1     
   20    7    8 1     
   21    7   30 1     
   22    8    9 1     
   23    8   31 1     
   24    8   32 1     
   25    9   10 am    
   26    9   33 1     
   27   10   11 2     
   28   10   12 1     
   29   12   13 1     
   30   12   14 1     
   31   12   34 1     
   32   13   35 1     
   33   13   36 1     
   34   13   37 1     
   35   14   18 1     
   36   14   15 1     
   37   15   16 2     
   38   15   38 1     
   39   16   17 1     
   40   17   18 2     
   41   17   39 1     
   42   11   41 1     
   43   11   42 1     
   44   16   43 1     
   45   18   44 1     
@<TRIPOS>SUBSTRUCTURE
      1 S1             1
@<TRIPOS>SET
LONE_PAIRS      STATIC     ATOMS    <user>   **** ""
4 41 42 43 44
DONOR_HYDROGENS      STATIC     ATOMS    <user>   **** ""
2 40 33
ATOM$BLUE        STATIC     ATOMS    COLORGROUP SYSTEM
4 41 42 43 44
ATOM$RED        STATIC     ATOMS    COLORGROUP SYSTEM
2 40 33
