#       Name:                AV-unprocessed.smi:3162
#       Creating user name   scv26
#       Creation time:       Fri Mar 27 17:50:01 2020


#       File generated by GOLD software.
#

@<TRIPOS>MOLECULE
AV-unprocessed.smi:3162
    40    40     1
SMALL
NO_CHARGES


@<TRIPOS>ATOM
      1 ****        -4.3113   2.5941  -0.6743 C.3            1 S1                 0.0000
      2 ****        -3.6102   1.2277  -0.7384 C.3            1 S1                 0.0000
      3 ****        -2.2109   1.1963  -0.0842 C.3            1 S1                 0.0000
      4 ****        -1.5648  -0.0972  -0.3789 N.3            1 S1                 0.0000
      5 ****        -0.1729  -0.2298   0.0481 C.3            1 S1                 0.0000
      6 ****        -0.0962  -1.1665   1.2689 C.3            1 S1                 0.0000
      7 ****         0.6342  -0.7565  -1.1563 C.3            1 S1                 0.0000
      8 ****         2.0435  -0.9361  -0.8565 N.pl3          1 S1                 0.0000
      9 ****         2.7468  -2.1129  -0.7093 C.2            1 S1                 0.0000
     10 ****         4.0452  -1.7848  -0.4384 C.2            1 S1                 0.0000
     11 ****         5.2130  -2.6955  -0.1909 C.3            1 S1                 0.0000
     12 ****         4.0346  -0.3609  -0.4447 C.2            1 S1                 0.0000
     13 ****         2.8380   0.1438  -0.6975 N.2            1 S1                 0.0000
     14 ****        -2.2769   1.5023   1.4238 C.2            1 S1                 0.0000
     15 ****        -1.4729   2.4621   1.8886 N.am           1 S1                 0.0000
     16 ****        -3.0302   0.8678   2.1601 O.2            1 S1                 0.0000
     17 ****        -5.2558   2.5682  -1.2181 H              1 S1                 0.0000
     18 ****        -3.6942   3.3745  -1.1202 H              1 S1                 0.0000
     19 ****        -4.5344   2.8863   0.3519 H              1 S1                 0.0000
     20 ****        -4.2533   0.4699  -0.2884 H              1 S1                 0.0000
     21 ****        -3.5144   0.9483  -1.7885 H              1 S1                 0.0000
     22 ****        -1.6133   1.9750  -0.5624 H              1 S1                 0.0000
     23 ****        -2.1113  -0.8797  -0.0480 H              1 S1                 0.0000
     24 ****         0.2346   0.7456   0.3180 H              1 S1                 0.0000
     25 ****         0.9269  -1.2575   1.6340 H              1 S1                 0.0000
     26 ****        -0.4492  -2.1683   1.0223 H              1 S1                 0.0000
     27 ****        -0.6976  -0.7996   2.1001 H              1 S1                 0.0000
     28 ****         0.2319  -1.7125  -1.4953 H              1 S1                 0.0000
     29 ****         0.5514  -0.0683  -1.9992 H              1 S1                 0.0000
     30 ****         2.2692  -3.0769  -0.8061 H              1 S1                 0.0000
     31 ****         6.1478  -2.2585  -0.5428 H              1 S1                 0.0000
     32 ****         5.0956  -3.6524  -0.7000 H              1 S1                 0.0000
     33 ****         5.3371  -2.9089   0.8709 H              1 S1                 0.0000
     34 ****         4.8580   0.3174  -0.2757 H              1 S1                 0.0000
     35 ****        -1.4855   2.6981   2.8702 H              1 S1                 0.0000
     36 ****        -0.8573   2.9507   1.2548 H              1 S1                 0.0000
     37 ****        -1.5321  -0.1110  -1.3783 LP             1 S1                 0.0000
     38 ****         2.5801   1.1081  -0.7574 LP             1 S1                 0.0000
     39 ****        -3.6079   0.1448   1.7811 LP             1 S1                 0.0000
     40 ****        -3.0651   1.0748   3.1378 LP             1 S1                 0.0000
@<TRIPOS>BOND
    1    1    2 1     
    2    1   17 1     
    3    1   18 1     
    4    1   19 1     
    5    2    3 1     
    6    2   20 1     
    7    2   21 1     
    8    3    4 1     
    9    3   14 1     
   10    3   22 1     
   11    4    5 1     
   12    4   23 1     
   13    5    6 1     
   14    5    7 1     
   15    5   24 1     
   16    6   25 1     
   17    6   26 1     
   18    6   27 1     
   19    7    8 1     
   20    7   28 1     
   21    7   29 1     
   22    8   13 1     
   23    8    9 1     
   24    9   10 2     
   25    9   30 1     
   26   10   11 1     
   27   10   12 1     
   28   11   31 1     
   29   11   32 1     
   30   11   33 1     
   31   12   13 2     
   32   12   34 1     
   33   14   15 am    
   34   14   16 2     
   35   15   35 1     
   36   15   36 1     
   37    4   37 1     
   38   13   38 1     
   39   16   39 1     
   40   16   40 1     
@<TRIPOS>SUBSTRUCTURE
      1 S1             1
@<TRIPOS>SET
LONE_PAIRS      STATIC     ATOMS    <user>   **** ""
4 37 38 39 40
DONOR_HYDROGENS      STATIC     ATOMS    <user>   **** ""
3 23 35 36
ATOM$BLUE        STATIC     ATOMS    COLORGROUP SYSTEM
4 37 38 39 40
ATOM$RED        STATIC     ATOMS    COLORGROUP SYSTEM
3 23 35 36
