AV-unprocessed.smi:2246|AV-procd|sdf|9084|dock3
  -GOLD-   2272012283D 1   1.00000     0.00000
 Structure written by MMmdl.
 28 29  0  0  0  0  0  0  0  0  2 V2000
  152.9279  140.5664  157.9942 O   0  0  0  0  0  0  0  0  0  0  0  0
  151.9197  140.8653  157.3553 C   0  0  0  0  0  0  0  0  0  0  0  0
  151.5751  140.2259  156.0113 C   0  0  1  0  0  0  0  0  0  0  0  0
  151.3298  138.7709  156.1642 N   0  0  0  0  0  0  0  0  0  0  0  0
  150.4908  138.3246  157.2084 C   0  0  0  0  0  0  0  0  0  0  0  0
  150.2502  137.0193  157.4342 C   0  0  0  0  0  0  0  0  0  0  0  0
  149.2193  136.5149  158.7256 Cl  0  0  0  0  0  0  0  0  0  0  0  0
  150.8962  136.0432  156.5621 C   0  0  0  0  0  0  0  0  0  0  0  0
  150.6813  134.8429  156.7260 O   0  0  0  0  0  0  0  0  0  0  0  0
  151.7269  136.5172  155.5894 N   0  5  0  0  0  0  0  0  0  0  0  0
  151.9709  137.8480  155.3821 C   0  0  0  0  0  0  0  0  0  0  0  0
  152.7466  138.2351  154.5081 O   0  0  0  0  0  0  0  0  0  0  0  0
  150.3192  141.0134  155.5760 C   0  0  0  0  0  0  0  0  0  0  0  0
  149.9316  141.9197  156.7520 C   0  0  0  0  0  0  0  0  0  0  0  0
  151.0099  141.7781  157.7143 N   0  0  0  0  0  0  0  0  0  0  0  0
  151.0248  142.5821  158.9350 C   0  0  0  0  0  0  0  0  0  0  0  0
  152.1768  143.6038  158.9530 C   0  0  0  0  0  0  0  0  0  0  0  0
  152.2030  144.3260  157.8335 F   0  0  0  0  0  0  0  0  0  0  0  0
  152.0044  144.4304  159.9837 F   0  0  0  0  0  0  0  0  0  0  0  0
  153.3465  142.9818  159.0999 F   0  0  0  0  0  0  0  0  0  0  0  0
  152.3812  140.4507  155.3116 H   0  0  0  0  0  0  0  0  0  0  0  0
  150.0632  139.1012  157.8237 H   0  0  0  0  0  0  0  0  0  0  0  0
  150.5666  141.6315  154.7121 H   0  0  0  0  0  0  0  0  0  0  0  0
  149.4903  140.3774  155.2631 H   0  0  0  0  0  0  0  0  0  0  0  0
  149.8204  142.9582  156.4371 H   0  0  0  0  0  0  0  0  0  0  0  0
  148.9921  141.5968  157.2022 H   0  0  0  0  0  0  0  0  0  0  0  0
  150.0683  143.0953  159.0457 H   0  0  0  0  0  0  0  0  0  0  0  0
  151.1127  141.9180  159.7958 H   0  0  0  0  0  0  0  0  0  0  0  0
  1  2  2  0  0  0  0
  2 15  1  0  0  0  0
  2  3  1  0  0  0  0
  3  4  1  0  0  0  0
  3 13  1  0  0  0  0
  3 21  1  0  0  0  0
  4 11  1  0  0  0  0
  4  5  1  0  0  0  0
  5  6  2  0  0  0  0
  5 22  1  0  0  0  0
  6  7  1  0  0  0  0
  6  8  1  0  0  0  0
  8  9  2  0  0  0  0
  8 10  1  0  0  0  0
 10 11  1  0  0  0  0
 11 12  2  0  0  0  0
 13 14  1  0  0  0  0
 13 23  1  0  0  0  0
 13 24  1  0  0  0  0
 14 15  1  0  0  0  0
 14 25  1  0  0  0  0
 14 26  1  0  0  0  0
 15 16  1  0  0  0  0
 16 17  1  0  0  0  0
 16 27  1  0  0  0  0
 16 28  1  0  0  0  0
 17 18  1  0  0  0  0
 17 19  1  0  0  0  0
 17 20  1  0  0  0  0
M  CHG  1  10  -1
M  END
> <s_m_source_file>
AV-unprocessed.smi

> <i_m_source_file_index>
2246

> <i_lp_mmshare_version>
43012

> <i_f3d_flags>
0

> <s_epik_input>
RkMoRikoRilbQ0gyXU4xW0NIMl1bQ0gyXVtDQEBIXShDMT1PKW4yW2NIXWMoQ2wpYyg9TylbbkhdYzI9Tw==

> <s_epik_cmdline>
J2VwaWtfcHl0aG9uJywgJy1waCcsICc3LjAnLCAnLXRuJywgJzgnLCAnLW1hJywgJzIwMCcsICctbWV0YWxfYmluZGluZycsICctaW1hZScsICc8aW5maWxlLm1hZT4nLCAnLW9tYWUnLCAnPG91dGZpbGUubWFlPic=

> <r_epik_Ionization_Penalty>
1.33611

> <r_epik_Ionization_Penalty_Charging>
6.88308e-09

> <r_epik_Ionization_Penalty_Neutral>
1.33611

> <r_epik_State_Penalty>
1.41295

> <r_epik_Charging_Adjusted_Penalty>
1.41295

> <i_epik_Tot_Q>
-1

> <i_epik_Tot_abs_Q>
1

> <r_epik_Metal_State_Penalty>
0.00581136

> <b_epik_Metal_Only>
0

> <s_lp_Force_Field>
OPLS_2005

> <r_lp_Energy>
31.0975

> <b_lp_Chiralities_Consistent>
1

> <s_lp_Variant>
AV-unprocessed.smi:2246-3

> <Gold.Version>
5.8.1

> <Gold.Id.Protein>
6NUR|6NUR_protein|mol2

> <Gold.PLP.Fitness>
45.7299

> <Gold.PLP.PLP>
-37.9023

> <Gold.PLP.part.hbond>
-3.2321

> <Gold.PLP.part.metal>
0.0000

> <Gold.PLP.part.buried>
-3.3163

> <Gold.PLP.part.nonpolar>
-30.8788

> <Gold.PLP.part.repulsive>
0.0802

> <Gold.PLP.ligand.clash>
0.0000

> <Gold.PLP.ligand.torsion>
0.2700

> <Gold.PLP.Chemscore.Hbond>
2.7517

> <Gold.PLP.Chemscore.CHOScore>
0.0000

> <Gold.PLP.Chemscore.Metal>
0.0000

> <Gold.Chemscore.Hbonds>
donor molecule, donor type, donor heavy atom, donor atom, acceptor molecule, acceptor atom, score
      P1  H  7997  8010       L1     1  0.77
      P1  H 10752 10763       L1    10  2.00

> <Gold.PLP.Chemscore.Internal.Correction>
0.1126

> <Gold.Rescore>
     Score         DG    S(hbond)    S(metal)    S(lipo)     H(rot)  DE(clash)    DE(int)     intcor
     10.95     -12.68       1.70        0.00      44.82       1.45       0.05       1.69       ----

> <Gold.Chemscore.Fitness>
10.9512

> <Gold.Chemscore.DG>
-12.6842

> <Gold.Chemscore.ZeroCoef>
-5.4800

> <Gold.Chemscore.Hbond>
1.6963

> <Gold.Chemscore.Metal>
0.0000

> <Gold.Chemscore.Lipo>
44.8249

> <Gold.Chemscore.Internal_Hbond>
0.0000

> <Gold.Chemscore.DEClash>
0.0456

> <Gold.Chemscore.DEInternal>
1.6874

> <Gold.Chemscore.Rot>
1.4476

> <Gold.Chemscore.Internal.Correction>
   9.000000E+99

> <Gold.Chemscore.Hbonds>
donor molecule, donor type, donor heavy atom, donor atom, acceptor molecule, acceptor atom, score
      P1  H  7997  8010       L1     1  0.69
      P1  H 10752 10763       L1    10  0.59

> <Gold.Chemscore.Hbond.Weighted>
-5.6656

> <Gold.Chemscore.Metal.Weighted>
-0.0000

> <Gold.Chemscore.Lipo.Weighted>
-5.2445

> <Gold.Chemscore.Internal_Hbond.Weighted>
0.0000

> <Gold.Chemscore.DEClash.Weighted>
0.0456

> <Gold.Chemscore.DEInternal.Weighted>
1.6874

> <Gold.Chemscore.Rot.Weighted>
3.7059

> <Gold.Chemscore.Internal.Correction.Weighted>
   9.000000E+99

> <Gold.Protein.RotatedTorsions>
[ 6907 6896 6895 6894 ] final  113.01 input  -60.11 | X-H torsion
[ 7974 7965 7964 7962 ] final  163.11 input  175.53 | X-H torsion
[ 8008 7997 7996 7995 ] final   44.72 input   59.86 | X-H torsion
[ 10167 10162 10161 10158 ] final -145.84 input  -65.29 | X-H torsion
[ 10718 10713 10712 10709 ] final -145.66 input   66.30 | X-H torsion
[ 10763 10752 10751 10750 ] final   58.36 input  -60.55 | X-H torsion
[ 11005 11000 10999 10996 ] final  171.83 input  -57.11 | X-H torsion

> <Gold.Protein.ActiveResidues>
 VAL166  LYS551  ARG553  GLY616  TRP617  ASP618  TYR619  PRO620  LYS621  CYS622 
 ASP623  PHE694  ASN695  SER759  ASP760  ASP761  ALA762  ILE779  LEU786  VAL792 
 PHE793  MET794  SER795  GLU796  ALA797  LYS798  CYS799  TRP800  GLU811  SER814 

> <Gold.Protein.RotatedAtoms>
  152.4884  133.8435  159.7164 H   0  0  0  0  0  0  0  0  0  0  0  0  # atno 6907 bound_to 6896
  150.8992  133.7132  159.2890 H   0  0  0  0  0  0  0  0  0  0  0  0  # atno 6908 bound_to 6896
  151.4579  135.1039  159.9768 H   0  0  0  0  0  0  0  0  0  0  0  0  # atno 6909 bound_to 6896
  144.7605  139.8135  143.6334 H   0  0  0  0  0  0  0  0  0  0  0  0  # atno 7974 bound_to 7965
  155.3240  140.3398  155.4240 H   0  0  0  0  0  0  0  0  0  0  0  0  # atno 8008 bound_to 7997
  156.1895  140.1692  156.8157 H   0  0  0  0  0  0  0  0  0  0  0  0  # atno 8009 bound_to 7997
  154.5425  140.0722  156.8517 H   0  0  0  0  0  0  0  0  0  0  0  0  # atno 8010 bound_to 7997
  139.7768  143.8157  152.2633 H   0  0  0  0  0  0  0  0  0  0  0  0  # atno 10167 bound_to 10162
  156.3852  130.7857  151.2054 H   0  0  0  0  0  0  0  0  0  0  0  0  # atno 10718 bound_to 10713
  152.9869  135.5609  154.5540 H   0  0  0  0  0  0  0  0  0  0  0  0  # atno 10763 bound_to 10752
  154.4971  135.2795  155.1452 H   0  0  0  0  0  0  0  0  0  0  0  0  # atno 10764 bound_to 10752
  154.2898  135.6328  153.5433 H   0  0  0  0  0  0  0  0  0  0  0  0  # atno 10765 bound_to 10752
  140.3232  134.7420  157.4079 H   0  0  0  0  0  0  0  0  0  0  0  0  # atno 11005 bound_to 11000
  146.1663  139.4795  142.9956 LP  0  0  0  0  0  0  0  0  0  0  0  0  # atno 17320 bound_to 7965
  145.6635  141.0234  143.1696 LP  0  0  0  0  0  0  0  0  0  0  0  0  # atno 17321 bound_to 7965
  139.8208  144.7296  150.9575 LP  0  0  0  0  0  0  0  0  0  0  0  0  # atno 17342 bound_to 10162
  140.7817  143.4160  151.0916 LP  0  0  0  0  0  0  0  0  0  0  0  0  # atno 17343 bound_to 10162
  157.7495  131.0332  150.4261 LP  0  0  0  0  0  0  0  0  0  0  0  0  # atno 17370 bound_to 10713
  156.4512  130.4012  149.6634 LP  0  0  0  0  0  0  0  0  0  0  0  0  # atno 17371 bound_to 10713
  140.0924  134.5583  155.8431 LP  0  0  0  0  0  0  0  0  0  0  0  0  # atno 17394 bound_to 11000
  141.2081  133.6671  156.6352 LP  0  0  0  0  0  0  0  0  0  0  0  0  # atno 17395 bound_to 11000

$$$$
