AV-unprocessed.smi:212|AV-procd|sdf|1623|dock1
  -GOLD-   2262019563D 1   1.00000     0.00000
 Structure written by MMmdl.
 65 68  0  0  0  0  0  0  0  0  2 V2000
  143.2561  135.6756  152.8349 C   0  0  0  0  0  0  0  0  0  0  0  0
  144.6491  136.2971  152.6369 C   0  0  2  0  0  0  0  0  0  0  0  0
  145.4842  135.5339  151.5871 C   0  0  0  0  0  0  0  0  0  0  0  0
  145.9463  134.2188  152.1052 N   0  3  1  0  0  0  0  0  0  0  0  0
  146.6452  133.3949  151.0839 C   0  0  0  0  0  0  0  0  0  0  0  0
  145.6922  132.4225  150.3494 C   0  0  0  0  0  0  0  0  0  0  0  0
  145.4089  131.1944  151.2310 C   0  0  0  0  0  0  0  0  0  0  0  0
  144.3713  133.0985  149.9362 C   0  0  0  0  0  0  0  0  0  0  0  0
  146.3283  131.9414  149.1819 O   0  0  0  0  0  0  0  0  0  0  0  0
  146.7108  134.3545  153.3704 C   0  0  0  0  0  0  0  0  0  0  0  0
  145.8949  135.1188  154.4294 C   0  0  0  0  0  0  0  0  0  0  0  0
  145.3867  136.3856  153.9000 N   0  0  0  0  0  0  0  0  0  0  0  0
  146.1255  137.5122  154.0794 C   0  0  0  0  0  0  0  0  0  0  0  0
  146.4930  138.2617  153.0059 N   0  0  0  0  0  0  0  0  0  0  0  0
  147.2091  139.3776  153.1733 C   0  0  0  0  0  0  0  0  0  0  0  0
  147.6582  139.9181  154.3075 N   0  0  0  0  0  0  0  0  0  0  0  0
  147.3004  139.1667  155.3873 C   0  0  0  0  0  0  0  0  0  0  0  0
  146.5429  137.9620  155.3640 C   0  0  0  0  0  0  0  0  0  0  0  0
  146.3871  137.4768  156.6576 N   0  0  0  0  0  0  0  0  0  0  0  0
  147.0108  138.3484  157.4030 C   0  0  0  0  0  0  0  0  0  0  0  0
  147.5823  139.3986  156.7209 N   0  0  0  0  0  0  0  0  0  0  0  0
  148.3297  140.5059  157.2899 C   0  0  0  0  0  0  0  0  0  0  0  0
  149.8434  140.4496  156.9663 C   0  0  1  0  0  0  0  0  0  0  0  0
  150.1761  141.0215  155.5667 C   0  0  0  0  0  0  0  0  0  0  0  0
  151.2715  140.3487  154.9800 O   0  0  0  0  0  0  0  0  0  0  0  0
  150.6882  141.1037  158.0886 C   0  0  2  0  0  0  0  0  0  0  0  0
  150.6530  142.6217  158.1169 C   0  0  0  0  0  0  0  0  0  0  0  0
  151.8829  142.9563  158.9532 C   0  0  0  0  0  0  0  0  0  0  0  0
  152.8303  141.9338  158.6674 O   0  0  0  0  0  0  0  0  0  0  0  0
  152.1974  140.8644  157.9712 C   0  0  0  0  0  0  0  0  0  0  0  0
  142.6957  135.6715  151.8996 H   0  0  0  0  0  0  0  0  0  0  0  0
  142.6763  136.2465  153.5609 H   0  0  0  0  0  0  0  0  0  0  0  0
  143.3110  134.6457  153.1878 H   0  0  0  0  0  0  0  0  0  0  0  0
  144.4846  137.2972  152.2363 H   0  0  0  0  0  0  0  0  0  0  0  0
  144.9015  135.4021  150.6756 H   0  0  0  0  0  0  0  0  0  0  0  0
  146.3564  136.1299  151.3132 H   0  0  0  0  0  0  0  0  0  0  0  0
  147.1664  134.0385  150.3727 H   0  0  0  0  0  0  0  0  0  0  0  0
  147.4271  132.8036  151.5637 H   0  0  0  0  0  0  0  0  0  0  0  0
  144.9068  131.4803  152.1559 H   0  0  0  0  0  0  0  0  0  0  0  0
  146.3300  130.6778  151.5038 H   0  0  0  0  0  0  0  0  0  0  0  0
  144.7681  130.4746  150.7202 H   0  0  0  0  0  0  0  0  0  0  0  0
  143.8486  133.5038  150.8035 H   0  0  0  0  0  0  0  0  0  0  0  0
  143.6990  132.3902  149.4505 H   0  0  0  0  0  0  0  0  0  0  0  0
  144.5353  133.9189  149.2363 H   0  0  0  0  0  0  0  0  0  0  0  0
  147.1112  131.4760  149.4350 H   0  0  0  0  0  0  0  0  0  0  0  0
  146.9651  133.3666  153.7562 H   0  0  0  0  0  0  0  0  0  0  0  0
  147.6514  134.8686  153.1682 H   0  0  0  0  0  0  0  0  0  0  0  0
  145.0449  134.5131  154.7440 H   0  0  0  0  0  0  0  0  0  0  0  0
  146.4901  135.2801  155.3292 H   0  0  0  0  0  0  0  0  0  0  0  0
  147.4578  139.9146  152.2699 H   0  0  0  0  0  0  0  0  0  0  0  0
  147.0668  138.2524  158.4778 H   0  0  0  0  0  0  0  0  0  0  0  0
  147.8987  141.4388  156.9240 H   0  0  0  0  0  0  0  0  0  0  0  0
  148.1654  140.4937  158.3676 H   0  0  0  0  0  0  0  0  0  0  0  0
  150.1194  139.3946  156.9350 H   0  0  0  0  0  0  0  0  0  0  0  0
  149.3179  140.9409  154.8999 H   0  0  0  0  0  0  0  0  0  0  0  0
  150.4080  142.0850  155.6233 H   0  0  0  0  0  0  0  0  0  0  0  0
  151.6482  139.7686  155.6239 H   0  0  0  0  0  0  0  0  0  0  0  0
  150.3559  140.7337  159.0598 H   0  0  0  0  0  0  0  0  0  0  0  0
  150.7640  143.0259  157.1097 H   0  0  0  0  0  0  0  0  0  0  0  0
  149.7362  143.0243  158.5487 H   0  0  0  0  0  0  0  0  0  0  0  0
  152.2826  143.9461  158.7314 H   0  0  0  0  0  0  0  0  0  0  0  0
  151.6411  142.9181  160.0161 H   0  0  0  0  0  0  0  0  0  0  0  0
  152.4993  139.9000  158.3807 H   0  0  0  0  0  0  0  0  0  0  0  0
  152.5164  140.9015  156.9286 H   0  0  0  0  0  0  0  0  0  0  0  0
  145.1116  133.7033  152.3456 H   0  0  0  0  0  0  0  0  0  0  0  0
  1  2  1  0  0  0  0
  1 31  1  0  0  0  0
  1 32  1  0  0  0  0
  1 33  1  0  0  0  0
  2 12  1  0  0  0  0
  2  3  1  0  0  0  0
  2 34  1  0  0  0  0
  3  4  1  0  0  0  0
  3 35  1  0  0  0  0
  3 36  1  0  0  0  0
  4  5  1  0  0  0  0
  4 10  1  0  0  0  0
  4 65  1  0  0  0  0
  5  6  1  0  0  0  0
  5 37  1  0  0  0  0
  5 38  1  0  0  0  0
  6  7  1  0  0  0  0
  6  8  1  0  0  0  0
  6  9  1  0  0  0  0
  7 39  1  0  0  0  0
  7 40  1  0  0  0  0
  7 41  1  0  0  0  0
  8 42  1  0  0  0  0
  8 43  1  0  0  0  0
  8 44  1  0  0  0  0
  9 45  1  0  0  0  0
 10 11  1  0  0  0  0
 10 46  1  0  0  0  0
 10 47  1  0  0  0  0
 11 12  1  0  0  0  0
 11 48  1  0  0  0  0
 11 49  1  0  0  0  0
 12 13  1  0  0  0  0
 13 18  1  0  0  0  0
 13 14  2  0  0  0  0
 14 15  1  0  0  0  0
 15 16  2  0  0  0  0
 15 50  1  0  0  0  0
 16 17  1  0  0  0  0
 17 21  1  0  0  0  0
 17 18  2  0  0  0  0
 18 19  1  0  0  0  0
 19 20  2  0  0  0  0
 20 21  1  0  0  0  0
 20 51  1  0  0  0  0
 21 22  1  0  0  0  0
 22 23  1  0  0  0  0
 22 52  1  0  0  0  0
 22 53  1  0  0  0  0
 23 24  1  0  0  0  0
 23 26  1  0  0  0  0
 23 54  1  0  0  0  0
 24 25  1  0  0  0  0
 24 55  1  0  0  0  0
 24 56  1  0  0  0  0
 25 57  1  0  0  0  0
 26 30  1  0  0  0  0
 26 27  1  0  0  0  0
 26 58  1  0  0  0  0
 27 28  1  0  0  0  0
 27 59  1  0  0  0  0
 27 60  1  0  0  0  0
 28 29  1  0  0  0  0
 28 61  1  0  0  0  0
 28 62  1  0  0  0  0
 29 30  1  0  0  0  0
 30 63  1  0  0  0  0
 30 64  1  0  0  0  0
M  CHG  1   4   1
M  END
> <s_m_source_file>
AV-unprocessed.smi

> <i_m_source_file_index>
212

> <i_lp_mmshare_version>
43012

> <i_f3d_flags>
0

> <s_epik_input>
W0NIM11bQ0BASF0xW0NIMl1OKFtDSDJdQyhbQ0gzXSkoW0NIM10pW09IXSlbQ0gyXVtDSDJdTjFjKG5bY0hdbjIpYyhjMjMpbltjSF1uM1tDSDJdW0NASF0oW0NIMl1bT0hdKVtDQEBIXTRbQ0gyXVtDSDJdT1tDSDJdNA==

> <s_epik_cmdline>
J2VwaWtfcHl0aG9uJywgJy1waCcsICc3LjAnLCAnLXRuJywgJzgnLCAnLW1hJywgJzIwMCcsICctbWV0YWxfYmluZGluZycsICctaW1hZScsICc8aW5maWxlLm1hZT4nLCAnLW9tYWUnLCAnPG91dGZpbGUubWFlPic=

> <r_lp_tautomer_probability>
1

> <r_epik_Ionization_Penalty>
0.00182193

> <r_epik_Ionization_Penalty_Charging>
0.00173996

> <r_epik_Ionization_Penalty_Neutral>
8.19718e-05

> <r_epik_State_Penalty>
-0

> <r_epik_Charging_Adjusted_Penalty>
0.00173996

> <i_epik_Tot_Q>
1

> <i_epik_Tot_abs_Q>
1

> <r_epik_Metal_State_Penalty>
-0

> <b_epik_Metal_Only>
0

> <s_lp_Force_Field>
OPLS_2005

> <r_lp_Energy>
57.8669

> <b_lp_Chiralities_Consistent>
1

> <s_lp_Variant>
AV-unprocessed.smi:212-7

> <Gold.Version>
5.8.1

> <Gold.Id.Protein>
6NUR|6NUR_protein|mol2

> <Gold.PLP.Fitness>
44.0558

> <Gold.PLP.PLP>
-38.1340

> <Gold.PLP.part.hbond>
-2.0000

> <Gold.PLP.part.metal>
0.0000

> <Gold.PLP.part.buried>
-7.9755

> <Gold.PLP.part.nonpolar>
-28.9445

> <Gold.PLP.part.repulsive>
0.3971

> <Gold.PLP.ligand.clash>
0.0000

> <Gold.PLP.ligand.torsion>
2.1813

> <Gold.PLP.Chemscore.Hbond>
2.0000

> <Gold.PLP.Chemscore.CHOScore>
1.0000

> <Gold.PLP.Chemscore.Metal>
0.0000

> <Gold.Chemscore.Hbonds>
donor molecule, donor type, donor heavy atom, donor atom, acceptor molecule, acceptor atom, score
      L1  H     9    45       P1 10747  0.80
      P1  H  7989  7998       L1    25  1.00
      L1  C    15    50       P1  7957  0.98

> <Gold.PLP.Chemscore.Internal.Correction>
1.2845

> <Gold.Rescore>
     Score         DG    S(hbond)    S(metal)    S(lipo)     H(rot)  DE(clash)    DE(int)     intcor
     10.91     -14.35       1.93        0.00      95.07       3.40       0.09       3.35       ----

> <Gold.Chemscore.Fitness>
10.9147

> <Gold.Chemscore.DG>
-14.3504

> <Gold.Chemscore.ZeroCoef>
-5.4800

> <Gold.Chemscore.Hbond>
1.9305

> <Gold.Chemscore.Metal>
0.0000

> <Gold.Chemscore.Lipo>
95.0676

> <Gold.Chemscore.Internal_Hbond>
0.0000

> <Gold.Chemscore.DEClash>
0.0899

> <Gold.Chemscore.DEInternal>
3.3459

> <Gold.Chemscore.Rot>
3.3986

> <Gold.Chemscore.Internal.Correction>
   9.000000E+99

> <Gold.Chemscore.Hbonds>
donor molecule, donor type, donor heavy atom, donor atom, acceptor molecule, acceptor atom, score
      L1  H     9    45       P1 10747  0.79
      P1  H  7989  7998       L1    25  0.85

> <Gold.Chemscore.Hbond.Weighted>
-6.4480

> <Gold.Chemscore.Metal.Weighted>
-0.0000

> <Gold.Chemscore.Lipo.Weighted>
-11.1229

> <Gold.Chemscore.Internal_Hbond.Weighted>
0.0000

> <Gold.Chemscore.DEClash.Weighted>
0.0899

> <Gold.Chemscore.DEInternal.Weighted>
3.3459

> <Gold.Chemscore.Rot.Weighted>
8.7005

> <Gold.Chemscore.Internal.Correction.Weighted>
   9.000000E+99

> <Gold.Protein.RotatedTorsions>
[ 6907 6896 6895 6894 ] final   96.60 input  -60.11 | X-H torsion
[ 7974 7965 7964 7962 ] final  -73.13 input  175.53 | X-H torsion
[ 8008 7997 7996 7995 ] final   83.01 input   59.86 | X-H torsion
[ 10167 10162 10161 10158 ] final  -24.17 input  -65.29 | X-H torsion
[ 10718 10713 10712 10709 ] final -172.67 input   66.30 | X-H torsion
[ 10763 10752 10751 10750 ] final  -48.48 input  -60.55 | X-H torsion
[ 11005 11000 10999 10996 ] final  169.19 input  -57.11 | X-H torsion

> <Gold.Protein.ActiveResidues>
 VAL166  LYS551  ARG553  GLY616  TRP617  ASP618  TYR619  PRO620  LYS621  CYS622 
 ASP623  PHE694  ASN695  SER759  ASP760  ASP761  ALA762  ILE779  LEU786  VAL792 
 PHE793  MET794  SER795  GLU796  ALA797  LYS798  CYS799  TRP800  GLU811  SER814 

> <Gold.Protein.RotatedAtoms>
  152.5433  134.0861  159.8256 H   0  0  0  0  0  0  0  0  0  0  0  0  # atno 6907 bound_to 6896
  151.0957  133.5274  159.2620 H   0  0  0  0  0  0  0  0  0  0  0  0  # atno 6908 bound_to 6896
  151.2049  135.0466  159.8941 H   0  0  0  0  0  0  0  0  0  0  0  0  # atno 6909 bound_to 6896
  145.6562  140.9267  143.0958 H   0  0  0  0  0  0  0  0  0  0  0  0  # atno 7974 bound_to 7965
  155.9182  140.3423  155.6152 H   0  0  0  0  0  0  0  0  0  0  0  0  # atno 8008 bound_to 7997
  155.7306  140.0795  157.2309 H   0  0  0  0  0  0  0  0  0  0  0  0  # atno 8009 bound_to 7997
  154.4065  140.1589  156.2491 H   0  0  0  0  0  0  0  0  0  0  0  0  # atno 8010 bound_to 7997
  140.7288  143.4377  151.0704 H   0  0  0  0  0  0  0  0  0  0  0  0  # atno 10167 bound_to 10162
  156.7590  130.9406  151.3117 H   0  0  0  0  0  0  0  0  0  0  0  0  # atno 10718 bound_to 10713
  154.0784  135.6594  153.4834 H   0  0  0  0  0  0  0  0  0  0  0  0  # atno 10763 bound_to 10752
  153.0365  135.5174  154.7498 H   0  0  0  0  0  0  0  0  0  0  0  0  # atno 10764 bound_to 10752
  154.6585  135.3011  154.9864 H   0  0  0  0  0  0  0  0  0  0  0  0  # atno 10765 bound_to 10752
  140.2952  134.7641  157.3871 H   0  0  0  0  0  0  0  0  0  0  0  0  # atno 11005 bound_to 11000
  144.7105  139.8390  143.7416 LP  0  0  0  0  0  0  0  0  0  0  0  0  # atno 17320 bound_to 7965
  146.1163  139.4174  143.0256 LP  0  0  0  0  0  0  0  0  0  0  0  0  # atno 17321 bound_to 7965
  139.8041  143.8042  152.3165 LP  0  0  0  0  0  0  0  0  0  0  0  0  # atno 17342 bound_to 10162
  139.8069  144.7351  150.9749 LP  0  0  0  0  0  0  0  0  0  0  0  0  # atno 17343 bound_to 10162
  157.6743  130.9080  150.0113 LP  0  0  0  0  0  0  0  0  0  0  0  0  # atno 17370 bound_to 10713
  156.1351  130.3643  149.9669 LP  0  0  0  0  0  0  0  0  0  0  0  0  # atno 17371 bound_to 10713
  140.1159  134.5283  155.8225 LP  0  0  0  0  0  0  0  0  0  0  0  0  # atno 17394 bound_to 11000
  141.2139  133.6740  156.6776 LP  0  0  0  0  0  0  0  0  0  0  0  0  # atno 17395 bound_to 11000

$$$$
