#       Name:                AV-unprocessed.smi:2451
#       Creating user name   scv26
#       Creation time:       Fri Mar 27 13:31:57 2020


#       File generated by GOLD software.
#

@<TRIPOS>MOLECULE
AV-unprocessed.smi:2451
    41    42     1
SMALL
NO_CHARGES


@<TRIPOS>ATOM
      1 ****        -3.5691   0.2803   1.5315 C.3            1 S1                 0.0000
      2 ****        -2.5642  -0.8704   1.2866 C.3            1 S1                 0.0000
      3 ****        -2.8711  -1.6135  -0.0363 C.3            1 S1                 0.0000
      4 ****        -2.3821  -0.7907  -1.2452 C.3            1 S1                 0.0000
      5 ****        -0.8840  -0.4230  -1.1393 C.3            1 S1                 0.0000
      6 ****        -0.5154   0.3276   0.1653 C.3            1 S1                 0.0000
      7 ****         0.9318   0.4752   0.2402 N.pl3          1 S1                -1.0000
      8 ****         1.6288   1.8425  -0.2857 S.o2           1 S1                 0.0000
      9 ****         1.4124   2.0792  -1.7230 O.2            1 S1                 0.0000
     10 ****         1.3784   2.9709   0.6257 O.2            1 S1                 0.0000
     11 ****         3.4161   1.4201  -0.0839 C.3            1 S1                 0.0000
     12 ****         3.9050   0.6065  -1.2519 C.2            1 S1                 0.0000
     13 ****         3.5715  -0.7320  -1.6011 C.2            1 S1                 0.0000
     14 ****         4.2918  -0.9552  -2.7385 C.2            1 S1                 0.0000
     15 ****         5.0207   0.1425  -3.0622 O.3            1 S1                 0.0000
     16 ****         4.7704   1.1330  -2.1056 N.2            1 S1                 0.0000
     17 ****        -1.0519  -0.4705   1.3999 C.3            1 S1                 0.0000
     18 ****        -0.7514   0.2119   2.7565 C.3            1 S1                 0.0000
     19 ****        -3.4552   1.0907   0.8118 H              1 S1                 0.0000
     20 ****        -3.4582   0.7061   2.5283 H              1 S1                 0.0000
     21 ****        -4.5954  -0.0792   1.4553 H              1 S1                 0.0000
     22 ****        -2.7541  -1.5901   2.0843 H              1 S1                 0.0000
     23 ****        -2.3640  -2.5792  -0.0335 H              1 S1                 0.0000
     24 ****        -3.9367  -1.8271  -0.1251 H              1 S1                 0.0000
     25 ****        -2.5472  -1.3631  -2.1584 H              1 S1                 0.0000
     26 ****        -2.9866   0.1118  -1.3508 H              1 S1                 0.0000
     27 ****        -0.2985  -1.3414  -1.2084 H              1 S1                 0.0000
     28 ****        -0.6020   0.1783  -2.0043 H              1 S1                 0.0000
     29 ****        -1.0174   1.2961   0.1546 H              1 S1                 0.0000
     30 ****         3.9663   2.3583  -0.0117 H              1 S1                 0.0000
     31 ****         3.5491   0.8924   0.8600 H              1 S1                 0.0000
     32 ****         2.9004  -1.4138  -1.0999 H              1 S1                 0.0000
     33 ****         4.3895  -1.8025  -3.4007 H              1 S1                 0.0000
     34 ****        -0.5042  -1.4147   1.4145 H              1 S1                 0.0000
     35 ****        -1.1794   1.2132   2.8253 H              1 S1                 0.0000
     36 ****         0.3197   0.3016   2.9452 H              1 S1                 0.0000
     37 ****        -1.1620  -0.3734   3.5795 H              1 S1                 0.0000
     38 ****         1.4932  -0.2630   0.6142 LP             1 S1                 0.0000
     39 ****         4.7528   0.4715  -3.9678 LP             1 S1                 0.0000
     40 ****         5.9940  -0.0866  -3.0652 LP             1 S1                 0.0000
     41 ****         5.1646   2.0515  -2.0731 LP             1 S1                 0.0000
@<TRIPOS>BOND
    1    1    2 1     
    2    1   19 1     
    3    1   20 1     
    4    1   21 1     
    5    2   17 1     
    6    2    3 1     
    7    2   22 1     
    8    3    4 1     
    9    3   23 1     
   10    3   24 1     
   11    4    5 1     
   12    4   25 1     
   13    4   26 1     
   14    5    6 1     
   15    5   27 1     
   16    5   28 1     
   17    6    7 1     
   18    6   17 1     
   19    6   29 1     
   20    7    8 1     
   21    8    9 2     
   22    8   10 2     
   23    8   11 1     
   24   11   12 1     
   25   11   30 1     
   26   11   31 1     
   27   12   16 2     
   28   12   13 1     
   29   13   14 2     
   30   13   32 1     
   31   14   15 1     
   32   14   33 1     
   33   15   16 1     
   34   17   18 1     
   35   17   34 1     
   36   18   35 1     
   37   18   36 1     
   38   18   37 1     
   39    7   38 1     
   40   15   39 1     
   41   15   40 1     
   42   16   41 1     
@<TRIPOS>SUBSTRUCTURE
      1 S1             1
@<TRIPOS>SET
LONE_PAIRS      STATIC     ATOMS    <user>   **** ""
6 38 9 10 39 40 41
ATOM$BLUE        STATIC     ATOMS    COLORGROUP SYSTEM
6 38 9 10 39 40 41
