AV-unprocessed.smi:3102|AV-procd|sdf|11813|dock2
  -GOLD-   2272017183D 1   1.00000     0.00000
 Structure written by MMmdl.
 31 32  0  0  0  0  0  0  0  0  1 V2000
  153.1542  143.1416  162.7715 C   0  0  0  0  0  0  0  0  0  0  0  0
  153.4386  142.2215  161.7235 O   0  0  0  0  0  0  0  0  0  0  0  0
  152.7095  142.3135  160.5558 C   0  0  0  0  0  0  0  0  0  0  0  0
  152.4912  141.1446  159.8025 C   0  0  0  0  0  0  0  0  0  0  0  0
  151.7457  141.2335  158.6123 C   0  0  0  0  0  0  0  0  0  0  0  0
  151.2355  142.4892  158.2059 C   0  0  0  0  0  0  0  0  0  0  0  0
  150.4812  142.6587  157.0326 N   0  0  0  0  0  0  0  0  0  0  0  0
  149.9614  141.5191  156.2872 C   0  0  1  0  0  0  0  0  0  0  0  0
  149.2262  141.9049  155.0180 C   0  0  0  0  0  0  0  0  0  0  0  0
  149.2703  140.5998  154.2292 C   0  0  0  0  0  0  0  0  0  0  0  0
  150.4833  139.9558  154.6108 O   0  0  0  0  0  0  0  0  0  0  0  0
  151.0681  140.6330  155.7197 C   0  0  0  0  0  0  0  0  0  0  0  0
  151.5156  143.6061  159.0314 C   0  0  0  0  0  0  0  0  0  0  0  0
  151.0179  144.9972  158.6786 C   0  0  0  0  0  0  0  0  0  0  0  0
  152.2306  143.5225  160.1750 N   0  0  0  0  0  0  0  0  0  0  0  0
  153.8081  142.9366  163.6189 H   0  0  0  0  0  0  0  0  0  0  0  0
  152.1242  143.0453  163.1182 H   0  0  0  0  0  0  0  0  0  0  0  0
  153.3320  144.1714  162.4581 H   0  0  0  0  0  0  0  0  0  0  0  0
  152.8885  140.1957  160.1314 H   0  0  0  0  0  0  0  0  0  0  0  0
  151.5805  140.3380  158.0330 H   0  0  0  0  0  0  0  0  0  0  0  0
  150.0651  143.5619  156.8555 H   0  0  0  0  0  0  0  0  0  0  0  0
  149.3202  140.9074  156.9229 H   0  0  0  0  0  0  0  0  0  0  0  0
  148.2106  142.2603  155.1920 H   0  0  0  0  0  0  0  0  0  0  0  0
  149.7721  142.6819  154.4799 H   0  0  0  0  0  0  0  0  0  0  0  0
  148.4344  139.9578  154.5089 H   0  0  0  0  0  0  0  0  0  0  0  0
  149.2267  140.7634  153.1522 H   0  0  0  0  0  0  0  0  0  0  0  0
  151.8982  141.2362  155.3478 H   0  0  0  0  0  0  0  0  0  0  0  0
  151.4627  139.9317  156.4555 H   0  0  0  0  0  0  0  0  0  0  0  0
  149.9289  145.0087  158.6255 H   0  0  0  0  0  0  0  0  0  0  0  0
  151.4143  145.3081  157.7116 H   0  0  0  0  0  0  0  0  0  0  0  0
  151.3271  145.7341  159.4208 H   0  0  0  0  0  0  0  0  0  0  0  0
  1  2  1  0  0  0  0
  1 16  1  0  0  0  0
  1 17  1  0  0  0  0
  1 18  1  0  0  0  0
  2  3  1  0  0  0  0
  3 15  1  0  0  0  0
  3  4  2  0  0  0  0
  4  5  1  0  0  0  0
  4 19  1  0  0  0  0
  5  6  2  0  0  0  0
  5 20  1  0  0  0  0
  6  7  1  0  0  0  0
  6 13  1  0  0  0  0
  7  8  1  0  0  0  0
  7 21  1  0  0  0  0
  8 12  1  0  0  0  0
  8  9  1  0  0  0  0
  8 22  1  0  0  0  0
  9 10  1  0  0  0  0
  9 23  1  0  0  0  0
  9 24  1  0  0  0  0
 10 11  1  0  0  0  0
 10 25  1  0  0  0  0
 10 26  1  0  0  0  0
 11 12  1  0  0  0  0
 12 27  1  0  0  0  0
 12 28  1  0  0  0  0
 13 14  1  0  0  0  0
 13 15  2  0  0  0  0
 14 29  1  0  0  0  0
 14 30  1  0  0  0  0
 14 31  1  0  0  0  0
M  END
> <s_m_source_file>
AV-unprocessed.smi

> <i_m_source_file_index>
3102

> <i_lp_mmshare_version>
43012

> <i_f3d_flags>
0

> <s_epik_input>
W0NIM11PYzFbY0hdW2NIXWMoYyhuMSlbQ0gzXSlbTkhdW0NAQEhdMltDSDJdW0NIMl1PW0NIMl0y

> <s_epik_cmdline>
J2VwaWtfcHl0aG9uJywgJy1waCcsICc3LjAnLCAnLXRuJywgJzgnLCAnLW1hJywgJzIwMCcsICctbWV0YWxfYmluZGluZycsICctaW1hZScsICc8aW5maWxlLm1hZT4nLCAnLW9tYWUnLCAnPG91dGZpbGUubWFlPic=

> <r_lp_tautomer_probability>
1

> <r_epik_Ionization_Penalty>
0.00117248

> <r_epik_Ionization_Penalty_Charging>
0

> <r_epik_Ionization_Penalty_Neutral>
0.00117248

> <r_epik_State_Penalty>
0.000742146

> <r_epik_Charging_Adjusted_Penalty>
0.000742146

> <i_epik_Tot_Q>
0

> <i_epik_Tot_abs_Q>
0

> <r_epik_Metal_State_Penalty>
-0

> <b_epik_Metal_Only>
0

> <s_lp_Force_Field>
OPLS_2005

> <r_lp_Energy>
20.62

> <b_lp_Chiralities_Consistent>
1

> <s_lp_Variant>
AV-unprocessed.smi:3102-2

> <Gold.Version>
5.8.1

> <Gold.Id.Protein>
6NUR|6NUR_protein|mol2

> <Gold.PLP.Fitness>
37.3121

> <Gold.PLP.PLP>
-33.8194

> <Gold.PLP.part.hbond>
-2.0000

> <Gold.PLP.part.metal>
0.0000

> <Gold.PLP.part.buried>
-1.9021

> <Gold.PLP.part.nonpolar>
-29.7003

> <Gold.PLP.part.repulsive>
0.1626

> <Gold.PLP.ligand.clash>
0.0000

> <Gold.PLP.ligand.torsion>
0.4145

> <Gold.PLP.Chemscore.Hbond>
1.4333

> <Gold.PLP.Chemscore.CHOScore>
0.0000

> <Gold.PLP.Chemscore.Metal>
0.0000

> <Gold.Chemscore.Hbonds>
donor molecule, donor type, donor heavy atom, donor atom, acceptor molecule, acceptor atom, score
      L1  H     7    21       P1  8028  0.98
      P1  H  7989  7998       L1    11  0.41

> <Gold.PLP.Chemscore.Internal.Correction>
0.0217

> <Gold.Rescore>
     Score         DG    S(hbond)    S(metal)    S(lipo)     H(rot)  DE(clash)    DE(int)     intcor
     15.10     -15.81       0.98        0.00      86.36       1.18       0.26       0.46       ----

> <Gold.Chemscore.Fitness>
15.0951

> <Gold.Chemscore.DG>
-15.8087

> <Gold.Chemscore.ZeroCoef>
-5.4800

> <Gold.Chemscore.Hbond>
0.9753

> <Gold.Chemscore.Metal>
0.0000

> <Gold.Chemscore.Lipo>
86.3590

> <Gold.Chemscore.Internal_Hbond>
0.0000

> <Gold.Chemscore.DEClash>
0.2563

> <Gold.Chemscore.DEInternal>
0.4574

> <Gold.Chemscore.Rot>
1.1847

> <Gold.Chemscore.Internal.Correction>
   9.000000E+99

> <Gold.Chemscore.Hbonds>
donor molecule, donor type, donor heavy atom, donor atom, acceptor molecule, acceptor atom, score
      L1  H     7    21       P1  8028  0.87

> <Gold.Chemscore.Hbond.Weighted>
-3.2576

> <Gold.Chemscore.Metal.Weighted>
-0.0000

> <Gold.Chemscore.Lipo.Weighted>
-10.1040

> <Gold.Chemscore.Internal_Hbond.Weighted>
0.0000

> <Gold.Chemscore.DEClash.Weighted>
0.2563

> <Gold.Chemscore.DEInternal.Weighted>
0.4574

> <Gold.Chemscore.Rot.Weighted>
3.0328

> <Gold.Chemscore.Internal.Correction.Weighted>
   9.000000E+99

> <Gold.Protein.RotatedTorsions>
[ 6907 6896 6895 6894 ] final  -22.49 input  -60.11 | X-H torsion
[ 7974 7965 7964 7962 ] final   62.36 input  175.53 | X-H torsion
[ 8008 7997 7996 7995 ] final  -75.90 input   59.86 | X-H torsion
[ 10167 10162 10161 10158 ] final  -62.61 input  -65.29 | X-H torsion
[ 10718 10713 10712 10709 ] final   73.79 input   66.30 | X-H torsion
[ 10763 10752 10751 10750 ] final -119.62 input  -60.55 | X-H torsion
[ 11005 11000 10999 10996 ] final  128.17 input  -57.11 | X-H torsion

> <Gold.Protein.ActiveResidues>
 VAL166  LYS551  ARG553  GLY616  TRP617  ASP618  TYR619  PRO620  LYS621  CYS622 
 ASP623  PHE694  ASN695  SER759  ASP760  ASP761  ALA762  ILE779  LEU786  VAL792 
 PHE793  MET794  SER795  GLU796  ALA797  LYS798  CYS799  TRP800  GLU811  SER814 

> <Gold.Protein.RotatedAtoms>
  151.2178  135.0506  159.8937 H   0  0  0  0  0  0  0  0  0  0  0  0  # atno 6907 bound_to 6896
  152.5418  134.0674  159.8189 H   0  0  0  0  0  0  0  0  0  0  0  0  # atno 6908 bound_to 6896
  151.0836  133.5323  159.2651 H   0  0  0  0  0  0  0  0  0  0  0  0  # atno 6909 bound_to 6896
  145.8743  139.3399  143.0744 H   0  0  0  0  0  0  0  0  0  0  0  0  # atno 7974 bound_to 7965
  154.5457  140.0736  156.8585 H   0  0  0  0  0  0  0  0  0  0  0  0  # atno 8008 bound_to 7997
  155.3092  140.3389  155.4226 H   0  0  0  0  0  0  0  0  0  0  0  0  # atno 8009 bound_to 7997
  156.1916  140.1688  156.8067 H   0  0  0  0  0  0  0  0  0  0  0  0  # atno 8010 bound_to 7997
  140.5927  143.2345  151.6104 H   0  0  0  0  0  0  0  0  0  0  0  0  # atno 10167 bound_to 10162
  157.6563  130.9646  150.1119 H   0  0  0  0  0  0  0  0  0  0  0  0  # atno 10718 bound_to 10713
  154.8622  135.4232  154.2328 H   0  0  0  0  0  0  0  0  0  0  0  0  # atno 10763 bound_to 10752
  153.3310  135.6988  153.6954 H   0  0  0  0  0  0  0  0  0  0  0  0  # atno 10764 bound_to 10752
  153.5970  135.3544  155.2905 H   0  0  0  0  0  0  0  0  0  0  0  0  # atno 10765 bound_to 10752
  139.9546  134.9615  156.8963 H   0  0  0  0  0  0  0  0  0  0  0  0  # atno 11005 bound_to 11000
  145.9100  140.9186  143.0459 LP  0  0  0  0  0  0  0  0  0  0  0  0  # atno 17320 bound_to 7965
  144.6726  140.1147  143.7453 LP  0  0  0  0  0  0  0  0  0  0  0  0  # atno 17321 bound_to 7965
  139.5238  144.3123  152.0982 LP  0  0  0  0  0  0  0  0  0  0  0  0  # atno 17342 bound_to 10162
  140.2290  144.4388  150.6308 LP  0  0  0  0  0  0  0  0  0  0  0  0  # atno 17343 bound_to 10162
  156.2013  130.3660  149.8784 LP  0  0  0  0  0  0  0  0  0  0  0  0  # atno 17370 bound_to 10713
  156.6687  130.8811  151.3559 LP  0  0  0  0  0  0  0  0  0  0  0  0  # atno 17371 bound_to 10713
  140.5638  134.0509  155.7407 LP  0  0  0  0  0  0  0  0  0  0  0  0  # atno 17394 bound_to 11000
  141.1216  133.9452  157.2719 LP  0  0  0  0  0  0  0  0  0  0  0  0  # atno 17395 bound_to 11000

$$$$
