AV-unprocessed.smi:3137|AV-procd|sdf|11952|dock5
  -GOLD-   2272017353D 1   1.00000     0.00000
 Structure written by MMmdl.
 40 40  0  0  0  0  0  0  0  0  2 V2000
  143.1325  136.5391  153.9635 C   0  0  0  0  0  0  0  0  0  0  0  0
  143.1482  137.0946  152.5332 C   0  0  0  0  0  0  0  0  0  0  0  0
  144.2744  137.9959  152.3175 N   0  0  0  0  0  0  0  0  0  0  0  0
  145.5675  137.6582  152.4379 C   0  0  0  0  0  0  0  0  0  0  0  0
  145.9438  136.5310  152.7596 O   0  0  0  0  0  0  0  0  0  0  0  0
  146.5876  138.7656  152.1542 C   0  0  0  0  0  0  0  0  0  0  0  0
  147.4507  139.1103  153.3802 C   0  0  0  0  0  0  0  0  0  0  0  0
  148.8496  138.6768  153.1793 N   0  3  0  0  0  0  0  0  0  0  0  0
  149.7509  138.8792  154.3362 C   0  0  2  0  0  0  0  0  0  0  0  0
  149.2762  138.0013  155.5070 C   0  0  0  0  0  0  0  0  0  0  0  0
  149.8429  140.3760  154.7173 C   0  0  0  0  0  0  0  0  0  0  0  0
  150.6412  140.6163  155.9060 N   0  0  0  0  0  0  0  0  0  0  0  0
  150.8376  141.8009  156.5837 C   0  0  0  0  0  0  0  0  0  0  0  0
  151.6763  141.5413  157.6301 C   0  0  0  0  0  0  0  0  0  0  0  0
  152.1971  142.4885  158.6724 C   0  0  0  0  0  0  0  0  0  0  0  0
  151.9460  140.1491  157.5008 C   0  0  0  0  0  0  0  0  0  0  0  0
  151.3301  139.6000  156.4664 N   0  0  0  0  0  0  0  0  0  0  0  0
  142.2655  135.8968  154.1186 H   0  0  0  0  0  0  0  0  0  0  0  0
  143.0859  137.3428  154.6989 H   0  0  0  0  0  0  0  0  0  0  0  0
  144.0236  135.9460  154.1706 H   0  0  0  0  0  0  0  0  0  0  0  0
  143.1713  136.2790  151.8086 H   0  0  0  0  0  0  0  0  0  0  0  0
  142.2288  137.6495  152.3457 H   0  0  0  0  0  0  0  0  0  0  0  0
  144.0520  138.9441  152.0505 H   0  0  0  0  0  0  0  0  0  0  0  0
  147.2322  138.4516  151.3316 H   0  0  0  0  0  0  0  0  0  0  0  0
  146.0504  139.6511  151.8128 H   0  0  0  0  0  0  0  0  0  0  0  0
  147.4352  140.1861  153.5615 H   0  0  0  0  0  0  0  0  0  0  0  0
  147.0390  138.6262  154.2660 H   0  0  0  0  0  0  0  0  0  0  0  0
  148.8624  137.7000  152.9228 H   0  0  0  0  0  0  0  0  0  0  0  0
  150.7427  138.5257  154.0499 H   0  0  0  0  0  0  0  0  0  0  0  0
  149.9713  138.0387  156.3460 H   0  0  0  0  0  0  0  0  0  0  0  0
  149.1955  136.9564  155.2059 H   0  0  0  0  0  0  0  0  0  0  0  0
  148.2985  138.3195  155.8705 H   0  0  0  0  0  0  0  0  0  0  0  0
  150.2772  140.9604  153.9063 H   0  0  0  0  0  0  0  0  0  0  0  0
  148.8443  140.7793  154.8906 H   0  0  0  0  0  0  0  0  0  0  0  0
  150.3685  142.7219  156.2700 H   0  0  0  0  0  0  0  0  0  0  0  0
  153.1551  142.1596  159.0755 H   0  0  0  0  0  0  0  0  0  0  0  0
  151.5081  142.5786  159.5123 H   0  0  0  0  0  0  0  0  0  0  0  0
  152.3464  143.4904  158.2695 H   0  0  0  0  0  0  0  0  0  0  0  0
  152.5703  139.5253  158.1239 H   0  0  0  0  0  0  0  0  0  0  0  0
  149.2201  139.2140  152.4084 H   0  0  0  0  0  0  0  0  0  0  0  0
  1  2  1  0  0  0  0
  1 18  1  0  0  0  0
  1 19  1  0  0  0  0
  1 20  1  0  0  0  0
  2  3  1  0  0  0  0
  2 21  1  0  0  0  0
  2 22  1  0  0  0  0
  3  4  1  0  0  0  0
  3 23  1  0  0  0  0
  4  5  2  0  0  0  0
  4  6  1  0  0  0  0
  6  7  1  0  0  0  0
  6 24  1  0  0  0  0
  6 25  1  0  0  0  0
  7  8  1  0  0  0  0
  7 26  1  0  0  0  0
  7 27  1  0  0  0  0
  8  9  1  0  0  0  0
  8 28  1  0  0  0  0
  8 40  1  0  0  0  0
  9 10  1  0  0  0  0
  9 11  1  0  0  0  0
  9 29  1  0  0  0  0
 10 30  1  0  0  0  0
 10 31  1  0  0  0  0
 10 32  1  0  0  0  0
 11 12  1  0  0  0  0
 11 33  1  0  0  0  0
 11 34  1  0  0  0  0
 12 17  1  0  0  0  0
 12 13  1  0  0  0  0
 13 14  2  0  0  0  0
 13 35  1  0  0  0  0
 14 15  1  0  0  0  0
 14 16  1  0  0  0  0
 15 36  1  0  0  0  0
 15 37  1  0  0  0  0
 15 38  1  0  0  0  0
 16 17  2  0  0  0  0
 16 39  1  0  0  0  0
M  CHG  1   8   1
M  END
> <s_m_source_file>
AV-unprocessed.smi

> <i_m_source_file_index>
3137

> <i_lp_mmshare_version>
43012

> <i_f3d_flags>
0

> <s_epik_input>
W0NIM11bQ0gyXVtOSF1DKD1PKVtDSDJdW0NIMl1bTkhdW0NASF0oW0NIM10pW0NIMl1uMVtjSF1jKFtDSDNdKVtjSF1uMQ==

> <s_epik_cmdline>
J2VwaWtfcHl0aG9uJywgJy1waCcsICc3LjAnLCAnLXRuJywgJzgnLCAnLW1hJywgJzIwMCcsICctbWV0YWxfYmluZGluZycsICctaW1hZScsICc8aW5maWxlLm1hZT4nLCAnLW9tYWUnLCAnPG91dGZpbGUubWFlPic=

> <r_lp_tautomer_probability>
1

> <r_epik_Ionization_Penalty>
0.00598586

> <r_epik_Ionization_Penalty_Charging>
0.00597743

> <r_epik_Ionization_Penalty_Neutral>
8.43172e-06

> <r_epik_State_Penalty>
0.00439883

> <r_epik_Charging_Adjusted_Penalty>
0.0103763

> <i_epik_Tot_Q>
1

> <i_epik_Tot_abs_Q>
1

> <r_epik_Metal_State_Penalty>
-0

> <b_epik_Metal_Only>
0

> <s_lp_Force_Field>
OPLS_2005

> <r_lp_Energy>
5.54244

> <b_lp_Chiralities_Consistent>
1

> <s_lp_Variant>
AV-unprocessed.smi:3137-1

> <Gold.Version>
5.8.1

> <Gold.Id.Protein>
6NUR|6NUR_protein|mol2

> <Gold.PLP.Fitness>
46.6761

> <Gold.PLP.PLP>
-32.3411

> <Gold.PLP.part.hbond>
-4.0000

> <Gold.PLP.part.metal>
0.0000

> <Gold.PLP.part.buried>
-4.1503

> <Gold.PLP.part.nonpolar>
-25.6661

> <Gold.PLP.part.repulsive>
0.4996

> <Gold.PLP.ligand.clash>
0.0000

> <Gold.PLP.ligand.torsion>
0.4271

> <Gold.PLP.Chemscore.Hbond>
4.0000

> <Gold.PLP.Chemscore.CHOScore>
1.0000

> <Gold.PLP.Chemscore.Metal>
0.0000

> <Gold.Chemscore.Hbonds>
donor molecule, donor type, donor heavy atom, donor atom, acceptor molecule, acceptor atom, score
      L1  H     3    23       P1 10175  1.00
      L1  H     8    28       P1  7948  2.00
      L1  H     8    40       P1  7957  1.00
      L1  C    13    35       P1  8028  0.93

> <Gold.PLP.Chemscore.Internal.Correction>
0.1893

> <Gold.Rescore>
     Score         DG    S(hbond)    S(metal)    S(lipo)     H(rot)  DE(clash)    DE(int)     intcor
     15.65     -17.51       2.94        0.00      69.16       2.30       0.05       1.82       ----

> <Gold.Chemscore.Fitness>
15.6503

> <Gold.Chemscore.DG>
-17.5128

> <Gold.Chemscore.ZeroCoef>
-5.4800

> <Gold.Chemscore.Hbond>
2.9401

> <Gold.Chemscore.Metal>
0.0000

> <Gold.Chemscore.Lipo>
69.1571

> <Gold.Chemscore.Internal_Hbond>
0.0000

> <Gold.Chemscore.DEClash>
0.0454

> <Gold.Chemscore.DEInternal>
1.8171

> <Gold.Chemscore.Rot>
2.2963

> <Gold.Chemscore.Internal.Correction>
   9.000000E+99

> <Gold.Chemscore.Hbonds>
donor molecule, donor type, donor heavy atom, donor atom, acceptor molecule, acceptor atom, score
      L1  H     3    23       P1 10175  0.94
      L1  H     8    28       P1  7948  0.99
      L1  H     8    40       P1  7957  0.93

> <Gold.Chemscore.Hbond.Weighted>
-9.8200

> <Gold.Chemscore.Metal.Weighted>
-0.0000

> <Gold.Chemscore.Lipo.Weighted>
-8.0914

> <Gold.Chemscore.Internal_Hbond.Weighted>
0.0000

> <Gold.Chemscore.DEClash.Weighted>
0.0454

> <Gold.Chemscore.DEInternal.Weighted>
1.8171

> <Gold.Chemscore.Rot.Weighted>
5.8786

> <Gold.Chemscore.Internal.Correction.Weighted>
   9.000000E+99

> <Gold.Protein.RotatedTorsions>
[ 6907 6896 6895 6894 ] final  127.47 input  -60.11 | X-H torsion
[ 7974 7965 7964 7962 ] final  143.52 input  175.53 | X-H torsion
[ 8008 7997 7996 7995 ] final -174.79 input   59.86 | X-H torsion
[ 10167 10162 10161 10158 ] final -121.35 input  -65.29 | X-H torsion
[ 10718 10713 10712 10709 ] final  -38.32 input   66.30 | X-H torsion
[ 10763 10752 10751 10750 ] final  -42.31 input  -60.55 | X-H torsion
[ 11005 11000 10999 10996 ] final   49.20 input  -57.11 | X-H torsion

> <Gold.Protein.ActiveResidues>
 VAL166  LYS551  ARG553  GLY616  TRP617  ASP618  TYR619  PRO620  LYS621  CYS622 
 ASP623  PHE694  ASN695  SER759  ASP760  ASP761  ALA762  ILE779  LEU786  VAL792 
 PHE793  MET794  SER795  GLU796  ALA797  LYS798  CYS799  TRP800  GLU811  SER814 

> <Gold.Protein.RotatedAtoms>
  152.3809  133.6545  159.6160 H   0  0  0  0  0  0  0  0  0  0  0  0  # atno 6907 bound_to 6896
  150.7740  133.9115  159.3380 H   0  0  0  0  0  0  0  0  0  0  0  0  # atno 6908 bound_to 6896
  151.6921  135.0946  160.0287 H   0  0  0  0  0  0  0  0  0  0  0  0  # atno 6909 bound_to 6896
  144.8914  139.5553  143.5797 H   0  0  0  0  0  0  0  0  0  0  0  0  # atno 7974 bound_to 7965
  155.9744  140.1169  157.0783 H   0  0  0  0  0  0  0  0  0  0  0  0  # atno 8008 bound_to 7997
  154.4165  140.1157  156.5418 H   0  0  0  0  0  0  0  0  0  0  0  0  # atno 8009 bound_to 7997
  155.6553  140.3473  155.4765 H   0  0  0  0  0  0  0  0  0  0  0  0  # atno 8010 bound_to 7997
  140.0260  143.5296  152.2199 H   0  0  0  0  0  0  0  0  0  0  0  0  # atno 10167 bound_to 10162
  156.3051  130.4245  149.8105 H   0  0  0  0  0  0  0  0  0  0  0  0  # atno 10718 bound_to 10713
  153.9770  135.6721  153.4749 H   0  0  0  0  0  0  0  0  0  0  0  0  # atno 10763 bound_to 10752
  153.0766  135.4945  154.8414 H   0  0  0  0  0  0  0  0  0  0  0  0  # atno 10764 bound_to 10752
  154.7187  135.3112  154.9044 H   0  0  0  0  0  0  0  0  0  0  0  0  # atno 10765 bound_to 10752
  140.1124  134.4937  155.8666 H   0  0  0  0  0  0  0  0  0  0  0  0  # atno 11005 bound_to 11000
  146.3056  139.7568  142.9059 LP  0  0  0  0  0  0  0  0  0  0  0  0  # atno 17320 bound_to 7965
  145.3777  141.0353  143.3195 LP  0  0  0  0  0  0  0  0  0  0  0  0  # atno 17321 bound_to 7965
  139.6108  144.7608  151.2957 LP  0  0  0  0  0  0  0  0  0  0  0  0  # atno 17342 bound_to 10162
  140.7322  143.6829  150.7986 LP  0  0  0  0  0  0  0  0  0  0  0  0  # atno 17343 bound_to 10162
  156.5469  130.8324  151.3287 LP  0  0  0  0  0  0  0  0  0  0  0  0  # atno 17370 bound_to 10713
  157.7377  130.9801  150.2211 LP  0  0  0  0  0  0  0  0  0  0  0  0  # atno 17371 bound_to 10713
  141.2133  133.6732  156.6731 LP  0  0  0  0  0  0  0  0  0  0  0  0  # atno 17394 bound_to 11000
  140.3073  134.8115  157.4147 LP  0  0  0  0  0  0  0  0  0  0  0  0  # atno 17395 bound_to 11000

$$$$
