AV-unprocessed.smi:1987|AV-procd|sdf|8057|dock5
  -GOLD-   2272010263D 1   1.00000     0.00000
 Structure written by MMmdl.
 37 39  0  0  0  0  0  0  0  0  2 V2000
  149.9386  136.5558  159.1474 O   0  0  0  0  0  0  0  0  0  0  0  0
  149.6323  137.1528  158.1161 C   0  0  0  0  0  0  0  0  0  0  0  0
  149.6572  138.6799  158.0758 C   0  0  0  0  0  0  0  0  0  0  0  0
  150.5110  139.1329  156.9930 N   0  0  0  0  0  0  0  0  0  0  0  0
  150.2341  139.8401  155.8955 C   0  0  0  0  0  0  0  0  0  0  0  0
  151.3249  140.0893  155.1870 N   0  0  0  0  0  0  0  0  0  0  0  0
  152.3253  139.4750  155.9212 N   0  0  0  0  0  0  0  0  0  0  0  0
  151.8489  138.9067  156.9944 N   0  0  0  0  0  0  0  0  0  0  0  0
  149.3156  136.5357  156.9676 N   0  0  0  0  0  0  0  0  0  0  0  0
  149.4414  135.1049  156.7193 C   0  0  0  0  0  0  0  0  0  0  0  0
  149.3098  134.7792  155.2174 C   0  0  1  0  0  0  0  0  0  0  0  0
  149.7444  133.3658  154.8364 C   0  0  0  0  0  0  0  0  0  0  0  0
  149.0249  133.0934  153.5079 C   0  0  0  0  0  0  0  0  0  0  0  0
  147.9311  134.0874  153.3997 N   0  3  1  0  0  0  0  0  0  0  0  0
  146.6296  133.5227  152.9856 C   0  0  0  0  0  0  0  0  0  0  0  0
  146.6654  132.8517  151.6337 C   0  0  0  0  0  0  0  0  0  0  0  0
  146.0271  134.2156  151.7867 C   0  0  0  0  0  0  0  0  0  0  0  0
  147.8823  134.8353  154.6707 C   0  0  0  0  0  0  0  0  0  0  0  0
  148.6492  139.0746  157.9373 H   0  0  0  0  0  0  0  0  0  0  0  0
  150.0381  139.0775  159.0175 H   0  0  0  0  0  0  0  0  0  0  0  0
  149.2458  140.1838  155.6272 H   0  0  0  0  0  0  0  0  0  0  0  0
  149.0571  137.1122  156.1793 H   0  0  0  0  0  0  0  0  0  0  0  0
  150.3922  134.7382  157.1090 H   0  0  0  0  0  0  0  0  0  0  0  0
  148.6577  134.5993  157.2842 H   0  0  0  0  0  0  0  0  0  0  0  0
  149.9180  135.4820  154.6454 H   0  0  0  0  0  0  0  0  0  0  0  0
  150.8272  133.2660  154.7563 H   0  0  0  0  0  0  0  0  0  0  0  0
  149.4004  132.6536  155.5877 H   0  0  0  0  0  0  0  0  0  0  0  0
  149.7003  133.2312  152.6630 H   0  0  0  0  0  0  0  0  0  0  0  0
  148.6553  132.0674  153.4703 H   0  0  0  0  0  0  0  0  0  0  0  0
  145.9908  133.1389  153.7794 H   0  0  0  0  0  0  0  0  0  0  0  0
  147.6182  132.7982  151.1098 H   0  0  0  0  0  0  0  0  0  0  0  0
  145.9998  132.0056  151.4752 H   0  0  0  0  0  0  0  0  0  0  0  0
  144.9418  134.2675  151.7298 H   0  0  0  0  0  0  0  0  0  0  0  0
  146.5557  135.0688  151.3646 H   0  0  0  0  0  0  0  0  0  0  0  0
  147.1975  134.3429  155.3637 H   0  0  0  0  0  0  0  0  0  0  0  0
  147.5297  135.8558  154.5153 H   0  0  0  0  0  0  0  0  0  0  0  0
  148.2168  134.7466  152.6898 H   0  0  0  0  0  0  0  0  0  0  0  0
  1  2  2  0  0  0  0
  2  3  1  0  0  0  0
  2  9  1  0  0  0  0
  3  4  1  0  0  0  0
  3 19  1  0  0  0  0
  3 20  1  0  0  0  0
  4  8  1  0  0  0  0
  4  5  1  0  0  0  0
  5  6  2  0  0  0  0
  5 21  1  0  0  0  0
  6  7  1  0  0  0  0
  7  8  2  0  0  0  0
  9 10  1  0  0  0  0
  9 22  1  0  0  0  0
 10 11  1  0  0  0  0
 10 23  1  0  0  0  0
 10 24  1  0  0  0  0
 11 18  1  0  0  0  0
 11 12  1  0  0  0  0
 11 25  1  0  0  0  0
 12 13  1  0  0  0  0
 12 26  1  0  0  0  0
 12 27  1  0  0  0  0
 13 14  1  0  0  0  0
 13 28  1  0  0  0  0
 13 29  1  0  0  0  0
 14 15  1  0  0  0  0
 14 18  1  0  0  0  0
 14 37  1  0  0  0  0
 15 17  1  0  0  0  0
 15 16  1  0  0  0  0
 15 30  1  0  0  0  0
 16 17  1  0  0  0  0
 16 31  1  0  0  0  0
 16 32  1  0  0  0  0
 17 33  1  0  0  0  0
 17 34  1  0  0  0  0
 18 35  1  0  0  0  0
 18 36  1  0  0  0  0
M  CHG  1  14   1
M  END
> <s_m_source_file>
AV-unprocessed.smi

> <i_m_source_file_index>
1987

> <i_lp_mmshare_version>
43012

> <i_f3d_flags>
0

> <s_epik_input>
bjFubltjSF1uMVtDSDJdQyg9TylbTkhdW0NIMl1bQ0BASF0yW0NIMl1bQ0gyXU4oW0NIMl0yKVtDSF0zW0NIMl1bQ0gyXTM=

> <s_epik_cmdline>
J2VwaWtfcHl0aG9uJywgJy1waCcsICc3LjAnLCAnLXRuJywgJzgnLCAnLW1hJywgJzIwMCcsICctbWV0YWxfYmluZGluZycsICctaW1hZScsICc8aW5maWxlLm1hZT4nLCAnLW9tYWUnLCAnPG91dGZpbGUubWFlPic=

> <r_lp_tautomer_probability>
1

> <r_epik_Ionization_Penalty>
0.000242849

> <r_epik_Ionization_Penalty_Charging>
0.000241326

> <r_epik_Ionization_Penalty_Neutral>
1.52322e-06

> <r_epik_State_Penalty>
-0

> <r_epik_Charging_Adjusted_Penalty>
0.000241326

> <i_epik_Tot_Q>
1

> <i_epik_Tot_abs_Q>
1

> <r_epik_Metal_State_Penalty>
-0

> <b_epik_Metal_Only>
0

> <s_lp_Force_Field>
OPLS_2005

> <r_lp_Energy>
37.5901

> <b_lp_Chiralities_Consistent>
1

> <s_lp_Variant>
AV-unprocessed.smi:1987-4

> <Gold.Version>
5.8.1

> <Gold.Id.Protein>
6NUR|6NUR_protein|mol2

> <Gold.PLP.Fitness>
39.9446

> <Gold.PLP.PLP>
-25.7289

> <Gold.PLP.part.hbond>
-4.0000

> <Gold.PLP.part.metal>
0.0000

> <Gold.PLP.part.buried>
-4.6694

> <Gold.PLP.part.nonpolar>
-16.8389

> <Gold.PLP.part.repulsive>
0.0812

> <Gold.PLP.ligand.clash>
0.0000

> <Gold.PLP.ligand.torsion>
0.9503

> <Gold.PLP.Chemscore.Hbond>
4.9440

> <Gold.PLP.Chemscore.CHOScore>
0.0000

> <Gold.PLP.Chemscore.Metal>
0.0000

> <Gold.Chemscore.Hbonds>
donor molecule, donor type, donor heavy atom, donor atom, acceptor molecule, acceptor atom, score
      L1  H    14    37       P1  7948  2.00
      P1  H  6896  6909       L1     1  1.00
      P1  H  7989  7998       L1     6  1.00
      P1  H  7997  8010       L1     7  0.59

> <Gold.PLP.Chemscore.Internal.Correction>
1.2843

> <Gold.Rescore>
     Score         DG    S(hbond)    S(metal)    S(lipo)     H(rot)  DE(clash)    DE(int)     intcor
     14.72     -15.74       3.70        0.00      39.56       2.62       0.00       1.01       ----

> <Gold.Chemscore.Fitness>
14.7248

> <Gold.Chemscore.DG>
-15.7364

> <Gold.Chemscore.ZeroCoef>
-5.4800

> <Gold.Chemscore.Hbond>
3.6967

> <Gold.Chemscore.Metal>
0.0000

> <Gold.Chemscore.Lipo>
39.5560

> <Gold.Chemscore.Internal_Hbond>
0.0000

> <Gold.Chemscore.DEClash>
0.0000

> <Gold.Chemscore.DEInternal>
1.0116

> <Gold.Chemscore.Rot>
2.6244

> <Gold.Chemscore.Internal.Correction>
   9.000000E+99

> <Gold.Chemscore.Hbonds>
donor molecule, donor type, donor heavy atom, donor atom, acceptor molecule, acceptor atom, score
      L1  H    14    37       P1  7948  0.55
      P1  H  6896  6909       L1     1  0.94
      P1  H  7989  7998       L1     6  0.97
      P1  H  7997  8010       L1     7  0.54

> <Gold.Chemscore.Hbond.Weighted>
-12.3469

> <Gold.Chemscore.Metal.Weighted>
-0.0000

> <Gold.Chemscore.Lipo.Weighted>
-4.6281

> <Gold.Chemscore.Internal_Hbond.Weighted>
0.0000

> <Gold.Chemscore.DEClash.Weighted>
0.0000

> <Gold.Chemscore.DEInternal.Weighted>
1.0116

> <Gold.Chemscore.Rot.Weighted>
6.7186

> <Gold.Chemscore.Internal.Correction.Weighted>
   9.000000E+99

> <Gold.Protein.RotatedTorsions>
[ 6907 6896 6895 6894 ] final   93.11 input  -60.11 | X-H torsion
[ 7974 7965 7964 7962 ] final   97.74 input  175.53 | X-H torsion
[ 8008 7997 7996 7995 ] final   98.47 input   59.86 | X-H torsion
[ 10167 10162 10161 10158 ] final  170.00 input  -65.29 | X-H torsion
[ 10718 10713 10712 10709 ] final -121.76 input   66.30 | X-H torsion
[ 10763 10752 10751 10750 ] final -160.40 input  -60.55 | X-H torsion
[ 11005 11000 10999 10996 ] final   39.35 input  -57.11 | X-H torsion

> <Gold.Protein.ActiveResidues>
 VAL166  LYS551  ARG553  GLY616  TRP617  ASP618  TYR619  PRO620  LYS621  CYS622 
 ASP623  PHE694  ASN695  SER759  ASP760  ASP761  ALA762  ILE779  LEU786  VAL792 
 PHE793  MET794  SER795  GLU796  ALA797  LYS798  CYS799  TRP800  GLU811  SER814 

> <Gold.Protein.RotatedAtoms>
  152.5453  134.1398  159.8473 H   0  0  0  0  0  0  0  0  0  0  0  0  # atno 6907 bound_to 6896
  151.1435  133.4948  159.2604 H   0  0  0  0  0  0  0  0  0  0  0  0  # atno 6908 bound_to 6896
  151.1548  135.0255  159.8739 H   0  0  0  0  0  0  0  0  0  0  0  0  # atno 6909 bound_to 6896
  145.4215  139.2321  143.3194 H   0  0  0  0  0  0  0  0  0  0  0  0  # atno 7974 bound_to 7965
  156.1008  140.3243  155.7939 H   0  0  0  0  0  0  0  0  0  0  0  0  # atno 8008 bound_to 7997
  155.4840  140.0556  157.2980 H   0  0  0  0  0  0  0  0  0  0  0  0  # atno 8009 bound_to 7997
  154.4695  140.2005  156.0045 H   0  0  0  0  0  0  0  0  0  0  0  0  # atno 8010 bound_to 7997
  139.5007  144.3644  151.9791 H   0  0  0  0  0  0  0  0  0  0  0  0  # atno 10167 bound_to 10162
  156.1364  130.6433  150.9702 H   0  0  0  0  0  0  0  0  0  0  0  0  # atno 10718 bound_to 10713
  154.7394  135.3065  154.8755 H   0  0  0  0  0  0  0  0  0  0  0  0  # atno 10763 bound_to 10752
  153.9574  135.6757  153.4749 H   0  0  0  0  0  0  0  0  0  0  0  0  # atno 10764 bound_to 10752
  153.0994  135.4919  154.8762 H   0  0  0  0  0  0  0  0  0  0  0  0  # atno 10765 bound_to 10752
  140.2037  134.3839  155.8083 H   0  0  0  0  0  0  0  0  0  0  0  0  # atno 11005 bound_to 11000
  146.2654  140.4940  142.8836 LP  0  0  0  0  0  0  0  0  0  0  0  0  # atno 17320 bound_to 7965
  144.8242  140.6601  143.6333 LP  0  0  0  0  0  0  0  0  0  0  0  0  # atno 17321 bound_to 7965
  140.3080  144.3570  150.6041 LP  0  0  0  0  0  0  0  0  0  0  0  0  # atno 17342 bound_to 10162
  140.5821  143.2172  151.7409 LP  0  0  0  0  0  0  0  0  0  0  0  0  # atno 17343 bound_to 10162
  157.6536  131.0893  150.7998 LP  0  0  0  0  0  0  0  0  0  0  0  0  # atno 17370 bound_to 10713
  156.8077  130.4942  149.5360 LP  0  0  0  0  0  0  0  0  0  0  0  0  # atno 17371 bound_to 10713
  141.2227  133.7107  156.8301 LP  0  0  0  0  0  0  0  0  0  0  0  0  # atno 17394 bound_to 11000
  140.2026  134.8886  157.3186 LP  0  0  0  0  0  0  0  0  0  0  0  0  # atno 17395 bound_to 11000

$$$$
