AV-unprocessed.smi:23|AV-procd|sdf|174|dock4
  -GOLD-   2262015433D 1   1.00000     0.00000
 Structure written by MMmdl.
 53 56  0  0  0  0  0  0  0  0  1 V2000
  149.9382  145.3550  160.3014 C   0  0  0  0  0  0  0  0  0  0  0  0
  151.0276  145.3450  159.3860 O   0  0  0  0  0  0  0  0  0  0  0  0
  151.5975  144.0880  159.0056 C   0  0  2  0  0  0  0  0  0  0  0  0
  152.6526  144.5016  157.9597 C   0  0  0  0  0  0  0  0  0  0  0  0
  150.5222  143.1611  158.3818 C   0  0  0  0  0  0  0  0  0  0  0  0
  151.0973  141.7762  158.0351 C   0  0  0  0  0  0  0  0  0  0  0  0
  151.8006  141.1463  159.2491 C   0  0  0  0  0  0  0  0  0  0  0  0
  152.7956  142.0628  159.8068 N   0  0  0  0  0  0  0  0  0  0  0  0
  153.7454  141.5517  160.6292 C   0  0  0  0  0  0  0  0  0  0  0  0
  154.4949  140.4916  160.2245 N   0  0  0  0  0  0  0  0  0  0  0  0
  155.4228  139.9737  161.0345 C   0  0  0  0  0  0  0  0  0  0  0  0
  155.7645  140.3579  162.2658 N   0  0  0  0  0  0  0  0  0  0  0  0
  155.0252  141.4291  162.6735 C   0  0  0  0  0  0  0  0  0  0  0  0
  154.0012  142.0780  161.9269 C   0  0  0  0  0  0  0  0  0  0  0  0
  153.4675  143.1259  162.6681 N   0  0  0  0  0  0  0  0  0  0  0  0
  154.1261  143.0872  163.7941 C   0  0  0  0  0  0  0  0  0  0  0  0
  155.1016  142.1185  163.8715 N   0  0  0  0  0  0  0  0  0  0  0  0
  155.9395  141.8328  164.9998 C   0  0  0  0  0  0  0  0  0  0  0  0
  155.3386  141.4318  166.3507 C   0  0  0  0  0  0  0  0  0  0  0  0
  156.4441  142.2177  167.0902 C   0  0  0  0  0  0  0  0  0  0  0  0
  155.9513  143.1202  168.2318 C   0  0  0  0  0  0  0  0  0  0  0  0
  155.3510  142.3649  169.2647 O   0  0  0  0  0  0  0  0  0  0  0  0
  157.6406  141.4070  167.6369 C   0  0  0  0  0  0  0  0  0  0  0  0
  157.2752  140.4571  168.6174 O   0  0  0  0  0  0  0  0  0  0  0  0
  156.6685  142.9523  165.7494 C   0  0  0  0  0  0  0  0  0  0  0  0
  152.2812  143.3755  160.1987 C   0  0  0  0  0  0  0  0  0  0  0  0
  149.6071  146.3847  160.4362 H   0  0  0  0  0  0  0  0  0  0  0  0
  150.2245  144.9837  161.2846 H   0  0  0  0  0  0  0  0  0  0  0  0
  149.0805  144.7887  159.9422 H   0  0  0  0  0  0  0  0  0  0  0  0
  153.2115  143.6497  157.5736 H   0  0  0  0  0  0  0  0  0  0  0  0
  153.3794  145.1910  158.3906 H   0  0  0  0  0  0  0  0  0  0  0  0
  152.1897  145.0032  157.1093 H   0  0  0  0  0  0  0  0  0  0  0  0
  149.7003  143.0063  159.0793 H   0  0  0  0  0  0  0  0  0  0  0  0
  150.0877  143.6224  157.4943 H   0  0  0  0  0  0  0  0  0  0  0  0
  150.2997  141.1189  157.6878 H   0  0  0  0  0  0  0  0  0  0  0  0
  151.8004  141.8595  157.2065 H   0  0  0  0  0  0  0  0  0  0  0  0
  151.0680  140.9015  160.0195 H   0  0  0  0  0  0  0  0  0  0  0  0
  152.2757  140.2119  158.9471 H   0  0  0  0  0  0  0  0  0  0  0  0
  155.9708  139.1311  160.6392 H   0  0  0  0  0  0  0  0  0  0  0  0
  153.9204  143.7750  164.6015 H   0  0  0  0  0  0  0  0  0  0  0  0
  156.6469  141.0774  164.6559 H   0  0  0  0  0  0  0  0  0  0  0  0
  154.3455  141.8566  166.5077 H   0  0  0  0  0  0  0  0  0  0  0  0
  155.3359  140.3581  166.5409 H   0  0  0  0  0  0  0  0  0  0  0  0
  156.7681  143.7083  168.6516 H   0  0  0  0  0  0  0  0  0  0  0  0
  155.2114  143.8353  167.8710 H   0  0  0  0  0  0  0  0  0  0  0  0
  155.4053  142.8584  170.0688 H   0  0  0  0  0  0  0  0  0  0  0  0
  158.1439  140.8721  166.8308 H   0  0  0  0  0  0  0  0  0  0  0  0
  158.3849  142.0649  168.0863 H   0  0  0  0  0  0  0  0  0  0  0  0
  156.5072  139.9955  168.3168 H   0  0  0  0  0  0  0  0  0  0  0  0
  157.7134  143.0773  165.4628 H   0  0  0  0  0  0  0  0  0  0  0  0
  156.1357  143.9028  165.6890 H   0  0  0  0  0  0  0  0  0  0  0  0
  153.0635  144.0125  160.6108 H   0  0  0  0  0  0  0  0  0  0  0  0
  151.5676  143.2022  161.0039 H   0  0  0  0  0  0  0  0  0  0  0  0
  1  2  1  0  0  0  0
  1 27  1  0  0  0  0
  1 28  1  0  0  0  0
  1 29  1  0  0  0  0
  2  3  1  0  0  0  0
  3 26  1  0  0  0  0
  3  4  1  0  0  0  0
  3  5  1  0  0  0  0
  4 30  1  0  0  0  0
  4 31  1  0  0  0  0
  4 32  1  0  0  0  0
  5  6  1  0  0  0  0
  5 33  1  0  0  0  0
  5 34  1  0  0  0  0
  6  7  1  0  0  0  0
  6 35  1  0  0  0  0
  6 36  1  0  0  0  0
  7  8  1  0  0  0  0
  7 37  1  0  0  0  0
  7 38  1  0  0  0  0
  8  9  1  0  0  0  0
  8 26  1  0  0  0  0
  9 14  1  0  0  0  0
  9 10  2  0  0  0  0
 10 11  1  0  0  0  0
 11 12  2  0  0  0  0
 11 39  1  0  0  0  0
 12 13  1  0  0  0  0
 13 17  1  0  0  0  0
 13 14  2  0  0  0  0
 14 15  1  0  0  0  0
 15 16  2  0  0  0  0
 16 17  1  0  0  0  0
 16 40  1  0  0  0  0
 17 18  1  0  0  0  0
 18 25  1  0  0  0  0
 18 19  1  0  0  0  0
 18 41  1  0  0  0  0
 19 20  1  0  0  0  0
 19 42  1  0  0  0  0
 19 43  1  0  0  0  0
 20 21  1  0  0  0  0
 20 23  1  0  0  0  0
 20 25  1  0  0  0  0
 21 22  1  0  0  0  0
 21 44  1  0  0  0  0
 21 45  1  0  0  0  0
 22 46  1  0  0  0  0
 23 24  1  0  0  0  0
 23 47  1  0  0  0  0
 23 48  1  0  0  0  0
 24 49  1  0  0  0  0
 25 50  1  0  0  0  0
 25 51  1  0  0  0  0
 26 52  1  0  0  0  0
 26 53  1  0  0  0  0
M  END
> <s_m_source_file>
AV-unprocessed.smi

> <i_m_source_file_index>
23

> <i_lp_mmshare_version>
43012

> <i_f3d_flags>
0

> <s_epik_input>
W0NIM11PW0NAQF0xKFtDSDNdKVtDSDJdW0NIMl1bQ0gyXU4oW0NIMl0xKWMobltjSF1uMiljKGMyMyluW2NIXW4zW0NIXShbQ0gyXTQpW0NIMl1DNChbQ0gyXVtPSF0pW0NIMl1bT0hd

> <s_epik_cmdline>
J2VwaWtfcHl0aG9uJywgJy1waCcsICc3LjAnLCAnLXRuJywgJzgnLCAnLW1hJywgJzIwMCcsICctbWV0YWxfYmluZGluZycsICctaW1hZScsICc8aW5maWxlLm1hZT4nLCAnLW9tYWUnLCAnPG91dGZpbGUubWFlPic=

> <r_lp_tautomer_probability>
1

> <r_epik_Ionization_Penalty>
0.00233978

> <r_epik_Ionization_Penalty_Charging>
0

> <r_epik_Ionization_Penalty_Neutral>
0.00233978

> <r_epik_State_Penalty>
0.00146422

> <r_epik_Charging_Adjusted_Penalty>
0.00146422

> <i_epik_Tot_Q>
0

> <i_epik_Tot_abs_Q>
0

> <r_epik_Metal_State_Penalty>
-0

> <b_epik_Metal_Only>
0

> <s_lp_Force_Field>
OPLS_2005

> <r_lp_Energy>
49.2291

> <b_lp_Chiralities_Consistent>
1

> <s_lp_Variant>
AV-unprocessed.smi:23-2

> <Gold.Version>
5.8.1

> <Gold.Id.Protein>
6NUR|6NUR_protein|mol2

> <Gold.PLP.Fitness>
48.3696

> <Gold.PLP.PLP>
-48.7390

> <Gold.PLP.part.hbond>
-3.2383

> <Gold.PLP.part.metal>
0.0000

> <Gold.PLP.part.buried>
-2.4940

> <Gold.PLP.part.nonpolar>
-42.1429

> <Gold.PLP.part.repulsive>
0.2864

> <Gold.PLP.ligand.clash>
0.0000

> <Gold.PLP.ligand.torsion>
0.6317

> <Gold.PLP.Chemscore.Hbond>
0.0000

> <Gold.PLP.Chemscore.CHOScore>
0.0000

> <Gold.PLP.Chemscore.Metal>
0.0000

> <Gold.PLP.Chemscore.Internal.Correction>
0.8939

> <Gold.Rescore>
     Score         DG    S(hbond)    S(metal)    S(lipo)     H(rot)  DE(clash)    DE(int)     intcor
      5.37      -8.83       0.00        0.00     102.69       3.38       1.51       1.95       ----

> <Gold.Chemscore.Fitness>
5.3716

> <Gold.Chemscore.DG>
-8.8330

> <Gold.Chemscore.ZeroCoef>
-5.4800

> <Gold.Chemscore.Hbond>
0.0000

> <Gold.Chemscore.Metal>
0.0000

> <Gold.Chemscore.Lipo>
102.6947

> <Gold.Chemscore.Internal_Hbond>
0.0000

> <Gold.Chemscore.DEClash>
1.5079

> <Gold.Chemscore.DEInternal>
1.9535

> <Gold.Chemscore.Rot>
3.3837

> <Gold.Chemscore.Internal.Correction>
   9.000000E+99

> <Gold.Chemscore.Hbond.Weighted>
-0.0000

> <Gold.Chemscore.Metal.Weighted>
-0.0000

> <Gold.Chemscore.Lipo.Weighted>
-12.0153

> <Gold.Chemscore.Internal_Hbond.Weighted>
0.0000

> <Gold.Chemscore.DEClash.Weighted>
1.5079

> <Gold.Chemscore.DEInternal.Weighted>
1.9535

> <Gold.Chemscore.Rot.Weighted>
8.6622

> <Gold.Chemscore.Internal.Correction.Weighted>
   9.000000E+99

> <Gold.Protein.RotatedTorsions>
[ 6907 6896 6895 6894 ] final   14.27 input  -60.11 | X-H torsion
[ 7974 7965 7964 7962 ] final -129.79 input  175.53 | X-H torsion
[ 8008 7997 7996 7995 ] final  140.19 input   59.86 | X-H torsion
[ 10167 10162 10161 10158 ] final  -13.53 input  -65.29 | X-H torsion
[ 10718 10713 10712 10709 ] final   68.30 input   66.30 | X-H torsion
[ 10763 10752 10751 10750 ] final   51.74 input  -60.55 | X-H torsion
[ 11005 11000 10999 10996 ] final   81.57 input  -57.11 | X-H torsion

> <Gold.Protein.ActiveResidues>
 VAL166  LYS551  ARG553  GLY616  TRP617  ASP618  TYR619  PRO620  LYS621  CYS622 
 ASP623  PHE694  ASN695  SER759  ASP760  ASP761  ALA762  ILE779  LEU786  VAL792 
 PHE793  MET794  SER795  GLU796  ALA797  LYS798  CYS799  TRP800  GLU811  SER814 

> <Gold.Protein.RotatedAtoms>
  151.7995  135.0713  160.0398 H   0  0  0  0  0  0  0  0  0  0  0  0  # atno 6907 bound_to 6896
  152.3099  133.5738  159.5682 H   0  0  0  0  0  0  0  0  0  0  0  0  # atno 6908 bound_to 6896
  150.7315  134.0083  159.3703 H   0  0  0  0  0  0  0  0  0  0  0  0  # atno 6909 bound_to 6896
  144.9537  140.7373  143.4772 H   0  0  0  0  0  0  0  0  0  0  0  0  # atno 7974 bound_to 7965
  156.2982  140.2348  156.4360 H   0  0  0  0  0  0  0  0  0  0  0  0  # atno 8008 bound_to 7997
  154.8228  140.0437  157.1443 H   0  0  0  0  0  0  0  0  0  0  0  0  # atno 8009 bound_to 7997
  154.9296  140.3015  155.5178 H   0  0  0  0  0  0  0  0  0  0  0  0  # atno 8010 bound_to 7997
  140.7184  143.5416  150.9402 H   0  0  0  0  0  0  0  0  0  0  0  0  # atno 10167 bound_to 10162
  157.6281  130.9366  150.0359 H   0  0  0  0  0  0  0  0  0  0  0  0  # atno 10718 bound_to 10713
  152.9786  135.5836  154.4465 H   0  0  0  0  0  0  0  0  0  0  0  0  # atno 10763 bound_to 10752
  154.4059  135.2769  155.2069 H   0  0  0  0  0  0  0  0  0  0  0  0  # atno 10764 bound_to 10752
  154.3880  135.6132  153.5881 H   0  0  0  0  0  0  0  0  0  0  0  0  # atno 10765 bound_to 10752
  139.9093  134.8007  156.2059 H   0  0  0  0  0  0  0  0  0  0  0  0  # atno 11005 bound_to 11000
  145.2804  139.1920  143.4794 LP  0  0  0  0  0  0  0  0  0  0  0  0  # atno 17320 bound_to 7965
  146.3330  140.2765  142.8608 LP  0  0  0  0  0  0  0  0  0  0  0  0  # atno 17321 bound_to 7965
  139.9139  143.6687  152.3110 LP  0  0  0  0  0  0  0  0  0  0  0  0  # atno 17342 bound_to 10162
  139.7080  144.7625  151.1160 LP  0  0  0  0  0  0  0  0  0  0  0  0  # atno 17343 bound_to 10162
  156.1466  130.3642  149.9501 LP  0  0  0  0  0  0  0  0  0  0  0  0  # atno 17370 bound_to 10713
  156.7530  130.9122  151.3638 LP  0  0  0  0  0  0  0  0  0  0  0  0  # atno 17371 bound_to 10713
  141.0495  133.6896  156.1746 LP  0  0  0  0  0  0  0  0  0  0  0  0  # atno 17394 bound_to 11000
  140.6832  134.4745  157.5589 LP  0  0  0  0  0  0  0  0  0  0  0  0  # atno 17395 bound_to 11000

$$$$
