AV-unprocessed.smi:2441|AV-procd|sdf|9622|dock2
  -GOLD-   2272013253D 1   1.00000     0.00000
 Structure written by MMmdl.
 40 41  0  0  0  0  0  0  0  0  1 V2000
  150.3441  139.6114  155.0630 C   0  0  0  0  0  0  0  0  0  0  0  0
  149.1730  140.3578  154.3996 C   0  0  1  0  0  0  0  0  0  0  0  0
  148.3051  139.3790  153.5822 C   0  0  0  0  0  0  0  0  0  0  0  0
  147.1241  140.0876  152.9023 C   0  0  0  0  0  0  0  0  0  0  0  0
  146.2639  140.8339  153.9305 C   0  0  0  0  0  0  0  0  0  0  0  0
  147.1125  141.8275  154.7364 C   0  0  0  0  0  0  0  0  0  0  0  0
  148.3054  141.1340  155.4231 C   0  0  2  0  0  0  0  0  0  0  0  0
  149.1018  142.1466  156.1155 N   0  0  0  0  0  0  0  0  0  0  0  0
  149.7033  142.0002  157.3051 C   0  0  0  0  0  0  0  0  0  0  0  0
  149.6613  140.9620  157.9646 O   0  0  0  0  0  0  0  0  0  0  0  0
  150.3281  143.1366  157.6651 N   0  0  0  0  0  0  0  0  0  0  0  0
  151.0968  143.4074  158.8106 C   0  0  0  0  0  0  0  0  0  0  0  0
  151.0205  144.5520  159.5351 C   0  0  0  0  0  0  0  0  0  0  0  0
  151.8390  144.7431  160.7077 C   0  0  0  0  0  0  0  0  0  0  0  0
  152.6689  143.7558  161.0712 C   0  0  0  0  0  0  0  0  0  0  0  0
  152.7572  142.5573  160.3455 N   0  0  0  0  0  0  0  0  0  0  0  0
  153.7093  141.5699  160.8617 C   0  0  0  0  0  0  0  0  0  0  0  0
  152.0109  142.3234  159.2231 C   0  0  0  0  0  0  0  0  0  0  0  0
  152.1034  141.2652  158.5966 O   0  0  0  0  0  0  0  0  0  0  0  0
  149.9859  138.8967  155.8042 H   0  0  0  0  0  0  0  0  0  0  0  0
  151.0272  140.2966  155.5650 H   0  0  0  0  0  0  0  0  0  0  0  0
  150.9257  139.0599  154.3240 H   0  0  0  0  0  0  0  0  0  0  0  0
  149.5993  141.0797  153.7012 H   0  0  0  0  0  0  0  0  0  0  0  0
  148.9142  138.8844  152.8250 H   0  0  0  0  0  0  0  0  0  0  0  0
  147.9270  138.5909  154.2347 H   0  0  0  0  0  0  0  0  0  0  0  0
  147.4979  140.7908  152.1569 H   0  0  0  0  0  0  0  0  0  0  0  0
  146.5143  139.3611  152.3648 H   0  0  0  0  0  0  0  0  0  0  0  0
  145.4537  141.3605  153.4257 H   0  0  0  0  0  0  0  0  0  0  0  0
  145.7950  140.1185  154.6073 H   0  0  0  0  0  0  0  0  0  0  0  0
  147.4744  142.6127  154.0708 H   0  0  0  0  0  0  0  0  0  0  0  0
  146.4875  142.3200  155.4825 H   0  0  0  0  0  0  0  0  0  0  0  0
  147.9034  140.4151  156.1399 H   0  0  0  0  0  0  0  0  0  0  0  0
  149.1940  143.0379  155.6507 H   0  0  0  0  0  0  0  0  0  0  0  0
  150.2067  143.9269  157.0484 H   0  0  0  0  0  0  0  0  0  0  0  0
  150.3399  145.3466  159.2757 H   0  0  0  0  0  0  0  0  0  0  0  0
  151.7840  145.6590  161.2775 H   0  0  0  0  0  0  0  0  0  0  0  0
  153.3169  143.8158  161.9342 H   0  0  0  0  0  0  0  0  0  0  0  0
  153.6918  140.6128  160.3397 H   0  0  0  0  0  0  0  0  0  0  0  0
  153.5023  141.3639  161.9125 H   0  0  0  0  0  0  0  0  0  0  0  0
  154.7245  141.9621  160.7914 H   0  0  0  0  0  0  0  0  0  0  0  0
  1  2  1  0  0  0  0
  1 20  1  0  0  0  0
  1 21  1  0  0  0  0
  1 22  1  0  0  0  0
  2  7  1  0  0  0  0
  2  3  1  0  0  0  0
  2 23  1  0  0  0  0
  3  4  1  0  0  0  0
  3 24  1  0  0  0  0
  3 25  1  0  0  0  0
  4  5  1  0  0  0  0
  4 26  1  0  0  0  0
  4 27  1  0  0  0  0
  5  6  1  0  0  0  0
  5 28  1  0  0  0  0
  5 29  1  0  0  0  0
  6  7  1  0  0  0  0
  6 30  1  0  0  0  0
  6 31  1  0  0  0  0
  7  8  1  0  0  0  0
  7 32  1  0  0  0  0
  8  9  1  0  0  0  0
  8 33  1  0  0  0  0
  9 10  2  0  0  0  0
  9 11  1  0  0  0  0
 11 12  1  0  0  0  0
 11 34  1  0  0  0  0
 12 18  1  0  0  0  0
 12 13  2  0  0  0  0
 13 14  1  0  0  0  0
 13 35  1  0  0  0  0
 14 15  2  0  0  0  0
 14 36  1  0  0  0  0
 15 16  1  0  0  0  0
 15 37  1  0  0  0  0
 16 17  1  0  0  0  0
 16 18  1  0  0  0  0
 17 38  1  0  0  0  0
 17 39  1  0  0  0  0
 17 40  1  0  0  0  0
 18 19  2  0  0  0  0
M  END
> <s_m_source_file>
AV-unprocessed.smi

> <i_m_source_file_index>
2441

> <i_lp_mmshare_version>
43012

> <i_f3d_flags>
0

> <s_epik_input>
W0NIM11bQ0BASF0xW0NIMl1bQ0gyXVtDSDJdW0NIMl1bQ0BIXTFbTkhdQyg9TylbTkhdYzJbY0hdW2NIXVtjSF1uKFtDSDNdKWMyPU8=

> <s_epik_cmdline>
J2VwaWtfcHl0aG9uJywgJy1waCcsICc3LjAnLCAnLXRuJywgJzgnLCAnLW1hJywgJzIwMCcsICctbWV0YWxfYmluZGluZycsICctaW1hZScsICc8aW5maWxlLm1hZT4nLCAnLW9tYWUnLCAnPG91dGZpbGUubWFlPic=

> <r_lp_tautomer_probability>
1

> <r_epik_Ionization_Penalty>
2.64999e-05

> <r_epik_Ionization_Penalty_Charging>
5.09663e-06

> <r_epik_Ionization_Penalty_Neutral>
2.14032e-05

> <r_epik_State_Penalty>
-0

> <r_epik_Charging_Adjusted_Penalty>
5.09663e-06

> <i_epik_Tot_Q>
0

> <i_epik_Tot_abs_Q>
0

> <r_epik_Metal_State_Penalty>
-0

> <b_epik_Metal_Only>
0

> <s_lp_Force_Field>
OPLS_2005

> <r_lp_Energy>
23.8871

> <b_lp_Chiralities_Consistent>
1

> <s_lp_Variant>
AV-unprocessed.smi:2441-4

> <Gold.Version>
5.8.1

> <Gold.Id.Protein>
6NUR|6NUR_protein|mol2

> <Gold.PLP.Fitness>
41.4470

> <Gold.PLP.PLP>
-37.2629

> <Gold.PLP.part.hbond>
-2.0000

> <Gold.PLP.part.metal>
0.0000

> <Gold.PLP.part.buried>
-0.0927

> <Gold.PLP.part.nonpolar>
-35.8556

> <Gold.PLP.part.repulsive>
0.1284

> <Gold.PLP.ligand.clash>
0.0000

> <Gold.PLP.ligand.torsion>
0.6616

> <Gold.PLP.Chemscore.Hbond>
1.8344

> <Gold.PLP.Chemscore.CHOScore>
0.0000

> <Gold.PLP.Chemscore.Metal>
0.0000

> <Gold.Chemscore.Hbonds>
donor molecule, donor type, donor heavy atom, donor atom, acceptor molecule, acceptor atom, score
      L1  H     8    33       P1  8028  0.98
      L1  H    11    34       P1  8028  0.80

> <Gold.PLP.Chemscore.Internal.Correction>
0.0041

> <Gold.Rescore>
     Score         DG    S(hbond)    S(metal)    S(lipo)     H(rot)  DE(clash)    DE(int)     intcor
     16.22     -20.08       1.81        0.00      94.93       1.00       0.49       3.36       ----

> <Gold.Chemscore.Fitness>
16.2233

> <Gold.Chemscore.DG>
-20.0815

> <Gold.Chemscore.ZeroCoef>
-5.4800

> <Gold.Chemscore.Hbond>
1.8126

> <Gold.Chemscore.Metal>
0.0000

> <Gold.Chemscore.Lipo>
94.9347

> <Gold.Chemscore.Internal_Hbond>
0.0000

> <Gold.Chemscore.DEClash>
0.4932

> <Gold.Chemscore.DEInternal>
3.3650

> <Gold.Chemscore.Rot>
1.0000

> <Gold.Chemscore.Internal.Correction>
   9.000000E+99

> <Gold.Chemscore.Hbonds>
donor molecule, donor type, donor heavy atom, donor atom, acceptor molecule, acceptor atom, score
      L1  H     8    33       P1  8028  0.92
      L1  H    11    34       P1  8028  0.74

> <Gold.Chemscore.Hbond.Weighted>
-6.0541

> <Gold.Chemscore.Metal.Weighted>
-0.0000

> <Gold.Chemscore.Lipo.Weighted>
-11.1074

> <Gold.Chemscore.Internal_Hbond.Weighted>
0.0000

> <Gold.Chemscore.DEClash.Weighted>
0.4932

> <Gold.Chemscore.DEInternal.Weighted>
3.3650

> <Gold.Chemscore.Rot.Weighted>
2.5600

> <Gold.Chemscore.Internal.Correction.Weighted>
   9.000000E+99

> <Gold.Protein.RotatedTorsions>
[ 6907 6896 6895 6894 ] final -115.99 input  -60.11 | X-H torsion
[ 7974 7965 7964 7962 ] final  161.56 input  175.53 | X-H torsion
[ 8008 7997 7996 7995 ] final -168.82 input   59.86 | X-H torsion
[ 10167 10162 10161 10158 ] final -140.64 input  -65.29 | X-H torsion
[ 10718 10713 10712 10709 ] final   41.62 input   66.30 | X-H torsion
[ 10763 10752 10751 10750 ] final  -40.24 input  -60.55 | X-H torsion
[ 11005 11000 10999 10996 ] final -169.21 input  -57.11 | X-H torsion

> <Gold.Protein.ActiveResidues>
 VAL166  LYS551  ARG553  GLY616  TRP617  ASP618  TYR619  PRO620  LYS621  CYS622 
 ASP623  PHE694  ASN695  SER759  ASP760  ASP761  ALA762  ILE779  LEU786  VAL792 
 PHE793  MET794  SER795  GLU796  ALA797  LYS798  CYS799  TRP800  GLU811  SER814 

> <Gold.Protein.RotatedAtoms>
  150.8021  133.8580  159.3223 H   0  0  0  0  0  0  0  0  0  0  0  0  # atno 6907 bound_to 6896
  151.6389  135.1013  160.0146 H   0  0  0  0  0  0  0  0  0  0  0  0  # atno 6908 bound_to 6896
  152.4109  133.6922  159.6432 H   0  0  0  0  0  0  0  0  0  0  0  0  # atno 6909 bound_to 6896
  144.7680  139.7915  143.6308 H   0  0  0  0  0  0  0  0  0  0  0  0  # atno 7974 bound_to 7965
  155.8966  140.1034  157.1380 H   0  0  0  0  0  0  0  0  0  0  0  0  # atno 8008 bound_to 7997
  154.4021  140.1300  156.4448 H   0  0  0  0  0  0  0  0  0  0  0  0  # atno 8009 bound_to 7997
  155.7471  140.3466  155.5134 H   0  0  0  0  0  0  0  0  0  0  0  0  # atno 8010 bound_to 7997
  139.8262  143.7508  152.2666 H   0  0  0  0  0  0  0  0  0  0  0  0  # atno 10167 bound_to 10162
  157.3957  130.7831  149.7306 H   0  0  0  0  0  0  0  0  0  0  0  0  # atno 10718 bound_to 10713
  153.9426  135.6759  153.4744 H   0  0  0  0  0  0  0  0  0  0  0  0  # atno 10763 bound_to 10752
  153.0924  135.4868  154.8711 H   0  0  0  0  0  0  0  0  0  0  0  0  # atno 10764 bound_to 10752
  154.7369  135.3151  154.8755 H   0  0  0  0  0  0  0  0  0  0  0  0  # atno 10765 bound_to 10752
  140.5333  134.5595  157.5080 H   0  0  0  0  0  0  0  0  0  0  0  0  # atno 11005 bound_to 11000
  146.1803  139.4992  142.9871 LP  0  0  0  0  0  0  0  0  0  0  0  0  # atno 17320 bound_to 7965
  145.6411  141.0284  143.1811 LP  0  0  0  0  0  0  0  0  0  0  0  0  # atno 17321 bound_to 7965
  139.7701  144.7479  151.0236 LP  0  0  0  0  0  0  0  0  0  0  0  0  # atno 17342 bound_to 10162
  140.7810  143.4654  151.0220 LP  0  0  0  0  0  0  0  0  0  0  0  0  # atno 17343 bound_to 10162
  155.9810  130.4024  150.3498 LP  0  0  0  0  0  0  0  0  0  0  0  0  # atno 17370 bound_to 10713
  157.1620  131.0347  151.2836 LP  0  0  0  0  0  0  0  0  0  0  0  0  # atno 17371 bound_to 10713
  139.9543  134.7563  156.0378 LP  0  0  0  0  0  0  0  0  0  0  0  0  # atno 17394 bound_to 11000
  141.1269  133.6597  156.3361 LP  0  0  0  0  0  0  0  0  0  0  0  0  # atno 17395 bound_to 11000

$$$$
