#       Name:                AV-unprocessed.smi:91
#       Creating user name   scv26
#       Creation time:       Thu Mar 26 17:25:44 2020


#       File generated by GOLD software.
#

@<TRIPOS>MOLECULE
AV-unprocessed.smi:91
    72    75     1
SMALL
NO_CHARGES


@<TRIPOS>ATOM
      1 ****        -4.5941  -0.0835   5.3837 C.3            1 S1                 0.0000
      2 ****        -4.0590   0.5147   4.2164 O.3            1 S1                 0.0000
      3 ****        -4.4367  -0.1697   3.0320 C.3            1 S1                 0.0000
      4 ****        -3.8276   0.5241   1.8057 C.3            1 S1                 0.0000
      5 ****        -2.2954   0.6472   1.8850 C.3            1 S1                 0.0000
      6 ****        -1.8037   1.4053   0.7448 N.3            1 S1                 0.0000
      7 ****        -0.4584   1.4138   0.6405 C.ar           1 S1                 0.0000
      8 ****         0.2935   2.0704   1.5627 N.ar           1 S1                 0.0000
      9 ****         1.6258   2.0710   1.4549 C.ar           1 S1                 0.0000
     10 ****         2.3889   1.4907   0.5257 N.ar           1 S1                 0.0000
     11 ****         1.6332   0.8287  -0.3971 C.ar           1 S1                 0.0000
     12 ****         0.2134   0.7441  -0.4142 C.ar           1 S1                 0.0000
     13 ****        -0.2091  -0.0040  -1.5049 N.2            1 S1                 0.0000
     14 ****         0.9013  -0.3444  -2.1011 C.2            1 S1                 0.0000
     15 ****         2.0557   0.1054  -1.4990 N.pl3          1 S1                 0.0000
     16 ****         3.4199  -0.1333  -1.9389 C.3            1 S1                 0.0000
     17 ****         3.9894  -1.4749  -1.4019 C.3            1 S1                 0.0000
     18 ****         5.2410  -1.2319  -0.5282 C.3            1 S1                 0.0000
     19 ****         4.9067  -0.5237   0.6465 O.3            1 S1                 0.0000
     20 ****         4.3019  -2.4643  -2.5544 C.3            1 S1                 0.0000
     21 ****         3.1044  -2.8641  -3.3994 C.3            1 S1                 0.0000
     22 ****         3.6056  -4.1268  -4.0891 C.3            1 S1                 0.0000
     23 ****         4.4547  -4.7608  -3.1412 O.3            1 S1                 0.0000
     24 ****         4.7903  -3.8465  -2.1018 C.3            1 S1                 0.0000
     25 ****        -2.4170   2.7236   0.6499 C.3            1 S1                 0.0000
     26 ****        -3.9562   2.6090   0.5748 C.3            1 S1                 0.0000
     27 ****        -4.5899   3.9947   0.7705 C.3            1 S1                 0.0000
     28 ****        -4.4261   2.0225  -0.7736 C.3            1 S1                 0.0000
     29 ****        -4.4252   1.8152   1.6716 O.3            1 S1                 0.0000
     30 ****        -4.2755   0.4778   6.2619 H              1 S1                 0.0000
     31 ****        -4.2448  -1.1107   5.4959 H              1 S1                 0.0000
     32 ****        -5.6846  -0.0843   5.3620 H              1 S1                 0.0000
     33 ****        -4.0874  -1.2024   3.0794 H              1 S1                 0.0000
     34 ****        -5.5238  -0.1981   2.9418 H              1 S1                 0.0000
     35 ****        -4.0902  -0.0756   0.9342 H              1 S1                 0.0000
     36 ****        -2.0025   1.1516   2.8070 H              1 S1                 0.0000
     37 ****        -1.8389  -0.3436   1.8992 H              1 S1                 0.0000
     38 ****         2.1568   2.6134   2.2233 H              1 S1                 0.0000
     39 ****         0.9042  -0.9383  -3.0025 H              1 S1                 0.0000
     40 ****         3.4381  -0.0965  -3.0281 H              1 S1                 0.0000
     41 ****         4.0301   0.7119  -1.6182 H              1 S1                 0.0000
     42 ****         3.2402  -1.9493  -0.7647 H              1 S1                 0.0000
     43 ****         5.6928  -2.1721  -0.2142 H              1 S1                 0.0000
     44 ****         6.0022  -0.6809  -1.0814 H              1 S1                 0.0000
     45 ****         5.6930  -0.3921   1.1539 H              1 S1                 0.0000
     46 ****         5.0570  -2.0288  -3.2113 H              1 S1                 0.0000
     47 ****         2.2499  -3.1008  -2.7637 H              1 S1                 0.0000
     48 ****         2.8008  -2.0987  -4.1135 H              1 S1                 0.0000
     49 ****         2.7943  -4.7835  -4.4037 H              1 S1                 0.0000
     50 ****         4.1965  -3.8705  -4.9692 H              1 S1                 0.0000
     51 ****         5.8623  -3.8642  -1.9040 H              1 S1                 0.0000
     52 ****         4.2752  -4.1621  -1.1935 H              1 S1                 0.0000
     53 ****        -2.1332   3.3098   1.5257 H              1 S1                 0.0000
     54 ****        -2.0328   3.2521  -0.2239 H              1 S1                 0.0000
     55 ****        -4.2755   4.6887  -0.0097 H              1 S1                 0.0000
     56 ****        -4.3069   4.4268   1.7309 H              1 S1                 0.0000
     57 ****        -5.6786   3.9379   0.7452 H              1 S1                 0.0000
     58 ****        -4.1732   2.6904  -1.5976 H              1 S1                 0.0000
     59 ****        -5.5072   1.8809  -0.7839 H              1 S1                 0.0000
     60 ****        -3.9645   1.0605  -0.9945 H              1 S1                 0.0000
     61 ****        -3.0613   0.5124   4.2836 LP             1 S1                 0.0000
     62 ****        -4.3871   1.4576   4.1602 LP             1 S1                 0.0000
     63 ****        -2.1061   0.9100  -0.0697 LP             1 S1                 0.0000
     64 ****        -0.1486   2.5516   2.3196 LP             1 S1                 0.0000
     65 ****         3.3877   1.5356   0.5083 LP             1 S1                 0.0000
     66 ****        -1.1461  -0.2296  -1.7718 LP             1 S1                 0.0000
     67 ****         4.2454  -1.0505   1.1806 LP             1 S1                 0.0000
     68 ****         4.5099   0.3617   0.4045 LP             1 S1                 0.0000
     69 ****         5.2908  -5.0658  -3.5971 LP             1 S1                 0.0000
     70 ****         3.9822  -5.5500  -2.7487 LP             1 S1                 0.0000
     71 ****        -4.2502   2.3233   2.5149 LP             1 S1                 0.0000
     72 ****        -5.4104   1.6869   1.5581 LP             1 S1                 0.0000
@<TRIPOS>BOND
    1    1    2 1     
    2    1   30 1     
    3    1   31 1     
    4    1   32 1     
    5    2    3 1     
    6    3    4 1     
    7    3   33 1     
    8    3   34 1     
    9    4   29 1     
   10    4    5 1     
   11    4   35 1     
   12    5    6 1     
   13    5   36 1     
   14    5   37 1     
   15    6    7 1     
   16    6   25 1     
   17    7   12 ar    
   18    7    8 ar    
   19    8    9 ar    
   20    9   10 ar    
   21    9   38 1     
   22   10   11 ar    
   23   11   15 1     
   24   11   12 ar    
   25   12   13 1     
   26   13   14 2     
   27   14   15 1     
   28   14   39 1     
   29   15   16 1     
   30   16   17 1     
   31   16   40 1     
   32   16   41 1     
   33   17   18 1     
   34   17   20 1     
   35   17   42 1     
   36   18   19 1     
   37   18   43 1     
   38   18   44 1     
   39   19   45 1     
   40   20   24 1     
   41   20   21 1     
   42   20   46 1     
   43   21   22 1     
   44   21   47 1     
   45   21   48 1     
   46   22   23 1     
   47   22   49 1     
   48   22   50 1     
   49   23   24 1     
   50   24   51 1     
   51   24   52 1     
   52   25   26 1     
   53   25   53 1     
   54   25   54 1     
   55   26   27 1     
   56   26   28 1     
   57   26   29 1     
   58   27   55 1     
   59   27   56 1     
   60   27   57 1     
   61   28   58 1     
   62   28   59 1     
   63   28   60 1     
   64    2   61 1     
   65    2   62 1     
   66    6   63 1     
   67    8   64 1     
   68   10   65 1     
   69   13   66 1     
   70   19   67 1     
   71   19   68 1     
   72   23   69 1     
   73   23   70 1     
   74   29   71 1     
   75   29   72 1     
@<TRIPOS>SUBSTRUCTURE
      1 S1             1
@<TRIPOS>SET
LONE_PAIRS      STATIC     ATOMS    <user>   **** ""
12 61 62 63 64 65 66 67 68 69 70 71 72
DONOR_HYDROGENS      STATIC     ATOMS    <user>   **** ""
1 45
ATOM$BLUE        STATIC     ATOMS    COLORGROUP SYSTEM
12 61 62 63 64 65 66 67 68 69 70 71 72
ATOM$RED        STATIC     ATOMS    COLORGROUP SYSTEM
1 45
