AV-unprocessed.smi:1757|AV-procd|sdf|7075|dock4
  -GOLD-   22720 8293D 1   1.00000     0.00000
 Structure written by MMmdl.
 40 41  0  0  0  0  0  0  0  0  2 V2000
  147.3085  132.8452  152.9791 C   0  0  0  0  0  0  0  0  0  0  0  0
  148.1409  133.9104  153.5780 N   0  3  2  0  0  0  0  0  0  0  0  0
  149.3951  133.3816  154.1696 C   0  0  0  0  0  0  0  0  0  0  0  0
  150.2964  134.5244  154.6667 C   0  0  0  0  0  0  0  0  0  0  0  0
  149.5528  135.4211  155.6705 C   0  0  1  0  0  0  0  0  0  0  0  0
  150.3925  136.5577  156.0404 N   0  0  0  0  0  0  0  0  0  0  0  0
  150.8088  136.8563  157.2796 C   0  0  0  0  0  0  0  0  0  0  0  0
  150.5196  136.1887  158.2724 O   0  0  0  0  0  0  0  0  0  0  0  0
  151.5532  137.9771  157.2765 N   0  0  0  0  0  0  0  0  0  0  0  0
  152.2040  138.6083  158.3492 C   0  0  0  0  0  0  0  0  0  0  0  0
  152.1778  139.9452  158.5897 C   0  0  0  0  0  0  0  0  0  0  0  0
  152.8626  140.5358  159.7286 C   0  0  0  0  0  0  0  0  0  0  0  0
  152.8596  142.0325  159.9960 C   0  0  0  0  0  0  0  0  0  0  0  0
  154.0792  142.5346  159.8051 F   0  0  0  0  0  0  0  0  0  0  0  0
  152.0255  142.6490  159.1588 F   0  0  0  0  0  0  0  0  0  0  0  0
  152.4826  142.3109  161.2441 F   0  0  0  0  0  0  0  0  0  0  0  0
  153.5176  139.6874  160.5415 C   0  0  0  0  0  0  0  0  0  0  0  0
  153.5367  138.3103  160.3089 N   0  0  0  0  0  0  0  0  0  0  0  0
  152.9206  137.7077  159.2673 C   0  0  0  0  0  0  0  0  0  0  0  0
  152.9800  136.4859  159.1320 O   0  0  0  0  0  0  0  0  0  0  0  0
  148.2373  135.9198  155.0490 C   0  0  0  0  0  0  0  0  0  0  0  0
  147.3817  134.7470  154.5408 C   0  0  0  0  0  0  0  0  0  0  0  0
  154.0459  137.7402  160.9686 H   0  0  0  0  0  0  0  0  0  0  0  0
  146.9699  132.1396  153.7389 H   0  0  0  0  0  0  0  0  0  0  0  0
  147.8725  132.2937  152.2262 H   0  0  0  0  0  0  0  0  0  0  0  0
  146.4312  133.2705  152.4907 H   0  0  0  0  0  0  0  0  0  0  0  0
  149.1553  132.7070  154.9934 H   0  0  0  0  0  0  0  0  0  0  0  0
  149.9323  132.7939  153.4243 H   0  0  0  0  0  0  0  0  0  0  0  0
  151.1943  134.1111  155.1280 H   0  0  0  0  0  0  0  0  0  0  0  0
  150.6316  135.1176  153.8145 H   0  0  0  0  0  0  0  0  0  0  0  0
  149.3113  134.8198  156.5491 H   0  0  0  0  0  0  0  0  0  0  0  0
  150.6793  137.1705  155.2909 H   0  0  0  0  0  0  0  0  0  0  0  0
  151.6321  138.4630  156.3947 H   0  0  0  0  0  0  0  0  0  0  0  0
  151.6233  140.6075  157.9454 H   0  0  0  0  0  0  0  0  0  0  0  0
  154.0685  139.9946  161.4185 H   0  0  0  0  0  0  0  0  0  0  0  0
  147.6725  136.4974  155.7819 H   0  0  0  0  0  0  0  0  0  0  0  0
  148.4510  136.5967  154.2203 H   0  0  0  0  0  0  0  0  0  0  0  0
  146.4834  135.1350  154.0591 H   0  0  0  0  0  0  0  0  0  0  0  0
  147.0518  134.1318  155.3797 H   0  0  0  0  0  0  0  0  0  0  0  0
  148.4142  134.5196  152.8199 H   0  0  0  0  0  0  0  0  0  0  0  0
  1  2  1  0  0  0  0
  1 24  1  0  0  0  0
  1 25  1  0  0  0  0
  1 26  1  0  0  0  0
  2 22  1  0  0  0  0
  2  3  1  0  0  0  0
  2 40  1  0  0  0  0
  3  4  1  0  0  0  0
  3 27  1  0  0  0  0
  3 28  1  0  0  0  0
  4  5  1  0  0  0  0
  4 29  1  0  0  0  0
  4 30  1  0  0  0  0
  5  6  1  0  0  0  0
  5 21  1  0  0  0  0
  5 31  1  0  0  0  0
  6  7  1  0  0  0  0
  6 32  1  0  0  0  0
  7  8  2  0  0  0  0
  7  9  1  0  0  0  0
  9 10  1  0  0  0  0
  9 33  1  0  0  0  0
 10 19  1  0  0  0  0
 10 11  2  0  0  0  0
 11 12  1  0  0  0  0
 11 34  1  0  0  0  0
 12 13  1  0  0  0  0
 12 17  2  0  0  0  0
 13 14  1  0  0  0  0
 13 15  1  0  0  0  0
 13 16  1  0  0  0  0
 17 18  1  0  0  0  0
 17 35  1  0  0  0  0
 18 23  1  0  0  0  0
 18 19  1  0  0  0  0
 19 20  2  0  0  0  0
 21 22  1  0  0  0  0
 21 36  1  0  0  0  0
 21 37  1  0  0  0  0
 22 38  1  0  0  0  0
 22 39  1  0  0  0  0
M  CHG  1   2   1
M  END
> <s_m_source_file>
AV-unprocessed.smi

> <i_m_source_file_index>
1757

> <i_lp_mmshare_version>
43012

> <i_f3d_flags>
0

> <s_epik_input>
W0NIM11OMVtDSDJdW0NIMl1bQ0hdKFtDSDJdW0NIMl0xKVtOSF1DKD1PKVtOSF1jMltjSF1jKEMoRikoRilGKVtjSF1bbkhdYzI9Tw==

> <s_epik_cmdline>
J2VwaWtfcHl0aG9uJywgJy1waCcsICc3LjAnLCAnLXRuJywgJzgnLCAnLW1hJywgJzIwMCcsICctbWV0YWxfYmluZGluZycsICctaW1hZScsICc8aW5maWxlLm1hZT4nLCAnLW9tYWUnLCAnPG91dGZpbGUubWFlPic=

> <r_lp_tautomer_probability>
1

> <r_epik_Ionization_Penalty>
0.00859077

> <r_epik_Ionization_Penalty_Charging>
0.00857233

> <r_epik_Ionization_Penalty_Neutral>
1.84472e-05

> <r_epik_State_Penalty>
-0

> <r_epik_Charging_Adjusted_Penalty>
0.00857233

> <i_epik_Tot_Q>
1

> <i_epik_Tot_abs_Q>
1

> <r_epik_Metal_State_Penalty>
0.377538

> <b_epik_Metal_Only>
0

> <s_lp_Force_Field>
OPLS_2005

> <r_lp_Energy>
26.9081

> <b_lp_Chiralities_Consistent>
1

> <s_lp_Variant>
AV-unprocessed.smi:1757-1

> <Gold.Version>
5.8.1

> <Gold.Id.Protein>
6NUR|6NUR_protein|mol2

> <Gold.PLP.Fitness>
40.8261

> <Gold.PLP.PLP>
-31.6822

> <Gold.PLP.part.hbond>
-3.0000

> <Gold.PLP.part.metal>
0.0000

> <Gold.PLP.part.buried>
-5.4131

> <Gold.PLP.part.nonpolar>
-23.1951

> <Gold.PLP.part.repulsive>
0.1692

> <Gold.PLP.ligand.clash>
0.0000

> <Gold.PLP.ligand.torsion>
0.5485

> <Gold.PLP.Chemscore.Hbond>
3.4115

> <Gold.PLP.Chemscore.CHOScore>
0.0000

> <Gold.PLP.Chemscore.Metal>
0.0000

> <Gold.Chemscore.Hbonds>
donor molecule, donor type, donor heavy atom, donor atom, acceptor molecule, acceptor atom, score
      L1  H     2    40       P1  7948  2.00
      P1  H  6896  6907       L1    20  0.83
      P1  H  6896  6909       L1     8  0.58

> <Gold.PLP.Chemscore.Internal.Correction>
0.0063

> <Gold.Rescore>
     Score         DG    S(hbond)    S(metal)    S(lipo)     H(rot)  DE(clash)    DE(int)     intcor
     13.27     -17.67       2.50        0.00      54.65       1.00       0.10       4.30       ----

> <Gold.Chemscore.Fitness>
13.2656

> <Gold.Chemscore.DG>
-17.6668

> <Gold.Chemscore.ZeroCoef>
-5.4800

> <Gold.Chemscore.Hbond>
2.5008

> <Gold.Chemscore.Metal>
0.0000

> <Gold.Chemscore.Lipo>
54.6497

> <Gold.Chemscore.Internal_Hbond>
0.0000

> <Gold.Chemscore.DEClash>
0.1032

> <Gold.Chemscore.DEInternal>
4.2980

> <Gold.Chemscore.Rot>
1.0000

> <Gold.Chemscore.Internal.Correction>
   9.000000E+99

> <Gold.Chemscore.Hbonds>
donor molecule, donor type, donor heavy atom, donor atom, acceptor molecule, acceptor atom, score
      L1  H     2    40       P1  7948  0.25
      P1  H  6896  6907       L1    20  0.81
      P1  H  6896  6909       L1     8  0.54

> <Gold.Chemscore.Hbond.Weighted>
-8.3528

> <Gold.Chemscore.Metal.Weighted>
-0.0000

> <Gold.Chemscore.Lipo.Weighted>
-6.3940

> <Gold.Chemscore.Internal_Hbond.Weighted>
0.0000

> <Gold.Chemscore.DEClash.Weighted>
0.1032

> <Gold.Chemscore.DEInternal.Weighted>
4.2980

> <Gold.Chemscore.Rot.Weighted>
2.5600

> <Gold.Chemscore.Internal.Correction.Weighted>
   9.000000E+99

> <Gold.Protein.RotatedTorsions>
[ 6907 6896 6895 6894 ] final   48.17 input  -60.11 | X-H torsion
[ 7974 7965 7964 7962 ] final   87.82 input  175.53 | X-H torsion
[ 8008 7997 7996 7995 ] final -134.65 input   59.86 | X-H torsion
[ 10167 10162 10161 10158 ] final   66.82 input  -65.29 | X-H torsion
[ 10718 10713 10712 10709 ] final -168.46 input   66.30 | X-H torsion
[ 10763 10752 10751 10750 ] final  164.02 input  -60.55 | X-H torsion
[ 11005 11000 10999 10996 ] final -179.42 input  -57.11 | X-H torsion

> <Gold.Protein.ActiveResidues>
 VAL166  LYS551  ARG553  GLY616  TRP617  ASP618  TYR619  PRO620  LYS621  CYS622 
 ASP623  PHE694  ASN695  SER759  ASP760  ASP761  ALA762  ILE779  LEU786  VAL792 
 PHE793  MET794  SER795  GLU796  ALA797  LYS798  CYS799  TRP800  GLU811  SER814 

> <Gold.Protein.RotatedAtoms>
  152.2765  134.7876  160.0404 H   0  0  0  0  0  0  0  0  0  0  0  0  # atno 6907 bound_to 6896
  151.8470  133.3428  159.3669 H   0  0  0  0  0  0  0  0  0  0  0  0  # atno 6908 bound_to 6896
  150.7172  134.5264  159.5723 H   0  0  0  0  0  0  0  0  0  0  0  0  # atno 6909 bound_to 6896
  145.5539  139.2298  143.2497 H   0  0  0  0  0  0  0  0  0  0  0  0  # atno 7974 bound_to 7965
  155.3656  140.0485  157.3046 H   0  0  0  0  0  0  0  0  0  0  0  0  # atno 8008 bound_to 7997
  154.5156  140.2207  155.9036 H   0  0  0  0  0  0  0  0  0  0  0  0  # atno 8009 bound_to 7997
  156.1632  140.3112  155.8849 H   0  0  0  0  0  0  0  0  0  0  0  0  # atno 8010 bound_to 7997
  140.0962  144.4944  150.7067 H   0  0  0  0  0  0  0  0  0  0  0  0  # atno 10167 bound_to 10162
  156.6972  130.9182  151.3076 H   0  0  0  0  0  0  0  0  0  0  0  0  # atno 10718 bound_to 10713
  154.3025  135.2759  155.2604 H   0  0  0  0  0  0  0  0  0  0  0  0  # atno 10763 bound_to 10752
  154.5035  135.5802  153.6553 H   0  0  0  0  0  0  0  0  0  0  0  0  # atno 10764 bound_to 10752
  152.9898  135.6163  154.3197 H   0  0  0  0  0  0  0  0  0  0  0  0  # atno 10765 bound_to 10752
  140.4188  134.6625  157.4653 H   0  0  0  0  0  0  0  0  0  0  0  0  # atno 11005 bound_to 11000
  146.1898  140.6362  142.9151 LP  0  0  0  0  0  0  0  0  0  0  0  0  # atno 17320 bound_to 7965
  144.7516  140.5205  143.6798 LP  0  0  0  0  0  0  0  0  0  0  0  0  # atno 17321 bound_to 7965
  140.7002  143.2430  151.4885 LP  0  0  0  0  0  0  0  0  0  0  0  0  # atno 17342 bound_to 10162
  139.5697  144.1958  152.1817 LP  0  0  0  0  0  0  0  0  0  0  0  0  # atno 17343 bound_to 10162
  157.6987  130.9309  150.0719 LP  0  0  0  0  0  0  0  0  0  0  0  0  # atno 17370 bound_to 10713
  156.1755  130.3648  149.9107 LP  0  0  0  0  0  0  0  0  0  0  0  0  # atno 17371 bound_to 10713
  140.0215  134.6540  155.9233 LP  0  0  0  0  0  0  0  0  0  0  0  0  # atno 17394 bound_to 11000
  141.1792  133.6544  156.4952 LP  0  0  0  0  0  0  0  0  0  0  0  0  # atno 17395 bound_to 11000

$$$$
