#       Name:                AV-unprocessed.smi:1709
#       Creating user name   scv26
#       Creation time:       Fri Mar 27 08:09:59 2020


#       File generated by GOLD software.
#

@<TRIPOS>MOLECULE
AV-unprocessed.smi:1709
    46    48     1
SMALL
NO_CHARGES


@<TRIPOS>ATOM
      1 ****        -1.2887  -4.0399  -1.9279 C.3            1 S1                 0.0000
      2 ****         0.1095  -4.5589  -1.6314 C.ar           1 S1                 0.0000
      3 ****         0.3651  -5.9426  -1.7365 C.ar           1 S1                 0.0000
      4 ****         1.6570  -6.4242  -1.4657 C.ar           1 S1                 0.0000
      5 ****         2.6451  -5.4950  -1.1012 C.ar           1 S1                 0.0000
      6 ****         2.4094  -4.1708  -0.9988 N.ar           1 S1                 0.0000
      7 ****         1.1652  -3.6871  -1.2506 C.ar           1 S1                 0.0000
      8 ****         0.8318  -2.2987  -1.1793 N.am           1 S1                 0.0000
      9 ****         1.5399  -1.2275  -0.7624 C.2            1 S1                 0.0000
     10 ****         2.6912  -1.3484  -0.3479 O.2            1 S1                 0.0000
     11 ****         0.9140  -0.0408  -0.8292 N.am           1 S1                 0.0000
     12 ****         1.4669   1.2443  -0.4084 C.3            1 S1                 0.0000
     13 ****         0.9113   2.4267  -1.2261 C.3            1 S1                 0.0000
     14 ****         0.6429   3.5252  -0.1925 C.3            1 S1                 0.0000
     15 ****         0.2689   2.7653   1.0058 N.4            1 S1                 1.0000
     16 ****         0.1757   3.4818   2.2939 C.3            1 S1                 0.0000
     17 ****        -0.4040   2.5157   3.3494 C.3            1 S1                 0.0000
     18 ****         0.3776   1.1841   3.4154 C.3            1 S1                 0.0000
     19 ****         0.5506   0.5512   2.0181 C.3            1 S1                 0.0000
     20 ****         1.1622   1.5958   1.0667 C.3            1 S1                 0.0000
     21 ****        -1.9729  -4.8548  -2.1658 H              1 S1                 0.0000
     22 ****        -1.2696  -3.3585  -2.7789 H              1 S1                 0.0000
     23 ****        -1.6908  -3.5074  -1.0655 H              1 S1                 0.0000
     24 ****        -0.4177  -6.6300  -2.0216 H              1 S1                 0.0000
     25 ****         1.8839  -7.4777  -1.5369 H              1 S1                 0.0000
     26 ****         3.6516  -5.8214  -0.8859 H              1 S1                 0.0000
     27 ****        -0.0781  -2.0739  -1.5548 H              1 S1                 0.0000
     28 ****        -0.0318  -0.0363  -1.1852 H              1 S1                 0.0000
     29 ****         2.5507   1.2252  -0.5401 H              1 S1                 0.0000
     30 ****         1.5944   2.7525  -2.0111 H              1 S1                 0.0000
     31 ****        -0.0290   2.1478  -1.7045 H              1 S1                 0.0000
     32 ****         1.5496   4.1000   0.0027 H              1 S1                 0.0000
     33 ****        -0.1445   4.2128  -0.5026 H              1 S1                 0.0000
     34 ****         1.1599   3.8437   2.5952 H              1 S1                 0.0000
     35 ****        -0.4716   4.3526   2.1856 H              1 S1                 0.0000
     36 ****        -0.4128   2.9932   4.3296 H              1 S1                 0.0000
     37 ****        -1.4452   2.3029   3.1039 H              1 S1                 0.0000
     38 ****         1.3607   1.3675   3.8509 H              1 S1                 0.0000
     39 ****        -0.1280   0.4859   4.0829 H              1 S1                 0.0000
     40 ****         1.1934  -0.3265   2.0888 H              1 S1                 0.0000
     41 ****        -0.4145   0.2103   1.6403 H              1 S1                 0.0000
     42 ****         2.1073   1.9291   1.5013 H              1 S1                 0.0000
     43 ****        -0.6532   2.4001   0.8142 H              1 S1                 0.0000
     44 ****         3.1472  -3.5480  -0.7387 LP             1 S1                 0.0000
     45 ****         3.1186  -2.2519  -0.3154 LP             1 S1                 0.0000
     46 ****         3.2001  -0.5433  -0.0433 LP             1 S1                 0.0000
@<TRIPOS>BOND
    1    1    2 1     
    2    1   21 1     
    3    1   22 1     
    4    1   23 1     
    5    2    7 ar    
    6    2    3 ar    
    7    3    4 ar    
    8    3   24 1     
    9    4    5 ar    
   10    4   25 1     
   11    5    6 ar    
   12    5   26 1     
   13    6    7 ar    
   14    7    8 1     
   15    8    9 am    
   16    8   27 1     
   17    9   10 2     
   18    9   11 am    
   19   11   12 1     
   20   11   28 1     
   21   12   20 1     
   22   12   13 1     
   23   12   29 1     
   24   13   14 1     
   25   13   30 1     
   26   13   31 1     
   27   14   15 1     
   28   14   32 1     
   29   14   33 1     
   30   15   20 1     
   31   15   16 1     
   32   15   43 1     
   33   16   17 1     
   34   16   34 1     
   35   16   35 1     
   36   17   18 1     
   37   17   36 1     
   38   17   37 1     
   39   18   19 1     
   40   18   38 1     
   41   18   39 1     
   42   19   20 1     
   43   19   40 1     
   44   19   41 1     
   45   20   42 1     
   46    6   44 1     
   47   10   45 1     
   48   10   46 1     
@<TRIPOS>SUBSTRUCTURE
      1 S1             1
@<TRIPOS>SET
LONE_PAIRS      STATIC     ATOMS    <user>   **** ""
3 44 45 46
DONOR_HYDROGENS      STATIC     ATOMS    <user>   **** ""
3 27 28 43
ATOM$BLUE        STATIC     ATOMS    COLORGROUP SYSTEM
3 44 45 46
ATOM$RED        STATIC     ATOMS    COLORGROUP SYSTEM
3 27 28 43
