#       Name:                AV-unprocessed.smi:2091
#       Creating user name   scv26
#       Creation time:       Fri Mar 27 11:26:02 2020


#       File generated by GOLD software.
#

@<TRIPOS>MOLECULE
AV-unprocessed.smi:2091
    44    45     1
SMALL
NO_CHARGES


@<TRIPOS>ATOM
      1 ****         0.0225   1.5266   0.6299 O.2            1 S1                 0.0000
      2 ****         0.7467   0.5307   0.6574 C.2            1 S1                 0.0000
      3 ****         2.2619   0.6724   0.8544 C.3            1 S1                 0.0000
      4 ****         2.8018   1.8900   0.2333 N.am           1 S1                 0.0000
      5 ****         3.0510   3.0190   1.0006 C.2            1 S1                 0.0000
      6 ****         3.5414   4.1736   0.4905 C.2            1 S1                 0.0000
      7 ****         3.8386   4.2845  -0.9335 C.2            1 S1                 0.0000
      8 ****         4.2874   5.2849  -1.4882 O.2            1 S1                 0.0000
      9 ****         3.5713   3.1289  -1.6721 N.am           1 S1                 0.0000
     10 ****         3.0640   1.9367  -1.1533 C.2            1 S1                 0.0000
     11 ****         2.8615   0.9759  -1.8951 O.2            1 S1                 0.0000
     12 ****         0.2791  -0.7225   0.5414 N.am           1 S1                 0.0000
     13 ****        -1.1223  -1.0943   0.3346 C.3            1 S1                 0.0000
     14 ****        -1.2919  -2.5521   0.8209 C.3            1 S1                 0.0000
     15 ****        -2.7410  -2.9245   1.1787 C.3            1 S1                 0.0000
     16 ****        -3.7237  -2.9141  -0.0017 C.3            1 S1                 0.0000
     17 ****        -3.8953  -1.5298  -0.6497 C.3            1 S1                 0.0000
     18 ****        -2.7794  -1.1911  -1.5230 N.am           1 S1                 0.0000
     19 ****        -1.4996  -1.0085  -1.1636 C.2            1 S1                 0.0000
     20 ****        -0.6419  -0.7809  -2.0167 O.2            1 S1                 0.0000
     21 ****         3.7594   3.1585  -2.6636 H              1 S1                 0.0000
     22 ****         2.4636   0.6711   1.9264 H              1 S1                 0.0000
     23 ****         2.7777  -0.2073   0.4636 H              1 S1                 0.0000
     24 ****         2.8420   2.9838   2.0605 H              1 S1                 0.0000
     25 ****         3.7143   5.0198   1.1395 H              1 S1                 0.0000
     26 ****         0.9474  -1.4785   0.5715 H              1 S1                 0.0000
     27 ****        -1.7566  -0.4259   0.9196 H              1 S1                 0.0000
     28 ****        -0.8903  -3.2571   0.0908 H              1 S1                 0.0000
     29 ****        -0.6956  -2.6972   1.7231 H              1 S1                 0.0000
     30 ****        -2.7433  -3.9212   1.6209 H              1 S1                 0.0000
     31 ****        -3.1044  -2.2547   1.9589 H              1 S1                 0.0000
     32 ****        -3.4218  -3.6467  -0.7518 H              1 S1                 0.0000
     33 ****        -4.6953  -3.2466   0.3652 H              1 S1                 0.0000
     34 ****        -4.7946  -1.5322  -1.2662 H              1 S1                 0.0000
     35 ****        -4.0423  -0.7547   0.1037 H              1 S1                 0.0000
     36 ****        -2.9921  -1.1180  -2.5075 H              1 S1                 0.0000
     37 ****         0.4209   2.4377   0.7365 LP             1 S1                 0.0000
     38 ****        -0.9639   1.4242   0.5010 LP             1 S1                 0.0000
     39 ****         4.4774   6.1094  -0.9551 LP             1 S1                 0.0000
     40 ****         4.4626   5.2746  -2.4727 LP             1 S1                 0.0000
     41 ****         2.4984   0.1228  -1.5205 LP             1 S1                 0.0000
     42 ****         3.0600   1.0483  -2.8725 LP             1 S1                 0.0000
     43 ****         0.3113  -0.6490  -1.7446 LP             1 S1                 0.0000
     44 ****        -0.8983  -0.7278  -2.9818 LP             1 S1                 0.0000
@<TRIPOS>BOND
    1    1    2 2     
    2    2    3 1     
    3    2   12 am    
    4    3    4 1     
    5    3   22 1     
    6    3   23 1     
    7    4   10 1     
    8    4    5 1     
    9    5    6 2     
   10    5   24 1     
   11    6    7 1     
   12    6   25 1     
   13    7    8 2     
   14    7    9 1     
   15    9   21 1     
   16    9   10 1     
   17   10   11 2     
   18   12   13 1     
   19   12   26 1     
   20   13   19 1     
   21   13   14 1     
   22   13   27 1     
   23   14   15 1     
   24   14   28 1     
   25   14   29 1     
   26   15   16 1     
   27   15   30 1     
   28   15   31 1     
   29   16   17 1     
   30   16   32 1     
   31   16   33 1     
   32   17   18 1     
   33   17   34 1     
   34   17   35 1     
   35   18   19 am    
   36   18   36 1     
   37   19   20 2     
   38    1   37 1     
   39    1   38 1     
   40    8   39 1     
   41    8   40 1     
   42   11   41 1     
   43   11   42 1     
   44   20   43 1     
   45   20   44 1     
@<TRIPOS>SUBSTRUCTURE
      1 S1             1
@<TRIPOS>SET
LONE_PAIRS      STATIC     ATOMS    <user>   **** ""
8 37 38 39 40 41 42 43 44
DONOR_HYDROGENS      STATIC     ATOMS    <user>   **** ""
3 21 26 36
ATOM$BLUE        STATIC     ATOMS    COLORGROUP SYSTEM
8 37 38 39 40 41 42 43 44
ATOM$RED        STATIC     ATOMS    COLORGROUP SYSTEM
3 21 26 36
