#       Name:                AV-unprocessed.smi:1370
#       Creating user name   scv26
#       Creation time:       Fri Mar 27 05:17:51 2020


#       File generated by GOLD software.
#

@<TRIPOS>MOLECULE
AV-unprocessed.smi:1370
    43    44     1
SMALL
NO_CHARGES


@<TRIPOS>ATOM
      1 ****        -0.5957   1.6716   1.5870 O.2            1 S1                 0.0000
      2 ****        -0.9550   0.4996   1.7084 C.2            1 S1                 0.0000
      3 ****        -2.4447   0.1285   1.7049 C.3            1 S1                 0.0000
      4 ****        -3.3206   1.2327   2.1303 N.am           1 S1                 0.0000
      5 ****        -3.9202   2.0043   1.1149 C.2            1 S1                 0.0000
      6 ****        -4.7358   3.0337   1.3934 C.2            1 S1                 0.0000
      7 ****        -4.9953   3.3430   2.7794 C.2            1 S1                 0.0000
      8 ****        -4.4239   2.6139   3.7584 C.2            1 S1                 0.0000
      9 ****        -3.5283   1.4906   3.4585 C.2            1 S1                 0.0000
     10 ****        -2.9985   0.8222   4.3468 O.2            1 S1                 0.0000
     11 ****        -0.0954  -0.5235   1.8234 N.am           1 S1                 0.0000
     12 ****         1.3591  -0.4055   1.8132 C.3            1 S1                 0.0000
     13 ****         1.9160  -0.2984   0.3845 C.3            1 S1                 0.0000
     14 ****         1.5963  -1.8006  -0.5852 S.3            1 S1                 0.0000
     15 ****         2.2783  -1.3000  -2.1915 C.3            1 S1                 0.0000
     16 ****         1.9688  -2.3081  -3.2969 C.3            1 S1                 0.0000
     17 ****         2.9963  -1.9868  -4.3809 C.3            1 S1                 0.0000
     18 ****         4.2545  -1.5357  -3.6272 C.3            1 S1                 0.0000
     19 ****         3.8086  -1.1986  -2.1954 C.3            1 S1                 0.0000
     20 ****        -2.7072  -0.2015   0.6991 H              1 S1                 0.0000
     21 ****        -2.6053  -0.7441   2.3410 H              1 S1                 0.0000
     22 ****        -3.6692   1.7118   0.1057 H              1 S1                 0.0000
     23 ****        -5.1824   3.6171   0.6019 H              1 S1                 0.0000
     24 ****        -5.6500   4.1637   3.0330 H              1 S1                 0.0000
     25 ****        -4.6294   2.8604   4.7898 H              1 S1                 0.0000
     26 ****        -0.4752  -1.4551   1.9095 H              1 S1                 0.0000
     27 ****         1.6653   0.4616   2.4007 H              1 S1                 0.0000
     28 ****         1.7805  -1.2779   2.3129 H              1 S1                 0.0000
     29 ****         1.4850   0.5606  -0.1305 H              1 S1                 0.0000
     30 ****         2.9930  -0.1349   0.4241 H              1 S1                 0.0000
     31 ****         1.8513  -0.3356  -2.4706 H              1 S1                 0.0000
     32 ****         2.1249  -3.3253  -2.9343 H              1 S1                 0.0000
     33 ****         0.9425  -2.2351  -3.6576 H              1 S1                 0.0000
     34 ****         3.1847  -2.8344  -5.0403 H              1 S1                 0.0000
     35 ****         2.6279  -1.1658  -4.9971 H              1 S1                 0.0000
     36 ****         4.9974  -2.3340  -3.6085 H              1 S1                 0.0000
     37 ****         4.7131  -0.6766  -4.1177 H              1 S1                 0.0000
     38 ****         4.1495  -0.2115  -1.8819 H              1 S1                 0.0000
     39 ****         4.2378  -1.9258  -1.5046 H              1 S1                 0.0000
     40 ****        -1.2778   2.3956   1.4844 LP             1 S1                 0.0000
     41 ****         0.3781   1.8990   1.5910 LP             1 S1                 0.0000
     42 ****        -2.3938   0.0624   4.1077 LP             1 S1                 0.0000
     43 ****        -3.1729   1.0392   5.3072 LP             1 S1                 0.0000
@<TRIPOS>BOND
    1    1    2 2     
    2    2    3 1     
    3    2   11 am    
    4    3    4 1     
    5    3   20 1     
    6    3   21 1     
    7    4    9 am    
    8    4    5 1     
    9    5    6 2     
   10    5   22 1     
   11    6    7 1     
   12    6   23 1     
   13    7    8 2     
   14    7   24 1     
   15    8    9 1     
   16    8   25 1     
   17    9   10 2     
   18   11   12 1     
   19   11   26 1     
   20   12   13 1     
   21   12   27 1     
   22   12   28 1     
   23   13   14 1     
   24   13   29 1     
   25   13   30 1     
   26   14   15 1     
   27   15   19 1     
   28   15   16 1     
   29   15   31 1     
   30   16   17 1     
   31   16   32 1     
   32   16   33 1     
   33   17   18 1     
   34   17   34 1     
   35   17   35 1     
   36   18   19 1     
   37   18   36 1     
   38   18   37 1     
   39   19   38 1     
   40   19   39 1     
   41    1   40 1     
   42    1   41 1     
   43   10   42 1     
   44   10   43 1     
@<TRIPOS>SUBSTRUCTURE
      1 S1             1
@<TRIPOS>SET
LONE_PAIRS      STATIC     ATOMS    <user>   **** ""
4 40 41 42 43
DONOR_HYDROGENS      STATIC     ATOMS    <user>   **** ""
1 26
ATOM$BLUE        STATIC     ATOMS    COLORGROUP SYSTEM
4 40 41 42 43
ATOM$RED        STATIC     ATOMS    COLORGROUP SYSTEM
1 26
