AV-unprocessed.smi:1829|AV-procd|sdf|7430|dock6
  -GOLD-   22720 9113D 1   1.00000     0.00000
 Structure written by MMmdl.
 46 48  0  0  0  0  0  0  0  0  2 V2000
  149.5203  132.8979  154.5520 C   0  0  0  0  0  0  0  0  0  0  0  0
  150.4785  133.1865  155.7179 C   0  0  0  0  0  0  0  0  0  0  0  0
  149.9133  132.6863  157.0569 C   0  0  0  0  0  0  0  0  0  0  0  0
  150.8531  134.6617  155.7754 C   0  0  0  0  0  0  0  0  0  0  0  0
  151.6500  135.1459  156.8344 C   0  0  0  0  0  0  0  0  0  0  0  0
  152.0164  136.5039  156.8847 C   0  0  0  0  0  0  0  0  0  0  0  0
  151.5907  137.3952  155.8776 C   0  0  0  0  0  0  0  0  0  0  0  0
  152.0346  138.8506  155.9202 C   0  0  2  0  0  0  0  0  0  0  0  0
  153.4348  138.9916  155.7997 O   0  0  0  0  0  0  0  0  0  0  0  0
  151.5901  139.5571  157.2181 C   0  0  0  0  0  0  0  0  0  0  0  0
  151.1732  140.9511  156.9950 N   0  0  0  0  0  0  0  0  0  0  0  0
  150.3187  141.4858  156.0741 C   0  0  0  0  0  0  0  0  0  0  0  0
  149.5446  140.7532  155.0286 C   0  0  0  0  0  0  0  0  0  0  0  0
  149.0834  141.6073  154.0060 O   0  0  0  0  0  0  0  0  0  0  0  0
  150.2911  142.8319  156.2838 N   0  3  0  0  0  0  0  0  0  0  0  0
  151.1306  143.1624  157.3479 C   0  0  0  0  0  0  0  0  0  0  0  0
  151.4299  144.3927  157.9247 C   0  0  0  0  0  0  0  0  0  0  0  0
  152.3325  144.3803  159.0083 C   0  0  0  0  0  0  0  0  0  0  0  0
  152.8981  143.1774  159.4795 C   0  0  0  0  0  0  0  0  0  0  0  0
  152.5871  141.9361  158.8862 C   0  0  0  0  0  0  0  0  0  0  0  0
  151.6961  141.9580  157.8138 C   0  0  0  0  0  0  0  0  0  0  0  0
  150.7862  136.9143  154.8223 C   0  0  0  0  0  0  0  0  0  0  0  0
  150.4221  135.5554  154.7706 C   0  0  0  0  0  0  0  0  0  0  0  0
  149.9583  133.2040  153.6013 H   0  0  0  0  0  0  0  0  0  0  0  0
  148.5745  133.4277  154.6684 H   0  0  0  0  0  0  0  0  0  0  0  0
  149.2964  131.8332  154.4825 H   0  0  0  0  0  0  0  0  0  0  0  0
  151.3922  132.6211  155.5287 H   0  0  0  0  0  0  0  0  0  0  0  0
  150.6206  132.8591  157.8687 H   0  0  0  0  0  0  0  0  0  0  0  0
  149.7110  131.6157  157.0200 H   0  0  0  0  0  0  0  0  0  0  0  0
  148.9802  133.1877  157.3154 H   0  0  0  0  0  0  0  0  0  0  0  0
  151.9913  134.4763  157.6105 H   0  0  0  0  0  0  0  0  0  0  0  0
  152.6389  136.8567  157.6937 H   0  0  0  0  0  0  0  0  0  0  0  0
  151.6027  139.3660  155.0618 H   0  0  0  0  0  0  0  0  0  0  0  0
  153.6901  138.7176  154.9317 H   0  0  0  0  0  0  0  0  0  0  0  0
  150.7552  139.0253  157.6760 H   0  0  0  0  0  0  0  0  0  0  0  0
  152.3935  139.5589  157.9561 H   0  0  0  0  0  0  0  0  0  0  0  0
  150.1750  139.9810  154.5869 H   0  0  0  0  0  0  0  0  0  0  0  0
  148.6946  140.2473  155.4838 H   0  0  0  0  0  0  0  0  0  0  0  0
  148.1669  141.7850  154.1536 H   0  0  0  0  0  0  0  0  0  0  0  0
  150.9972  145.3153  157.5663 H   0  0  0  0  0  0  0  0  0  0  0  0
  152.5959  145.3120  159.4879 H   0  0  0  0  0  0  0  0  0  0  0  0
  153.5849  143.2071  160.3130 H   0  0  0  0  0  0  0  0  0  0  0  0
  153.0256  141.0201  159.2540 H   0  0  0  0  0  0  0  0  0  0  0  0
  150.4595  137.5817  154.0382 H   0  0  0  0  0  0  0  0  0  0  0  0
  149.8163  135.2012  153.9495 H   0  0  0  0  0  0  0  0  0  0  0  0
  149.7331  143.4749  155.7366 H   0  0  0  0  0  0  0  0  0  0  0  0
  1  2  1  0  0  0  0
  1 24  1  0  0  0  0
  1 25  1  0  0  0  0
  1 26  1  0  0  0  0
  2  3  1  0  0  0  0
  2  4  1  0  0  0  0
  2 27  1  0  0  0  0
  3 28  1  0  0  0  0
  3 29  1  0  0  0  0
  3 30  1  0  0  0  0
  4 23  1  0  0  0  0
  4  5  2  0  0  0  0
  5  6  1  0  0  0  0
  5 31  1  0  0  0  0
  6  7  2  0  0  0  0
  6 32  1  0  0  0  0
  7  8  1  0  0  0  0
  7 22  1  0  0  0  0
  8  9  1  0  0  0  0
  8 10  1  0  0  0  0
  8 33  1  0  0  0  0
  9 34  1  0  0  0  0
 10 11  1  0  0  0  0
 10 35  1  0  0  0  0
 10 36  1  0  0  0  0
 11 21  1  0  0  0  0
 11 12  1  0  0  0  0
 12 13  1  0  0  0  0
 12 15  2  0  0  0  0
 13 14  1  0  0  0  0
 13 37  1  0  0  0  0
 13 38  1  0  0  0  0
 14 39  1  0  0  0  0
 15 16  1  0  0  0  0
 15 46  1  0  0  0  0
 16 21  2  0  0  0  0
 16 17  1  0  0  0  0
 17 18  2  0  0  0  0
 17 40  1  0  0  0  0
 18 19  1  0  0  0  0
 18 41  1  0  0  0  0
 19 20  2  0  0  0  0
 19 42  1  0  0  0  0
 20 21  1  0  0  0  0
 20 43  1  0  0  0  0
 22 23  2  0  0  0  0
 22 44  1  0  0  0  0
 23 45  1  0  0  0  0
M  CHG  1  15   1
M  END
> <s_m_source_file>
AV-unprocessed.smi

> <i_m_source_file_index>
1829

> <i_lp_mmshare_version>
43012

> <i_f3d_flags>
0

> <s_epik_input>
W0NIM11bQ0hdKFtDSDNdKWMxW2NIXVtjSF1jKFtjSF1bY0hdMSlbQ0BIXShbT0hdKVtDSDJdbihjKG4yKVtDSDJdW09IXSljKGMyMylbY0hdW2NIXVtjSF1bY0hdMw==

> <s_epik_cmdline>
J2VwaWtfcHl0aG9uJywgJy1waCcsICc3LjAnLCAnLXRuJywgJzgnLCAnLW1hJywgJzIwMCcsICctbWV0YWxfYmluZGluZycsICctaW1hZScsICc8aW5maWxlLm1hZT4nLCAnLW9tYWUnLCAnPG91dGZpbGUubWFlPic=

> <r_epik_Ionization_Penalty>
1.35642

> <r_epik_Ionization_Penalty_Charging>
1.35557

> <r_epik_Ionization_Penalty_Neutral>
0.000856322

> <r_epik_State_Penalty>
1.43401

> <r_epik_Charging_Adjusted_Penalty>
2.78958

> <i_epik_Tot_Q>
1

> <i_epik_Tot_abs_Q>
1

> <r_epik_Metal_State_Penalty>
5.47166

> <b_epik_Metal_Only>
0

> <s_lp_Force_Field>
OPLS_2005

> <r_lp_Energy>
15.3194

> <b_lp_Chiralities_Consistent>
1

> <s_lp_Variant>
AV-unprocessed.smi:1829-3

> <Gold.Version>
5.8.1

> <Gold.Id.Protein>
6NUR|6NUR_protein|mol2

> <Gold.PLP.Fitness>
57.2963

> <Gold.PLP.PLP>
-48.5374

> <Gold.PLP.part.hbond>
-3.6824

> <Gold.PLP.part.metal>
0.0000

> <Gold.PLP.part.buried>
-4.2770

> <Gold.PLP.part.nonpolar>
-41.3777

> <Gold.PLP.part.repulsive>
0.1057

> <Gold.PLP.ligand.clash>
0.0000

> <Gold.PLP.ligand.torsion>
0.9849

> <Gold.PLP.Chemscore.Hbond>
3.5360

> <Gold.PLP.Chemscore.CHOScore>
0.0000

> <Gold.PLP.Chemscore.Metal>
0.0000

> <Gold.Chemscore.Hbonds>
donor molecule, donor type, donor heavy atom, donor atom, acceptor molecule, acceptor atom, score
      L1  H    15    46       P1  8028  1.87
      P1  H  7997  8009       L1     9  0.96
      P1  H  8011  8017       L1    14  0.62

> <Gold.PLP.Chemscore.Internal.Correction>
0.1208

> <Gold.Rescore>
     Score         DG    S(hbond)    S(metal)    S(lipo)     H(rot)  DE(clash)    DE(int)     intcor
     20.43     -21.40       2.30        0.00     130.69       2.75       0.01       0.96       ----

> <Gold.Chemscore.Fitness>
20.4304

> <Gold.Chemscore.DG>
-21.4031

> <Gold.Chemscore.ZeroCoef>
-5.4800

> <Gold.Chemscore.Hbond>
2.3011

> <Gold.Chemscore.Metal>
0.0000

> <Gold.Chemscore.Lipo>
130.6861

> <Gold.Chemscore.Internal_Hbond>
0.0000

> <Gold.Chemscore.DEClash>
0.0143

> <Gold.Chemscore.DEInternal>
0.9584

> <Gold.Chemscore.Rot>
2.7550

> <Gold.Chemscore.Internal.Correction>
   9.000000E+99

> <Gold.Chemscore.Hbonds>
donor molecule, donor type, donor heavy atom, donor atom, acceptor molecule, acceptor atom, score
      L1  H    15    46       P1  8028  0.85
      P1  H  7997  8009       L1     9  0.68
      P1  H  8011  8017       L1    14  0.53

> <Gold.Chemscore.Hbond.Weighted>
-7.6855

> <Gold.Chemscore.Metal.Weighted>
-0.0000

> <Gold.Chemscore.Lipo.Weighted>
-15.2903

> <Gold.Chemscore.Internal_Hbond.Weighted>
0.0000

> <Gold.Chemscore.DEClash.Weighted>
0.0143

> <Gold.Chemscore.DEInternal.Weighted>
0.9584

> <Gold.Chemscore.Rot.Weighted>
7.0527

> <Gold.Chemscore.Internal.Correction.Weighted>
   9.000000E+99

> <Gold.Protein.RotatedTorsions>
[ 6907 6896 6895 6894 ] final  174.24 input  -60.11 | X-H torsion
[ 7974 7965 7964 7962 ] final -154.28 input  175.53 | X-H torsion
[ 8008 7997 7996 7995 ] final -163.22 input   59.86 | X-H torsion
[ 10167 10162 10161 10158 ] final  -41.99 input  -65.29 | X-H torsion
[ 10718 10713 10712 10709 ] final  155.13 input   66.30 | X-H torsion
[ 10763 10752 10751 10750 ] final  -21.32 input  -60.55 | X-H torsion
[ 11005 11000 10999 10996 ] final  102.07 input  -57.11 | X-H torsion

> <Gold.Protein.ActiveResidues>
 VAL166  LYS551  ARG553  GLY616  TRP617  ASP618  TYR619  PRO620  LYS621  CYS622 
 ASP623  PHE694  ASN695  SER759  ASP760  ASP761  ALA762  ILE779  LEU786  VAL792 
 PHE793  MET794  SER795  GLU796  ALA797  LYS798  CYS799  TRP800  GLU811  SER814 

> <Gold.Protein.RotatedAtoms>
  151.7554  133.3330  159.3402 H   0  0  0  0  0  0  0  0  0  0  0  0  # atno 6907 bound_to 6896
  150.7518  134.6154  159.6117 H   0  0  0  0  0  0  0  0  0  0  0  0  # atno 6908 bound_to 6896
  152.3440  134.7098  160.0307 H   0  0  0  0  0  0  0  0  0  0  0  0  # atno 6909 bound_to 6896
  144.7697  140.4410  143.5916 H   0  0  0  0  0  0  0  0  0  0  0  0  # atno 7974 bound_to 7965
  155.8181  140.0915  157.1865 H   0  0  0  0  0  0  0  0  0  0  0  0  # atno 8008 bound_to 7997
  154.3979  140.1442  156.3527 H   0  0  0  0  0  0  0  0  0  0  0  0  # atno 8009 bound_to 7997
  155.8295  140.3443  155.5566 H   0  0  0  0  0  0  0  0  0  0  0  0  # atno 8010 bound_to 7997
  140.6984  143.3063  151.3145 H   0  0  0  0  0  0  0  0  0  0  0  0  # atno 10167 bound_to 10162
  157.2224  131.0721  151.1904 H   0  0  0  0  0  0  0  0  0  0  0  0  # atno 10718 bound_to 10713
  153.6343  135.6988  153.5264 H   0  0  0  0  0  0  0  0  0  0  0  0  # atno 10763 bound_to 10752
  153.2834  135.4179  155.1099 H   0  0  0  0  0  0  0  0  0  0  0  0  # atno 10764 bound_to 10752
  154.8515  135.3607  154.5886 H   0  0  0  0  0  0  0  0  0  0  0  0  # atno 10765 bound_to 10752
  139.8776  134.9209  156.5003 H   0  0  0  0  0  0  0  0  0  0  0  0  # atno 11005 bound_to 11000
  145.6360  139.1543  143.2942 LP  0  0  0  0  0  0  0  0  0  0  0  0  # atno 17320 bound_to 7965
  146.1834  140.6460  142.9178 LP  0  0  0  0  0  0  0  0  0  0  0  0  # atno 17321 bound_to 7965
  139.6470  144.0433  152.2598 LP  0  0  0  0  0  0  0  0  0  0  0  0  # atno 17342 bound_to 10162
  139.9957  144.6330  150.7775 LP  0  0  0  0  0  0  0  0  0  0  0  0  # atno 17343 bound_to 10162
  157.3562  130.7107  149.6472 LP  0  0  0  0  0  0  0  0  0  0  0  0  # atno 17370 bound_to 10713
  155.9681  130.4238  150.4581 LP  0  0  0  0  0  0  0  0  0  0  0  0  # atno 17371 bound_to 10713
  140.8594  133.8071  155.9250 LP  0  0  0  0  0  0  0  0  0  0  0  0  # atno 17394 bound_to 11000
  140.9064  134.2314  157.5011 LP  0  0  0  0  0  0  0  0  0  0  0  0  # atno 17395 bound_to 11000

$$$$
