AV-unprocessed.smi:1278|AV-procd|sdf|5351|dock2
  -GOLD-   22720 4483D 1   1.00000     0.00000
 Structure written by MMmdl.
 38 39  0  0  0  0  0  0  0  0  3 V2000
  152.2256  144.8718  158.2342 C   0  0  0  0  0  0  0  0  0  0  0  0
  151.9481  143.5250  158.9165 C   0  0  2  0  0  0  0  0  0  0  0  0
  153.2434  142.8854  159.4442 C   0  0  0  0  0  0  0  0  0  0  0  0
  152.9397  141.5307  160.0961 C   0  0  0  0  0  0  0  0  0  0  0  0
  152.1881  140.6085  159.1229 C   0  0  0  0  0  0  0  0  0  0  0  0
  150.9402  141.2493  158.6337 N   0  3  2  0  0  0  0  0  0  0  0  0
  150.1307  140.3298  157.7967 C   0  0  0  0  0  0  0  0  0  0  0  0
  150.1004  138.8968  158.3612 C   0  0  0  0  0  0  0  0  0  0  0  0
  148.8843  138.6580  159.1287 N   0  0  0  0  0  0  0  0  0  0  0  0
  148.5305  137.4917  159.6869 C   0  0  0  0  0  0  0  0  0  0  0  0
  149.2560  136.5030  159.5547 O   0  0  0  0  0  0  0  0  0  0  0  0
  147.3632  137.5461  160.3660 N   0  5  0  0  0  0  0  0  0  0  0  0
  147.0735  136.6053  161.2795 C   0  0  0  0  0  0  0  0  0  0  0  0
  146.1356  135.6698  161.0903 N   0  0  0  0  0  0  0  0  0  0  0  0
  146.0040  134.7901  162.1665 C   0  0  0  0  0  0  0  0  0  0  0  0
  146.8664  135.0583  163.1963 C   0  0  0  0  0  0  0  0  0  0  0  0
  147.8787  136.4291  162.8412 S   0  0  0  0  0  0  0  0  0  0  0  0
  151.2196  142.5508  157.9684 C   0  0  0  0  0  0  0  0  0  0  0  0
  152.8735  144.7506  157.3653 H   0  0  0  0  0  0  0  0  0  0  0  0
  152.7137  145.5661  158.9189 H   0  0  0  0  0  0  0  0  0  0  0  0
  151.3002  145.3391  157.8964 H   0  0  0  0  0  0  0  0  0  0  0  0
  151.2942  143.7174  159.7686 H   0  0  0  0  0  0  0  0  0  0  0  0
  153.9516  142.7476  158.6259 H   0  0  0  0  0  0  0  0  0  0  0  0
  153.7257  143.5451  160.1666 H   0  0  0  0  0  0  0  0  0  0  0  0
  153.8670  141.0563  160.4180 H   0  0  0  0  0  0  0  0  0  0  0  0
  152.3409  141.6816  160.9954 H   0  0  0  0  0  0  0  0  0  0  0  0
  152.8252  140.3546  158.2741 H   0  0  0  0  0  0  0  0  0  0  0  0
  151.9493  139.6736  159.6314 H   0  0  0  0  0  0  0  0  0  0  0  0
  149.1232  140.7329  157.6821 H   0  0  0  0  0  0  0  0  0  0  0  0
  150.5567  140.2838  156.7933 H   0  0  0  0  0  0  0  0  0  0  0  0
  150.1320  138.1749  157.5447 H   0  0  0  0  0  0  0  0  0  0  0  0
  150.9664  138.6906  158.9906 H   0  0  0  0  0  0  0  0  0  0  0  0
  148.2597  139.4409  159.2575 H   0  0  0  0  0  0  0  0  0  0  0  0
  145.2689  134.0009  162.1143 H   0  0  0  0  0  0  0  0  0  0  0  0
  146.9698  134.5360  164.1352 H   0  0  0  0  0  0  0  0  0  0  0  0
  150.2883  143.0097  157.6383 H   0  0  0  0  0  0  0  0  0  0  0  0
  151.8176  142.3784  157.0716 H   0  0  0  0  0  0  0  0  0  0  0  0
  150.3857  141.4487  159.4540 H   0  0  0  0  0  0  0  0  0  0  0  0
  1  2  1  0  0  0  0
  1 19  1  0  0  0  0
  1 20  1  0  0  0  0
  1 21  1  0  0  0  0
  2 18  1  0  0  0  0
  2  3  1  0  0  0  0
  2 22  1  0  0  0  0
  3  4  1  0  0  0  0
  3 23  1  0  0  0  0
  3 24  1  0  0  0  0
  4  5  1  0  0  0  0
  4 25  1  0  0  0  0
  4 26  1  0  0  0  0
  5  6  1  0  0  0  0
  5 27  1  0  0  0  0
  5 28  1  0  0  0  0
  6  7  1  0  0  0  0
  6 18  1  0  0  0  0
  6 38  1  0  0  0  0
  7  8  1  0  0  0  0
  7 29  1  0  0  0  0
  7 30  1  0  0  0  0
  8  9  1  0  0  0  0
  8 31  1  0  0  0  0
  8 32  1  0  0  0  0
  9 10  1  0  0  0  0
  9 33  1  0  0  0  0
 10 11  2  0  0  0  0
 10 12  1  0  0  0  0
 12 13  1  0  0  0  0
 13 17  1  0  0  0  0
 13 14  2  0  0  0  0
 14 15  1  0  0  0  0
 15 16  2  0  0  0  0
 15 34  1  0  0  0  0
 16 17  1  0  0  0  0
 16 35  1  0  0  0  0
 18 36  1  0  0  0  0
 18 37  1  0  0  0  0
M  CHG  1   6   1
M  CHG  1  12  -1
M  END
> <s_m_source_file>
AV-unprocessed.smi

> <i_m_source_file_index>
1278

> <i_lp_mmshare_version>
43012

> <i_f3d_flags>
0

> <s_epik_input>
W0NIM11bQ0BASF0xW0NIMl1bQ0gyXVtDSDJdTihbQ0gyXTEpW0NIMl1bQ0gyXVtOSF1DKD1PKVtOSF1jMm5bY0hdW2NIXXMy

> <s_epik_cmdline>
J2VwaWtfcHl0aG9uJywgJy1waCcsICc3LjAnLCAnLXRuJywgJzgnLCAnLW1hJywgJzIwMCcsICctbWV0YWxfYmluZGluZycsICctaW1hZScsICc8aW5maWxlLm1hZT4nLCAnLW9tYWUnLCAnPG91dGZpbGUubWFlPic=

> <r_lp_tautomer_probability>
0.999

> <r_epik_Ionization_Penalty>
6.22019

> <r_epik_Ionization_Penalty_Charging>
5.38911

> <r_epik_Ionization_Penalty_Neutral>
0.831074

> <r_epik_State_Penalty>
5.38904

> <r_epik_Charging_Adjusted_Penalty>
10.7782

> <i_epik_Tot_Q>
0

> <i_epik_Tot_abs_Q>
2

> <r_epik_Metal_State_Penalty>
1.41502

> <b_epik_Metal_Only>
1

> <s_lp_Force_Field>
OPLS_2005

> <r_lp_Energy>
5.98005

> <b_lp_Chiralities_Consistent>
1

> <s_lp_Variant>
AV-unprocessed.smi:1278-5

> <Gold.Version>
5.8.1

> <Gold.Id.Protein>
6NUR|6NUR_protein|mol2

> <Gold.PLP.Fitness>
44.0519

> <Gold.PLP.PLP>
-37.9564

> <Gold.PLP.part.hbond>
-2.0533

> <Gold.PLP.part.metal>
0.0000

> <Gold.PLP.part.buried>
-4.5418

> <Gold.PLP.part.nonpolar>
-33.0042

> <Gold.PLP.part.repulsive>
0.3718

> <Gold.PLP.ligand.clash>
0.0000

> <Gold.PLP.ligand.torsion>
1.1418

> <Gold.PLP.Chemscore.Hbond>
2.7600

> <Gold.PLP.Chemscore.CHOScore>
0.0000

> <Gold.PLP.Chemscore.Metal>
0.0000

> <Gold.Chemscore.Hbonds>
donor molecule, donor type, donor heavy atom, donor atom, acceptor molecule, acceptor atom, score
      P1  H  6896  6908       L1    11  0.39
      P1  H  6934  6947       L1    12  2.00

> <Gold.PLP.Chemscore.Internal.Correction>
0.0992

> <Gold.Rescore>
     Score         DG    S(hbond)    S(metal)    S(lipo)     H(rot)  DE(clash)    DE(int)     intcor
     15.43     -16.33       1.17        0.00      93.62       1.57       0.09       0.81       ----

> <Gold.Chemscore.Fitness>
15.4344

> <Gold.Chemscore.DG>
-16.3347

> <Gold.Chemscore.ZeroCoef>
-5.4800

> <Gold.Chemscore.Hbond>
1.1718

> <Gold.Chemscore.Metal>
0.0000

> <Gold.Chemscore.Lipo>
93.6225

> <Gold.Chemscore.Internal_Hbond>
0.0000

> <Gold.Chemscore.DEClash>
0.0873

> <Gold.Chemscore.DEInternal>
0.8130

> <Gold.Chemscore.Rot>
1.5676

> <Gold.Chemscore.Internal.Correction>
   9.000000E+99

> <Gold.Chemscore.Hbonds>
donor molecule, donor type, donor heavy atom, donor atom, acceptor molecule, acceptor atom, score
      P1  H  6896  6908       L1    11  0.39
      P1  H  6934  6947       L1    12  0.52

> <Gold.Chemscore.Hbond.Weighted>
-3.9139

> <Gold.Chemscore.Metal.Weighted>
-0.0000

> <Gold.Chemscore.Lipo.Weighted>
-10.9538

> <Gold.Chemscore.Internal_Hbond.Weighted>
0.0000

> <Gold.Chemscore.DEClash.Weighted>
0.0873

> <Gold.Chemscore.DEInternal.Weighted>
0.8130

> <Gold.Chemscore.Rot.Weighted>
4.0130

> <Gold.Chemscore.Internal.Correction.Weighted>
   9.000000E+99

> <Gold.Protein.RotatedTorsions>
[ 6907 6896 6895 6894 ] final -171.30 input  -60.11 | X-H torsion
[ 7974 7965 7964 7962 ] final  142.02 input  175.53 | X-H torsion
[ 8008 7997 7996 7995 ] final  -34.68 input   59.86 | X-H torsion
[ 10167 10162 10161 10158 ] final   42.17 input  -65.29 | X-H torsion
[ 10718 10713 10712 10709 ] final  -12.38 input   66.30 | X-H torsion
[ 10763 10752 10751 10750 ] final  101.93 input  -60.55 | X-H torsion
[ 11005 11000 10999 10996 ] final  154.30 input  -57.11 | X-H torsion

> <Gold.Protein.ActiveResidues>
 VAL166  LYS551  ARG553  GLY616  TRP617  ASP618  TYR619  PRO620  LYS621  CYS622 
 ASP623  PHE694  ASN695  SER759  ASP760  ASP761  ALA762  ILE779  LEU786  VAL792 
 PHE793  MET794  SER795  GLU796  ALA797  LYS798  CYS799  TRP800  GLU811  SER814 

> <Gold.Protein.RotatedAtoms>
  151.5215  133.3465  159.2902 H   0  0  0  0  0  0  0  0  0  0  0  0  # atno 6907 bound_to 6896
  150.8649  134.8012  159.7122 H   0  0  0  0  0  0  0  0  0  0  0  0  # atno 6908 bound_to 6896
  152.4657  134.5090  159.9800 H   0  0  0  0  0  0  0  0  0  0  0  0  # atno 6909 bound_to 6896
  144.9044  139.5378  143.5738 H   0  0  0  0  0  0  0  0  0  0  0  0  # atno 7974 bound_to 7965
  154.4114  140.1677  156.2088 H   0  0  0  0  0  0  0  0  0  0  0  0  # atno 8008 bound_to 7997
  155.9461  140.3404  155.6345 H   0  0  0  0  0  0  0  0  0  0  0  0  # atno 8009 bound_to 7997
  155.6928  140.0736  157.2432 H   0  0  0  0  0  0  0  0  0  0  0  0  # atno 8010 bound_to 7997
  140.3571  144.2277  150.6141 H   0  0  0  0  0  0  0  0  0  0  0  0  # atno 10167 bound_to 10162
  156.6455  130.4940  149.6080 H   0  0  0  0  0  0  0  0  0  0  0  0  # atno 10718 bound_to 10713
  153.3330  135.4028  155.1511 H   0  0  0  0  0  0  0  0  0  0  0  0  # atno 10763 bound_to 10752
  154.8627  135.3615  154.5445 H   0  0  0  0  0  0  0  0  0  0  0  0  # atno 10764 bound_to 10752
  153.5885  135.7074  153.5492 H   0  0  0  0  0  0  0  0  0  0  0  0  # atno 10765 bound_to 10752
  140.1477  134.8696  157.2413 H   0  0  0  0  0  0  0  0  0  0  0  0  # atno 11005 bound_to 11000
  146.3126  139.7800  142.9008 LP  0  0  0  0  0  0  0  0  0  0  0  0  # atno 17320 bound_to 7965
  145.3561  141.0317  143.3311 LP  0  0  0  0  0  0  0  0  0  0  0  0  # atno 17321 bound_to 7965
  140.5163  143.2277  151.8457 LP  0  0  0  0  0  0  0  0  0  0  0  0  # atno 17342 bound_to 10162
  139.4819  144.4890  151.9210 LP  0  0  0  0  0  0  0  0  0  0  0  0  # atno 17343 bound_to 10162
  156.2125  130.6688  151.1285 LP  0  0  0  0  0  0  0  0  0  0  0  0  # atno 17370 bound_to 10713
  157.7157  131.0710  150.6334 LP  0  0  0  0  0  0  0  0  0  0  0  0  # atno 17371 bound_to 10713
  140.2644  134.3534  155.7395 LP  0  0  0  0  0  0  0  0  0  0  0  0  # atno 17394 bound_to 11000
  141.2195  133.7387  156.9128 LP  0  0  0  0  0  0  0  0  0  0  0  0  # atno 17395 bound_to 11000

$$$$
