AV-unprocessed.smi:2829|AV-procd|sdf|10901|dock2
  -GOLD-   2272015343D 1   1.00000     0.00000
 Structure written by MMmdl.
 50 53  0  0  0  0  0  0  0  0  1 V2000
  148.0203  129.1036  155.4294 C   0  0  0  0  0  0  0  0  0  0  0  0
  148.9251  129.6032  154.2838 C   0  0  0  0  0  0  0  0  0  0  0  0
  150.3469  129.0267  154.4489 C   0  0  0  0  0  0  0  0  0  0  0  0
  148.3498  129.0474  152.9614 C   0  0  0  0  0  0  0  0  0  0  0  0
  148.9829  131.1414  154.3000 C   0  0  0  0  0  0  0  0  0  0  0  0
  148.4914  131.9454  153.2466 C   0  0  0  0  0  0  0  0  0  0  0  0
  148.6043  133.3396  153.3803 C   0  0  0  0  0  0  0  0  0  0  0  0
  149.1981  133.8570  154.5489 C   0  0  0  0  0  0  0  0  0  0  0  0
  149.2805  135.2722  154.6140 N   0  0  0  0  0  0  0  0  0  0  0  0
  149.6585  136.0386  155.6564 C   0  0  0  0  0  0  0  0  0  0  0  0
  149.9978  135.6087  156.7572 O   0  0  0  0  0  0  0  0  0  0  0  0
  149.6185  137.3591  155.4065 N   0  0  0  0  0  0  0  0  0  0  0  0
  149.9640  138.4504  156.3201 C   0  0  1  0  0  0  0  0  0  0  0  0
  151.4650  138.5161  156.6893 C   0  0  1  0  0  0  0  0  0  0  0  0
  152.5228  137.7140  155.9752 C   0  0  0  0  0  0  0  0  0  0  0  0
  152.7768  138.5330  154.7138 C   0  0  0  0  0  0  0  0  0  0  0  0
  152.5268  139.8832  155.1037 O   0  0  0  0  0  0  0  0  0  0  0  0
  151.5182  139.9308  156.1166 C   0  0  1  0  0  0  0  0  0  0  0  0
  150.0666  139.8142  155.6167 C   0  0  0  0  0  0  0  0  0  0  0  0
  149.7003  140.0454  154.1354 C   0  0  0  0  0  0  0  0  0  0  0  0
  149.2285  141.4484  154.5234 C   0  0  0  0  0  0  0  0  0  0  0  0
  149.0683  140.9328  155.9555 C   0  0  0  0  0  0  0  0  0  0  0  0
  149.6478  133.0256  155.5219 N   0  0  0  0  0  0  0  0  0  0  0  0
  149.5426  131.6990  155.4014 N   0  0  0  0  0  0  0  0  0  0  0  0
  147.9425  128.0159  155.4287 H   0  0  0  0  0  0  0  0  0  0  0  0
  147.0102  129.5055  155.3392 H   0  0  0  0  0  0  0  0  0  0  0  0
  148.4040  129.3969  156.4073 H   0  0  0  0  0  0  0  0  0  0  0  0
  150.7959  129.3195  155.3988 H   0  0  0  0  0  0  0  0  0  0  0  0
  151.0081  129.3717  153.6529 H   0  0  0  0  0  0  0  0  0  0  0  0
  150.3397  127.9365  154.4207 H   0  0  0  0  0  0  0  0  0  0  0  0
  148.3199  127.9572  152.9706 H   0  0  0  0  0  0  0  0  0  0  0  0
  148.9552  129.3415  152.1032 H   0  0  0  0  0  0  0  0  0  0  0  0
  147.3291  129.3918  152.7897 H   0  0  0  0  0  0  0  0  0  0  0  0
  148.0408  131.5336  152.3571 H   0  0  0  0  0  0  0  0  0  0  0  0
  148.2423  133.9936  152.6003 H   0  0  0  0  0  0  0  0  0  0  0  0
  149.0198  135.7628  153.7714 H   0  0  0  0  0  0  0  0  0  0  0  0
  149.2801  137.6377  154.4966 H   0  0  0  0  0  0  0  0  0  0  0  0
  149.3226  138.5123  157.2013 H   0  0  0  0  0  0  0  0  0  0  0  0
  151.5876  138.5115  157.7731 H   0  0  0  0  0  0  0  0  0  0  0  0
  153.4308  137.6736  156.5777 H   0  0  0  0  0  0  0  0  0  0  0  0
  152.2298  136.6875  155.7566 H   0  0  0  0  0  0  0  0  0  0  0  0
  153.7877  138.4073  154.3259 H   0  0  0  0  0  0  0  0  0  0  0  0
  152.0763  138.2473  153.9281 H   0  0  0  0  0  0  0  0  0  0  0  0
  151.6763  140.7102  156.8627 H   0  0  0  0  0  0  0  0  0  0  0  0
  150.5322  140.0320  153.4320 H   0  0  0  0  0  0  0  0  0  0  0  0
  148.8761  139.4195  153.7899 H   0  0  0  0  0  0  0  0  0  0  0  0
  150.0156  142.1985  154.4299 H   0  0  0  0  0  0  0  0  0  0  0  0
  148.3024  141.7688  154.0453 H   0  0  0  0  0  0  0  0  0  0  0  0
  148.0639  140.5551  156.1547 H   0  0  0  0  0  0  0  0  0  0  0  0
  149.3956  141.6274  156.7295 H   0  0  0  0  0  0  0  0  0  0  0  0
  1  2  1  0  0  0  0
  1 25  1  0  0  0  0
  1 26  1  0  0  0  0
  1 27  1  0  0  0  0
  2  3  1  0  0  0  0
  2  4  1  0  0  0  0
  2  5  1  0  0  0  0
  3 28  1  0  0  0  0
  3 29  1  0  0  0  0
  3 30  1  0  0  0  0
  4 31  1  0  0  0  0
  4 32  1  0  0  0  0
  4 33  1  0  0  0  0
  5 24  1  0  0  0  0
  5  6  2  0  0  0  0
  6  7  1  0  0  0  0
  6 34  1  0  0  0  0
  7  8  2  0  0  0  0
  7 35  1  0  0  0  0
  8  9  1  0  0  0  0
  8 23  1  0  0  0  0
  9 10  1  0  0  0  0
  9 36  1  0  0  0  0
 10 11  2  0  0  0  0
 10 12  1  0  0  0  0
 12 13  1  0  0  0  0
 12 37  1  0  0  0  0
 13 19  1  0  0  0  0
 13 14  1  0  0  0  0
 13 38  1  0  0  0  0
 14 18  1  0  0  0  0
 14 15  1  0  0  0  0
 14 39  1  0  0  0  0
 15 16  1  0  0  0  0
 15 40  1  0  0  0  0
 15 41  1  0  0  0  0
 16 17  1  0  0  0  0
 16 42  1  0  0  0  0
 16 43  1  0  0  0  0
 17 18  1  0  0  0  0
 18 19  1  0  0  0  0
 18 44  1  0  0  0  0
 19 22  1  0  0  0  0
 19 20  1  0  0  0  0
 20 21  1  0  0  0  0
 20 45  1  0  0  0  0
 20 46  1  0  0  0  0
 21 22  1  0  0  0  0
 21 47  1  0  0  0  0
 21 48  1  0  0  0  0
 22 49  1  0  0  0  0
 22 50  1  0  0  0  0
 23 24  2  0  0  0  0
M  END
> <s_m_source_file>
AV-unprocessed.smi

> <i_m_source_file_index>
2829

> <i_lp_mmshare_version>
43012

> <i_f3d_flags>
0

> <s_epik_input>
W0NIM11DKFtDSDNdKShbQ0gzXSljMVtjSF1bY0hdYyhubjEpW05IXUMoPU8pW05IXVtDQEBIXTJbQ0BIXShbQ0gyXVtDSDJdTzMpW0NAQEhdM0MyNFtDSDJdW0NIMl1bQ0gyXTQ=

> <s_epik_cmdline>
J2VwaWtfcHl0aG9uJywgJy1waCcsICc3LjAnLCAnLXRuJywgJzgnLCAnLW1hJywgJzIwMCcsICctbWV0YWxfYmluZGluZycsICctaW1hZScsICc8aW5maWxlLm1hZT4nLCAnLW9tYWUnLCAnPG91dGZpbGUubWFlPic=

> <r_lp_tautomer_probability>
1

> <r_epik_Ionization_Penalty>
0.011915

> <r_epik_Ionization_Penalty_Charging>
0

> <r_epik_Ionization_Penalty_Neutral>
0.011915

> <r_epik_State_Penalty>
0.00486223

> <r_epik_Charging_Adjusted_Penalty>
0.00486223

> <i_epik_Tot_Q>
0

> <i_epik_Tot_abs_Q>
0

> <r_epik_Metal_State_Penalty>
-0

> <b_epik_Metal_Only>
0

> <s_lp_Force_Field>
OPLS_2005

> <r_lp_Energy>
61.8896

> <b_lp_Chiralities_Consistent>
1

> <s_lp_Variant>
AV-unprocessed.smi:2829-4

> <Gold.Version>
5.8.1

> <Gold.Id.Protein>
6NUR|6NUR_protein|mol2

> <Gold.PLP.Fitness>
41.0354

> <Gold.PLP.PLP>
-34.5011

> <Gold.PLP.part.hbond>
-2.7468

> <Gold.PLP.part.metal>
0.0000

> <Gold.PLP.part.buried>
1.2517

> <Gold.PLP.part.nonpolar>
-32.2845

> <Gold.PLP.part.repulsive>
0.0471

> <Gold.PLP.ligand.clash>
0.0000

> <Gold.PLP.ligand.torsion>
0.1331

> <Gold.PLP.Chemscore.Hbond>
2.2121

> <Gold.PLP.Chemscore.CHOScore>
0.0000

> <Gold.PLP.Chemscore.Metal>
0.0000

> <Gold.Chemscore.Hbonds>
donor molecule, donor type, donor heavy atom, donor atom, acceptor molecule, acceptor atom, score
      L1  H     9    36       P1  7948  1.00
      P1  H  7989  7998       L1    17  0.55
      P1  H  7997  8009       L1    17  0.63

> <Gold.PLP.Chemscore.Internal.Correction>
0.1644

> <Gold.Rescore>
     Score         DG    S(hbond)    S(metal)    S(lipo)     H(rot)  DE(clash)    DE(int)     intcor
     15.24     -17.04       1.30        0.00      87.22       1.16       0.41       1.38       ----

> <Gold.Chemscore.Fitness>
15.2420

> <Gold.Chemscore.DG>
-17.0373

> <Gold.Chemscore.ZeroCoef>
-5.4800

> <Gold.Chemscore.Hbond>
1.2954

> <Gold.Chemscore.Metal>
0.0000

> <Gold.Chemscore.Lipo>
87.2211

> <Gold.Chemscore.Internal_Hbond>
0.0000

> <Gold.Chemscore.DEClash>
0.4127

> <Gold.Chemscore.DEInternal>
1.3826

> <Gold.Chemscore.Rot>
1.1618

> <Gold.Chemscore.Internal.Correction>
   9.000000E+99

> <Gold.Chemscore.Hbonds>
donor molecule, donor type, donor heavy atom, donor atom, acceptor molecule, acceptor atom, score
      L1  H     9    36       P1  7948  0.87
      P1  H  7989  7998       L1    17  0.16
      P1  H  7997  8009       L1    17  0.06

> <Gold.Chemscore.Hbond.Weighted>
-4.3265

> <Gold.Chemscore.Metal.Weighted>
-0.0000

> <Gold.Chemscore.Lipo.Weighted>
-10.2049

> <Gold.Chemscore.Internal_Hbond.Weighted>
0.0000

> <Gold.Chemscore.DEClash.Weighted>
0.4127

> <Gold.Chemscore.DEInternal.Weighted>
1.3826

> <Gold.Chemscore.Rot.Weighted>
2.9741

> <Gold.Chemscore.Internal.Correction.Weighted>
   9.000000E+99

> <Gold.Protein.RotatedTorsions>
[ 6907 6896 6895 6894 ] final  102.67 input  -60.11 | X-H torsion
[ 7974 7965 7964 7962 ] final -125.95 input  175.53 | X-H torsion
[ 8008 7997 7996 7995 ] final -139.21 input   59.86 | X-H torsion
[ 10167 10162 10161 10158 ] final   88.33 input  -65.29 | X-H torsion
[ 10718 10713 10712 10709 ] final  103.87 input   66.30 | X-H torsion
[ 10763 10752 10751 10750 ] final  104.56 input  -60.55 | X-H torsion
[ 11005 11000 10999 10996 ] final  -15.75 input  -57.11 | X-H torsion

> <Gold.Protein.ActiveResidues>
 VAL166  LYS551  ARG553  GLY616  TRP617  ASP618  TYR619  PRO620  LYS621  CYS622 
 ASP623  PHE694  ASN695  SER759  ASP760  ASP761  ALA762  ILE779  LEU786  VAL792 
 PHE793  MET794  SER795  GLU796  ALA797  LYS798  CYS799  TRP800  GLU811  SER814 

> <Gold.Protein.RotatedAtoms>
  152.5317  133.9941  159.7863 H   0  0  0  0  0  0  0  0  0  0  0  0  # atno 6907 bound_to 6896
  151.0171  133.5903  159.2683 H   0  0  0  0  0  0  0  0  0  0  0  0  # atno 6908 bound_to 6896
  151.2956  135.0761  159.9273 H   0  0  0  0  0  0  0  0  0  0  0  0  # atno 6909 bound_to 6896
  144.9923  140.7743  143.4547 H   0  0  0  0  0  0  0  0  0  0  0  0  # atno 7974 bound_to 7965
  155.4410  140.0532  157.3010 H   0  0  0  0  0  0  0  0  0  0  0  0  # atno 8008 bound_to 7997
  154.4818  140.2084  155.9703 H   0  0  0  0  0  0  0  0  0  0  0  0  # atno 8009 bound_to 7997
  156.1217  140.3187  155.8222 H   0  0  0  0  0  0  0  0  0  0  0  0  # atno 8010 bound_to 7997
  139.8684  144.6506  150.8978 H   0  0  0  0  0  0  0  0  0  0  0  0  # atno 10167 bound_to 10162
  157.6758  131.0790  150.5621 H   0  0  0  0  0  0  0  0  0  0  0  0  # atno 10718 bound_to 10713
  153.3675  135.3939  155.1764 H   0  0  0  0  0  0  0  0  0  0  0  0  # atno 10763 bound_to 10752
  154.8689  135.3694  154.5020 H   0  0  0  0  0  0  0  0  0  0  0  0  # atno 10764 bound_to 10752
  153.5485  135.7083  153.5663 H   0  0  0  0  0  0  0  0  0  0  0  0  # atno 10765 bound_to 10752
  140.7998  133.8223  155.9459 H   0  0  0  0  0  0  0  0  0  0  0  0  # atno 11005 bound_to 11000
  145.2269  139.2133  143.5063 LP  0  0  0  0  0  0  0  0  0  0  0  0  # atno 17320 bound_to 7965
  146.3434  140.2138  142.8590 LP  0  0  0  0  0  0  0  0  0  0  0  0  # atno 17321 bound_to 7965
  140.7764  143.3684  151.1694 LP  0  0  0  0  0  0  0  0  0  0  0  0  # atno 17342 bound_to 10162
  139.7307  143.9077  152.3018 LP  0  0  0  0  0  0  0  0  0  0  0  0  # atno 17343 bound_to 10162
  156.5924  130.4332  149.5931 LP  0  0  0  0  0  0  0  0  0  0  0  0  # atno 17370 bound_to 10713
  156.2573  130.6942  151.1699 LP  0  0  0  0  0  0  0  0  0  0  0  0  # atno 17371 bound_to 10713
  140.9306  134.2026  157.4866 LP  0  0  0  0  0  0  0  0  0  0  0  0  # atno 17394 bound_to 11000
  139.8723  134.9831  156.5184 LP  0  0  0  0  0  0  0  0  0  0  0  0  # atno 17395 bound_to 11000

$$$$
