#       Name:                AV-unprocessed.smi:626
#       Creating user name   scv26
#       Creation time:       Fri Mar 27 00:03:39 2020


#       File generated by GOLD software.
#

@<TRIPOS>MOLECULE
AV-unprocessed.smi:626
    40    42     1
SMALL
NO_CHARGES


@<TRIPOS>ATOM
      1 ****        -5.0918  -1.3777  -3.0455 C.3            1 S1                 0.0000
      2 ****        -3.7643  -1.8802  -2.7271 N.am           1 S1                 0.0000
      3 ****        -2.6674  -1.1129  -2.6415 C.2            1 S1                 0.0000
      4 ****        -2.6773   0.1032  -2.8340 O.2            1 S1                 0.0000
      5 ****        -1.3592  -1.8223  -2.2841 C.3            1 S1                 0.0000
      6 ****        -0.9261  -1.4663  -0.8978 C.2            1 S1                 0.0000
      7 ****        -1.4131  -2.0995   0.1630 N.2            1 S1                 0.0000
      8 ****        -0.7522  -1.4865   1.2369 O.3            1 S1                 0.0000
      9 ****         0.0339  -0.5255   0.6931 C.2            1 S1                 0.0000
     10 ****         0.9504   0.2434   1.5957 C.3            1 S1                 0.0000
     11 ****         2.3759  -0.3387   1.6967 C.3            1 S1                 0.0000
     12 ****         3.2616   0.8942   1.4339 C.3            1 S1                 0.0000
     13 ****         3.1321   1.8915   2.6021 C.3            1 S1                 0.0000
     14 ****         1.7254   2.4875   2.3906 C.3            1 S1                 0.0000
     15 ****         1.2099   1.7063   1.1668 C.3            1 S1                 0.0000
     16 ****         2.4837   1.6005   0.3309 C.3            1 S1                 0.0000
     17 ****         0.0000  -0.5026  -0.6382 N.2            1 S1                 0.0000
     18 ****        -5.7902  -2.2085  -3.1450 H              1 S1                 0.0000
     19 ****        -5.0866  -0.8236  -3.9852 H              1 S1                 0.0000
     20 ****        -5.4540  -0.7195  -2.2548 H              1 S1                 0.0000
     21 ****        -3.6741  -2.8711  -2.5537 H              1 S1                 0.0000
     22 ****        -1.4710  -2.9045  -2.3674 H              1 S1                 0.0000
     23 ****        -0.5868  -1.5288  -2.9962 H              1 S1                 0.0000
     24 ****         0.4873   0.2380   2.5838 H              1 S1                 0.0000
     25 ****         2.5710  -0.8035   2.6637 H              1 S1                 0.0000
     26 ****         2.5501  -1.0911   0.9257 H              1 S1                 0.0000
     27 ****         4.2928   0.6445   1.1823 H              1 S1                 0.0000
     28 ****         3.2357   1.4033   3.5718 H              1 S1                 0.0000
     29 ****         3.8919   2.6712   2.5366 H              1 S1                 0.0000
     30 ****         1.0850   2.3720   3.2658 H              1 S1                 0.0000
     31 ****         1.7919   3.5530   2.1670 H              1 S1                 0.0000
     32 ****         0.3617   2.1879   0.6786 H              1 S1                 0.0000
     33 ****         2.9041   2.5700   0.0568 H              1 S1                 0.0000
     34 ****         2.3685   0.9968  -0.5704 H              1 S1                 0.0000
     35 ****        -3.5328   0.5655  -3.0671 LP             1 S1                 0.0000
     36 ****        -1.8298   0.6284  -2.7573 LP             1 S1                 0.0000
     37 ****        -2.0886  -2.8364   0.1895 LP             1 S1                 0.0000
     38 ****        -0.1939  -2.1550   1.7284 LP             1 S1                 0.0000
     39 ****        -1.4146  -1.0789   1.8654 LP             1 S1                 0.0000
     40 ****         0.5163   0.0690  -1.2760 LP             1 S1                 0.0000
@<TRIPOS>BOND
    1    1    2 1     
    2    1   18 1     
    3    1   19 1     
    4    1   20 1     
    5    2    3 am    
    6    2   21 1     
    7    3    4 2     
    8    3    5 1     
    9    5    6 1     
   10    5   22 1     
   11    5   23 1     
   12    6   17 1     
   13    6    7 2     
   14    7    8 1     
   15    8    9 1     
   16    9   10 1     
   17    9   17 2     
   18   10   15 1     
   19   10   11 1     
   20   10   24 1     
   21   11   12 1     
   22   11   25 1     
   23   11   26 1     
   24   12   16 1     
   25   12   13 1     
   26   12   27 1     
   27   13   14 1     
   28   13   28 1     
   29   13   29 1     
   30   14   15 1     
   31   14   30 1     
   32   14   31 1     
   33   15   16 1     
   34   15   32 1     
   35   16   33 1     
   36   16   34 1     
   37    4   35 1     
   38    4   36 1     
   39    7   37 1     
   40    8   38 1     
   41    8   39 1     
   42   17   40 1     
@<TRIPOS>SUBSTRUCTURE
      1 S1             1
@<TRIPOS>SET
LONE_PAIRS      STATIC     ATOMS    <user>   **** ""
6 35 36 37 38 39 40
DONOR_HYDROGENS      STATIC     ATOMS    <user>   **** ""
1 21
ATOM$BLUE        STATIC     ATOMS    COLORGROUP SYSTEM
6 35 36 37 38 39 40
ATOM$RED        STATIC     ATOMS    COLORGROUP SYSTEM
1 21
