#       Name:                AV-unprocessed.smi:3156
#       Creating user name   scv26
#       Creation time:       Fri Mar 27 17:44:45 2020


#       File generated by GOLD software.
#

@<TRIPOS>MOLECULE
AV-unprocessed.smi:3156
    44    45     1
SMALL
NO_CHARGES


@<TRIPOS>ATOM
      1 ****        -2.4589  -1.1629  -1.6581 C.3            1 S1                 0.0000
      2 ****        -2.0042  -0.4309  -0.3801 C.3            1 S1                 0.0000
      3 ****        -0.5235  -0.3832  -0.3183 N.4            1 S1                 1.0000
      4 ****         0.1242   0.5854  -1.2276 C.3            1 S1                 0.0000
      5 ****         1.6244   0.6997  -0.9248 C.3            1 S1                 0.0000
      6 ****         2.2945   1.8106  -1.7565 C.3            1 S1                 0.0000
      7 ****         3.8045   1.8436  -1.4945 C.3            1 S1                 0.0000
      8 ****         4.3978   0.4488  -1.7180 C.3            1 S1                 0.0000
      9 ****         3.6225  -0.5985  -0.9031 C.3            1 S1                 0.0000
     10 ****         2.2387  -0.5486  -1.2395 O.3            1 S1                 0.0000
     11 ****        -2.5670  -1.0913   0.9097 C.3            1 S1                 0.0000
     12 ****        -4.1045  -1.0510   0.9910 C.3            1 S1                 0.0000
     13 ****        -2.0049  -0.4993   2.1198 N.pl3          1 S1                 0.0000
     14 ****        -1.4429  -1.1470   3.2009 C.2            1 S1                 0.0000
     15 ****        -1.0724  -0.1919   4.1033 C.2            1 S1                 0.0000
     16 ****        -1.4663   1.0276   3.4860 C.2            1 S1                 0.0000
     17 ****        -2.0290   0.8407   2.3033 N.2            1 S1                 0.0000
     18 ****        -3.5433  -1.1563  -1.7622 H              1 S1                 0.0000
     19 ****        -2.1303  -2.2026  -1.6582 H              1 S1                 0.0000
     20 ****        -2.0635  -0.6910  -2.5569 H              1 S1                 0.0000
     21 ****        -2.3721   0.5955  -0.4235 H              1 S1                 0.0000
     22 ****        -0.2774  -0.1115   0.6233 H              1 S1                 0.0000
     23 ****        -0.0277   0.2917  -2.2661 H              1 S1                 0.0000
     24 ****        -0.3459   1.5607  -1.0951 H              1 S1                 0.0000
     25 ****         1.7571   0.9128   0.1379 H              1 S1                 0.0000
     26 ****         2.1133   1.6363  -2.8181 H              1 S1                 0.0000
     27 ****         1.8549   2.7800  -1.5197 H              1 S1                 0.0000
     28 ****         4.2888   2.5721  -2.1454 H              1 S1                 0.0000
     29 ****         3.9929   2.1637  -0.4690 H              1 S1                 0.0000
     30 ****         4.3483   0.1950  -2.7775 H              1 S1                 0.0000
     31 ****         5.4526   0.4382  -1.4421 H              1 S1                 0.0000
     32 ****         4.0018  -1.5972  -1.1193 H              1 S1                 0.0000
     33 ****         3.7540  -0.4336   0.1675 H              1 S1                 0.0000
     34 ****        -2.2656  -2.1401   0.9077 H              1 S1                 0.0000
     35 ****        -4.5694  -1.6318   0.1953 H              1 S1                 0.0000
     36 ****        -4.4808  -0.0296   0.9243 H              1 S1                 0.0000
     37 ****        -4.4559  -1.4706   1.9343 H              1 S1                 0.0000
     38 ****        -1.3524  -2.2228   3.2381 H              1 S1                 0.0000
     39 ****        -0.5979  -0.3418   5.0620 H              1 S1                 0.0000
     40 ****        -1.3628   2.0355   3.8603 H              1 S1                 0.0000
     41 ****        -0.1510  -1.3060  -0.4911 H              1 S1                 0.0000
     42 ****         2.1452  -0.7092  -2.2221 LP             1 S1                 0.0000
     43 ****         1.7640  -1.2712  -0.7370 LP             1 S1                 0.0000
     44 ****        -2.3917   1.5359   1.6826 LP             1 S1                 0.0000
@<TRIPOS>BOND
    1    1    2 1     
    2    1   18 1     
    3    1   19 1     
    4    1   20 1     
    5    2    3 1     
    6    2   11 1     
    7    2   21 1     
    8    3    4 1     
    9    3   22 1     
   10    3   41 1     
   11    4    5 1     
   12    4   23 1     
   13    4   24 1     
   14    5   10 1     
   15    5    6 1     
   16    5   25 1     
   17    6    7 1     
   18    6   26 1     
   19    6   27 1     
   20    7    8 1     
   21    7   28 1     
   22    7   29 1     
   23    8    9 1     
   24    8   30 1     
   25    8   31 1     
   26    9   10 1     
   27    9   32 1     
   28    9   33 1     
   29   11   12 1     
   30   11   13 1     
   31   11   34 1     
   32   12   35 1     
   33   12   36 1     
   34   12   37 1     
   35   13   17 1     
   36   13   14 1     
   37   14   15 2     
   38   14   38 1     
   39   15   16 1     
   40   15   39 1     
   41   16   17 2     
   42   16   40 1     
   43   10   42 1     
   44   10   43 1     
   45   17   44 1     
@<TRIPOS>SUBSTRUCTURE
      1 S1             1
@<TRIPOS>SET
LONE_PAIRS      STATIC     ATOMS    <user>   **** ""
3 42 43 44
DONOR_HYDROGENS      STATIC     ATOMS    <user>   **** ""
2 22 41
ATOM$BLUE        STATIC     ATOMS    COLORGROUP SYSTEM
3 42 43 44
ATOM$RED        STATIC     ATOMS    COLORGROUP SYSTEM
2 22 41
