AV-unprocessed.smi:2465|AV-procd|sdf|9722|dock7
  -GOLD-   2272013363D 1   1.00000     0.00000
 Structure written by MMmdl.
 40 41  0  0  0  0  0  0  0  0  1 V2000
  150.7061  138.1212  154.3165 C   0  0  0  0  0  0  0  0  0  0  0  0
  149.8960  139.3926  154.4982 C   0  0  0  0  0  0  0  0  0  0  0  0
  150.4444  140.4754  155.2161 C   0  0  0  0  0  0  0  0  0  0  0  0
  149.6722  141.6417  155.3739 C   0  0  0  0  0  0  0  0  0  0  0  0
  148.4257  141.7755  154.8775 N   0  0  0  0  0  0  0  0  0  0  0  0
  147.9026  140.7388  154.1892 C   0  0  0  0  0  0  0  0  0  0  0  0
  148.5941  139.5230  153.9563 C   0  0  0  0  0  0  0  0  0  0  0  0
  148.0293  138.4241  153.2487 N   0  0  0  0  0  0  0  0  0  0  0  0
  146.7331  138.1285  153.0511 C   0  0  0  0  0  0  0  0  0  0  0  0
  145.7801  138.8028  153.4412 O   0  0  0  0  0  0  0  0  0  0  0  0
  146.5976  136.9981  152.3435 N   0  0  0  0  0  0  0  0  0  0  0  0
  145.3245  136.4049  151.9508 C   0  0  0  0  0  0  0  0  0  0  0  0
  145.4350  135.6647  150.6086 C   0  0  0  0  0  0  0  0  0  0  0  0
  144.3810  134.5557  150.4638 C   0  0  0  0  0  0  0  0  0  0  0  0
  144.9077  133.2608  150.8845 N   0  0  0  0  0  0  0  0  0  0  0  0
  146.0538  133.1799  151.7743 C   0  0  0  0  0  0  0  0  0  0  0  0
  146.1552  131.6965  152.1571 C   0  0  0  0  0  0  0  0  0  0  0  0
  145.2659  130.9480  151.1582 C   0  0  0  0  0  0  0  0  0  0  0  0
  144.4581  132.0580  150.5073 C   0  0  0  0  0  0  0  0  0  0  0  0
  143.5211  131.8409  149.7403 O   0  0  0  0  0  0  0  0  0  0  0  0
  151.6750  138.1936  154.8115 H   0  0  0  0  0  0  0  0  0  0  0  0
  150.8815  137.9309  153.2573 H   0  0  0  0  0  0  0  0  0  0  0  0
  150.1755  137.2675  154.7389 H   0  0  0  0  0  0  0  0  0  0  0  0
  151.4359  140.4185  155.6404 H   0  0  0  0  0  0  0  0  0  0  0  0
  150.0647  142.4877  155.9185 H   0  0  0  0  0  0  0  0  0  0  0  0
  146.8935  140.8980  153.8429 H   0  0  0  0  0  0  0  0  0  0  0  0
  148.6945  137.8189  152.7905 H   0  0  0  0  0  0  0  0  0  0  0  0
  147.4343  136.5111  152.0571 H   0  0  0  0  0  0  0  0  0  0  0  0
  145.0192  135.7099  152.7334 H   0  0  0  0  0  0  0  0  0  0  0  0
  144.5534  137.1755  151.9014 H   0  0  0  0  0  0  0  0  0  0  0  0
  145.3217  136.3737  149.7873 H   0  0  0  0  0  0  0  0  0  0  0  0
  146.4350  135.2395  150.5125 H   0  0  0  0  0  0  0  0  0  0  0  0
  143.4951  134.7970  151.0533 H   0  0  0  0  0  0  0  0  0  0  0  0
  144.0515  134.4893  149.4260 H   0  0  0  0  0  0  0  0  0  0  0  0
  146.9471  133.5087  151.2415 H   0  0  0  0  0  0  0  0  0  0  0  0
  145.9231  133.8163  152.6505 H   0  0  0  0  0  0  0  0  0  0  0  0
  147.1865  131.3426  152.1328 H   0  0  0  0  0  0  0  0  0  0  0  0
  145.7801  131.5455  153.1701 H   0  0  0  0  0  0  0  0  0  0  0  0
  145.8603  130.4385  150.3992 H   0  0  0  0  0  0  0  0  0  0  0  0
  144.6197  130.2183  151.6471 H   0  0  0  0  0  0  0  0  0  0  0  0
  1  2  1  0  0  0  0
  1 21  1  0  0  0  0
  1 22  1  0  0  0  0
  1 23  1  0  0  0  0
  2  7  1  0  0  0  0
  2  3  2  0  0  0  0
  3  4  1  0  0  0  0
  3 24  1  0  0  0  0
  4  5  2  0  0  0  0
  4 25  1  0  0  0  0
  5  6  1  0  0  0  0
  6  7  2  0  0  0  0
  6 26  1  0  0  0  0
  7  8  1  0  0  0  0
  8  9  1  0  0  0  0
  8 27  1  0  0  0  0
  9 10  2  0  0  0  0
  9 11  1  0  0  0  0
 11 12  1  0  0  0  0
 11 28  1  0  0  0  0
 12 13  1  0  0  0  0
 12 29  1  0  0  0  0
 12 30  1  0  0  0  0
 13 14  1  0  0  0  0
 13 31  1  0  0  0  0
 13 32  1  0  0  0  0
 14 15  1  0  0  0  0
 14 33  1  0  0  0  0
 14 34  1  0  0  0  0
 15 19  1  0  0  0  0
 15 16  1  0  0  0  0
 16 17  1  0  0  0  0
 16 35  1  0  0  0  0
 16 36  1  0  0  0  0
 17 18  1  0  0  0  0
 17 37  1  0  0  0  0
 17 38  1  0  0  0  0
 18 19  1  0  0  0  0
 18 39  1  0  0  0  0
 18 40  1  0  0  0  0
 19 20  2  0  0  0  0
M  END
> <s_m_source_file>
AV-unprocessed.smi

> <i_m_source_file_index>
2465

> <i_lp_mmshare_version>
43012

> <i_f3d_flags>
0

> <s_epik_input>
W0NIM11jMVtjSF1bY0hdbltjSF1jMVtOSF1DKD1PKVtOSF1bQ0gyXVtDSDJdW0NIMl1OMltDSDJdW0NIMl1bQ0gyXUMyPU8=

> <s_epik_cmdline>
J2VwaWtfcHl0aG9uJywgJy1waCcsICc3LjAnLCAnLXRuJywgJzgnLCAnLW1hJywgJzIwMCcsICctbWV0YWxfYmluZGluZycsICctaW1hZScsICc8aW5maWxlLm1hZT4nLCAnLW9tYWUnLCAnPG91dGZpbGUubWFlPic=

> <r_epik_Ionization_Penalty>
0.0211997

> <r_epik_Ionization_Penalty_Charging>
0

> <r_epik_Ionization_Penalty_Neutral>
0.0211997

> <r_epik_State_Penalty>
0.0170047

> <r_epik_Charging_Adjusted_Penalty>
0.0170047

> <i_epik_Tot_Q>
0

> <i_epik_Tot_abs_Q>
0

> <r_epik_Metal_State_Penalty>
0.0163833

> <b_epik_Metal_Only>
0

> <s_lp_Force_Field>
OPLS_2005

> <r_lp_Energy>
19.6331

> <b_lp_Chiralities_Consistent>
1

> <s_lp_Variant>
AV-unprocessed.smi:2465-1

> <Gold.Version>
5.8.1

> <Gold.Id.Protein>
6NUR|6NUR_protein|mol2

> <Gold.PLP.Fitness>
45.6943

> <Gold.PLP.PLP>
-36.6472

> <Gold.PLP.part.hbond>
-3.7267

> <Gold.PLP.part.metal>
0.0000

> <Gold.PLP.part.buried>
-3.8405

> <Gold.PLP.part.nonpolar>
-33.0563

> <Gold.PLP.part.repulsive>
2.5541

> <Gold.PLP.ligand.clash>
0.0000

> <Gold.PLP.ligand.torsion>
0.9947

> <Gold.PLP.Chemscore.Hbond>
2.9360

> <Gold.PLP.Chemscore.CHOScore>
0.7271

> <Gold.PLP.Chemscore.Metal>
0.0000

> <Gold.Chemscore.Hbonds>
donor molecule, donor type, donor heavy atom, donor atom, acceptor molecule, acceptor atom, score
      L1  H     8    27       P1  7948  0.94
      L1  H    11    28       P1  7948  1.00
      P1  H 10785 10796       L1    20  1.00
      L1  C     4    25       P1  8028  0.75

> <Gold.PLP.Chemscore.Internal.Correction>
0.0472

> <Gold.Rescore>
     Score         DG    S(hbond)    S(metal)    S(lipo)     H(rot)  DE(clash)    DE(int)     intcor
     17.59     -19.78       2.77        0.00      81.24       1.74       0.10       2.10       ----

> <Gold.Chemscore.Fitness>
17.5892

> <Gold.Chemscore.DG>
-19.7840

> <Gold.Chemscore.ZeroCoef>
-5.4800

> <Gold.Chemscore.Hbond>
2.7712

> <Gold.Chemscore.Metal>
0.0000

> <Gold.Chemscore.Lipo>
81.2411

> <Gold.Chemscore.Internal_Hbond>
0.0000

> <Gold.Chemscore.DEClash>
0.0953

> <Gold.Chemscore.DEInternal>
2.0995

> <Gold.Chemscore.Rot>
1.7410

> <Gold.Chemscore.Internal.Correction>
   9.000000E+99

> <Gold.Chemscore.Hbonds>
donor molecule, donor type, donor heavy atom, donor atom, acceptor molecule, acceptor atom, score
      L1  H     8    27       P1  7948  0.91
      L1  H    11    28       P1  7948  0.94
      P1  H 10785 10796       L1    20  0.91

> <Gold.Chemscore.Hbond.Weighted>
-9.2559

> <Gold.Chemscore.Metal.Weighted>
-0.0000

> <Gold.Chemscore.Lipo.Weighted>
-9.5052

> <Gold.Chemscore.Internal_Hbond.Weighted>
0.0000

> <Gold.Chemscore.DEClash.Weighted>
0.0953

> <Gold.Chemscore.DEInternal.Weighted>
2.0995

> <Gold.Chemscore.Rot.Weighted>
4.4571

> <Gold.Chemscore.Internal.Correction.Weighted>
   9.000000E+99

> <Gold.Protein.RotatedTorsions>
[ 6907 6896 6895 6894 ] final   84.01 input  -60.11 | X-H torsion
[ 7974 7965 7964 7962 ] final  134.94 input  175.53 | X-H torsion
[ 8008 7997 7996 7995 ] final -151.41 input   59.86 | X-H torsion
[ 10167 10162 10161 10158 ] final  -78.83 input  -65.29 | X-H torsion
[ 10718 10713 10712 10709 ] final  -15.05 input   66.30 | X-H torsion
[ 10763 10752 10751 10750 ] final    7.37 input  -60.55 | X-H torsion
[ 11005 11000 10999 10996 ] final  124.80 input  -57.11 | X-H torsion

> <Gold.Protein.ActiveResidues>
 VAL166  LYS551  ARG553  GLY616  TRP617  ASP618  TYR619  PRO620  LYS621  CYS622 
 ASP623  PHE694  ASN695  SER759  ASP760  ASP761  ALA762  ILE779  LEU786  VAL792 
 PHE793  MET794  SER795  GLU796  ALA797  LYS798  CYS799  TRP800  GLU811  SER814 

> <Gold.Protein.RotatedAtoms>
  152.5342  134.2806  159.9005 H   0  0  0  0  0  0  0  0  0  0  0  0  # atno 6907 bound_to 6896
  151.2761  133.4225  159.2631 H   0  0  0  0  0  0  0  0  0  0  0  0  # atno 6908 bound_to 6896
  151.0325  134.9564  159.8175 H   0  0  0  0  0  0  0  0  0  0  0  0  # atno 6909 bound_to 6896
  144.9713  139.4603  143.5432 H   0  0  0  0  0  0  0  0  0  0  0  0  # atno 7974 bound_to 7965
  155.6389  140.0699  157.2625 H   0  0  0  0  0  0  0  0  0  0  0  0  # atno 8008 bound_to 7997
  154.4188  140.1754  156.1601 H   0  0  0  0  0  0  0  0  0  0  0  0  # atno 8009 bound_to 7997
  155.9872  140.3348  155.6721 H   0  0  0  0  0  0  0  0  0  0  0  0  # atno 8010 bound_to 7997
  140.4648  143.2443  151.8295 H   0  0  0  0  0  0  0  0  0  0  0  0  # atno 10167 bound_to 10162
  156.6072  130.4840  149.6216 H   0  0  0  0  0  0  0  0  0  0  0  0  # atno 10718 bound_to 10713
  153.2370  135.6899  153.7825 H   0  0  0  0  0  0  0  0  0  0  0  0  # atno 10763 bound_to 10752
  153.6969  135.3304  155.3216 H   0  0  0  0  0  0  0  0  0  0  0  0  # atno 10764 bound_to 10752
  154.8339  135.4558  154.1278 H   0  0  0  0  0  0  0  0  0  0  0  0  # atno 10765 bound_to 10752
  139.9376  134.9638  156.8463 H   0  0  0  0  0  0  0  0  0  0  0  0  # atno 11005 bound_to 11000
  146.3383  139.8926  142.8806 LP  0  0  0  0  0  0  0  0  0  0  0  0  # atno 17320 bound_to 7965
  145.2555  141.0059  143.3856 LP  0  0  0  0  0  0  0  0  0  0  0  0  # atno 17321 bound_to 7965
  139.4810  144.4964  151.9117 LP  0  0  0  0  0  0  0  0  0  0  0  0  # atno 17342 bound_to 10162
  140.4050  144.2444  150.5891 LP  0  0  0  0  0  0  0  0  0  0  0  0  # atno 17343 bound_to 10162
  156.2419  130.6856  151.1564 LP  0  0  0  0  0  0  0  0  0  0  0  0  # atno 17370 bound_to 10713
  157.7264  131.0646  150.5912 LP  0  0  0  0  0  0  0  0  0  0  0  0  # atno 17371 bound_to 10713
  140.6036  134.0149  155.7547 LP  0  0  0  0  0  0  0  0  0  0  0  0  # atno 17394 bound_to 11000
  141.0996  133.9789  157.3101 LP  0  0  0  0  0  0  0  0  0  0  0  0  # atno 17395 bound_to 11000

$$$$
