AV-unprocessed.smi:772|AV-procd|sdf|3685|dock8
  -GOLD-   22720 1103D 1   1.00000     0.00000
 Structure written by MMmdl.
 46 47  0  0  0  0  0  0  0  0  1 V2000
  143.9441  132.6243  149.7591 C   0  0  0  0  0  0  0  0  0  0  0  0
  144.4504  133.7925  150.5788 C   0  0  0  0  0  0  0  0  0  0  0  0
  145.1956  133.5803  151.7578 C   0  0  0  0  0  0  0  0  0  0  0  0
  145.6282  134.7033  152.4886 C   0  0  0  0  0  0  0  0  0  0  0  0
  145.3003  135.9901  152.0151 C   0  0  0  0  0  0  0  0  0  0  0  0
  145.7076  137.2306  152.7909 C   0  0  0  0  0  0  0  0  0  0  0  0
  146.5130  136.9195  154.0674 C   0  0  0  0  0  0  0  0  0  0  0  0
  147.8347  137.5427  154.0482 N   0  0  0  0  0  0  0  0  0  0  0  0
  148.2160  138.6031  154.7826 C   0  0  0  0  0  0  0  0  0  0  0  0
  147.4679  139.1387  155.6019 O   0  0  0  0  0  0  0  0  0  0  0  0
  149.4609  139.0664  154.5042 N   0  0  0  0  0  0  0  0  0  0  0  0
  150.5356  138.3083  153.8440 C   0  0  0  0  0  0  0  0  0  0  0  0
  151.4545  137.7076  154.9190 C   0  0  0  0  0  0  0  0  0  0  0  0
  152.2533  139.0167  155.8983 S   0  0  0  0  0  0  0  0  0  0  0  0
  150.7953  140.0300  156.3350 C   0  0  1  0  0  0  0  0  0  0  0  0
  151.1802  141.3108  157.1180 C   0  0  0  0  0  0  0  0  0  0  0  0
  152.1309  141.0576  158.3031 C   0  0  0  0  0  0  0  0  0  0  0  0
  149.9412  142.1040  157.5676 C   0  0  0  0  0  0  0  0  0  0  0  0
  149.9549  140.3260  155.0729 C   0  0  0  0  0  0  0  0  0  0  0  0
  144.5570  136.0926  150.8199 C   0  0  0  0  0  0  0  0  0  0  0  0
  144.1362  135.0217  150.1137 N   0  0  0  0  0  0  0  0  0  0  0  0
  144.3760  131.6838  150.1024 H   0  0  0  0  0  0  0  0  0  0  0  0
  144.2044  132.7531  148.7081 H   0  0  0  0  0  0  0  0  0  0  0  0
  142.8592  132.5511  149.8392 H   0  0  0  0  0  0  0  0  0  0  0  0
  145.4250  132.5823  152.1010 H   0  0  0  0  0  0  0  0  0  0  0  0
  146.1898  134.5779  153.4026 H   0  0  0  0  0  0  0  0  0  0  0  0
  146.2926  137.8768  152.1358 H   0  0  0  0  0  0  0  0  0  0  0  0
  144.8120  137.7960  153.0521 H   0  0  0  0  0  0  0  0  0  0  0  0
  145.9518  137.2333  154.9491 H   0  0  0  0  0  0  0  0  0  0  0  0
  146.6453  135.8417  154.1622 H   0  0  0  0  0  0  0  0  0  0  0  0
  148.5018  137.1662  153.3907 H   0  0  0  0  0  0  0  0  0  0  0  0
  150.1654  137.5194  153.1893 H   0  0  0  0  0  0  0  0  0  0  0  0
  151.1082  138.9677  153.1903 H   0  0  0  0  0  0  0  0  0  0  0  0
  150.8869  137.0589  155.5872 H   0  0  0  0  0  0  0  0  0  0  0  0
  152.2292  137.0942  154.4586 H   0  0  0  0  0  0  0  0  0  0  0  0
  150.1820  139.4177  156.9981 H   0  0  0  0  0  0  0  0  0  0  0  0
  151.7150  141.9571  156.4207 H   0  0  0  0  0  0  0  0  0  0  0  0
  151.6700  140.4298  159.0658 H   0  0  0  0  0  0  0  0  0  0  0  0
  152.4113  141.9967  158.7808 H   0  0  0  0  0  0  0  0  0  0  0  0
  153.0539  140.5743  157.9845 H   0  0  0  0  0  0  0  0  0  0  0  0
  149.3509  141.5510  158.2984 H   0  0  0  0  0  0  0  0  0  0  0  0
  149.2931  142.3355  156.7219 H   0  0  0  0  0  0  0  0  0  0  0  0
  150.2283  143.0503  158.0269 H   0  0  0  0  0  0  0  0  0  0  0  0
  150.5502  140.8531  154.3267 H   0  0  0  0  0  0  0  0  0  0  0  0
  149.1337  141.0030  155.3141 H   0  0  0  0  0  0  0  0  0  0  0  0
  144.2767  137.0591  150.4275 H   0  0  0  0  0  0  0  0  0  0  0  0
  1  2  1  0  0  0  0
  1 22  1  0  0  0  0
  1 23  1  0  0  0  0
  1 24  1  0  0  0  0
  2 21  1  0  0  0  0
  2  3  2  0  0  0  0
  3  4  1  0  0  0  0
  3 25  1  0  0  0  0
  4  5  2  0  0  0  0
  4 26  1  0  0  0  0
  5  6  1  0  0  0  0
  5 20  1  0  0  0  0
  6  7  1  0  0  0  0
  6 27  1  0  0  0  0
  6 28  1  0  0  0  0
  7  8  1  0  0  0  0
  7 29  1  0  0  0  0
  7 30  1  0  0  0  0
  8  9  1  0  0  0  0
  8 31  1  0  0  0  0
  9 10  2  0  0  0  0
  9 11  1  0  0  0  0
 11 19  1  0  0  0  0
 11 12  1  0  0  0  0
 12 13  1  0  0  0  0
 12 32  1  0  0  0  0
 12 33  1  0  0  0  0
 13 14  1  0  0  0  0
 13 34  1  0  0  0  0
 13 35  1  0  0  0  0
 14 15  1  0  0  0  0
 15 16  1  0  0  0  0
 15 19  1  0  0  0  0
 15 36  1  0  0  0  0
 16 17  1  0  0  0  0
 16 18  1  0  0  0  0
 16 37  1  0  0  0  0
 17 38  1  0  0  0  0
 17 39  1  0  0  0  0
 17 40  1  0  0  0  0
 18 41  1  0  0  0  0
 18 42  1  0  0  0  0
 18 43  1  0  0  0  0
 19 44  1  0  0  0  0
 19 45  1  0  0  0  0
 20 21  2  0  0  0  0
 20 46  1  0  0  0  0
M  END
> <s_m_source_file>
AV-unprocessed.smi

> <i_m_source_file_index>
772

> <i_lp_mmshare_version>
43012

> <i_f3d_flags>
0

> <s_epik_input>
W0NIM11jMVtjSF1bY0hdYyhbY0hdbjEpW0NIMl1bQ0gyXVtOSF1DKD1PKU4yW0NIMl1bQ0gyXVNbQ0BIXShbQ0gyXTIpW0NIXShbQ0gzXSlbQ0gzXQ==

> <s_epik_cmdline>
J2VwaWtfcHl0aG9uJywgJy1waCcsICc3LjAnLCAnLXRuJywgJzgnLCAnLW1hJywgJzIwMCcsICctbWV0YWxfYmluZGluZycsICctaW1hZScsICc8aW5maWxlLm1hZT4nLCAnLW9tYWUnLCAnPG91dGZpbGUubWFlPic=

> <r_epik_Ionization_Penalty>
0.0566916

> <r_epik_Ionization_Penalty_Charging>
0

> <r_epik_Ionization_Penalty_Neutral>
0.0566916

> <r_epik_State_Penalty>
0.0488669

> <r_epik_Charging_Adjusted_Penalty>
0.0488669

> <i_epik_Tot_Q>
0

> <i_epik_Tot_abs_Q>
0

> <r_epik_Metal_State_Penalty>
0.0445784

> <b_epik_Metal_Only>
0

> <s_lp_Force_Field>
OPLS_2005

> <r_lp_Energy>
25.3974

> <b_lp_Chiralities_Consistent>
1

> <s_lp_Variant>
AV-unprocessed.smi:772-1

> <Gold.Version>
5.8.1

> <Gold.Id.Protein>
6NUR|6NUR_protein|mol2

> <Gold.PLP.Fitness>
40.5511

> <Gold.PLP.PLP>
-35.8036

> <Gold.PLP.part.hbond>
-1.0000

> <Gold.PLP.part.metal>
0.0000

> <Gold.PLP.part.buried>
-4.0518

> <Gold.PLP.part.nonpolar>
-31.5819

> <Gold.PLP.part.repulsive>
0.4796

> <Gold.PLP.ligand.clash>
0.0000

> <Gold.PLP.ligand.torsion>
0.5880

> <Gold.PLP.Chemscore.Hbond>
0.9440

> <Gold.PLP.Chemscore.CHOScore>
1.0000

> <Gold.PLP.Chemscore.Metal>
0.0000

> <Gold.Chemscore.Hbonds>
donor molecule, donor type, donor heavy atom, donor atom, acceptor molecule, acceptor atom, score
      L1  H     8    31       P1  7948  1.00
      L1  C    20    46       P1 10171  0.14

> <Gold.PLP.Chemscore.Internal.Correction>
0.0914

> <Gold.Rescore>
     Score         DG    S(hbond)    S(metal)    S(lipo)     H(rot)  DE(clash)    DE(int)     intcor
     15.72     -16.59       0.91        0.00      97.97       1.32       0.24       0.64       ----

> <Gold.Chemscore.Fitness>
15.7151

> <Gold.Chemscore.DG>
-16.5923

> <Gold.Chemscore.ZeroCoef>
-5.4800

> <Gold.Chemscore.Hbond>
0.9093

> <Gold.Chemscore.Metal>
0.0000

> <Gold.Chemscore.Lipo>
97.9742

> <Gold.Chemscore.Internal_Hbond>
0.0000

> <Gold.Chemscore.DEClash>
0.2383

> <Gold.Chemscore.DEInternal>
0.6390

> <Gold.Chemscore.Rot>
1.3233

> <Gold.Chemscore.Internal.Correction>
   9.000000E+99

> <Gold.Chemscore.Hbonds>
donor molecule, donor type, donor heavy atom, donor atom, acceptor molecule, acceptor atom, score
      L1  H     8    31       P1  7948  0.98

> <Gold.Chemscore.Hbond.Weighted>
-3.0369

> <Gold.Chemscore.Metal.Weighted>
-0.0000

> <Gold.Chemscore.Lipo.Weighted>
-11.4630

> <Gold.Chemscore.Internal_Hbond.Weighted>
0.0000

> <Gold.Chemscore.DEClash.Weighted>
0.2383

> <Gold.Chemscore.DEInternal.Weighted>
0.6390

> <Gold.Chemscore.Rot.Weighted>
3.3876

> <Gold.Chemscore.Internal.Correction.Weighted>
   9.000000E+99

> <Gold.Protein.RotatedTorsions>
[ 6907 6896 6895 6894 ] final  137.12 input  -60.11 | X-H torsion
[ 7974 7965 7964 7962 ] final  127.36 input  175.53 | X-H torsion
[ 8008 7997 7996 7995 ] final -111.70 input   59.86 | X-H torsion
[ 10167 10162 10161 10158 ] final  -58.78 input  -65.29 | X-H torsion
[ 10718 10713 10712 10709 ] final  109.45 input   66.30 | X-H torsion
[ 10763 10752 10751 10750 ] final   97.10 input  -60.55 | X-H torsion
[ 11005 11000 10999 10996 ] final  -24.19 input  -57.11 | X-H torsion

> <Gold.Protein.ActiveResidues>
 VAL166  LYS551  ARG553  GLY616  TRP617  ASP618  TYR619  PRO620  LYS621  CYS622 
 ASP623  PHE694  ASN695  SER759  ASP760  ASP761  ALA762  ILE779  LEU786  VAL792 
 PHE793  MET794  SER795  GLU796  ALA797  LYS798  CYS799  TRP800  GLU811  SER814 

> <Gold.Protein.RotatedAtoms>
  152.2816  133.5476  159.5501 H   0  0  0  0  0  0  0  0  0  0  0  0  # atno 6907 bound_to 6896
  150.7198  134.0555  159.3822 H   0  0  0  0  0  0  0  0  0  0  0  0  # atno 6908 bound_to 6896
  151.8466  135.0572  160.0505 H   0  0  0  0  0  0  0  0  0  0  0  0  # atno 6909 bound_to 6896
  145.0514  139.3880  143.5052 H   0  0  0  0  0  0  0  0  0  0  0  0  # atno 7974 bound_to 7965
  154.9939  140.0395  157.2331 H   0  0  0  0  0  0  0  0  0  0  0  0  # atno 8008 bound_to 7997
  154.7603  140.2783  155.6196 H   0  0  0  0  0  0  0  0  0  0  0  0  # atno 8009 bound_to 7997
  156.2903  140.2629  156.2380 H   0  0  0  0  0  0  0  0  0  0  0  0  # atno 8010 bound_to 7997
  140.6176  143.2408  151.5559 H   0  0  0  0  0  0  0  0  0  0  0  0  # atno 10167 bound_to 10162
  157.6541  131.0914  150.6455 H   0  0  0  0  0  0  0  0  0  0  0  0  # atno 10718 bound_to 10713
  153.2729  135.4195  155.1005 H   0  0  0  0  0  0  0  0  0  0  0  0  # atno 10763 bound_to 10752
  154.8462  135.3476  154.6219 H   0  0  0  0  0  0  0  0  0  0  0  0  # atno 10764 bound_to 10752
  153.6639  135.7047  153.5226 H   0  0  0  0  0  0  0  0  0  0  0  0  # atno 10765 bound_to 10752
  140.8822  133.7646  156.0316 H   0  0  0  0  0  0  0  0  0  0  0  0  # atno 11005 bound_to 11000
  146.3518  140.0166  142.8662 LP  0  0  0  0  0  0  0  0  0  0  0  0  # atno 17320 bound_to 7965
  145.1523  140.9629  143.4426 LP  0  0  0  0  0  0  0  0  0  0  0  0  # atno 17321 bound_to 7965
  139.5412  144.2644  152.1353 LP  0  0  0  0  0  0  0  0  0  0  0  0  # atno 17342 bound_to 10162
  140.1857  144.4801  150.6505 LP  0  0  0  0  0  0  0  0  0  0  0  0  # atno 17343 bound_to 10162
  156.6763  130.4554  149.5641 LP  0  0  0  0  0  0  0  0  0  0  0  0  # atno 17370 bound_to 10713
  156.1961  130.6590  151.1115 LP  0  0  0  0  0  0  0  0  0  0  0  0  # atno 17371 bound_to 10713
  140.8447  134.3025  157.5299 LP  0  0  0  0  0  0  0  0  0  0  0  0  # atno 17394 bound_to 11000
  139.8721  134.9435  156.3855 LP  0  0  0  0  0  0  0  0  0  0  0  0  # atno 17395 bound_to 11000

$$$$
