AV-unprocessed.smi:2482|AV-procd|sdf|9777|dock2
  -GOLD-   2272013423D 1   1.00000     0.00000
 Structure written by MMmdl.
 35 36  0  0  0  0  0  0  0  0  2 V2000
  152.3684  138.5776  155.4034 C   0  0  0  0  0  0  0  0  0  0  0  0
  150.9576  138.9308  154.9632 C   0  0  0  0  0  0  0  0  0  0  0  0
  150.7724  140.2403  154.6865 N   0  0  0  0  0  0  0  0  0  0  0  0
  149.5502  140.6440  154.2846 C   0  0  0  0  0  0  0  0  0  0  0  0
  148.4552  139.7712  154.1466 C   0  0  0  0  0  0  0  0  0  0  0  0
  148.6394  138.4022  154.4491 C   0  0  0  0  0  0  0  0  0  0  0  0
  147.6019  137.4414  154.3137 N   0  0  0  0  0  0  0  0  0  0  0  0
  146.5456  137.4746  153.4810 C   0  0  0  0  0  0  0  0  0  0  0  0
  146.3325  138.3763  152.6700 O   0  0  0  0  0  0  0  0  0  0  0  0
  145.5626  136.2929  153.6040 C   0  0  2  0  0  0  0  0  0  0  0  0
  146.2336  134.8992  153.6474 C   0  0  0  0  0  0  0  0  0  0  0  0
  146.8029  134.5388  152.3272 N   0  3  1  0  0  0  0  0  0  0  0  0
  147.5126  133.2420  152.3467 C   0  0  0  0  0  0  0  0  0  0  0  0
  145.7657  134.6083  151.2733 C   0  0  0  0  0  0  0  0  0  0  0  0
  145.1158  136.0013  151.2533 C   0  0  0  0  0  0  0  0  0  0  0  0
  144.5966  136.3132  152.5468 O   0  0  0  0  0  0  0  0  0  0  0  0
  149.9234  137.9668  154.8530 C   0  0  0  0  0  0  0  0  0  0  0  0
  150.1989  136.2941  155.2131 Cl  0  0  0  0  0  0  0  0  0  0  0  0
  152.4937  137.5244  155.6475 H   0  0  0  0  0  0  0  0  0  0  0  0
  152.6379  139.1548  156.2882 H   0  0  0  0  0  0  0  0  0  0  0  0
  153.0783  138.8213  154.6125 H   0  0  0  0  0  0  0  0  0  0  0  0
  149.4435  141.6949  154.0595 H   0  0  0  0  0  0  0  0  0  0  0  0
  147.5079  140.1577  153.8018 H   0  0  0  0  0  0  0  0  0  0  0  0
  147.6044  136.7005  155.0002 H   0  0  0  0  0  0  0  0  0  0  0  0
  145.0210  136.4407  154.5388 H   0  0  0  0  0  0  0  0  0  0  0  0
  147.0146  134.8717  154.4089 H   0  0  0  0  0  0  0  0  0  0  0  0
  145.4965  134.1487  153.9374 H   0  0  0  0  0  0  0  0  0  0  0  0
  146.8315  132.4253  152.5894 H   0  0  0  0  0  0  0  0  0  0  0  0
  148.3118  133.2536  153.0885 H   0  0  0  0  0  0  0  0  0  0  0  0
  147.9634  133.0355  151.3754 H   0  0  0  0  0  0  0  0  0  0  0  0
  146.2108  134.3945  150.3010 H   0  0  0  0  0  0  0  0  0  0  0  0
  145.0074  133.8451  151.4547 H   0  0  0  0  0  0  0  0  0  0  0  0
  145.8293  136.7575  150.9235 H   0  0  0  0  0  0  0  0  0  0  0  0
  144.2949  136.0191  150.5362 H   0  0  0  0  0  0  0  0  0  0  0  0
  147.4934  135.2427  152.1064 H   0  0  0  0  0  0  0  0  0  0  0  0
  1  2  1  0  0  0  0
  1 19  1  0  0  0  0
  1 20  1  0  0  0  0
  1 21  1  0  0  0  0
  2 17  1  0  0  0  0
  2  3  2  0  0  0  0
  3  4  1  0  0  0  0
  4  5  2  0  0  0  0
  4 22  1  0  0  0  0
  5  6  1  0  0  0  0
  5 23  1  0  0  0  0
  6  7  1  0  0  0  0
  6 17  2  0  0  0  0
  7  8  1  0  0  0  0
  7 24  1  0  0  0  0
  8  9  2  0  0  0  0
  8 10  1  0  0  0  0
 10 16  1  0  0  0  0
 10 11  1  0  0  0  0
 10 25  1  0  0  0  0
 11 12  1  0  0  0  0
 11 26  1  0  0  0  0
 11 27  1  0  0  0  0
 12 13  1  0  0  0  0
 12 14  1  0  0  0  0
 12 35  1  0  0  0  0
 13 28  1  0  0  0  0
 13 29  1  0  0  0  0
 13 30  1  0  0  0  0
 14 15  1  0  0  0  0
 14 31  1  0  0  0  0
 14 32  1  0  0  0  0
 15 16  1  0  0  0  0
 15 33  1  0  0  0  0
 15 34  1  0  0  0  0
 17 18  1  0  0  0  0
M  CHG  1  12   1
M  END
> <s_m_source_file>
AV-unprocessed.smi

> <i_m_source_file_index>
2482

> <i_lp_mmshare_version>
43012

> <i_f3d_flags>
0

> <s_epik_input>
W0NIM11jMW5bY0hdW2NIXWMoYzFDbClbTkhdQyg9TylbQ0BASF0yW0NIMl1OKFtDSDNdKVtDSDJdW0NIMl1PMg==

> <s_epik_cmdline>
J2VwaWtfcHl0aG9uJywgJy1waCcsICc3LjAnLCAnLXRuJywgJzgnLCAnLW1hJywgJzIwMCcsICctbWV0YWxfYmluZGluZycsICctaW1hZScsICc8aW5maWxlLm1hZT4nLCAnLW9tYWUnLCAnPG91dGZpbGUubWFlPic=

> <r_epik_Ionization_Penalty>
0.314226

> <r_epik_Ionization_Penalty_Charging>
0.314023

> <r_epik_Ionization_Penalty_Neutral>
0.00020299

> <r_epik_State_Penalty>
0.308208

> <r_epik_Charging_Adjusted_Penalty>
0.62223

> <i_epik_Tot_Q>
1

> <i_epik_Tot_abs_Q>
1

> <r_epik_Metal_State_Penalty>
0.314444

> <b_epik_Metal_Only>
0

> <s_lp_Force_Field>
OPLS_2005

> <r_lp_Energy>
21.5381

> <b_lp_Chiralities_Consistent>
1

> <s_lp_Variant>
AV-unprocessed.smi:2482-3

> <Gold.Version>
5.8.1

> <Gold.Id.Protein>
6NUR|6NUR_protein|mol2

> <Gold.PLP.Fitness>
35.5555

> <Gold.PLP.PLP>
-27.3525

> <Gold.PLP.part.hbond>
-3.0000

> <Gold.PLP.part.metal>
0.0000

> <Gold.PLP.part.buried>
-1.9577

> <Gold.PLP.part.nonpolar>
-22.5824

> <Gold.PLP.part.repulsive>
0.4890

> <Gold.PLP.ligand.clash>
0.0000

> <Gold.PLP.ligand.torsion>
0.4081

> <Gold.PLP.Chemscore.Hbond>
3.0000

> <Gold.PLP.Chemscore.CHOScore>
0.0000

> <Gold.PLP.Chemscore.Metal>
0.0000

> <Gold.Chemscore.Hbonds>
donor molecule, donor type, donor heavy atom, donor atom, acceptor molecule, acceptor atom, score
      L1  H    12    35       P1  7948  2.00
      P1  H  7989  7998       L1     3  0.90

> <Gold.PLP.Chemscore.Internal.Correction>
0.0191

> <Gold.Rescore>
     Score         DG    S(hbond)    S(metal)    S(lipo)     H(rot)  DE(clash)    DE(int)     intcor
     14.08     -16.47       1.69        0.00      67.54       1.00       0.42       1.96       ----

> <Gold.Chemscore.Fitness>
14.0848

> <Gold.Chemscore.DG>
-16.4696

> <Gold.Chemscore.ZeroCoef>
-5.4800

> <Gold.Chemscore.Hbond>
1.6910

> <Gold.Chemscore.Metal>
0.0000

> <Gold.Chemscore.Lipo>
67.5365

> <Gold.Chemscore.Internal_Hbond>
0.0000

> <Gold.Chemscore.DEClash>
0.4222

> <Gold.Chemscore.DEInternal>
1.9626

> <Gold.Chemscore.Rot>
1.0000

> <Gold.Chemscore.Internal.Correction>
   9.000000E+99

> <Gold.Chemscore.Hbonds>
donor molecule, donor type, donor heavy atom, donor atom, acceptor molecule, acceptor atom, score
      L1  H    12    35       P1  7948  0.99
      P1  H  7989  7998       L1     3  0.17

> <Gold.Chemscore.Hbond.Weighted>
-5.6479

> <Gold.Chemscore.Metal.Weighted>
-0.0000

> <Gold.Chemscore.Lipo.Weighted>
-7.9018

> <Gold.Chemscore.Internal_Hbond.Weighted>
0.0000

> <Gold.Chemscore.DEClash.Weighted>
0.4222

> <Gold.Chemscore.DEInternal.Weighted>
1.9626

> <Gold.Chemscore.Rot.Weighted>
2.5600

> <Gold.Chemscore.Internal.Correction.Weighted>
   9.000000E+99

> <Gold.Protein.RotatedTorsions>
[ 6907 6896 6895 6894 ] final   54.96 input  -60.11 | X-H torsion
[ 7974 7965 7964 7962 ] final   10.70 input  175.53 | X-H torsion
[ 8008 7997 7996 7995 ] final -131.87 input   59.86 | X-H torsion
[ 10167 10162 10161 10158 ] final  171.70 input  -65.29 | X-H torsion
[ 10718 10713 10712 10709 ] final  166.54 input   66.30 | X-H torsion
[ 10763 10752 10751 10750 ] final   -4.73 input  -60.55 | X-H torsion
[ 11005 11000 10999 10996 ] final   93.38 input  -57.11 | X-H torsion

> <Gold.Protein.ActiveResidues>
 VAL166  LYS551  ARG553  GLY616  TRP617  ASP618  TYR619  PRO620  LYS621  CYS622 
 ASP623  PHE694  ASN695  SER759  ASP760  ASP761  ALA762  ILE779  LEU786  VAL792 
 PHE793  MET794  SER795  GLU796  ALA797  LYS798  CYS799  TRP800  GLU811  SER814 

> <Gold.Protein.RotatedAtoms>
  152.3491  134.7030  160.0241 H   0  0  0  0  0  0  0  0  0  0  0  0  # atno 6907 bound_to 6896
  151.7389  133.3315  159.3368 H   0  0  0  0  0  0  0  0  0  0  0  0  # atno 6908 bound_to 6896
  150.7529  134.6229  159.6190 H   0  0  0  0  0  0  0  0  0  0  0  0  # atno 6909 bound_to 6896
  146.2384  139.9595  142.8460 H   0  0  0  0  0  0  0  0  0  0  0  0  # atno 7974 bound_to 7965
  155.3195  140.0461  157.3038 H   0  0  0  0  0  0  0  0  0  0  0  0  # atno 8008 bound_to 7997
  154.5388  140.2281  155.8643 H   0  0  0  0  0  0  0  0  0  0  0  0  # atno 8009 bound_to 7997
  156.1861  140.3062  155.9247 H   0  0  0  0  0  0  0  0  0  0  0  0  # atno 8010 bound_to 7997
  139.5054  144.3456  151.9974 H   0  0  0  0  0  0  0  0  0  0  0  0  # atno 10167 bound_to 10162
  157.0644  131.0349  151.2635 H   0  0  0  0  0  0  0  0  0  0  0  0  # atno 10718 bound_to 10713
  153.3888  135.7001  153.6510 H   0  0  0  0  0  0  0  0  0  0  0  0  # atno 10763 bound_to 10752
  153.5091  135.3636  155.2578 H   0  0  0  0  0  0  0  0  0  0  0  0  # atno 10764 bound_to 10752
  154.8700  135.4130  154.3200 H   0  0  0  0  0  0  0  0  0  0  0  0  # atno 10765 bound_to 10752
  139.8811  134.8786  156.3710 H   0  0  0  0  0  0  0  0  0  0  0  0  # atno 11005 bound_to 11000
  145.1784  140.9755  143.4280 LP  0  0  0  0  0  0  0  0  0  0  0  0  # atno 17320 bound_to 7965
  144.9964  139.3640  143.6189 LP  0  0  0  0  0  0  0  0  0  0  0  0  # atno 17321 bound_to 7965
  140.2893  144.3771  150.6093 LP  0  0  0  0  0  0  0  0  0  0  0  0  # atno 17342 bound_to 10162
  140.5958  143.2167  151.7166 LP  0  0  0  0  0  0  0  0  0  0  0  0  # atno 17343 bound_to 10162
  157.4928  130.7832  149.7525 LP  0  0  0  0  0  0  0  0  0  0  0  0  # atno 17370 bound_to 10713
  155.9969  130.3903  150.2762 LP  0  0  0  0  0  0  0  0  0  0  0  0  # atno 17371 bound_to 10713
  140.9464  133.7480  156.0214 LP  0  0  0  0  0  0  0  0  0  0  0  0  # atno 17394 bound_to 11000
  140.8158  134.3347  157.5397 LP  0  0  0  0  0  0  0  0  0  0  0  0  # atno 17395 bound_to 11000

$$$$
