AV-unprocessed.smi:1184|AV-procd|sdf|4970|dock8
  -GOLD-   22720 3563D 1   1.00000     0.00000
 Structure written by MMmdl.
 43 44  0  0  0  0  0  0  0  0  2 V2000
  144.3797  132.6240  150.1359 C   0  0  0  0  0  0  0  0  0  0  0  0
  143.5983  132.2214  151.3938 C   0  0  0  0  0  0  0  0  0  0  0  0
  143.7046  133.2395  152.4650 N   0  3  2  0  0  0  0  0  0  0  0  0
  142.8323  134.4161  152.2658 C   0  0  0  0  0  0  0  0  0  0  0  0
  143.5282  135.5600  152.9964 C   0  0  0  0  0  0  0  0  0  0  0  0
  145.0042  135.2716  152.7277 C   0  0  1  0  0  0  0  0  0  0  0  0
  145.9839  135.9474  153.7059 C   0  0  0  0  0  0  0  0  0  0  0  0
  147.2714  135.2634  153.7471 N   0  0  0  0  0  0  0  0  0  0  0  0
  147.5832  134.2565  154.5785 C   0  0  0  0  0  0  0  0  0  0  0  0
  146.7984  133.7956  155.4068 O   0  0  0  0  0  0  0  0  0  0  0  0
  148.9899  133.6707  154.4488 C   0  0  0  0  0  0  0  0  0  0  0  0
  149.6250  133.5358  155.8099 C   0  0  0  0  0  0  0  0  0  0  0  0
  149.8690  134.5630  156.7667 C   0  0  0  0  0  0  0  0  0  0  0  0
  149.5566  136.0286  156.6673 C   0  0  0  0  0  0  0  0  0  0  0  0
  150.4442  134.0930  157.8607 N   0  0  0  0  0  0  0  0  0  0  0  0
  150.6006  132.7195  157.6516 O   0  0  0  0  0  0  0  0  0  0  0  0
  150.1042  132.4120  156.4265 C   0  0  0  0  0  0  0  0  0  0  0  0
  150.1865  130.9801  156.0170 C   0  0  0  0  0  0  0  0  0  0  0  0
  145.0774  133.7374  152.7315 C   0  0  0  0  0  0  0  0  0  0  0  0
  144.3293  131.8364  149.3838 H   0  0  0  0  0  0  0  0  0  0  0  0
  145.4321  132.7959  150.3638 H   0  0  0  0  0  0  0  0  0  0  0  0
  143.9808  133.5329  149.6851 H   0  0  0  0  0  0  0  0  0  0  0  0
  142.5497  132.0401  151.1534 H   0  0  0  0  0  0  0  0  0  0  0  0
  144.0026  131.2791  151.7666 H   0  0  0  0  0  0  0  0  0  0  0  0
  142.7667  134.6524  151.2021 H   0  0  0  0  0  0  0  0  0  0  0  0
  141.8218  134.2343  152.6331 H   0  0  0  0  0  0  0  0  0  0  0  0
  143.2145  136.5413  152.6384 H   0  0  0  0  0  0  0  0  0  0  0  0
  143.3165  135.5048  154.0654 H   0  0  0  0  0  0  0  0  0  0  0  0
  145.2275  135.6072  151.7133 H   0  0  0  0  0  0  0  0  0  0  0  0
  146.1610  136.9807  153.4061 H   0  0  0  0  0  0  0  0  0  0  0  0
  145.5526  135.9879  154.7075 H   0  0  0  0  0  0  0  0  0  0  0  0
  147.9811  135.5823  153.1035 H   0  0  0  0  0  0  0  0  0  0  0  0
  148.9294  132.7044  153.9466 H   0  0  0  0  0  0  0  0  0  0  0  0
  149.5780  134.3126  153.7923 H   0  0  0  0  0  0  0  0  0  0  0  0
  149.6287  136.3780  155.6374 H   0  0  0  0  0  0  0  0  0  0  0  0
  150.2452  136.6264  157.2649 H   0  0  0  0  0  0  0  0  0  0  0  0
  148.5454  136.2351  157.0175 H   0  0  0  0  0  0  0  0  0  0  0  0
  149.5048  130.7663  155.1940 H   0  0  0  0  0  0  0  0  0  0  0  0
  149.9260  130.3237  156.8472 H   0  0  0  0  0  0  0  0  0  0  0  0
  151.1967  130.7312  155.6921 H   0  0  0  0  0  0  0  0  0  0  0  0
  145.3906  133.3585  153.7051 H   0  0  0  0  0  0  0  0  0  0  0  0
  145.8022  133.3863  151.9954 H   0  0  0  0  0  0  0  0  0  0  0  0
  143.3918  132.8034  153.3208 H   0  0  0  0  0  0  0  0  0  0  0  0
  1  2  1  0  0  0  0
  1 20  1  0  0  0  0
  1 21  1  0  0  0  0
  1 22  1  0  0  0  0
  2  3  1  0  0  0  0
  2 23  1  0  0  0  0
  2 24  1  0  0  0  0
  3 19  1  0  0  0  0
  3  4  1  0  0  0  0
  3 43  1  0  0  0  0
  4  5  1  0  0  0  0
  4 25  1  0  0  0  0
  4 26  1  0  0  0  0
  5  6  1  0  0  0  0
  5 27  1  0  0  0  0
  5 28  1  0  0  0  0
  6  7  1  0  0  0  0
  6 19  1  0  0  0  0
  6 29  1  0  0  0  0
  7  8  1  0  0  0  0
  7 30  1  0  0  0  0
  7 31  1  0  0  0  0
  8  9  1  0  0  0  0
  8 32  1  0  0  0  0
  9 10  2  0  0  0  0
  9 11  1  0  0  0  0
 11 12  1  0  0  0  0
 11 33  1  0  0  0  0
 11 34  1  0  0  0  0
 12 17  2  0  0  0  0
 12 13  1  0  0  0  0
 13 14  1  0  0  0  0
 13 15  2  0  0  0  0
 14 35  1  0  0  0  0
 14 36  1  0  0  0  0
 14 37  1  0  0  0  0
 15 16  1  0  0  0  0
 16 17  1  0  0  0  0
 17 18  1  0  0  0  0
 18 38  1  0  0  0  0
 18 39  1  0  0  0  0
 18 40  1  0  0  0  0
 19 41  1  0  0  0  0
 19 42  1  0  0  0  0
M  CHG  1   3   1
M  END
> <s_m_source_file>
AV-unprocessed.smi

> <i_m_source_file_index>
1184

> <i_lp_mmshare_version>
43012

> <i_f3d_flags>
0

> <s_epik_input>
W0NIM11bQ0gyXU4xW0NIMl1bQ0gyXVtDQEhdKFtDSDJdMSlbQ0gyXVtOSF1DKD1PKVtDSDJdYzJjKFtDSDNdKW5vYzJbQ0gzXQ==

> <s_epik_cmdline>
J2VwaWtfcHl0aG9uJywgJy1waCcsICc3LjAnLCAnLXRuJywgJzgnLCAnLW1hJywgJzIwMCcsICctbWV0YWxfYmluZGluZycsICctaW1hZScsICc8aW5maWxlLm1hZT4nLCAnLW9tYWUnLCAnPG91dGZpbGUubWFlPic=

> <r_epik_Ionization_Penalty>
0.000590726

> <r_epik_Ionization_Penalty_Charging>
0.000590692

> <r_epik_Ionization_Penalty_Neutral>
3.44741e-08

> <r_epik_State_Penalty>
0.000371644

> <r_epik_Charging_Adjusted_Penalty>
0.000962336

> <i_epik_Tot_Q>
1

> <i_epik_Tot_abs_Q>
1

> <r_epik_Metal_State_Penalty>
-0

> <b_epik_Metal_Only>
0

> <s_lp_Force_Field>
OPLS_2005

> <r_lp_Energy>
22.2982

> <b_lp_Chiralities_Consistent>
1

> <s_lp_Variant>
AV-unprocessed.smi:1184-2

> <Gold.Version>
5.8.1

> <Gold.Id.Protein>
6NUR|6NUR_protein|mol2

> <Gold.PLP.Fitness>
39.1193

> <Gold.PLP.PLP>
-28.7640

> <Gold.PLP.part.hbond>
-3.0000

> <Gold.PLP.part.metal>
0.0000

> <Gold.PLP.part.buried>
-5.6751

> <Gold.PLP.part.nonpolar>
-21.9504

> <Gold.PLP.part.repulsive>
0.0265

> <Gold.PLP.ligand.clash>
0.0000

> <Gold.PLP.ligand.torsion>
0.6677

> <Gold.PLP.Chemscore.Hbond>
3.8882

> <Gold.PLP.Chemscore.CHOScore>
0.0000

> <Gold.PLP.Chemscore.Metal>
0.0000

> <Gold.Chemscore.Hbonds>
donor molecule, donor type, donor heavy atom, donor atom, acceptor molecule, acceptor atom, score
      L1  H     3    43       P1 10957  2.00
      L1  H     8    32       P1  7948  1.00

> <Gold.PLP.Chemscore.Internal.Correction>
0.0264

> <Gold.Rescore>
     Score         DG    S(hbond)    S(metal)    S(lipo)     H(rot)  DE(clash)    DE(int)     intcor
     17.52     -18.24       2.92        0.00      62.33       1.67       0.00       0.73       ----

> <Gold.Chemscore.Fitness>
17.5166

> <Gold.Chemscore.DG>
-18.2434

> <Gold.Chemscore.ZeroCoef>
-5.4800

> <Gold.Chemscore.Hbond>
2.9167

> <Gold.Chemscore.Metal>
0.0000

> <Gold.Chemscore.Lipo>
62.3327

> <Gold.Chemscore.Internal_Hbond>
0.0000

> <Gold.Chemscore.DEClash>
0.0015

> <Gold.Chemscore.DEInternal>
0.7254

> <Gold.Chemscore.Rot>
1.6684

> <Gold.Chemscore.Internal.Correction>
   9.000000E+99

> <Gold.Chemscore.Hbonds>
donor molecule, donor type, donor heavy atom, donor atom, acceptor molecule, acceptor atom, score
      L1  H     3    43       P1 10957  0.55
      L1  H     8    32       P1  7948  1.00

> <Gold.Chemscore.Hbond.Weighted>
-9.7417

> <Gold.Chemscore.Metal.Weighted>
-0.0000

> <Gold.Chemscore.Lipo.Weighted>
-7.2929

> <Gold.Chemscore.Internal_Hbond.Weighted>
0.0000

> <Gold.Chemscore.DEClash.Weighted>
0.0015

> <Gold.Chemscore.DEInternal.Weighted>
0.7254

> <Gold.Chemscore.Rot.Weighted>
4.2712

> <Gold.Chemscore.Internal.Correction.Weighted>
   9.000000E+99

> <Gold.Protein.RotatedTorsions>
[ 6907 6896 6895 6894 ] final -154.67 input  -60.11 | X-H torsion
[ 7974 7965 7964 7962 ] final  -87.03 input  175.53 | X-H torsion
[ 8008 7997 7996 7995 ] final   72.32 input   59.86 | X-H torsion
[ 10167 10162 10161 10158 ] final -138.23 input  -65.29 | X-H torsion
[ 10718 10713 10712 10709 ] final  167.03 input   66.30 | X-H torsion
[ 10763 10752 10751 10750 ] final  -29.81 input  -60.55 | X-H torsion
[ 11005 11000 10999 10996 ] final  -44.06 input  -57.11 | X-H torsion

> <Gold.Protein.ActiveResidues>
 VAL166  LYS551  ARG553  GLY616  TRP617  ASP618  TYR619  PRO620  LYS621  CYS622 
 ASP623  PHE694  ASN695  SER759  ASP760  ASP761  ALA762  ILE779  LEU786  VAL792 
 PHE793  MET794  SER795  GLU796  ALA797  LYS798  CYS799  TRP800  GLU811  SER814 

> <Gold.Protein.RotatedAtoms>
  151.2610  133.4302  159.2615 H   0  0  0  0  0  0  0  0  0  0  0  0  # atno 6907 bound_to 6896
  151.0531  134.9686  159.8232 H   0  0  0  0  0  0  0  0  0  0  0  0  # atno 6908 bound_to 6896
  152.5386  134.2563  159.8971 H   0  0  0  0  0  0  0  0  0  0  0  0  # atno 6909 bound_to 6896
  145.4720  140.9559  143.1912 H   0  0  0  0  0  0  0  0  0  0  0  0  # atno 7974 bound_to 7965
  155.7671  140.3485  155.5228 H   0  0  0  0  0  0  0  0  0  0  0  0  # atno 8008 bound_to 7997
  155.8857  140.1009  157.1474 H   0  0  0  0  0  0  0  0  0  0  0  0  # atno 8009 bound_to 7997
  154.4029  140.1314  156.4240 H   0  0  0  0  0  0  0  0  0  0  0  0  # atno 8010 bound_to 7997
  139.8499  143.7213  152.2658 H   0  0  0  0  0  0  0  0  0  0  0  0  # atno 10167 bound_to 10162
  157.0573  131.0330  151.2659 H   0  0  0  0  0  0  0  0  0  0  0  0  # atno 10718 bound_to 10713
  153.7706  135.6912  153.4907 H   0  0  0  0  0  0  0  0  0  0  0  0  # atno 10763 bound_to 10752
  153.1877  135.4483  155.0108 H   0  0  0  0  0  0  0  0  0  0  0  0  # atno 10764 bound_to 10752
  154.8119  135.3381  154.7216 H   0  0  0  0  0  0  0  0  0  0  0  0  # atno 10765 bound_to 10752
  141.0425  133.6774  156.2819 H   0  0  0  0  0  0  0  0  0  0  0  0  # atno 11005 bound_to 11000
  144.7939  139.6272  143.7101 LP  0  0  0  0  0  0  0  0  0  0  0  0  # atno 17320 bound_to 7965
  146.2391  139.5965  142.9503 LP  0  0  0  0  0  0  0  0  0  0  0  0  # atno 17321 bound_to 7965
  139.7476  144.7543  151.0556 LP  0  0  0  0  0  0  0  0  0  0  0  0  # atno 17342 bound_to 10162
  140.7789  143.4898  150.9908 LP  0  0  0  0  0  0  0  0  0  0  0  0  # atno 17343 bound_to 10162
  157.4982  130.7864  149.7578 LP  0  0  0  0  0  0  0  0  0  0  0  0  # atno 17370 bound_to 10713
  155.9989  130.3891  150.2684 LP  0  0  0  0  0  0  0  0  0  0  0  0  # atno 17371 bound_to 10713
  140.6208  134.5364  157.5547 LP  0  0  0  0  0  0  0  0  0  0  0  0  # atno 17394 bound_to 11000
  139.9286  134.8007  156.0995 LP  0  0  0  0  0  0  0  0  0  0  0  0  # atno 17395 bound_to 11000

$$$$
