AV-unprocessed.smi:767|AV-procd|sdf|3670|dock6
  -GOLD-   22720 1 83D 1   1.00000     0.00000
 Structure written by MMmdl.
 48 50  0  0  0  0  0  0  0  0  2 V2000
  143.5166  132.3949  148.4220 C   0  0  0  0  0  0  0  0  0  0  0  0
  144.2375  133.0129  149.6013 C   0  0  0  0  0  0  0  0  0  0  0  0
  145.5648  132.6682  149.9329 C   0  0  0  0  0  0  0  0  0  0  0  0
  146.1789  133.2843  151.0426 C   0  0  0  0  0  0  0  0  0  0  0  0
  145.4563  134.2348  151.7968 C   0  0  0  0  0  0  0  0  0  0  0  0
  146.1046  134.9364  152.9791 C   0  0  0  0  0  0  0  0  0  0  0  0
  145.8965  136.4657  152.9872 C   0  0  0  0  0  0  0  0  0  0  0  0
  147.0743  137.2079  153.4280 N   0  0  0  0  0  0  0  0  0  0  0  0
  147.1976  137.8428  154.6015 C   0  0  0  0  0  0  0  0  0  0  0  0
  146.3153  137.8918  155.4580 O   0  0  0  0  0  0  0  0  0  0  0  0
  148.4106  138.3925  154.7365 N   0  0  0  0  0  0  0  0  0  0  0  0
  148.8766  139.1314  155.9114 C   0  0  1  0  0  0  0  0  0  0  0  0
  150.3209  138.7703  156.3372 C   0  0  1  0  0  0  0  0  0  0  0  0
  151.0653  137.5726  155.8012 C   0  0  0  0  0  0  0  0  0  0  0  0
  151.8746  138.1608  154.6417 C   0  0  0  0  0  0  0  0  0  0  0  0
  151.2235  139.3898  154.3244 O   0  0  0  0  0  0  0  0  0  0  0  0
  150.7863  139.9818  155.5465 C   0  0  1  0  0  0  0  0  0  0  0  0
  149.3573  140.5641  155.5590 C   0  0  0  0  0  0  0  0  0  0  0  0
  148.8711  141.2081  154.2534 C   0  0  0  0  0  0  0  0  0  0  0  0
  149.1140  141.5978  156.6632 C   0  0  0  0  0  0  0  0  0  0  0  0
  144.1284  134.5334  151.4232 C   0  0  0  0  0  0  0  0  0  0  0  0
  143.5753  133.9209  150.3533 N   0  3  0  0  0  0  0  0  0  0  0  0
  144.2286  132.0436  147.6745 H   0  0  0  0  0  0  0  0  0  0  0  0
  142.8571  133.1208  147.9450 H   0  0  0  0  0  0  0  0  0  0  0  0
  142.9159  131.5458  148.7491 H   0  0  0  0  0  0  0  0  0  0  0  0
  146.1102  131.9449  149.3440 H   0  0  0  0  0  0  0  0  0  0  0  0
  147.1985  133.0374  151.3012 H   0  0  0  0  0  0  0  0  0  0  0  0
  145.7125  134.5074  153.9017 H   0  0  0  0  0  0  0  0  0  0  0  0
  147.1730  134.7165  152.9790 H   0  0  0  0  0  0  0  0  0  0  0  0
  145.6723  136.8031  151.9751 H   0  0  0  0  0  0  0  0  0  0  0  0
  145.0318  136.7309  153.5971 H   0  0  0  0  0  0  0  0  0  0  0  0
  147.8586  137.2333  152.7929 H   0  0  0  0  0  0  0  0  0  0  0  0
  149.0694  138.2895  153.9785 H   0  0  0  0  0  0  0  0  0  0  0  0
  148.1723  139.1169  156.7455 H   0  0  0  0  0  0  0  0  0  0  0  0
  150.4572  138.9256  157.4085 H   0  0  0  0  0  0  0  0  0  0  0  0
  151.7211  137.1273  156.5498 H   0  0  0  0  0  0  0  0  0  0  0  0
  150.3898  136.7916  155.4593 H   0  0  0  0  0  0  0  0  0  0  0  0
  152.8966  138.3732  154.9584 H   0  0  0  0  0  0  0  0  0  0  0  0
  151.9153  137.4956  153.7789 H   0  0  0  0  0  0  0  0  0  0  0  0
  151.5543  140.5742  156.0460 H   0  0  0  0  0  0  0  0  0  0  0  0
  149.3488  142.1732  154.0823 H   0  0  0  0  0  0  0  0  0  0  0  0
  147.7934  141.3731  154.2681 H   0  0  0  0  0  0  0  0  0  0  0  0
  149.0920  140.5925  153.3815 H   0  0  0  0  0  0  0  0  0  0  0  0
  149.6726  142.5167  156.4816 H   0  0  0  0  0  0  0  0  0  0  0  0
  149.4217  141.2250  157.6407 H   0  0  0  0  0  0  0  0  0  0  0  0
  148.0589  141.8621  156.7384 H   0  0  0  0  0  0  0  0  0  0  0  0
  143.4999  135.2456  151.9378 H   0  0  0  0  0  0  0  0  0  0  0  0
  142.6158  134.1571  150.0991 H   0  0  0  0  0  0  0  0  0  0  0  0
  1  2  1  0  0  0  0
  1 23  1  0  0  0  0
  1 24  1  0  0  0  0
  1 25  1  0  0  0  0
  2 22  1  0  0  0  0
  2  3  2  0  0  0  0
  3  4  1  0  0  0  0
  3 26  1  0  0  0  0
  4  5  2  0  0  0  0
  4 27  1  0  0  0  0
  5  6  1  0  0  0  0
  5 21  1  0  0  0  0
  6  7  1  0  0  0  0
  6 28  1  0  0  0  0
  6 29  1  0  0  0  0
  7  8  1  0  0  0  0
  7 30  1  0  0  0  0
  7 31  1  0  0  0  0
  8  9  1  0  0  0  0
  8 32  1  0  0  0  0
  9 10  2  0  0  0  0
  9 11  1  0  0  0  0
 11 12  1  0  0  0  0
 11 33  1  0  0  0  0
 12 18  1  0  0  0  0
 12 13  1  0  0  0  0
 12 34  1  0  0  0  0
 13 17  1  0  0  0  0
 13 14  1  0  0  0  0
 13 35  1  0  0  0  0
 14 15  1  0  0  0  0
 14 36  1  0  0  0  0
 14 37  1  0  0  0  0
 15 16  1  0  0  0  0
 15 38  1  0  0  0  0
 15 39  1  0  0  0  0
 16 17  1  0  0  0  0
 17 18  1  0  0  0  0
 17 40  1  0  0  0  0
 18 19  1  0  0  0  0
 18 20  1  0  0  0  0
 19 41  1  0  0  0  0
 19 42  1  0  0  0  0
 19 43  1  0  0  0  0
 20 44  1  0  0  0  0
 20 45  1  0  0  0  0
 20 46  1  0  0  0  0
 21 22  2  0  0  0  0
 21 47  1  0  0  0  0
 22 48  1  0  0  0  0
M  CHG  1  22   1
M  END
> <s_m_source_file>
AV-unprocessed.smi

> <i_m_source_file_index>
767

> <i_lp_mmshare_version>
43012

> <i_f3d_flags>
0

> <s_epik_input>
W0NIM11jMVtjSF1bY0hdYyhbY0hdbjEpW0NIMl1bQ0gyXVtOSF1DKD1PKVtOSF1bQ0BIXTJDKFtDSDNdKShbQ0gzXSlbQ0BIXShbQ0BASF0yMylPW0NIMl1bQ0gyXTM=

> <s_epik_cmdline>
J2VwaWtfcHl0aG9uJywgJy1waCcsICc3LjAnLCAnLXRuJywgJzgnLCAnLW1hJywgJzIwMCcsICctbWV0YWxfYmluZGluZycsICctaW1hZScsICc8aW5maWxlLm1hZT4nLCAnLW9tYWUnLCAnPG91dGZpbGUubWFlPic=

> <r_epik_Ionization_Penalty>
1.41853

> <r_epik_Ionization_Penalty_Charging>
1.41848

> <r_epik_Ionization_Penalty_Neutral>
5.17407e-05

> <r_epik_State_Penalty>
1.50205

> <r_epik_Charging_Adjusted_Penalty>
2.92053

> <i_epik_Tot_Q>
1

> <i_epik_Tot_abs_Q>
1

> <r_epik_Metal_State_Penalty>
1.5544

> <b_epik_Metal_Only>
0

> <s_lp_Force_Field>
OPLS_2005

> <r_lp_Energy>
40.9756

> <b_lp_Chiralities_Consistent>
1

> <s_lp_Variant>
AV-unprocessed.smi:767-14

> <Gold.Version>
5.8.1

> <Gold.Id.Protein>
6NUR|6NUR_protein|mol2

> <Gold.PLP.Fitness>
44.4967

> <Gold.PLP.PLP>
-33.7650

> <Gold.PLP.part.hbond>
-3.0000

> <Gold.PLP.part.metal>
0.0000

> <Gold.PLP.part.buried>
-3.3049

> <Gold.PLP.part.nonpolar>
-28.0663

> <Gold.PLP.part.repulsive>
0.1745

> <Gold.PLP.ligand.clash>
0.0000

> <Gold.PLP.ligand.torsion>
0.6050

> <Gold.PLP.Chemscore.Hbond>
3.9120

> <Gold.PLP.Chemscore.CHOScore>
0.0000

> <Gold.PLP.Chemscore.Metal>
0.0000

> <Gold.Chemscore.Hbonds>
donor molecule, donor type, donor heavy atom, donor atom, acceptor molecule, acceptor atom, score
      L1  H     8    32       P1  7948  0.90
      L1  H    22    48       P1 10186  2.00
      P1  H  7989  7998       L1    16  0.90

> <Gold.PLP.Chemscore.Internal.Correction>
0.2058

> <Gold.Rescore>
     Score         DG    S(hbond)    S(metal)    S(lipo)     H(rot)  DE(clash)    DE(int)     intcor
     21.01     -21.88       2.65        0.00      97.97       1.52       0.18       0.69       ----

> <Gold.Chemscore.Fitness>
21.0139

> <Gold.Chemscore.DG>
-21.8804

> <Gold.Chemscore.ZeroCoef>
-5.4800

> <Gold.Chemscore.Hbond>
2.6461

> <Gold.Chemscore.Metal>
0.0000

> <Gold.Chemscore.Lipo>
97.9656

> <Gold.Chemscore.Internal_Hbond>
0.0000

> <Gold.Chemscore.DEClash>
0.1774

> <Gold.Chemscore.DEInternal>
0.6891

> <Gold.Chemscore.Rot>
1.5233

> <Gold.Chemscore.Internal.Correction>
   9.000000E+99

> <Gold.Chemscore.Hbonds>
donor molecule, donor type, donor heavy atom, donor atom, acceptor molecule, acceptor atom, score
      L1  H     8    32       P1  7948  0.87
      L1  H    22    48       P1 10186  0.96
      P1  H  7989  7998       L1    16  0.18

> <Gold.Chemscore.Hbond.Weighted>
-8.8380

> <Gold.Chemscore.Metal.Weighted>
-0.0000

> <Gold.Chemscore.Lipo.Weighted>
-11.4620

> <Gold.Chemscore.Internal_Hbond.Weighted>
0.0000

> <Gold.Chemscore.DEClash.Weighted>
0.1774

> <Gold.Chemscore.DEInternal.Weighted>
0.6891

> <Gold.Chemscore.Rot.Weighted>
3.8995

> <Gold.Chemscore.Internal.Correction.Weighted>
   9.000000E+99

> <Gold.Protein.RotatedTorsions>
[ 6907 6896 6895 6894 ] final -153.54 input  -60.11 | X-H torsion
[ 7974 7965 7964 7962 ] final -132.58 input  175.53 | X-H torsion
[ 8008 7997 7996 7995 ] final   96.08 input   59.86 | X-H torsion
[ 10167 10162 10161 10158 ] final   95.85 input  -65.29 | X-H torsion
[ 10718 10713 10712 10709 ] final -120.61 input   66.30 | X-H torsion
[ 10763 10752 10751 10750 ] final   26.67 input  -60.55 | X-H torsion
[ 11005 11000 10999 10996 ] final   48.78 input  -57.11 | X-H torsion

> <Gold.Protein.ActiveResidues>
 VAL166  LYS551  ARG553  GLY616  TRP617  ASP618  TYR619  PRO620  LYS621  CYS622 
 ASP623  PHE694  ASN695  SER759  ASP760  ASP761  ALA762  ILE779  LEU786  VAL792 
 PHE793  MET794  SER795  GLU796  ALA797  LYS798  CYS799  TRP800  GLU811  SER814 

> <Gold.Protein.RotatedAtoms>
  151.2441  133.4384  159.2608 H   0  0  0  0  0  0  0  0  0  0  0  0  # atno 6907 bound_to 6896
  151.0678  134.9779  159.8303 H   0  0  0  0  0  0  0  0  0  0  0  0  # atno 6908 bound_to 6896
  152.5408  134.2388  159.8906 H   0  0  0  0  0  0  0  0  0  0  0  0  # atno 6909 bound_to 6896
  144.9272  140.7086  143.4928 H   0  0  0  0  0  0  0  0  0  0  0  0  # atno 7974 bound_to 7965
  156.0758  140.3277  155.7632 H   0  0  0  0  0  0  0  0  0  0  0  0  # atno 8008 bound_to 7997
  155.5232  140.0587  157.2920 H   0  0  0  0  0  0  0  0  0  0  0  0  # atno 8009 bound_to 7997
  154.4555  140.1940  156.0410 H   0  0  0  0  0  0  0  0  0  0  0  0  # atno 8010 bound_to 7997
  139.7949  144.6837  150.9842 H   0  0  0  0  0  0  0  0  0  0  0  0  # atno 10167 bound_to 10162
  156.1271  130.6368  150.9561 H   0  0  0  0  0  0  0  0  0  0  0  0  # atno 10718 bound_to 10713
  153.0607  135.6555  154.0470 H   0  0  0  0  0  0  0  0  0  0  0  0  # atno 10763 bound_to 10752
  154.0138  135.2926  155.3390 H   0  0  0  0  0  0  0  0  0  0  0  0  # atno 10764 bound_to 10752
  154.6944  135.5270  153.8505 H   0  0  0  0  0  0  0  0  0  0  0  0  # atno 10765 bound_to 10752
  140.1160  134.4891  155.8637 H   0  0  0  0  0  0  0  0  0  0  0  0  # atno 11005 bound_to 11000
  145.3200  139.1791  143.4593 LP  0  0  0  0  0  0  0  0  0  0  0  0  # atno 17320 bound_to 7965
  146.3231  140.3216  142.8633 LP  0  0  0  0  0  0  0  0  0  0  0  0  # atno 17321 bound_to 7965
  140.7820  143.4342  151.0649 LP  0  0  0  0  0  0  0  0  0  0  0  0  # atno 17342 bound_to 10162
  139.8016  143.8075  152.3163 LP  0  0  0  0  0  0  0  0  0  0  0  0  # atno 17343 bound_to 10162
  157.6452  131.0905  150.8168 LP  0  0  0  0  0  0  0  0  0  0  0  0  # atno 17370 bound_to 10713
  156.8257  130.4999  149.5337 LP  0  0  0  0  0  0  0  0  0  0  0  0  # atno 17371 bound_to 10713
  141.2141  133.6744  156.6798 LP  0  0  0  0  0  0  0  0  0  0  0  0  # atno 17394 bound_to 11000
  140.3027  134.8150  157.4111 LP  0  0  0  0  0  0  0  0  0  0  0  0  # atno 17395 bound_to 11000

$$$$
