AV-unprocessed.smi:1208|AV-procd|sdf|5061|dock4
  -GOLD-   22720 4103D 1   1.00000     0.00000
 Structure written by MMmdl.
 35 36  0  0  0  0  0  0  0  0  2 V2000
  153.7113  141.1924  160.6439 C   0  0  0  0  0  0  0  0  0  0  0  0
  152.4375  141.9437  160.2264 C   0  0  2  0  0  0  0  0  0  0  0  0
  151.9785  141.4059  158.9474 N   0  0  0  0  0  0  0  0  0  0  0  0
  150.7865  141.6353  158.3742 C   0  0  0  0  0  0  0  0  0  0  0  0
  149.9174  142.3463  158.8821 O   0  0  0  0  0  0  0  0  0  0  0  0
  150.5644  140.9439  157.0192 C   0  0  0  0  0  0  0  0  0  0  0  0
  151.0795  139.5684  156.9470 N   0  0  0  0  0  0  0  0  0  0  0  0
  150.5106  138.6726  157.9508 N   0  5  0  0  0  0  0  0  0  0  0  0
  150.9026  137.3711  157.9751 C   0  0  0  0  0  0  0  0  0  0  0  0
  150.4593  136.5564  158.7814 O   0  0  0  0  0  0  0  0  0  0  0  0
  151.8923  136.9361  157.0035 C   0  0  0  0  0  0  0  0  0  0  0  0
  152.4163  137.7899  156.1022 C   0  0  0  0  0  0  0  0  0  0  0  0
  152.0252  139.1931  156.0390 C   0  0  0  0  0  0  0  0  0  0  0  0
  152.5085  139.9815  155.2261 O   0  0  0  0  0  0  0  0  0  0  0  0
  152.6663  143.4633  160.0971 C   0  0  2  0  0  0  0  0  0  0  0  0
  151.4054  144.3141  160.2686 C   0  0  0  0  0  0  0  0  0  0  0  0
  151.7672  145.5627  159.4991 C   0  0  0  0  0  0  0  0  0  0  0  0
  152.5248  144.9788  158.3120 C   0  0  0  0  0  0  0  0  0  0  0  0
  153.1473  143.7912  158.7937 O   0  0  0  0  0  0  0  0  0  0  0  0
  154.0700  141.5258  161.6176 H   0  0  0  0  0  0  0  0  0  0  0  0
  154.5158  141.3431  159.9232 H   0  0  0  0  0  0  0  0  0  0  0  0
  153.5265  140.1202  160.7172 H   0  0  0  0  0  0  0  0  0  0  0  0
  151.6846  141.7734  160.9979 H   0  0  0  0  0  0  0  0  0  0  0  0
  152.6249  140.8107  158.4506 H   0  0  0  0  0  0  0  0  0  0  0  0
  149.4964  140.9482  156.7947 H   0  0  0  0  0  0  0  0  0  0  0  0
  151.0266  141.5581  156.2438 H   0  0  0  0  0  0  0  0  0  0  0  0
  152.2161  135.9058  157.0061 H   0  0  0  0  0  0  0  0  0  0  0  0
  153.1500  137.4235  155.3998 H   0  0  0  0  0  0  0  0  0  0  0  0
  153.4179  143.7943  160.8159 H   0  0  0  0  0  0  0  0  0  0  0  0
  150.5455  143.8283  159.8047 H   0  0  0  0  0  0  0  0  0  0  0  0
  151.1641  144.5132  161.3130 H   0  0  0  0  0  0  0  0  0  0  0  0
  150.9002  146.1541  159.2042 H   0  0  0  0  0  0  0  0  0  0  0  0
  152.4278  146.1930  160.0960 H   0  0  0  0  0  0  0  0  0  0  0  0
  151.8316  144.7057  157.5156 H   0  0  0  0  0  0  0  0  0  0  0  0
  153.2563  145.6748  157.9012 H   0  0  0  0  0  0  0  0  0  0  0  0
  1  2  1  0  0  0  0
  1 20  1  0  0  0  0
  1 21  1  0  0  0  0
  1 22  1  0  0  0  0
  2  3  1  0  0  0  0
  2 15  1  0  0  0  0
  2 23  1  0  0  0  0
  3  4  1  0  0  0  0
  3 24  1  0  0  0  0
  4  5  2  0  0  0  0
  4  6  1  0  0  0  0
  6 25  1  0  0  0  0
  6 26  1  0  0  0  0
  6  7  1  0  0  0  0
  7  8  1  0  0  0  0
  7 13  1  0  0  0  0
  8  9  1  0  0  0  0
  9 10  2  0  0  0  0
  9 11  1  0  0  0  0
 11 27  1  0  0  0  0
 11 12  2  0  0  0  0
 12 28  1  0  0  0  0
 12 13  1  0  0  0  0
 13 14  2  0  0  0  0
 15 19  1  0  0  0  0
 15 16  1  0  0  0  0
 15 29  1  0  0  0  0
 16 17  1  0  0  0  0
 16 30  1  0  0  0  0
 16 31  1  0  0  0  0
 17 18  1  0  0  0  0
 17 32  1  0  0  0  0
 17 33  1  0  0  0  0
 18 19  1  0  0  0  0
 18 34  1  0  0  0  0
 18 35  1  0  0  0  0
M  CHG  1   8  -1
M  END
> <s_m_source_file>
AV-unprocessed.smi

> <i_m_source_file_index>
1208

> <i_lp_mmshare_version>
43012

> <i_f3d_flags>
0

> <s_epik_input>
TzFbQ0gyXVtDSDJdW0NIMl1bQ0BIXTFbQ0BIXShbQ0gzXSlbTkhdQyg9TylbQ0gyXW4yW25IXWMoPU8pW2NIXVtjSF1jMj1P

> <s_epik_cmdline>
J2VwaWtfcHl0aG9uJywgJy1waCcsICc3LjAnLCAnLXRuJywgJzgnLCAnLW1hJywgJzIwMCcsICctbWV0YWxfYmluZGluZycsICctaW1hZScsICc8aW5maWxlLm1hZT4nLCAnLW9tYWUnLCAnPG91dGZpbGUubWFlPic=

> <r_lp_tautomer_probability>
1

> <r_epik_Ionization_Penalty>
0.0975494

> <r_epik_Ionization_Penalty_Charging>
0.0975494

> <r_epik_Ionization_Penalty_Neutral>
2.30132e-08

> <r_epik_State_Penalty>
0.034345

> <r_epik_Charging_Adjusted_Penalty>
0.131894

> <i_epik_Tot_Q>
-1

> <i_epik_Tot_abs_Q>
1

> <r_epik_Metal_State_Penalty>
0.034345

> <b_epik_Metal_Only>
0

> <s_lp_Force_Field>
OPLS_2005

> <r_lp_Energy>
34.668

> <b_lp_Chiralities_Consistent>
1

> <s_lp_Variant>
AV-unprocessed.smi:1208-1

> <Gold.Version>
5.8.1

> <Gold.Id.Protein>
6NUR|6NUR_protein|mol2

> <Gold.PLP.Fitness>
43.3618

> <Gold.PLP.PLP>
-37.8499

> <Gold.PLP.part.hbond>
-3.9115

> <Gold.PLP.part.metal>
0.0000

> <Gold.PLP.part.buried>
-5.1479

> <Gold.PLP.part.nonpolar>
-29.3376

> <Gold.PLP.part.repulsive>
0.1991

> <Gold.PLP.ligand.clash>
0.0000

> <Gold.PLP.ligand.torsion>
0.9381

> <Gold.PLP.Chemscore.Hbond>
2.4590

> <Gold.PLP.Chemscore.CHOScore>
0.0000

> <Gold.PLP.Chemscore.Metal>
0.0000

> <Gold.Chemscore.Hbonds>
donor molecule, donor type, donor heavy atom, donor atom, acceptor molecule, acceptor atom, score
      P1  H  6896  6907       L1    10  1.00
      P1  H  7989  7998       L1    14  0.48
      P1  H  7997  8010       L1    14  0.94

> <Gold.PLP.Chemscore.Internal.Correction>
0.0112

> <Gold.Rescore>
     Score         DG    S(hbond)    S(metal)    S(lipo)     H(rot)  DE(clash)    DE(int)     intcor
     14.70     -16.87       1.92        0.00      86.25       1.99       0.02       2.14       ----

> <Gold.Chemscore.Fitness>
14.7021

> <Gold.Chemscore.DG>
-16.8709

> <Gold.Chemscore.ZeroCoef>
-5.4800

> <Gold.Chemscore.Hbond>
1.9176

> <Gold.Chemscore.Metal>
0.0000

> <Gold.Chemscore.Lipo>
86.2469

> <Gold.Chemscore.Internal_Hbond>
0.0000

> <Gold.Chemscore.DEClash>
0.0247

> <Gold.Chemscore.DEInternal>
2.1441

> <Gold.Chemscore.Rot>
1.9940

> <Gold.Chemscore.Internal.Correction>
   9.000000E+99

> <Gold.Chemscore.Hbonds>
donor molecule, donor type, donor heavy atom, donor atom, acceptor molecule, acceptor atom, score
      P1  H  6896  6907       L1    10  0.96
      P1  H  7989  7998       L1    14  0.48
      P1  H  7997  8010       L1    14  0.27

> <Gold.Chemscore.Hbond.Weighted>
-6.4047

> <Gold.Chemscore.Metal.Weighted>
-0.0000

> <Gold.Chemscore.Lipo.Weighted>
-10.0909

> <Gold.Chemscore.Internal_Hbond.Weighted>
0.0000

> <Gold.Chemscore.DEClash.Weighted>
0.0247

> <Gold.Chemscore.DEInternal.Weighted>
2.1441

> <Gold.Chemscore.Rot.Weighted>
5.1047

> <Gold.Chemscore.Internal.Correction.Weighted>
   9.000000E+99

> <Gold.Protein.RotatedTorsions>
[ 6907 6896 6895 6894 ] final  -45.30 input  -60.11 | X-H torsion
[ 7974 7965 7964 7962 ] final   34.63 input  175.53 | X-H torsion
[ 8008 7997 7996 7995 ] final   97.98 input   59.86 | X-H torsion
[ 10167 10162 10161 10158 ] final -172.55 input  -65.29 | X-H torsion
[ 10718 10713 10712 10709 ] final  121.19 input   66.30 | X-H torsion
[ 10763 10752 10751 10750 ] final   39.01 input  -60.55 | X-H torsion
[ 11005 11000 10999 10996 ] final  -17.08 input  -57.11 | X-H torsion

> <Gold.Protein.ActiveResidues>
 VAL166  LYS551  ARG553  GLY616  TRP617  ASP618  TYR619  PRO620  LYS621  CYS622 
 ASP623  PHE694  ASN695  SER759  ASP760  ASP761  ALA762  ILE779  LEU786  VAL792 
 PHE793  MET794  SER795  GLU796  ALA797  LYS798  CYS799  TRP800  GLU811  SER814 

> <Gold.Protein.RotatedAtoms>
  150.9234  134.8651  159.7503 H   0  0  0  0  0  0  0  0  0  0  0  0  # atno 6907 bound_to 6896
  152.5004  134.4184  159.9482 H   0  0  0  0  0  0  0  0  0  0  0  0  # atno 6908 bound_to 6896
  151.4216  133.3657  159.2792 H   0  0  0  0  0  0  0  0  0  0  0  0  # atno 6909 bound_to 6896
  146.1340  139.6245  142.9208 H   0  0  0  0  0  0  0  0  0  0  0  0  # atno 7974 bound_to 7965
  156.0957  140.3250  155.7874 H   0  0  0  0  0  0  0  0  0  0  0  0  # atno 8008 bound_to 7997
  155.4922  140.0562  157.2969 H   0  0  0  0  0  0  0  0  0  0  0  0  # atno 8009 bound_to 7997
  154.4665  140.1991  156.0121 H   0  0  0  0  0  0  0  0  0  0  0  0  # atno 8010 bound_to 7997
  139.5738  144.1579  152.1422 H   0  0  0  0  0  0  0  0  0  0  0  0  # atno 10167 bound_to 10162
  157.5835  131.1072  150.8140 H   0  0  0  0  0  0  0  0  0  0  0  0  # atno 10718 bound_to 10713
  152.9981  135.6233  154.2396 H   0  0  0  0  0  0  0  0  0  0  0  0  # atno 10763 bound_to 10752
  154.2137  135.2799  155.2951 H   0  0  0  0  0  0  0  0  0  0  0  0  # atno 10764 bound_to 10752
  154.5585  135.5712  153.7045 H   0  0  0  0  0  0  0  0  0  0  0  0  # atno 10765 bound_to 10752
  140.8132  133.8125  155.9584 H   0  0  0  0  0  0  0  0  0  0  0  0  # atno 11005 bound_to 11000
  145.5198  141.0432  143.2441 LP  0  0  0  0  0  0  0  0  0  0  0  0  # atno 17320 bound_to 7965
  144.7720  139.6714  143.7191 LP  0  0  0  0  0  0  0  0  0  0  0  0  # atno 17321 bound_to 7965
  140.1118  144.5450  150.6920 LP  0  0  0  0  0  0  0  0  0  0  0  0  # atno 17342 bound_to 10162
  140.7022  143.2442  151.4832 LP  0  0  0  0  0  0  0  0  0  0  0  0  # atno 17343 bound_to 10162
  156.8580  130.5103  149.5306 LP  0  0  0  0  0  0  0  0  0  0  0  0  # atno 17370 bound_to 10713
  156.0883  130.5875  150.9687 LP  0  0  0  0  0  0  0  0  0  0  0  0  # atno 17371 bound_to 10713
  140.9176  134.2182  157.4947 LP  0  0  0  0  0  0  0  0  0  0  0  0  # atno 17394 bound_to 11000
  139.8713  134.9778  156.4973 LP  0  0  0  0  0  0  0  0  0  0  0  0  # atno 17395 bound_to 11000

$$$$
