AV-unprocessed.smi:1978|AV-procd|sdf|8015|dock4
  -GOLD-   2272010203D 1   1.00000     0.00000
 Structure written by MMmdl.
 44 45  0  0  0  0  0  0  0  0  3 V2000
  150.1245  133.3676  156.2341 C   0  0  0  0  0  0  0  0  0  0  0  0
  150.8336  134.6780  156.2506 C   0  0  0  0  0  0  0  0  0  0  0  0
  150.4744  135.9346  155.8526 C   0  0  0  0  0  0  0  0  0  0  0  0
  151.6289  136.7074  156.1478 C   0  0  0  0  0  0  0  0  0  0  0  0
  151.6587  138.0988  155.8663 N   0  0  0  0  0  0  0  0  0  0  0  0
  151.2393  138.7449  154.7632 C   0  0  0  0  0  0  0  0  0  0  0  0
  150.7765  138.1124  153.8069 O   0  0  0  0  0  0  0  0  0  0  0  0
  151.3930  140.0933  154.8689 N   0  5  0  0  0  0  0  0  0  0  0  0
  151.4448  140.8367  156.1282 C   0  0  0  0  0  0  0  0  0  0  0  0
  150.4508  142.0255  156.0916 C   0  0  1  0  0  0  0  0  0  0  0  0
  148.9631  141.5983  156.2139 C   0  0  0  0  0  0  0  0  0  0  0  0
  150.8618  143.0541  157.0997 N   0  3  2  0  0  0  0  0  0  0  0  0
  152.2256  143.6411  156.9409 C   0  0  0  0  0  0  0  0  0  0  0  0
  152.3926  144.8909  157.8192 C   0  0  0  0  0  0  0  0  0  0  0  0
  152.0939  144.5760  159.2897 C   0  0  0  0  0  0  0  0  0  0  0  0
  150.6964  143.9532  159.4196 C   0  0  0  0  0  0  0  0  0  0  0  0
  150.5241  142.7141  158.5162 C   0  0  2  0  0  0  0  0  0  0  0  0
  151.2880  141.4856  159.0530 C   0  0  0  0  0  0  0  0  0  0  0  0
  152.6036  135.9865  156.6824 N   0  0  0  0  0  0  0  0  0  0  0  0
  152.0987  134.6826  156.7511 O   0  0  0  0  0  0  0  0  0  0  0  0
  149.1632  133.4507  155.7266 H   0  0  0  0  0  0  0  0  0  0  0  0
  149.9417  133.0146  157.2491 H   0  0  0  0  0  0  0  0  0  0  0  0
  150.7168  132.6145  155.7139 H   0  0  0  0  0  0  0  0  0  0  0  0
  149.5376  136.2483  155.4166 H   0  0  0  0  0  0  0  0  0  0  0  0
  152.0269  138.6835  156.6017 H   0  0  0  0  0  0  0  0  0  0  0  0
  151.2119  140.2007  156.9825 H   0  0  0  0  0  0  0  0  0  0  0  0
  152.4413  141.2340  156.3282 H   0  0  0  0  0  0  0  0  0  0  0  0
  150.5660  142.4798  155.1061 H   0  0  0  0  0  0  0  0  0  0  0  0
  148.6546  140.9643  155.3805 H   0  0  0  0  0  0  0  0  0  0  0  0
  148.3005  142.4629  156.1998 H   0  0  0  0  0  0  0  0  0  0  0  0
  148.7536  141.0455  157.1312 H   0  0  0  0  0  0  0  0  0  0  0  0
  152.9912  142.9068  157.1919 H   0  0  0  0  0  0  0  0  0  0  0  0
  152.3898  143.9236  155.9006 H   0  0  0  0  0  0  0  0  0  0  0  0
  153.4050  145.2838  157.7203 H   0  0  0  0  0  0  0  0  0  0  0  0
  151.7208  145.6757  157.4689 H   0  0  0  0  0  0  0  0  0  0  0  0
  152.8478  143.8946  159.6852 H   0  0  0  0  0  0  0  0  0  0  0  0
  152.1552  145.4860  159.8874 H   0  0  0  0  0  0  0  0  0  0  0  0
  150.4956  143.6952  160.4600 H   0  0  0  0  0  0  0  0  0  0  0  0
  149.9501  144.7003  159.1458 H   0  0  0  0  0  0  0  0  0  0  0  0
  149.4624  142.4638  158.5421 H   0  0  0  0  0  0  0  0  0  0  0  0
  151.0125  141.2843  160.0885 H   0  0  0  0  0  0  0  0  0  0  0  0
  152.3683  141.6234  159.0255 H   0  0  0  0  0  0  0  0  0  0  0  0
  151.0521  140.5863  158.4851 H   0  0  0  0  0  0  0  0  0  0  0  0
  150.2392  143.8227  156.8934 H   0  0  0  0  0  0  0  0  0  0  0  0
  1  2  1  0  0  0  0
  1 21  1  0  0  0  0
  1 22  1  0  0  0  0
  1 23  1  0  0  0  0
  2 20  1  0  0  0  0
  2  3  2  0  0  0  0
  3  4  1  0  0  0  0
  3 24  1  0  0  0  0
  4  5  1  0  0  0  0
  4 19  2  0  0  0  0
  5  6  1  0  0  0  0
  5 25  1  0  0  0  0
  6  7  2  0  0  0  0
  6  8  1  0  0  0  0
  8  9  1  0  0  0  0
  9 10  1  0  0  0  0
  9 26  1  0  0  0  0
  9 27  1  0  0  0  0
 10 11  1  0  0  0  0
 10 12  1  0  0  0  0
 10 28  1  0  0  0  0
 11 29  1  0  0  0  0
 11 30  1  0  0  0  0
 11 31  1  0  0  0  0
 12 17  1  0  0  0  0
 12 13  1  0  0  0  0
 12 44  1  0  0  0  0
 13 14  1  0  0  0  0
 13 32  1  0  0  0  0
 13 33  1  0  0  0  0
 14 15  1  0  0  0  0
 14 34  1  0  0  0  0
 14 35  1  0  0  0  0
 15 16  1  0  0  0  0
 15 36  1  0  0  0  0
 15 37  1  0  0  0  0
 16 17  1  0  0  0  0
 16 38  1  0  0  0  0
 16 39  1  0  0  0  0
 17 18  1  0  0  0  0
 17 40  1  0  0  0  0
 18 41  1  0  0  0  0
 18 42  1  0  0  0  0
 18 43  1  0  0  0  0
 19 20  1  0  0  0  0
M  CHG  1   8  -1
M  CHG  1  12   1
M  END
> <s_m_source_file>
AV-unprocessed.smi

> <i_m_source_file_index>
1978

> <i_lp_mmshare_version>
43012

> <i_f3d_flags>
0

> <s_epik_input>
W0NIM11jMVtjSF1jKG5vMSlbTkhdQyg9TylbTkhdW0NIMl1bQ0BIXShbQ0gzXSlOMltDSDJdW0NIMl1bQ0gyXVtDSDJdW0NASF0yW0NIM10=

> <s_epik_cmdline>
J2VwaWtfcHl0aG9uJywgJy1waCcsICc3LjAnLCAnLXRuJywgJzgnLCAnLW1hJywgJzIwMCcsICctbWV0YWxfYmluZGluZycsICctaW1hZScsICc8aW5maWxlLm1hZT4nLCAnLW9tYWUnLCAnPG91dGZpbGUubWFlPic=

> <r_epik_Ionization_Penalty>
6.7666

> <r_epik_Ionization_Penalty_Charging>
6.7666

> <r_epik_Ionization_Penalty_Neutral>
5.77131e-06

> <r_epik_State_Penalty>
6.79217

> <r_epik_Charging_Adjusted_Penalty>
13.5588

> <i_epik_Tot_Q>
0

> <i_epik_Tot_abs_Q>
2

> <r_epik_Metal_State_Penalty>
2.72569

> <b_epik_Metal_Only>
1

> <s_lp_Force_Field>
OPLS_2005

> <r_lp_Energy>
20.871

> <b_lp_Chiralities_Consistent>
1

> <s_lp_Variant>
AV-unprocessed.smi:1978-24

> <Gold.Version>
5.8.1

> <Gold.Id.Protein>
6NUR|6NUR_protein|mol2

> <Gold.PLP.Fitness>
41.4599

> <Gold.PLP.PLP>
-32.6817

> <Gold.PLP.part.hbond>
-4.4898

> <Gold.PLP.part.metal>
0.0000

> <Gold.PLP.part.buried>
-5.2851

> <Gold.PLP.part.nonpolar>
-23.2851

> <Gold.PLP.part.repulsive>
0.4467

> <Gold.PLP.ligand.clash>
0.0000

> <Gold.PLP.ligand.torsion>
0.7915

> <Gold.PLP.Chemscore.Hbond>
3.3648

> <Gold.PLP.Chemscore.CHOScore>
0.0000

> <Gold.PLP.Chemscore.Metal>
0.0000

> <Gold.Chemscore.Hbonds>
donor molecule, donor type, donor heavy atom, donor atom, acceptor molecule, acceptor atom, score
      L1  H    12    44       P1  8028  2.00
      P1  H  7989  7998       L1     8  1.00
      P1  H 10752 10764       L1    19  0.27

> <Gold.PLP.Chemscore.Internal.Correction>
0.2668

> <Gold.Rescore>
     Score         DG    S(hbond)    S(metal)    S(lipo)     H(rot)  DE(clash)    DE(int)     intcor
     15.14     -18.77       1.88        0.00      93.26       1.52       1.97       1.66       ----

> <Gold.Chemscore.Fitness>
15.1421

> <Gold.Chemscore.DG>
-18.7669

> <Gold.Chemscore.ZeroCoef>
-5.4800

> <Gold.Chemscore.Hbond>
1.8756

> <Gold.Chemscore.Metal>
0.0000

> <Gold.Chemscore.Lipo>
93.2557

> <Gold.Chemscore.Internal_Hbond>
0.0000

> <Gold.Chemscore.DEClash>
1.9675

> <Gold.Chemscore.DEInternal>
1.6573

> <Gold.Chemscore.Rot>
1.5190

> <Gold.Chemscore.Internal.Correction>
   9.000000E+99

> <Gold.Chemscore.Hbonds>
donor molecule, donor type, donor heavy atom, donor atom, acceptor molecule, acceptor atom, score
      L1  H    12    44       P1  8028  0.89
      P1  H  7989  7998       L1     8  0.88

> <Gold.Chemscore.Hbond.Weighted>
-6.2646

> <Gold.Chemscore.Metal.Weighted>
-0.0000

> <Gold.Chemscore.Lipo.Weighted>
-10.9109

> <Gold.Chemscore.Internal_Hbond.Weighted>
0.0000

> <Gold.Chemscore.DEClash.Weighted>
1.9675

> <Gold.Chemscore.DEInternal.Weighted>
1.6573

> <Gold.Chemscore.Rot.Weighted>
3.8886

> <Gold.Chemscore.Internal.Correction.Weighted>
   9.000000E+99

> <Gold.Protein.RotatedTorsions>
[ 6907 6896 6895 6894 ] final   -8.05 input  -60.11 | X-H torsion
[ 7974 7965 7964 7962 ] final -166.19 input  175.53 | X-H torsion
[ 8008 7997 7996 7995 ] final -137.24 input   59.86 | X-H torsion
[ 10167 10162 10161 10158 ] final   24.43 input  -65.29 | X-H torsion
[ 10718 10713 10712 10709 ] final   -4.69 input   66.30 | X-H torsion
[ 10763 10752 10751 10750 ] final   12.12 input  -60.55 | X-H torsion
[ 11005 11000 10999 10996 ] final  -55.27 input  -57.11 | X-H torsion

> <Gold.Protein.ActiveResidues>
 VAL166  LYS551  ARG553  GLY616  TRP617  ASP618  TYR619  PRO620  LYS621  CYS622 
 ASP623  PHE694  ASN695  SER759  ASP760  ASP761  ALA762  ILE779  LEU786  VAL792 
 PHE793  MET794  SER795  GLU796  ALA797  LYS798  CYS799  TRP800  GLU811  SER814 

> <Gold.Protein.RotatedAtoms>
  151.4398  135.1019  159.9666 H   0  0  0  0  0  0  0  0  0  0  0  0  # atno 6907 bound_to 6896
  152.4926  133.8539  159.7226 H   0  0  0  0  0  0  0  0  0  0  0  0  # atno 6908 bound_to 6896
  150.9096  133.6956  159.2885 H   0  0  0  0  0  0  0  0  0  0  0  0  # atno 6909 bound_to 6896
  144.7251  140.2703  143.6251 H   0  0  0  0  0  0  0  0  0  0  0  0  # atno 7974 bound_to 7965
  155.4085  140.0510  157.3033 H   0  0  0  0  0  0  0  0  0  0  0  0  # atno 8008 bound_to 7997
  154.4957  140.2137  155.9411 H   0  0  0  0  0  0  0  0  0  0  0  0  # atno 8009 bound_to 7997
  156.1402  140.3155  155.8489 H   0  0  0  0  0  0  0  0  0  0  0  0  # atno 8010 bound_to 7997
  140.5189  144.0036  150.6407 H   0  0  0  0  0  0  0  0  0  0  0  0  # atno 10167 bound_to 10162
  156.7576  130.5259  149.5791 H   0  0  0  0  0  0  0  0  0  0  0  0  # atno 10718 bound_to 10713
  153.1855  135.6834  153.8421 H   0  0  0  0  0  0  0  0  0  0  0  0  # atno 10763 bound_to 10752
  153.7739  135.3192  155.3357 H   0  0  0  0  0  0  0  0  0  0  0  0  # atno 10764 bound_to 10752
  154.8086  135.4732  154.0552 H   0  0  0  0  0  0  0  0  0  0  0  0  # atno 10765 bound_to 10752
  141.1066  133.6613  156.4444 H   0  0  0  0  0  0  0  0  0  0  0  0  # atno 11005 bound_to 11000
  145.8050  139.1979  143.2026 LP  0  0  0  0  0  0  0  0  0  0  0  0  # atno 17320 bound_to 7965
  146.0645  140.7936  142.9718 LP  0  0  0  0  0  0  0  0  0  0  0  0  # atno 17321 bound_to 7965
  140.3380  143.3037  152.0618 LP  0  0  0  0  0  0  0  0  0  0  0  0  # atno 17342 bound_to 10162
  139.4917  144.6463  151.6772 LP  0  0  0  0  0  0  0  0  0  0  0  0  # atno 17343 bound_to 10162
  156.1360  130.6211  151.0401 LP  0  0  0  0  0  0  0  0  0  0  0  0  # atno 17370 bound_to 10713
  157.6749  131.0853  150.7519 LP  0  0  0  0  0  0  0  0  0  0  0  0  # atno 17371 bound_to 10713
  140.4887  134.6596  157.5201 LP  0  0  0  0  0  0  0  0  0  0  0  0  # atno 17394 bound_to 11000
  139.9939  134.6942  155.9643 LP  0  0  0  0  0  0  0  0  0  0  0  0  # atno 17395 bound_to 11000

$$$$
