AV-unprocessed.smi:3250|AV-procd|sdf|12432|dock8
  -GOLD-   2272018323D 1   1.00000     0.00000
 Structure written by MMmdl.
 40 41  0  0  0  0  0  0  0  0  3 V2000
  147.7265  141.9879  157.9128 C   0  0  0  0  0  0  0  0  0  0  0  0
  147.0144  141.8031  156.5656 C   0  0  0  0  0  0  0  0  0  0  0  0
  147.8533  142.2358  155.4161 N   0  3  2  0  0  0  0  0  0  0  0  0
  147.1333  142.3276  154.1203 C   0  0  0  0  0  0  0  0  0  0  0  0
  146.9245  140.9372  153.4907 C   0  0  0  0  0  0  0  0  0  0  0  0
  148.1762  140.2723  153.3690 O   0  0  0  0  0  0  0  0  0  0  0  0
  148.8088  140.0652  154.6279 C   0  0  1  0  0  0  0  0  0  0  0  0
  150.1021  139.2667  154.3903 C   0  0  0  0  0  0  0  0  0  0  0  0
  149.8413  137.8735  154.0519 N   0  0  0  0  0  0  0  0  0  0  0  0
  149.9218  136.8241  154.9506 C   0  0  0  0  0  0  0  0  0  0  0  0
  149.6448  135.5933  154.4960 N   0  3  0  0  0  0  0  0  0  0  0  0
  149.7017  134.5343  155.3410 C   0  0  0  0  0  0  0  0  0  0  0  0
  150.0465  134.7205  156.6920 C   0  0  0  0  0  0  0  0  0  0  0  0
  150.3240  136.0343  157.1026 C   0  0  0  0  0  0  0  0  0  0  0  0
  150.6614  136.2823  158.4172 O   0  0  0  0  0  0  0  0  0  0  0  0
  150.8839  137.6313  158.8147 C   0  0  0  0  0  0  0  0  0  0  0  0
  150.2589  137.0640  156.2261 N   0  0  0  0  0  0  0  0  0  0  0  0
  149.0976  141.4428  155.2600 C   0  0  0  0  0  0  0  0  0  0  0  0
  147.1261  141.5730  158.7226 H   0  0  0  0  0  0  0  0  0  0  0  0
  147.8977  143.0384  158.1453 H   0  0  0  0  0  0  0  0  0  0  0  0
  148.6903  141.4781  157.9233 H   0  0  0  0  0  0  0  0  0  0  0  0
  146.7848  140.7423  156.4578 H   0  0  0  0  0  0  0  0  0  0  0  0
  146.0566  142.3233  156.5691 H   0  0  0  0  0  0  0  0  0  0  0  0
  146.1822  142.8470  154.2296 H   0  0  0  0  0  0  0  0  0  0  0  0
  147.7338  142.9369  153.4433 H   0  0  0  0  0  0  0  0  0  0  0  0
  146.2321  140.3321  154.0772 H   0  0  0  0  0  0  0  0  0  0  0  0
  146.4852  141.0405  152.4984 H   0  0  0  0  0  0  0  0  0  0  0  0
  148.1453  139.4984  155.2824 H   0  0  0  0  0  0  0  0  0  0  0  0
  150.6815  139.7212  153.5863 H   0  0  0  0  0  0  0  0  0  0  0  0
  150.7324  139.2987  155.2799 H   0  0  0  0  0  0  0  0  0  0  0  0
  149.5069  137.6659  153.1219 H   0  0  0  0  0  0  0  0  0  0  0  0
  149.4671  133.5727  154.9082 H   0  0  0  0  0  0  0  0  0  0  0  0
  150.0951  133.8909  157.3821 H   0  0  0  0  0  0  0  0  0  0  0  0
  151.1320  137.6585  159.8756 H   0  0  0  0  0  0  0  0  0  0  0  0
  149.9935  138.2445  158.6671 H   0  0  0  0  0  0  0  0  0  0  0  0
  151.7179  138.0750  158.2689 H   0  0  0  0  0  0  0  0  0  0  0  0
  149.7821  142.0023  154.6205 H   0  0  0  0  0  0  0  0  0  0  0  0
  149.6008  141.3320  156.2214 H   0  0  0  0  0  0  0  0  0  0  0  0
  148.1506  143.1734  155.6475 H   0  0  0  0  0  0  0  0  0  0  0  0
  149.3912  135.4401  153.5195 H   0  0  0  0  0  0  0  0  0  0  0  0
  1  2  1  0  0  0  0
  1 19  1  0  0  0  0
  1 20  1  0  0  0  0
  1 21  1  0  0  0  0
  2  3  1  0  0  0  0
  2 22  1  0  0  0  0
  2 23  1  0  0  0  0
  3 18  1  0  0  0  0
  3  4  1  0  0  0  0
  3 39  1  0  0  0  0
  4  5  1  0  0  0  0
  4 24  1  0  0  0  0
  4 25  1  0  0  0  0
  5  6  1  0  0  0  0
  5 26  1  0  0  0  0
  5 27  1  0  0  0  0
  6  7  1  0  0  0  0
  7  8  1  0  0  0  0
  7 18  1  0  0  0  0
  7 28  1  0  0  0  0
  8  9  1  0  0  0  0
  8 29  1  0  0  0  0
  8 30  1  0  0  0  0
  9 10  1  0  0  0  0
  9 31  1  0  0  0  0
 10 17  1  0  0  0  0
 10 11  2  0  0  0  0
 11 12  1  0  0  0  0
 11 40  1  0  0  0  0
 12 13  2  0  0  0  0
 12 32  1  0  0  0  0
 13 14  1  0  0  0  0
 13 33  1  0  0  0  0
 14 15  1  0  0  0  0
 14 17  2  0  0  0  0
 15 16  1  0  0  0  0
 16 34  1  0  0  0  0
 16 35  1  0  0  0  0
 16 36  1  0  0  0  0
 18 37  1  0  0  0  0
 18 38  1  0  0  0  0
M  CHG  1   3   1
M  CHG  1  11   1
M  END
> <s_m_source_file>
AV-unprocessed.smi

> <i_m_source_file_index>
3250

> <i_lp_mmshare_version>
43012

> <i_f3d_flags>
0

> <s_epik_input>
W0NIM11bQ0gyXU4xW0NIMl1bQ0gyXU9bQ0BIXShbQ0gyXTEpW0NIMl1bTkhdYzJuW2NIXVtjSF1jKG4yKU9bQ0gzXQ==

> <s_epik_cmdline>
J2VwaWtfcHl0aG9uJywgJy1waCcsICc3LjAnLCAnLXRuJywgJzgnLCAnLW1hJywgJzIwMCcsICctbWV0YWxfYmluZGluZycsICctaW1hZScsICc8aW5maWxlLm1hZT4nLCAnLW9tYWUnLCAnPG91dGZpbGUubWFlPic=

> <r_lp_tautomer_probability>
0.999985

> <r_epik_Ionization_Penalty>
2.24691

> <r_epik_Ionization_Penalty_Charging>
2.24686

> <r_epik_Ionization_Penalty_Neutral>
4.52111e-05

> <r_epik_State_Penalty>
2.24709

> <r_epik_Charging_Adjusted_Penalty>
4.49395

> <i_epik_Tot_Q>
2

> <i_epik_Tot_abs_Q>
2

> <r_epik_Metal_State_Penalty>
2.26327

> <b_epik_Metal_Only>
0

> <s_lp_Force_Field>
OPLS_2005

> <r_lp_Energy>
19.5656

> <b_lp_Chiralities_Consistent>
1

> <s_lp_Variant>
AV-unprocessed.smi:3250-8

> <Gold.Version>
5.8.1

> <Gold.Id.Protein>
6NUR|6NUR_protein|mol2

> <Gold.PLP.Fitness>
44.4935

> <Gold.PLP.PLP>
-24.7775

> <Gold.PLP.part.hbond>
-4.0000

> <Gold.PLP.part.metal>
0.0000

> <Gold.PLP.part.buried>
-6.6130

> <Gold.PLP.part.nonpolar>
-18.7846

> <Gold.PLP.part.repulsive>
3.3400

> <Gold.PLP.ligand.clash>
0.0000

> <Gold.PLP.ligand.torsion>
0.2566

> <Gold.PLP.Chemscore.Hbond>
6.7360

> <Gold.PLP.Chemscore.CHOScore>
0.0000

> <Gold.PLP.Chemscore.Metal>
0.0000

> <Gold.Chemscore.Hbonds>
donor molecule, donor type, donor heavy atom, donor atom, acceptor molecule, acceptor atom, score
      L1  H     3    39       P1  8028  2.00
      L1  H     9    31       P1  7948  1.86
      L1  H    11    40       P1  7948  1.79
      P1  H  6896  6908       L1    15  0.83

> <Gold.PLP.Chemscore.Internal.Correction>
0.0211

> <Gold.Rescore>
     Score         DG    S(hbond)    S(metal)    S(lipo)     H(rot)  DE(clash)    DE(int)     intcor
     16.14     -18.03       3.28        0.00      52.01       1.75       1.57       0.32       ----

> <Gold.Chemscore.Fitness>
16.1388

> <Gold.Chemscore.DG>
-18.0292

> <Gold.Chemscore.ZeroCoef>
-5.4800

> <Gold.Chemscore.Hbond>
3.2789

> <Gold.Chemscore.Metal>
0.0000

> <Gold.Chemscore.Lipo>
52.0105

> <Gold.Chemscore.Internal_Hbond>
0.0000

> <Gold.Chemscore.DEClash>
1.5708

> <Gold.Chemscore.DEInternal>
0.3196

> <Gold.Chemscore.Rot>
1.7530

> <Gold.Chemscore.Internal.Correction>
   9.000000E+99

> <Gold.Chemscore.Hbonds>
donor molecule, donor type, donor heavy atom, donor atom, acceptor molecule, acceptor atom, score
      L1  H     3    39       P1  8028  0.82
      L1  H     9    31       P1  7948  0.78
      L1  H    11    40       P1  7948  0.20
      P1  H  6896  6908       L1    15  0.76

> <Gold.Chemscore.Hbond.Weighted>
-10.9516

> <Gold.Chemscore.Metal.Weighted>
-0.0000

> <Gold.Chemscore.Lipo.Weighted>
-6.0852

> <Gold.Chemscore.Internal_Hbond.Weighted>
0.0000

> <Gold.Chemscore.DEClash.Weighted>
1.5708

> <Gold.Chemscore.DEInternal.Weighted>
0.3196

> <Gold.Chemscore.Rot.Weighted>
4.4876

> <Gold.Chemscore.Internal.Correction.Weighted>
   9.000000E+99

> <Gold.Protein.RotatedTorsions>
[ 6907 6896 6895 6894 ] final -162.48 input  -60.11 | X-H torsion
[ 7974 7965 7964 7962 ] final  -27.88 input  175.53 | X-H torsion
[ 8008 7997 7996 7995 ] final  175.55 input   59.86 | X-H torsion
[ 10167 10162 10161 10158 ] final -107.81 input  -65.29 | X-H torsion
[ 10718 10713 10712 10709 ] final  -90.60 input   66.30 | X-H torsion
[ 10763 10752 10751 10750 ] final -117.49 input  -60.55 | X-H torsion
[ 11005 11000 10999 10996 ] final   44.26 input  -57.11 | X-H torsion

> <Gold.Protein.ActiveResidues>
 VAL166  LYS551  ARG553  GLY616  TRP617  ASP618  TYR619  PRO620  LYS621  CYS622 
 ASP623  PHE694  ASN695  SER759  ASP760  ASP761  ALA762  ILE779  LEU786  VAL792 
 PHE793  MET794  SER795  GLU796  ALA797  LYS798  CYS799  TRP800  GLU811  SER814 

> <Gold.Protein.RotatedAtoms>
  151.3810  133.3821  159.2709 H   0  0  0  0  0  0  0  0  0  0  0  0  # atno 6907 bound_to 6896
  150.9577  134.8970  159.7722 H   0  0  0  0  0  0  0  0  0  0  0  0  # atno 6908 bound_to 6896
  152.5137  134.3768  159.9389 H   0  0  0  0  0  0  0  0  0  0  0  0  # atno 6909 bound_to 6896
  146.1327  140.5209  142.8686 H   0  0  0  0  0  0  0  0  0  0  0  0  # atno 7974 bound_to 7965
  156.0859  140.1406  156.9654 H   0  0  0  0  0  0  0  0  0  0  0  0  # atno 8008 bound_to 7997
  154.4612  140.0942  156.6946 H   0  0  0  0  0  0  0  0  0  0  0  0  # atno 8009 bound_to 7997
  155.5000  140.3450  155.4372 H   0  0  0  0  0  0  0  0  0  0  0  0  # atno 8010 bound_to 7997
  140.1730  143.4028  152.1340 H   0  0  0  0  0  0  0  0  0  0  0  0  # atno 10167 bound_to 10162
  155.9988  130.4916  150.5347 H   0  0  0  0  0  0  0  0  0  0  0  0  # atno 10718 bound_to 10713
  154.8556  135.4308  154.1987 H   0  0  0  0  0  0  0  0  0  0  0  0  # atno 10763 bound_to 10752
  153.3039  135.6971  153.7183 H   0  0  0  0  0  0  0  0  0  0  0  0  # atno 10764 bound_to 10752
  153.6303  135.3486  155.3013 H   0  0  0  0  0  0  0  0  0  0  0  0  # atno 10765 bound_to 10752
  140.1568  134.4391  155.8344 H   0  0  0  0  0  0  0  0  0  0  0  0  # atno 11005 bound_to 11000
  144.7707  140.5632  143.6672 LP  0  0  0  0  0  0  0  0  0  0  0  0  # atno 17320 bound_to 7965
  145.5224  139.1476  143.3545 LP  0  0  0  0  0  0  0  0  0  0  0  0  # atno 17321 bound_to 7965
  139.5329  144.7179  151.4991 LP  0  0  0  0  0  0  0  0  0  0  0  0  # atno 17342 bound_to 10162
  140.6570  143.8579  150.6846 LP  0  0  0  0  0  0  0  0  0  0  0  0  # atno 17343 bound_to 10162
  157.3292  131.0696  151.1874 LP  0  0  0  0  0  0  0  0  0  0  0  0  # atno 17370 bound_to 10713
  157.2760  130.6727  149.6043 LP  0  0  0  0  0  0  0  0  0  0  0  0  # atno 17371 bound_to 10713
  141.2205  133.6896  156.7522 LP  0  0  0  0  0  0  0  0  0  0  0  0  # atno 17394 bound_to 11000
  140.2537  134.8520  157.3692 LP  0  0  0  0  0  0  0  0  0  0  0  0  # atno 17395 bound_to 11000

$$$$
