#       Name:                AV-unprocessed.smi:1863
#       Creating user name   scv26
#       Creation time:       Fri Mar 27 09:26:46 2020


#       File generated by GOLD software.
#

@<TRIPOS>MOLECULE
AV-unprocessed.smi:1863
    42    43     1
SMALL
NO_CHARGES


@<TRIPOS>ATOM
      1 ****        -0.1448   3.7988  -1.0635 C.3            1 S1                 0.0000
      2 ****         0.2144   2.3072  -1.0194 C.3            1 S1                 0.0000
      3 ****         1.7355   2.1084  -0.8252 C.3            1 S1                 0.0000
      4 ****         2.1609   0.7333  -1.0820 N.am           1 S1                 0.0000
      5 ****         2.5772  -0.1314   0.0100 C.3            1 S1                 0.0000
      6 ****         2.6489  -1.5350  -0.6065 C.3            1 S1                 0.0000
      7 ****         2.6791  -1.3161  -2.1227 C.3            1 S1                 0.0000
      8 ****         2.2362   0.1294  -2.2742 C.2            1 S1                 0.0000
      9 ****         1.9810   0.6393  -3.3642 O.2            1 S1                 0.0000
     10 ****        -0.5292   1.6865   0.0759 N.am           1 S1                 0.0000
     11 ****        -1.0448   0.4483   0.0662 C.2            1 S1                 0.0000
     12 ****        -0.9566  -0.3182  -0.8927 O.2            1 S1                 0.0000
     13 ****        -1.6310   0.1591   1.2402 N.am           1 S1                 0.0000
     14 ****        -2.2503  -1.0545   1.6438 C.ar           1 S1                 0.0000
     15 ****        -2.7700  -2.0214   0.7493 C.ar           1 S1                 0.0000
     16 ****        -3.3759  -3.1783   1.2763 C.ar           1 S1                 0.0000
     17 ****        -3.4470  -3.3229   2.6755 C.ar           1 S1                 0.0000
     18 ****        -2.9682  -2.4032   3.5395 N.ar           1 S1                 0.0000
     19 ****        -2.3895  -1.2965   3.0269 C.ar           1 S1                 0.0000
     20 ****         0.3649   4.3001  -1.8869 H              1 S1                 0.0000
     21 ****         0.1387   4.3048  -0.1397 H              1 S1                 0.0000
     22 ****        -1.2163   3.9414  -1.2074 H              1 S1                 0.0000
     23 ****        -0.0963   1.8764  -1.9727 H              1 S1                 0.0000
     24 ****         2.2830   2.7602  -1.5080 H              1 S1                 0.0000
     25 ****         2.0346   2.4097   0.1799 H              1 S1                 0.0000
     26 ****         3.5568   0.1901   0.3662 H              1 S1                 0.0000
     27 ****         1.8790  -0.0919   0.8469 H              1 S1                 0.0000
     28 ****         3.5176  -2.0907  -0.2527 H              1 S1                 0.0000
     29 ****         1.7595  -2.1058  -0.3356 H              1 S1                 0.0000
     30 ****         3.6871  -1.4298  -2.5227 H              1 S1                 0.0000
     31 ****         2.0108  -1.9967  -2.6507 H              1 S1                 0.0000
     32 ****        -0.6479   2.2407   0.9112 H              1 S1                 0.0000
     33 ****        -1.5590   0.8663   1.9570 H              1 S1                 0.0000
     34 ****        -2.7306  -1.8949  -0.3212 H              1 S1                 0.0000
     35 ****        -3.7815  -3.9357   0.6219 H              1 S1                 0.0000
     36 ****        -3.9064  -4.1973   3.1121 H              1 S1                 0.0000
     37 ****        -2.0208  -0.5813   3.7479 H              1 S1                 0.0000
     38 ****         1.6855   1.5934  -3.4129 LP             1 S1                 0.0000
     39 ****         2.0691   0.0998  -4.2015 LP             1 S1                 0.0000
     40 ****        -0.4800  -0.0280  -1.7225 LP             1 S1                 0.0000
     41 ****        -1.3615  -1.2311  -0.8419 LP             1 S1                 0.0000
     42 ****        -3.0398  -2.5372   4.5279 LP             1 S1                 0.0000
@<TRIPOS>BOND
    1    1    2 1     
    2    1   20 1     
    3    1   21 1     
    4    1   22 1     
    5    2    3 1     
    6    2   10 1     
    7    2   23 1     
    8    3    4 1     
    9    3   24 1     
   10    3   25 1     
   11    4    8 am    
   12    4    5 1     
   13    5    6 1     
   14    5   26 1     
   15    5   27 1     
   16    6    7 1     
   17    6   28 1     
   18    6   29 1     
   19    7    8 1     
   20    7   30 1     
   21    7   31 1     
   22    8    9 2     
   23   10   11 am    
   24   10   32 1     
   25   11   12 2     
   26   11   13 am    
   27   13   14 1     
   28   13   33 1     
   29   14   19 ar    
   30   14   15 ar    
   31   15   16 ar    
   32   15   34 1     
   33   16   17 ar    
   34   16   35 1     
   35   17   18 ar    
   36   17   36 1     
   37   18   19 ar    
   38   19   37 1     
   39    9   38 1     
   40    9   39 1     
   41   12   40 1     
   42   12   41 1     
   43   18   42 1     
@<TRIPOS>SUBSTRUCTURE
      1 S1             1
@<TRIPOS>SET
LONE_PAIRS      STATIC     ATOMS    <user>   **** ""
5 38 39 40 41 42
DONOR_HYDROGENS      STATIC     ATOMS    <user>   **** ""
2 32 33
ATOM$BLUE        STATIC     ATOMS    COLORGROUP SYSTEM
5 38 39 40 41 42
ATOM$RED        STATIC     ATOMS    COLORGROUP SYSTEM
2 32 33
