AV-unprocessed.smi:1053|AV-procd|sdf|4621|dock3
  -GOLD-   22720 3123D 1   1.00000     0.00000
 Structure written by MMmdl.
 37 38  0  0  0  0  0  0  0  0  1 V2000
  147.0410  142.5806  154.0099 C   0  0  0  0  0  0  0  0  0  0  0  0
  146.7347  141.3288  154.8447 C   0  0  0  0  0  0  0  0  0  0  0  0
  147.8621  140.4151  155.0217 N   0  0  0  0  0  0  0  0  0  0  0  0
  148.2038  139.7018  153.7937 C   0  0  0  0  0  0  0  0  0  0  0  0
  149.4130  138.7724  153.9905 C   0  0  0  0  0  0  0  0  0  0  0  0
  150.5202  139.5280  154.4697 O   0  0  0  0  0  0  0  0  0  0  0  0
  150.2497  140.1927  155.7017 C   0  0  1  0  0  0  0  0  0  0  0  0
  151.5039  140.9720  156.1189 C   0  0  0  0  0  0  0  0  0  0  0  0
  152.0506  140.4829  157.3757 N   0  0  0  0  0  0  0  0  0  0  0  0
  152.5107  141.3001  158.3907 C   0  0  0  0  0  0  0  0  0  0  0  0
  153.3640  140.7832  159.2825 N   0  0  0  0  0  0  0  0  0  0  0  0
  153.8002  141.6039  160.2619 C   0  0  0  0  0  0  0  0  0  0  0  0
  153.3811  142.9461  160.3472 C   0  0  0  0  0  0  0  0  0  0  0  0
  152.4797  143.3849  159.3514 C   0  0  0  0  0  0  0  0  0  0  0  0
  151.9405  144.8071  159.3187 C   0  0  0  0  0  0  0  0  0  0  0  0
  152.3381  145.5061  160.3827 F   0  0  0  0  0  0  0  0  0  0  0  0
  152.3721  145.4279  158.2206 F   0  0  0  0  0  0  0  0  0  0  0  0
  150.6078  144.7812  159.3034 F   0  0  0  0  0  0  0  0  0  0  0  0
  152.0481  142.5520  158.3756 N   0  0  0  0  0  0  0  0  0  0  0  0
  149.0421  141.1295  155.4972 C   0  0  0  0  0  0  0  0  0  0  0  0
  146.1311  143.1535  153.8313 H   0  0  0  0  0  0  0  0  0  0  0  0
  147.4587  142.3129  153.0389 H   0  0  0  0  0  0  0  0  0  0  0  0
  147.7461  143.2430  154.5114 H   0  0  0  0  0  0  0  0  0  0  0  0
  146.3416  141.6270  155.8178 H   0  0  0  0  0  0  0  0  0  0  0  0
  145.9250  140.7946  154.3459 H   0  0  0  0  0  0  0  0  0  0  0  0
  147.3573  139.1064  153.4528 H   0  0  0  0  0  0  0  0  0  0  0  0
  148.4250  140.4164  152.9995 H   0  0  0  0  0  0  0  0  0  0  0  0
  149.1762  137.9728  154.6940 H   0  0  0  0  0  0  0  0  0  0  0  0
  149.6855  138.2993  153.0471 H   0  0  0  0  0  0  0  0  0  0  0  0
  150.0079  139.4550  156.4695 H   0  0  0  0  0  0  0  0  0  0  0  0
  152.2650  140.9109  155.3400 H   0  0  0  0  0  0  0  0  0  0  0  0
  151.2540  142.0265  156.2419 H   0  0  0  0  0  0  0  0  0  0  0  0
  152.1428  139.4856  157.5031 H   0  0  0  0  0  0  0  0  0  0  0  0
  154.4881  141.1873  160.9824 H   0  0  0  0  0  0  0  0  0  0  0  0
  153.7347  143.5950  161.1346 H   0  0  0  0  0  0  0  0  0  0  0  0
  149.3084  141.9142  154.7869 H   0  0  0  0  0  0  0  0  0  0  0  0
  148.8129  141.6293  156.4391 H   0  0  0  0  0  0  0  0  0  0  0  0
  1  2  1  0  0  0  0
  1 21  1  0  0  0  0
  1 22  1  0  0  0  0
  1 23  1  0  0  0  0
  2  3  1  0  0  0  0
  2 24  1  0  0  0  0
  2 25  1  0  0  0  0
  3 20  1  0  0  0  0
  3  4  1  0  0  0  0
  4  5  1  0  0  0  0
  4 26  1  0  0  0  0
  4 27  1  0  0  0  0
  5  6  1  0  0  0  0
  5 28  1  0  0  0  0
  5 29  1  0  0  0  0
  6  7  1  0  0  0  0
  7  8  1  0  0  0  0
  7 20  1  0  0  0  0
  7 30  1  0  0  0  0
  8  9  1  0  0  0  0
  8 31  1  0  0  0  0
  8 32  1  0  0  0  0
  9 10  1  0  0  0  0
  9 33  1  0  0  0  0
 10 19  1  0  0  0  0
 10 11  2  0  0  0  0
 11 12  1  0  0  0  0
 12 13  2  0  0  0  0
 12 34  1  0  0  0  0
 13 14  1  0  0  0  0
 13 35  1  0  0  0  0
 14 15  1  0  0  0  0
 14 19  2  0  0  0  0
 15 16  1  0  0  0  0
 15 17  1  0  0  0  0
 15 18  1  0  0  0  0
 20 36  1  0  0  0  0
 20 37  1  0  0  0  0
M  END
> <s_m_source_file>
AV-unprocessed.smi

> <i_m_source_file_index>
1053

> <i_lp_mmshare_version>
43012

> <i_f3d_flags>
0

> <s_epik_input>
W0NIM11bQ0gyXU4xW0NIMl1bQ0gyXU9bQ0BIXShbQ0gyXTEpW0NIMl1bTkhdYzJuW2NIXVtjSF1jKG4yKUMoRikoRilG

> <s_epik_cmdline>
J2VwaWtfcHl0aG9uJywgJy1waCcsICc3LjAnLCAnLXRuJywgJzgnLCAnLW1hJywgJzIwMCcsICctbWV0YWxfYmluZGluZycsICctaW1hZScsICc8aW5maWxlLm1hZT4nLCAnLW9tYWUnLCAnPG91dGZpbGUubWFlPic=

> <r_lp_tautomer_probability>
1

> <r_epik_Ionization_Penalty>
0.797829

> <r_epik_Ionization_Penalty_Charging>
0

> <r_epik_Ionization_Penalty_Neutral>
0.797829

> <r_epik_State_Penalty>
0.828842

> <r_epik_Charging_Adjusted_Penalty>
0.828842

> <i_epik_Tot_Q>
0

> <i_epik_Tot_abs_Q>
0

> <r_epik_Metal_State_Penalty>
0.828842

> <b_epik_Metal_Only>
0

> <s_lp_Force_Field>
OPLS_2005

> <r_lp_Energy>
17.4925

> <b_lp_Chiralities_Consistent>
1

> <s_lp_Variant>
AV-unprocessed.smi:1053-5

> <Gold.Version>
5.8.1

> <Gold.Id.Protein>
6NUR|6NUR_protein|mol2

> <Gold.PLP.Fitness>
42.3486

> <Gold.PLP.PLP>
-41.4949

> <Gold.PLP.part.hbond>
-1.0000

> <Gold.PLP.part.metal>
0.0000

> <Gold.PLP.part.buried>
-3.1173

> <Gold.PLP.part.nonpolar>
-37.3258

> <Gold.PLP.part.repulsive>
0.2839

> <Gold.PLP.ligand.clash>
0.0000

> <Gold.PLP.ligand.torsion>
1.0936

> <Gold.PLP.Chemscore.Hbond>
1.0000

> <Gold.PLP.Chemscore.CHOScore>
0.0000

> <Gold.PLP.Chemscore.Metal>
0.0000

> <Gold.Chemscore.Hbonds>
donor molecule, donor type, donor heavy atom, donor atom, acceptor molecule, acceptor atom, score
      P1  H  7989  7998       L1     6  1.00

> <Gold.PLP.Chemscore.Internal.Correction>
0.0409

> <Gold.Rescore>
     Score         DG    S(hbond)    S(metal)    S(lipo)     H(rot)  DE(clash)    DE(int)     intcor
     12.13     -13.96       0.74        0.00      84.77       1.52       0.52       1.31       ----

> <Gold.Chemscore.Fitness>
12.1302

> <Gold.Chemscore.DG>
-13.9621

> <Gold.Chemscore.ZeroCoef>
-5.4800

> <Gold.Chemscore.Hbond>
0.7358

> <Gold.Chemscore.Metal>
0.0000

> <Gold.Chemscore.Lipo>
84.7672

> <Gold.Chemscore.Internal_Hbond>
0.0000

> <Gold.Chemscore.DEClash>
0.5190

> <Gold.Chemscore.DEInternal>
1.3130

> <Gold.Chemscore.Rot>
1.5208

> <Gold.Chemscore.Internal.Correction>
   9.000000E+99

> <Gold.Chemscore.Hbonds>
donor molecule, donor type, donor heavy atom, donor atom, acceptor molecule, acceptor atom, score
      P1  H  7989  7998       L1     6  0.38

> <Gold.Chemscore.Hbond.Weighted>
-2.4575

> <Gold.Chemscore.Metal.Weighted>
-0.0000

> <Gold.Chemscore.Lipo.Weighted>
-9.9178

> <Gold.Chemscore.Internal_Hbond.Weighted>
0.0000

> <Gold.Chemscore.DEClash.Weighted>
0.5190

> <Gold.Chemscore.DEInternal.Weighted>
1.3130

> <Gold.Chemscore.Rot.Weighted>
3.8932

> <Gold.Chemscore.Internal.Correction.Weighted>
   9.000000E+99

> <Gold.Protein.RotatedTorsions>
[ 6907 6896 6895 6894 ] final  -15.77 input  -60.11 | X-H torsion
[ 7974 7965 7964 7962 ] final  -10.93 input  175.53 | X-H torsion
[ 8008 7997 7996 7995 ] final   21.97 input   59.86 | X-H torsion
[ 10167 10162 10161 10158 ] final   93.71 input  -65.29 | X-H torsion
[ 10718 10713 10712 10709 ] final   62.25 input   66.30 | X-H torsion
[ 10763 10752 10751 10750 ] final   40.74 input  -60.55 | X-H torsion
[ 11005 11000 10999 10996 ] final  -23.71 input  -57.11 | X-H torsion

> <Gold.Protein.ActiveResidues>
 VAL166  LYS551  ARG553  GLY616  TRP617  ASP618  TYR619  PRO620  LYS621  CYS622 
 ASP623  PHE694  ASN695  SER759  ASP760  ASP761  ALA762  ILE779  LEU786  VAL792 
 PHE793  MET794  SER795  GLU796  ALA797  LYS798  CYS799  TRP800  GLU811  SER814 

> <Gold.Protein.RotatedAtoms>
  151.3188  135.0813  159.9298 H   0  0  0  0  0  0  0  0  0  0  0  0  # atno 6907 bound_to 6896
  152.5261  133.9660  159.7750 H   0  0  0  0  0  0  0  0  0  0  0  0  # atno 6908 bound_to 6896
  150.9977  133.6035  159.2729 H   0  0  0  0  0  0  0  0  0  0  0  0  # atno 6909 bound_to 6896
  146.2204  140.2836  142.8364 H   0  0  0  0  0  0  0  0  0  0  0  0  # atno 7974 bound_to 7965
  154.9587  140.3075  155.5041 H   0  0  0  0  0  0  0  0  0  0  0  0  # atno 8008 bound_to 7997
  156.2979  140.2305  156.4609 H   0  0  0  0  0  0  0  0  0  0  0  0  # atno 8009 bound_to 7997
  154.7986  140.0435  157.1244 H   0  0  0  0  0  0  0  0  0  0  0  0  # atno 8010 bound_to 7997
  139.8154  144.6755  150.9587 H   0  0  0  0  0  0  0  0  0  0  0  0  # atno 10167 bound_to 10162
  157.5887  130.9040  149.9564 H   0  0  0  0  0  0  0  0  0  0  0  0  # atno 10718 bound_to 10713
  152.9927  135.6182  154.2675 H   0  0  0  0  0  0  0  0  0  0  0  0  # atno 10763 bound_to 10752
  154.2409  135.2788  155.2856 H   0  0  0  0  0  0  0  0  0  0  0  0  # atno 10764 bound_to 10752
  154.5370  135.5772  153.6865 H   0  0  0  0  0  0  0  0  0  0  0  0  # atno 10765 bound_to 10752
  140.8777  133.7676  156.0263 H   0  0  0  0  0  0  0  0  0  0  0  0  # atno 11005 bound_to 11000
  144.9178  140.7833  143.5767 LP  0  0  0  0  0  0  0  0  0  0  0  0  # atno 17320 bound_to 7965
  145.2771  139.1932  143.4810 LP  0  0  0  0  0  0  0  0  0  0  0  0  # atno 17321 bound_to 7965
  140.7816  143.4144  151.0941 LP  0  0  0  0  0  0  0  0  0  0  0  0  # atno 17342 bound_to 10162
  139.7808  143.8359  152.3137 LP  0  0  0  0  0  0  0  0  0  0  0  0  # atno 17343 bound_to 10162
  156.0939  130.3661  150.0343 LP  0  0  0  0  0  0  0  0  0  0  0  0  # atno 17370 bound_to 10713
  156.8470  130.9445  151.3628 LP  0  0  0  0  0  0  0  0  0  0  0  0  # atno 17371 bound_to 10713
  140.8498  134.2967  157.5280 LP  0  0  0  0  0  0  0  0  0  0  0  0  # atno 17394 bound_to 11000
  139.8717  134.9462  156.3931 LP  0  0  0  0  0  0  0  0  0  0  0  0  # atno 17395 bound_to 11000

$$$$
