AV-unprocessed.smi:2114|AV-procd|sdf|8619|dock6
  -GOLD-   2272011363D 1   1.00000     0.00000
 Structure written by MMmdl.
 47 48  0  0  0  0  0  0  0  0  1 V2000
  142.7842  142.1265  155.6989 C   0  0  0  0  0  0  0  0  0  0  0  0
  142.1295  140.9195  156.0463 O   0  0  0  0  0  0  0  0  0  0  0  0
  140.7463  140.9385  155.7317 C   0  0  0  0  0  0  0  0  0  0  0  0
  140.5546  140.7583  154.2157 C   0  0  2  0  0  0  0  0  0  0  0  0
  139.0675  140.7254  153.8371 C   0  0  0  0  0  0  0  0  0  0  0  0
  141.1853  139.5191  153.7674 N   0  0  0  0  0  0  0  0  0  0  0  0
  140.8042  138.2767  154.1087 C   0  0  0  0  0  0  0  0  0  0  0  0
  139.8778  138.0343  154.8821 O   0  0  0  0  0  0  0  0  0  0  0  0
  141.6319  137.1661  153.5297 C   0  0  0  0  0  0  0  0  0  0  0  0
  141.1712  135.8318  153.5042 C   0  0  0  0  0  0  0  0  0  0  0  0
  142.0024  134.8297  152.9683 C   0  0  0  0  0  0  0  0  0  0  0  0
  143.2805  135.1827  152.4756 C   0  0  0  0  0  0  0  0  0  0  0  0
  144.1267  134.1932  151.9315 N   0  0  0  0  0  0  0  0  0  0  0  0
  144.6119  134.4546  150.5795 C   0  0  0  0  0  0  0  0  0  0  0  0
  145.2372  133.1884  149.9620 C   0  0  2  0  0  0  0  0  0  0  0  0
  144.1950  132.1492  149.5114 C   0  0  0  0  0  0  0  0  0  0  0  0
  146.2071  132.6311  150.8523 O   0  0  0  0  0  0  0  0  0  0  0  0
  145.7159  132.3261  152.1571 C   0  0  1  0  0  0  0  0  0  0  0  0
  146.8735  131.7464  152.9766 C   0  0  0  0  0  0  0  0  0  0  0  0
  145.1380  133.5988  152.8009 C   0  0  0  0  0  0  0  0  0  0  0  0
  143.7283  136.4613  152.5176 N   0  0  0  0  0  0  0  0  0  0  0  0
  142.9280  137.4189  153.0321 C   0  0  0  0  0  0  0  0  0  0  0  0
  143.8397  142.0585  155.9618 H   0  0  0  0  0  0  0  0  0  0  0  0
  142.3577  142.9748  156.2359 H   0  0  0  0  0  0  0  0  0  0  0  0
  142.7150  142.3187  154.6276 H   0  0  0  0  0  0  0  0  0  0  0  0
  140.2202  140.1534  156.2777 H   0  0  0  0  0  0  0  0  0  0  0  0
  140.3224  141.8932  156.0470 H   0  0  0  0  0  0  0  0  0  0  0  0
  141.0030  141.6110  153.7025 H   0  0  0  0  0  0  0  0  0  0  0  0
  138.5670  141.6477  154.1331 H   0  0  0  0  0  0  0  0  0  0  0  0
  138.5511  139.8965  154.3226 H   0  0  0  0  0  0  0  0  0  0  0  0
  138.9389  140.6139  152.7600 H   0  0  0  0  0  0  0  0  0  0  0  0
  141.9735  139.6136  153.1440 H   0  0  0  0  0  0  0  0  0  0  0  0
  140.1988  135.5666  153.8929 H   0  0  0  0  0  0  0  0  0  0  0  0
  141.6602  133.8057  152.9566 H   0  0  0  0  0  0  0  0  0  0  0  0
  143.8236  134.8250  149.9253 H   0  0  0  0  0  0  0  0  0  0  0  0
  145.3642  135.2425  150.6359 H   0  0  0  0  0  0  0  0  0  0  0  0
  145.7848  133.4918  149.0694 H   0  0  0  0  0  0  0  0  0  0  0  0
  143.5514  132.5615  148.7341 H   0  0  0  0  0  0  0  0  0  0  0  0
  143.5487  131.8293  150.3285 H   0  0  0  0  0  0  0  0  0  0  0  0
  144.6809  131.2636  149.1014 H   0  0  0  0  0  0  0  0  0  0  0  0
  144.9380  131.5653  152.0885 H   0  0  0  0  0  0  0  0  0  0  0  0
  146.5492  131.4839  153.9838 H   0  0  0  0  0  0  0  0  0  0  0  0
  147.6919  132.4617  153.0640 H   0  0  0  0  0  0  0  0  0  0  0  0
  147.2683  130.8440  152.5090 H   0  0  0  0  0  0  0  0  0  0  0  0
  145.9310  134.3267  152.9781 H   0  0  0  0  0  0  0  0  0  0  0  0
  144.7029  133.3472  153.7691 H   0  0  0  0  0  0  0  0  0  0  0  0
  143.3400  138.4175  153.0388 H   0  0  0  0  0  0  0  0  0  0  0  0
  1  2  1  0  0  0  0
  1 23  1  0  0  0  0
  1 24  1  0  0  0  0
  1 25  1  0  0  0  0
  2  3  1  0  0  0  0
  3  4  1  0  0  0  0
  3 26  1  0  0  0  0
  3 27  1  0  0  0  0
  4  5  1  0  0  0  0
  4  6  1  0  0  0  0
  4 28  1  0  0  0  0
  5 29  1  0  0  0  0
  5 30  1  0  0  0  0
  5 31  1  0  0  0  0
  6  7  1  0  0  0  0
  6 32  1  0  0  0  0
  7  8  2  0  0  0  0
  7  9  1  0  0  0  0
  9 22  1  0  0  0  0
  9 10  2  0  0  0  0
 10 11  1  0  0  0  0
 10 33  1  0  0  0  0
 11 12  2  0  0  0  0
 11 34  1  0  0  0  0
 12 13  1  0  0  0  0
 12 21  1  0  0  0  0
 13 20  1  0  0  0  0
 13 14  1  0  0  0  0
 14 15  1  0  0  0  0
 14 35  1  0  0  0  0
 14 36  1  0  0  0  0
 15 16  1  0  0  0  0
 15 17  1  0  0  0  0
 15 37  1  0  0  0  0
 16 38  1  0  0  0  0
 16 39  1  0  0  0  0
 16 40  1  0  0  0  0
 17 18  1  0  0  0  0
 18 19  1  0  0  0  0
 18 20  1  0  0  0  0
 18 41  1  0  0  0  0
 19 42  1  0  0  0  0
 19 43  1  0  0  0  0
 19 44  1  0  0  0  0
 20 45  1  0  0  0  0
 20 46  1  0  0  0  0
 21 22  2  0  0  0  0
 22 47  1  0  0  0  0
M  END
> <s_m_source_file>
AV-unprocessed.smi

> <i_m_source_file_index>
2114

> <i_lp_mmshare_version>
43012

> <i_f3d_flags>
0

> <s_epik_input>
W0NIM11PW0NIMl1bQ0BIXShbQ0gzXSlbTkhdQyg9TyljMVtjSF1bY0hdYyhuW2NIXTEpTjJbQ0gyXVtDQEBIXShbQ0gzXSlPW0NAQEhdKFtDSDNdKVtDSDJdMg==

> <s_epik_cmdline>
J2VwaWtfcHl0aG9uJywgJy1waCcsICc3LjAnLCAnLXRuJywgJzgnLCAnLW1hJywgJzIwMCcsICctbWV0YWxfYmluZGluZycsICctaW1hZScsICc8aW5maWxlLm1hZT4nLCAnLW9tYWUnLCAnPG91dGZpbGUubWFlPic=

> <r_lp_tautomer_probability>
1

> <r_epik_Ionization_Penalty>
1.92915e-05

> <r_epik_Ionization_Penalty_Charging>
0

> <r_epik_Ionization_Penalty_Neutral>
1.92915e-05

> <r_epik_State_Penalty>
-0

> <r_epik_Charging_Adjusted_Penalty>
0

> <i_epik_Tot_Q>
0

> <i_epik_Tot_abs_Q>
0

> <r_epik_Metal_State_Penalty>
-0

> <b_epik_Metal_Only>
0

> <s_lp_Force_Field>
OPLS_2005

> <r_lp_Energy>
21.9464

> <b_lp_Chiralities_Consistent>
1

> <s_lp_Variant>
AV-unprocessed.smi:2114-3

> <Gold.Version>
5.8.1

> <Gold.Id.Protein>
6NUR|6NUR_protein|mol2

> <Gold.PLP.Fitness>
37.4507

> <Gold.PLP.PLP>
-32.3194

> <Gold.PLP.part.hbond>
-1.9486

> <Gold.PLP.part.metal>
0.0000

> <Gold.PLP.part.buried>
-3.1751

> <Gold.PLP.part.nonpolar>
-26.6695

> <Gold.PLP.part.repulsive>
0.5816

> <Gold.PLP.ligand.clash>
0.0000

> <Gold.PLP.ligand.torsion>
0.6098

> <Gold.PLP.Chemscore.Hbond>
1.0000

> <Gold.PLP.Chemscore.CHOScore>
1.0000

> <Gold.PLP.Chemscore.Metal>
0.0000

> <Gold.Chemscore.Hbonds>
donor molecule, donor type, donor heavy atom, donor atom, acceptor molecule, acceptor atom, score
      L1  H     6    32       P1 10175  1.00
      L1  C    22    47       P1 10175  1.00

> <Gold.PLP.Chemscore.Internal.Correction>
0.3508

> <Gold.Rescore>
     Score         DG    S(hbond)    S(metal)    S(lipo)     H(rot)  DE(clash)    DE(int)     intcor
     11.40     -13.07       0.92        0.00      71.84       1.52       0.31       1.35       ----

> <Gold.Chemscore.Fitness>
11.4003

> <Gold.Chemscore.DG>
-13.0668

> <Gold.Chemscore.ZeroCoef>
-5.4800

> <Gold.Chemscore.Hbond>
0.9220

> <Gold.Chemscore.Metal>
0.0000

> <Gold.Chemscore.Lipo>
71.8411

> <Gold.Chemscore.Internal_Hbond>
0.0000

> <Gold.Chemscore.DEClash>
0.3119

> <Gold.Chemscore.DEInternal>
1.3546

> <Gold.Chemscore.Rot>
1.5226

> <Gold.Chemscore.Internal.Correction>
   9.000000E+99

> <Gold.Chemscore.Hbonds>
donor molecule, donor type, donor heavy atom, donor atom, acceptor molecule, acceptor atom, score
      L1  H     6    32       P1 10175  0.76

> <Gold.Chemscore.Hbond.Weighted>
-3.0794

> <Gold.Chemscore.Metal.Weighted>
-0.0000

> <Gold.Chemscore.Lipo.Weighted>
-8.4054

> <Gold.Chemscore.Internal_Hbond.Weighted>
0.0000

> <Gold.Chemscore.DEClash.Weighted>
0.3119

> <Gold.Chemscore.DEInternal.Weighted>
1.3546

> <Gold.Chemscore.Rot.Weighted>
3.8980

> <Gold.Chemscore.Internal.Correction.Weighted>
   9.000000E+99

> <Gold.Protein.RotatedTorsions>
[ 6907 6896 6895 6894 ] final  112.04 input  -60.11 | X-H torsion
[ 7974 7965 7964 7962 ] final   20.46 input  175.53 | X-H torsion
[ 8008 7997 7996 7995 ] final  -70.20 input   59.86 | X-H torsion
[ 10167 10162 10161 10158 ] final  -15.56 input  -65.29 | X-H torsion
[ 10718 10713 10712 10709 ] final   51.00 input   66.30 | X-H torsion
[ 10763 10752 10751 10750 ] final  114.08 input  -60.55 | X-H torsion
[ 11005 11000 10999 10996 ] final -122.40 input  -57.11 | X-H torsion

> <Gold.Protein.ActiveResidues>
 VAL166  LYS551  ARG553  GLY616  TRP617  ASP618  TYR619  PRO620  LYS621  CYS622 
 ASP623  PHE694  ASN695  SER759  ASP760  ASP761  ALA762  ILE779  LEU786  VAL792 
 PHE793  MET794  SER795  GLU796  ALA797  LYS798  CYS799  TRP800  GLU811  SER814 

> <Gold.Protein.RotatedAtoms>
  152.4937  133.8572  159.7231 H   0  0  0  0  0  0  0  0  0  0  0  0  # atno 6907 bound_to 6896
  150.9093  133.7009  159.2865 H   0  0  0  0  0  0  0  0  0  0  0  0  # atno 6908 bound_to 6896
  151.4424  135.1026  159.9726 H   0  0  0  0  0  0  0  0  0  0  0  0  # atno 6909 bound_to 6896
  146.2110  139.8167  142.8688 H   0  0  0  0  0  0  0  0  0  0  0  0  # atno 7974 bound_to 7965
  154.4995  140.0839  156.7767 H   0  0  0  0  0  0  0  0  0  0  0  0  # atno 8008 bound_to 7997
  155.4037  140.3438  155.4240 H   0  0  0  0  0  0  0  0  0  0  0  0  # atno 8009 bound_to 7997
  156.1437  140.1537  156.8868 H   0  0  0  0  0  0  0  0  0  0  0  0  # atno 8010 bound_to 7997
  140.7220  143.5206  150.9638 H   0  0  0  0  0  0  0  0  0  0  0  0  # atno 10167 bound_to 10162
  157.4938  130.8393  149.8234 H   0  0  0  0  0  0  0  0  0  0  0  0  # atno 10718 bound_to 10713
  153.5020  135.3636  155.2544 H   0  0  0  0  0  0  0  0  0  0  0  0  # atno 10763 bound_to 10752
  154.8747  135.4002  154.3468 H   0  0  0  0  0  0  0  0  0  0  0  0  # atno 10764 bound_to 10752
  153.4105  135.7077  153.6428 H   0  0  0  0  0  0  0  0  0  0  0  0  # atno 10765 bound_to 10752
  140.9998  134.0419  157.3552 H   0  0  0  0  0  0  0  0  0  0  0  0  # atno 11005 bound_to 11000
  145.3139  141.0227  143.3539 LP  0  0  0  0  0  0  0  0  0  0  0  0  # atno 17320 bound_to 7965
  144.8915  139.4768  143.6675 LP  0  0  0  0  0  0  0  0  0  0  0  0  # atno 17321 bound_to 7965
  139.8923  143.6938  152.3143 LP  0  0  0  0  0  0  0  0  0  0  0  0  # atno 17342 bound_to 10162
  139.7258  144.7593  151.0881 LP  0  0  0  0  0  0  0  0  0  0  0  0  # atno 17343 bound_to 10162
  156.0189  130.3803  150.2024 LP  0  0  0  0  0  0  0  0  0  0  0  0  # atno 17370 bound_to 10713
  157.0213  130.9980  151.3339 LP  0  0  0  0  0  0  0  0  0  0  0  0  # atno 17371 bound_to 10713
  139.9033  135.0172  156.7370 LP  0  0  0  0  0  0  0  0  0  0  0  0  # atno 17394 bound_to 11000
  140.6907  133.9392  155.7965 LP  0  0  0  0  0  0  0  0  0  0  0  0  # atno 17395 bound_to 11000

$$$$
