AV-unprocessed.smi:2734|AV-procd|sdf|10539|dock6
  -GOLD-   2272014583D 1   1.00000     0.00000
 Structure written by MMmdl.
 41 43  0  0  0  0  0  0  0  0  2 V2000
  153.2694  142.5289  161.5265 C   0  0  0  0  0  0  0  0  0  0  0  0
  152.6340  142.2274  160.1799 C   0  0  0  0  0  0  0  0  0  0  0  0
  152.9097  140.9836  159.5681 C   0  0  0  0  0  0  0  0  0  0  0  0
  152.3111  140.7350  158.3387 C   0  0  0  0  0  0  0  0  0  0  0  0
  152.3785  139.6239  157.4949 N   0  3  0  0  0  0  0  0  0  0  0  0
  151.6107  139.8439  156.3917 C   0  0  0  0  0  0  0  0  0  0  0  0
  151.0549  141.0791  156.5196 N   0  0  0  0  0  0  0  0  0  0  0  0
  150.1416  141.8009  155.6241 C   0  0  0  0  0  0  0  0  0  0  0  0
  149.2606  140.8565  154.7833 C   0  0  2  0  0  0  0  0  0  0  0  0
  150.0566  140.2199  153.8017 O   0  0  0  0  0  0  0  0  0  0  0  0
  148.1085  141.6057  154.0956 C   0  0  0  0  0  0  0  0  0  0  0  0
  146.7495  141.9716  155.2485 S   0  0  0  0  0  0  0  0  0  0  0  0
  145.8756  143.1866  154.3104 C   0  0  0  0  0  0  0  0  0  0  0  0
  146.1915  143.6325  153.0998 N   0  0  0  0  0  0  0  0  0  0  0  0
  145.2068  144.5599  152.8169 N   0  0  0  0  0  0  0  0  0  0  0  0
  144.3582  144.6607  153.7982 N   0  0  0  0  0  0  0  0  0  0  0  0
  144.7687  143.7942  154.7559 N   0  0  0  0  0  0  0  0  0  0  0  0
  144.0384  143.6512  155.9996 C   0  0  0  0  0  0  0  0  0  0  0  0
  151.4645  141.6731  157.7173 C   0  0  0  0  0  0  0  0  0  0  0  0
  151.1834  142.9040  158.3045 C   0  0  0  0  0  0  0  0  0  0  0  0
  151.7834  143.1764  159.5549 C   0  0  0  0  0  0  0  0  0  0  0  0
  151.4949  144.5111  160.2209 C   0  0  0  0  0  0  0  0  0  0  0  0
  153.8437  141.6788  161.8963 H   0  0  0  0  0  0  0  0  0  0  0  0
  152.5055  142.7614  162.2689 H   0  0  0  0  0  0  0  0  0  0  0  0
  153.9464  143.3796  161.4470 H   0  0  0  0  0  0  0  0  0  0  0  0
  153.5568  140.2571  160.0374 H   0  0  0  0  0  0  0  0  0  0  0  0
  151.4634  139.1603  155.5679 H   0  0  0  0  0  0  0  0  0  0  0  0
  149.5313  142.4764  156.2249 H   0  0  0  0  0  0  0  0  0  0  0  0
  150.7508  142.4301  154.9734 H   0  0  0  0  0  0  0  0  0  0  0  0
  148.8440  140.0838  155.4304 H   0  0  0  0  0  0  0  0  0  0  0  0
  149.6490  140.3469  152.9582 H   0  0  0  0  0  0  0  0  0  0  0  0
  148.4768  142.5493  153.6915 H   0  0  0  0  0  0  0  0  0  0  0  0
  147.7262  141.0232  153.2561 H   0  0  0  0  0  0  0  0  0  0  0  0
  144.7031  143.8527  156.8399 H   0  0  0  0  0  0  0  0  0  0  0  0
  143.6552  142.6340  156.0836 H   0  0  0  0  0  0  0  0  0  0  0  0
  143.2013  144.3498  156.0355 H   0  0  0  0  0  0  0  0  0  0  0  0
  150.5332  143.6234  157.8292 H   0  0  0  0  0  0  0  0  0  0  0  0
  150.8955  145.1562  159.5778 H   0  0  0  0  0  0  0  0  0  0  0  0
  152.4220  145.0384  160.4466 H   0  0  0  0  0  0  0  0  0  0  0  0
  150.9451  144.3618  161.1506 H   0  0  0  0  0  0  0  0  0  0  0  0
  152.9056  138.7756  157.6582 H   0  0  0  0  0  0  0  0  0  0  0  0
  1  2  1  0  0  0  0
  1 23  1  0  0  0  0
  1 24  1  0  0  0  0
  1 25  1  0  0  0  0
  2 21  1  0  0  0  0
  2  3  2  0  0  0  0
  3  4  1  0  0  0  0
  3 26  1  0  0  0  0
  4 19  2  0  0  0  0
  4  5  1  0  0  0  0
  5  6  2  0  0  0  0
  5 41  1  0  0  0  0
  6  7  1  0  0  0  0
  6 27  1  0  0  0  0
  7  8  1  0  0  0  0
  7 19  1  0  0  0  0
  8  9  1  0  0  0  0
  8 28  1  0  0  0  0
  8 29  1  0  0  0  0
  9 10  1  0  0  0  0
  9 11  1  0  0  0  0
  9 30  1  0  0  0  0
 10 31  1  0  0  0  0
 11 12  1  0  0  0  0
 11 32  1  0  0  0  0
 11 33  1  0  0  0  0
 12 13  1  0  0  0  0
 13 17  1  0  0  0  0
 13 14  2  0  0  0  0
 14 15  1  0  0  0  0
 15 16  2  0  0  0  0
 16 17  1  0  0  0  0
 17 18  1  0  0  0  0
 18 34  1  0  0  0  0
 18 35  1  0  0  0  0
 18 36  1  0  0  0  0
 19 20  1  0  0  0  0
 20 21  2  0  0  0  0
 20 37  1  0  0  0  0
 21 22  1  0  0  0  0
 22 38  1  0  0  0  0
 22 39  1  0  0  0  0
 22 40  1  0  0  0  0
M  CHG  1   5   1
M  END
> <s_m_source_file>
AV-unprocessed.smi

> <i_m_source_file_index>
2734

> <i_lp_mmshare_version>
43012

> <i_f3d_flags>
0

> <s_epik_input>
W0NIM11jKFtjSF0xKWMoW0NIM10pW2NIXWMoYzEyKW4oW2NIXW4yKVtDSDJdW0NASF0oW09IXSlbQ0gyXVNjM25ubm4zW0NIM10=

> <s_epik_cmdline>
J2VwaWtfcHl0aG9uJywgJy1waCcsICc3LjAnLCAnLXRuJywgJzgnLCAnLW1hJywgJzIwMCcsICctbWV0YWxfYmluZGluZycsICctaW1hZScsICc8aW5maWxlLm1hZT4nLCAnLW9tYWUnLCAnPG91dGZpbGUubWFlPic=

> <r_lp_tautomer_probability>
1

> <r_epik_Ionization_Penalty>
1.07429

> <r_epik_Ionization_Penalty_Charging>
1.07429

> <r_epik_Ionization_Penalty_Neutral>
3.30514e-06

> <r_epik_State_Penalty>
1.12915

> <r_epik_Charging_Adjusted_Penalty>
2.20344

> <i_epik_Tot_Q>
1

> <i_epik_Tot_abs_Q>
1

> <r_epik_Metal_State_Penalty>
1.22002

> <b_epik_Metal_Only>
0

> <s_lp_Force_Field>
OPLS_2005

> <r_lp_Energy>
14.6731

> <b_lp_Chiralities_Consistent>
1

> <s_lp_Variant>
AV-unprocessed.smi:2734-3

> <Gold.Version>
5.8.1

> <Gold.Id.Protein>
6NUR|6NUR_protein|mol2

> <Gold.PLP.Fitness>
50.9022

> <Gold.PLP.PLP>
-46.9463

> <Gold.PLP.part.hbond>
-3.1780

> <Gold.PLP.part.metal>
0.0000

> <Gold.PLP.part.buried>
-4.6422

> <Gold.PLP.part.nonpolar>
-38.8842

> <Gold.PLP.part.repulsive>
0.6358

> <Gold.PLP.ligand.clash>
0.0000

> <Gold.PLP.ligand.torsion>
0.6701

> <Gold.PLP.Chemscore.Hbond>
1.7600

> <Gold.PLP.Chemscore.CHOScore>
0.0000

> <Gold.PLP.Chemscore.Metal>
0.0000

> <Gold.Chemscore.Hbonds>
donor molecule, donor type, donor heavy atom, donor atom, acceptor molecule, acceptor atom, score
      L1  H    10    31       P1  7957  0.99
      P1  H  7989  7998       L1    10  0.73

> <Gold.PLP.Chemscore.Internal.Correction>
0.0161

> <Gold.Rescore>
     Score         DG    S(hbond)    S(metal)    S(lipo)     H(rot)  DE(clash)    DE(int)     intcor
     13.69     -14.36       1.24        0.00     104.24       2.92       0.02       0.65       ----

> <Gold.Chemscore.Fitness>
13.6939

> <Gold.Chemscore.DG>
-14.3645

> <Gold.Chemscore.ZeroCoef>
-5.4800

> <Gold.Chemscore.Hbond>
1.2438

> <Gold.Chemscore.Metal>
0.0000

> <Gold.Chemscore.Lipo>
104.2400

> <Gold.Chemscore.Internal_Hbond>
0.0000

> <Gold.Chemscore.DEClash>
0.0230

> <Gold.Chemscore.DEInternal>
0.6476

> <Gold.Chemscore.Rot>
2.9164

> <Gold.Chemscore.Internal.Correction>
   9.000000E+99

> <Gold.Chemscore.Hbonds>
donor molecule, donor type, donor heavy atom, donor atom, acceptor molecule, acceptor atom, score
      L1  H    10    31       P1  7957  0.94
      P1  H  7989  7998       L1    10  0.16

> <Gold.Chemscore.Hbond.Weighted>
-4.1544

> <Gold.Chemscore.Metal.Weighted>
-0.0000

> <Gold.Chemscore.Lipo.Weighted>
-12.1961

> <Gold.Chemscore.Internal_Hbond.Weighted>
0.0000

> <Gold.Chemscore.DEClash.Weighted>
0.0230

> <Gold.Chemscore.DEInternal.Weighted>
0.6476

> <Gold.Chemscore.Rot.Weighted>
7.4660

> <Gold.Chemscore.Internal.Correction.Weighted>
   9.000000E+99

> <Gold.Protein.RotatedTorsions>
[ 6907 6896 6895 6894 ] final   47.31 input  -60.11 | X-H torsion
[ 7974 7965 7964 7962 ] final -124.12 input  175.53 | X-H torsion
[ 8008 7997 7996 7995 ] final  -79.33 input   59.86 | X-H torsion
[ 10167 10162 10161 10158 ] final  165.61 input  -65.29 | X-H torsion
[ 10718 10713 10712 10709 ] final   22.67 input   66.30 | X-H torsion
[ 10763 10752 10751 10750 ] final  -54.39 input  -60.55 | X-H torsion
[ 11005 11000 10999 10996 ] final  106.22 input  -57.11 | X-H torsion

> <Gold.Protein.ActiveResidues>
 VAL166  LYS551  ARG553  GLY616  TRP617  ASP618  TYR619  PRO620  LYS621  CYS622 
 ASP623  PHE694  ASN695  SER759  ASP760  ASP761  ALA762  ILE779  LEU786  VAL792 
 PHE793  MET794  SER795  GLU796  ALA797  LYS798  CYS799  TRP800  GLU811  SER814 

> <Gold.Protein.RotatedAtoms>
  152.2666  134.7978  160.0421 H   0  0  0  0  0  0  0  0  0  0  0  0  # atno 6907 bound_to 6896
  151.8605  133.3451  159.3710 H   0  0  0  0  0  0  0  0  0  0  0  0  # atno 6908 bound_to 6896
  150.7136  134.5138  159.5664 H   0  0  0  0  0  0  0  0  0  0  0  0  # atno 6909 bound_to 6896
  145.0115  140.7909  143.4436 H   0  0  0  0  0  0  0  0  0  0  0  0  # atno 7974 bound_to 7965
  154.5774  140.0680  156.9055 H   0  0  0  0  0  0  0  0  0  0  0  0  # atno 8008 bound_to 7997
  155.2523  140.3352  155.4263 H   0  0  0  0  0  0  0  0  0  0  0  0  # atno 8009 bound_to 7997
  156.2164  140.1780  156.7563 H   0  0  0  0  0  0  0  0  0  0  0  0  # atno 8010 bound_to 7997
  139.4909  144.4114  151.9295 H   0  0  0  0  0  0  0  0  0  0  0  0  # atno 10167 bound_to 10162
  157.1555  130.6693  149.6026 H   0  0  0  0  0  0  0  0  0  0  0  0  # atno 10718 bound_to 10713
  154.1740  135.6454  153.5017 H   0  0  0  0  0  0  0  0  0  0  0  0  # atno 10763 bound_to 10752
  153.0077  135.5390  154.6583 H   0  0  0  0  0  0  0  0  0  0  0  0  # atno 10764 bound_to 10752
  154.5930  135.2936  155.0588 H   0  0  0  0  0  0  0  0  0  0  0  0  # atno 10765 bound_to 10752
  139.8811  134.9362  156.5634 H   0  0  0  0  0  0  0  0  0  0  0  0  # atno 11005 bound_to 11000
  145.2017  139.2249  143.5189 LP  0  0  0  0  0  0  0  0  0  0  0  0  # atno 17320 bound_to 7965
  146.3470  140.1836  142.8589 LP  0  0  0  0  0  0  0  0  0  0  0  0  # atno 17321 bound_to 7965
  140.3555  144.3037  150.5942 LP  0  0  0  0  0  0  0  0  0  0  0  0  # atno 17342 bound_to 10162
  140.5448  143.2217  151.8025 LP  0  0  0  0  0  0  0  0  0  0  0  0  # atno 17343 bound_to 10162
  155.9763  130.4730  150.6518 LP  0  0  0  0  0  0  0  0  0  0  0  0  # atno 17370 bound_to 10713
  157.4181  131.0833  151.1157 LP  0  0  0  0  0  0  0  0  0  0  0  0  # atno 17371 bound_to 10713
  140.8152  133.8397  155.8846 LP  0  0  0  0  0  0  0  0  0  0  0  0  # atno 17394 bound_to 11000
  140.9469  134.1829  157.4757 LP  0  0  0  0  0  0  0  0  0  0  0  0  # atno 17395 bound_to 11000

$$$$
