AV-unprocessed.smi:2840|AV-procd|sdf|10934|dock7
  -GOLD-   2272015383D 1   1.00000     0.00000
 Structure written by MMmdl.
 36 37  0  0  0  0  0  0  0  0  1 V2000
  151.3011  144.6574  159.2728 C   0  0  0  0  0  0  0  0  0  0  0  0
  152.1784  143.4090  159.0713 C   0  0  1  0  0  0  0  0  0  0  0  0
  153.1043  143.2020  160.2874 C   0  0  0  0  0  0  0  0  0  0  0  0
  154.0046  141.9690  160.1204 C   0  0  0  0  0  0  0  0  0  0  0  0
  153.1678  140.7079  159.8688 C   0  0  0  0  0  0  0  0  0  0  0  0
  152.2536  140.8908  158.6490 C   0  0  0  0  0  0  0  0  0  0  0  0
  151.3470  142.1293  158.7936 C   0  0  2  0  0  0  0  0  0  0  0  0
  150.5564  142.2750  157.5719 N   0  0  0  0  0  0  0  0  0  0  0  0
  149.9765  141.2797  156.8840 C   0  0  0  0  0  0  0  0  0  0  0  0
  150.0350  140.0954  157.2158 O   0  0  0  0  0  0  0  0  0  0  0  0
  149.3341  141.7528  155.8018 N   0  0  0  0  0  0  0  0  0  0  0  0
  148.5871  141.0276  154.8357 C   0  0  0  0  0  0  0  0  0  0  0  0
  147.6765  141.8008  154.0805 C   0  0  0  0  0  0  0  0  0  0  0  0
  146.8845  141.1752  153.0985 C   0  0  0  0  0  0  0  0  0  0  0  0
  147.0237  139.7905  152.8959 C   0  0  0  0  0  0  0  0  0  0  0  0
  147.9529  139.0944  153.6908 C   0  0  0  0  0  0  0  0  0  0  0  0
  148.7127  139.6921  154.6329 N   0  0  0  0  0  0  0  0  0  0  0  0
  150.6061  144.5208  160.1020 H   0  0  0  0  0  0  0  0  0  0  0  0
  150.7160  144.8883  158.3829 H   0  0  0  0  0  0  0  0  0  0  0  0
  151.9112  145.5341  159.4920 H   0  0  0  0  0  0  0  0  0  0  0  0
  152.8137  143.5938  158.2035 H   0  0  0  0  0  0  0  0  0  0  0  0
  153.7256  144.0857  160.4374 H   0  0  0  0  0  0  0  0  0  0  0  0
  152.5043  143.0916  161.1918 H   0  0  0  0  0  0  0  0  0  0  0  0
  154.6918  142.1264  159.2882 H   0  0  0  0  0  0  0  0  0  0  0  0
  154.6206  141.8348  161.0100 H   0  0  0  0  0  0  0  0  0  0  0  0
  153.8236  139.8502  159.7170 H   0  0  0  0  0  0  0  0  0  0  0  0
  152.5644  140.4854  160.7497 H   0  0  0  0  0  0  0  0  0  0  0  0
  152.8671  140.9831  157.7515 H   0  0  0  0  0  0  0  0  0  0  0  0
  151.6438  139.9965  158.5137 H   0  0  0  0  0  0  0  0  0  0  0  0
  150.6887  141.9573  159.6475 H   0  0  0  0  0  0  0  0  0  0  0  0
  150.4468  143.2146  157.2199 H   0  0  0  0  0  0  0  0  0  0  0  0
  149.3819  142.7498  155.6533 H   0  0  0  0  0  0  0  0  0  0  0  0
  147.5825  142.8640  154.2490 H   0  0  0  0  0  0  0  0  0  0  0  0
  146.1822  141.7487  152.5119 H   0  0  0  0  0  0  0  0  0  0  0  0
  146.4338  139.2755  152.1522 H   0  0  0  0  0  0  0  0  0  0  0  0
  148.0894  138.0301  153.5682 H   0  0  0  0  0  0  0  0  0  0  0  0
  1  2  1  0  0  0  0
  1 18  1  0  0  0  0
  1 19  1  0  0  0  0
  1 20  1  0  0  0  0
  2  7  1  0  0  0  0
  2  3  1  0  0  0  0
  2 21  1  0  0  0  0
  3  4  1  0  0  0  0
  3 22  1  0  0  0  0
  3 23  1  0  0  0  0
  4  5  1  0  0  0  0
  4 24  1  0  0  0  0
  4 25  1  0  0  0  0
  5  6  1  0  0  0  0
  5 26  1  0  0  0  0
  5 27  1  0  0  0  0
  6  7  1  0  0  0  0
  6 28  1  0  0  0  0
  6 29  1  0  0  0  0
  7  8  1  0  0  0  0
  7 30  1  0  0  0  0
  8  9  1  0  0  0  0
  8 31  1  0  0  0  0
  9 10  2  0  0  0  0
  9 11  1  0  0  0  0
 11 12  1  0  0  0  0
 11 32  1  0  0  0  0
 12 17  1  0  0  0  0
 12 13  2  0  0  0  0
 13 14  1  0  0  0  0
 13 33  1  0  0  0  0
 14 15  2  0  0  0  0
 14 34  1  0  0  0  0
 15 16  1  0  0  0  0
 15 35  1  0  0  0  0
 16 17  2  0  0  0  0
 16 36  1  0  0  0  0
M  END
> <s_m_source_file>
AV-unprocessed.smi

> <i_m_source_file_index>
2840

> <i_lp_mmshare_version>
43012

> <i_f3d_flags>
0

> <s_epik_input>
W0NIM11bQ0BASF0xW0NIMl1bQ0gyXVtDSDJdW0NIMl1bQ0BIXTFbTkhdQyg9TylbTkhdYzJbY0hdW2NIXVtjSF1bY0hdbjI=

> <s_epik_cmdline>
J2VwaWtfcHl0aG9uJywgJy1waCcsICc3LjAnLCAnLXRuJywgJzgnLCAnLW1hJywgJzIwMCcsICctbWV0YWxfYmluZGluZycsICctaW1hZScsICc8aW5maWxlLm1hZT4nLCAnLW9tYWUnLCAnPG91dGZpbGUubWFlPic=

> <r_lp_tautomer_probability>
1

> <r_epik_Ionization_Penalty>
5.29956e-05

> <r_epik_Ionization_Penalty_Charging>
0

> <r_epik_Ionization_Penalty_Neutral>
5.29956e-05

> <r_epik_State_Penalty>
-0

> <r_epik_Charging_Adjusted_Penalty>
0

> <i_epik_Tot_Q>
0

> <i_epik_Tot_abs_Q>
0

> <r_epik_Metal_State_Penalty>
-0

> <b_epik_Metal_Only>
0

> <s_lp_Force_Field>
OPLS_2005

> <r_lp_Energy>
13.2298

> <b_lp_Chiralities_Consistent>
1

> <s_lp_Variant>
AV-unprocessed.smi:2840-4

> <Gold.Version>
5.8.1

> <Gold.Id.Protein>
6NUR|6NUR_protein|mol2

> <Gold.PLP.Fitness>
39.8625

> <Gold.PLP.PLP>
-34.5099

> <Gold.PLP.part.hbond>
-1.0000

> <Gold.PLP.part.metal>
0.0000

> <Gold.PLP.part.buried>
-3.1269

> <Gold.PLP.part.nonpolar>
-30.4538

> <Gold.PLP.part.repulsive>
0.2441

> <Gold.PLP.ligand.clash>
0.0000

> <Gold.PLP.ligand.torsion>
0.3256

> <Gold.PLP.Chemscore.Hbond>
1.0000

> <Gold.PLP.Chemscore.CHOScore>
1.0000

> <Gold.PLP.Chemscore.Metal>
0.0000

> <Gold.Chemscore.Hbonds>
donor molecule, donor type, donor heavy atom, donor atom, acceptor molecule, acceptor atom, score
      L1  H    11    32       P1  8028  1.00
      L1  C    16    36       P1  7948  0.79

> <Gold.PLP.Chemscore.Internal.Correction>
0.0039

> <Gold.Rescore>
     Score         DG    S(hbond)    S(metal)    S(lipo)     H(rot)  DE(clash)    DE(int)     intcor
     15.12     -17.94       1.00        0.00      99.83       1.00       0.04       2.77       ----

> <Gold.Chemscore.Fitness>
15.1232

> <Gold.Chemscore.DG>
-17.9364

> <Gold.Chemscore.ZeroCoef>
-5.4800

> <Gold.Chemscore.Hbond>
0.9988

> <Gold.Chemscore.Metal>
0.0000

> <Gold.Chemscore.Lipo>
99.8325

> <Gold.Chemscore.Internal_Hbond>
0.0000

> <Gold.Chemscore.DEClash>
0.0433

> <Gold.Chemscore.DEInternal>
2.7699

> <Gold.Chemscore.Rot>
1.0000

> <Gold.Chemscore.Internal.Correction>
   9.000000E+99

> <Gold.Chemscore.Hbonds>
donor molecule, donor type, donor heavy atom, donor atom, acceptor molecule, acceptor atom, score
      L1  H    11    32       P1  8028  0.93

> <Gold.Chemscore.Hbond.Weighted>
-3.3360

> <Gold.Chemscore.Metal.Weighted>
-0.0000

> <Gold.Chemscore.Lipo.Weighted>
-11.6804

> <Gold.Chemscore.Internal_Hbond.Weighted>
0.0000

> <Gold.Chemscore.DEClash.Weighted>
0.0433

> <Gold.Chemscore.DEInternal.Weighted>
2.7699

> <Gold.Chemscore.Rot.Weighted>
2.5600

> <Gold.Chemscore.Internal.Correction.Weighted>
   9.000000E+99

> <Gold.Protein.RotatedTorsions>
[ 6907 6896 6895 6894 ] final  173.31 input  -60.11 | X-H torsion
[ 7974 7965 7964 7962 ] final   93.33 input  175.53 | X-H torsion
[ 8008 7997 7996 7995 ] final  138.71 input   59.86 | X-H torsion
[ 10167 10162 10161 10158 ] final  -64.22 input  -65.29 | X-H torsion
[ 10718 10713 10712 10709 ] final -123.14 input   66.30 | X-H torsion
[ 10763 10752 10751 10750 ] final -155.74 input  -60.55 | X-H torsion
[ 11005 11000 10999 10996 ] final -159.78 input  -57.11 | X-H torsion

> <Gold.Protein.ActiveResidues>
 VAL166  LYS551  ARG553  GLY616  TRP617  ASP618  TYR619  PRO620  LYS621  CYS622 
 ASP623  PHE694  ASN695  SER759  ASP760  ASP761  ALA762  ILE779  LEU786  VAL792 
 PHE793  MET794  SER795  GLU796  ALA797  LYS798  CYS799  TRP800  GLU811  SER814 

> <Gold.Protein.RotatedAtoms>
  151.7703  133.3340  159.3442 H   0  0  0  0  0  0  0  0  0  0  0  0  # atno 6907 bound_to 6896
  150.7464  134.6025  159.6053 H   0  0  0  0  0  0  0  0  0  0  0  0  # atno 6908 bound_to 6896
  152.3346  134.7217  160.0332 H   0  0  0  0  0  0  0  0  0  0  0  0  # atno 6909 bound_to 6896
  145.4803  139.2279  143.2886 H   0  0  0  0  0  0  0  0  0  0  0  0  # atno 7974 bound_to 7965
  156.2995  140.2386  156.4117 H   0  0  0  0  0  0  0  0  0  0  0  0  # atno 8008 bound_to 7997
  154.8435  140.0427  157.1577 H   0  0  0  0  0  0  0  0  0  0  0  0  # atno 8009 bound_to 7997
  154.9077  140.2986  155.5287 H   0  0  0  0  0  0  0  0  0  0  0  0  # atno 8010 bound_to 7997
  140.5816  143.2328  151.6330 H   0  0  0  0  0  0  0  0  0  0  0  0  # atno 10167 bound_to 10162
  156.1477  130.6512  150.9867 H   0  0  0  0  0  0  0  0  0  0  0  0  # atno 10718 bound_to 10713
  154.7765  135.3161  154.8081 H   0  0  0  0  0  0  0  0  0  0  0  0  # atno 10763 bound_to 10752
  153.8804  135.6835  153.4771 H   0  0  0  0  0  0  0  0  0  0  0  0  # atno 10764 bound_to 10752
  153.1390  135.4747  154.9402 H   0  0  0  0  0  0  0  0  0  0  0  0  # atno 10765 bound_to 10752
  140.6388  134.4573  157.5232 H   0  0  0  0  0  0  0  0  0  0  0  0  # atno 11005 bound_to 11000
  146.2345  140.5589  142.8961 LP  0  0  0  0  0  0  0  0  0  0  0  0  # atno 17320 bound_to 7965
  144.7893  140.5999  143.6552 LP  0  0  0  0  0  0  0  0  0  0  0  0  # atno 17321 bound_to 7965
  139.5173  144.3319  152.0818 LP  0  0  0  0  0  0  0  0  0  0  0  0  # atno 17342 bound_to 10162
  140.2470  144.4209  150.6237 LP  0  0  0  0  0  0  0  0  0  0  0  0  # atno 17343 bound_to 10162
  157.6631  131.0877  150.7793 LP  0  0  0  0  0  0  0  0  0  0  0  0  # atno 17370 bound_to 10713
  156.7863  130.4875  149.5392 LP  0  0  0  0  0  0  0  0  0  0  0  0  # atno 17371 bound_to 10713
  139.9088  134.8390  156.1606 LP  0  0  0  0  0  0  0  0  0  0  0  0  # atno 17394 bound_to 11000
  141.0622  133.6836  156.1974 LP  0  0  0  0  0  0  0  0  0  0  0  0  # atno 17395 bound_to 11000

$$$$
