AV-unprocessed.smi:2807|AV-procd|sdf|10820|dock2
  -GOLD-   2272015253D 1   1.00000     0.00000
 Structure written by MMmdl.
 31 32  0  0  0  0  0  0  0  0  2 V2000
  149.8496  143.6986  158.1092 O   0  0  0  0  0  0  0  0  0  0  0  0
  151.0331  143.3397  158.0999 C   0  0  0  0  0  0  0  0  0  0  0  0
  151.6012  142.2224  157.5617 N   0  5  0  0  0  0  0  0  0  0  0  0
  150.8434  141.1418  156.9320 C   0  0  2  0  0  0  0  0  0  0  0  0
  151.7517  139.9790  156.5104 C   0  0  0  0  0  0  0  0  0  0  0  0
  151.0297  139.2930  155.3383 C   0  0  0  0  0  0  0  0  0  0  0  0
  149.9568  140.2793  154.8472 C   0  0  0  0  0  0  0  0  0  0  0  0
  150.2277  141.5875  155.6015 C   0  0  1  0  0  0  0  0  0  0  0  0
  149.0501  142.3433  155.7920 O   0  0  0  0  0  0  0  0  0  0  0  0
  152.0731  144.2309  158.8115 C   0  0  0  0  0  0  0  0  0  0  0  0
  153.0875  144.5039  157.9833 F   0  0  0  0  0  0  0  0  0  0  0  0
  151.4966  145.3925  159.1305 F   0  0  0  0  0  0  0  0  0  0  0  0
  152.5698  143.5563  160.0894 C   0  0  0  0  0  0  0  0  0  0  0  0
  153.3074  142.3518  160.0266 C   0  0  0  0  0  0  0  0  0  0  0  0
  153.7657  141.7756  161.2266 C   0  0  0  0  0  0  0  0  0  0  0  0
  153.4722  142.4190  162.4437 C   0  0  0  0  0  0  0  0  0  0  0  0
  152.7304  143.6160  162.4051 C   0  0  0  0  0  0  0  0  0  0  0  0
  152.2855  144.1757  161.2605 N   0  0  0  0  0  0  0  0  0  0  0  0
  150.0510  140.7511  157.5737 H   0  0  0  0  0  0  0  0  0  0  0  0
  152.7149  140.3565  156.1623 H   0  0  0  0  0  0  0  0  0  0  0  0
  151.9503  139.2923  157.3338 H   0  0  0  0  0  0  0  0  0  0  0  0
  151.7360  139.0490  154.5440 H   0  0  0  0  0  0  0  0  0  0  0  0
  150.5666  138.3574  155.6558 H   0  0  0  0  0  0  0  0  0  0  0  0
  149.9907  140.4218  153.7666 H   0  0  0  0  0  0  0  0  0  0  0  0
  148.9660  139.8865  155.0873 H   0  0  0  0  0  0  0  0  0  0  0  0
  150.9464  142.1842  155.0365 H   0  0  0  0  0  0  0  0  0  0  0  0
  149.2642  143.2504  155.6332 H   0  0  0  0  0  0  0  0  0  0  0  0
  153.5260  141.8861  159.0769 H   0  0  0  0  0  0  0  0  0  0  0  0
  154.3350  140.8581  161.2130 H   0  0  0  0  0  0  0  0  0  0  0  0
  153.8091  142.0071  163.3834 H   0  0  0  0  0  0  0  0  0  0  0  0
  152.4875  144.1377  163.3189 H   0  0  0  0  0  0  0  0  0  0  0  0
  1  2  2  0  0  0  0
  2  3  1  0  0  0  0
  2 10  1  0  0  0  0
  3  4  1  0  0  0  0
  4  8  1  0  0  0  0
  4  5  1  0  0  0  0
  4 19  1  0  0  0  0
  5  6  1  0  0  0  0
  5 20  1  0  0  0  0
  5 21  1  0  0  0  0
  6  7  1  0  0  0  0
  6 22  1  0  0  0  0
  6 23  1  0  0  0  0
  7  8  1  0  0  0  0
  7 24  1  0  0  0  0
  7 25  1  0  0  0  0
  8  9  1  0  0  0  0
  8 26  1  0  0  0  0
  9 27  1  0  0  0  0
 10 11  1  0  0  0  0
 10 12  1  0  0  0  0
 10 13  1  0  0  0  0
 13 18  1  0  0  0  0
 13 14  2  0  0  0  0
 14 15  1  0  0  0  0
 14 28  1  0  0  0  0
 15 16  2  0  0  0  0
 15 29  1  0  0  0  0
 16 17  1  0  0  0  0
 16 30  1  0  0  0  0
 17 18  2  0  0  0  0
 17 31  1  0  0  0  0
M  CHG  1   3  -1
M  END
> <s_m_source_file>
AV-unprocessed.smi

> <i_m_source_file_index>
2807

> <i_lp_mmshare_version>
43012

> <i_f3d_flags>
0

> <s_epik_input>
bjFbY0hdW2NIXVtjSF1bY0hdYzFDKEYpKEYpQyg9TylbTkhdW0NAQEhdMltDSDJdW0NIMl1bQ0gyXVtDQEhdMltPSF0=

> <s_epik_cmdline>
J2VwaWtfcHl0aG9uJywgJy1waCcsICc3LjAnLCAnLXRuJywgJzgnLCAnLW1hJywgJzIwMCcsICctbWV0YWxfYmluZGluZycsICctaW1hZScsICc8aW5maWxlLm1hZT4nLCAnLW9tYWUnLCAnPG91dGZpbGUubWFlPic=

> <r_lp_tautomer_probability>
1

> <r_epik_Ionization_Penalty>
5.72231

> <r_epik_Ionization_Penalty_Charging>
5.72231

> <r_epik_Ionization_Penalty_Neutral>
5.49816e-06

> <r_epik_State_Penalty>
5.72227

> <r_epik_Charging_Adjusted_Penalty>
11.4446

> <i_epik_Tot_Q>
-1

> <i_epik_Tot_abs_Q>
1

> <r_epik_Metal_State_Penalty>
1.70075

> <b_epik_Metal_Only>
1

> <s_lp_Force_Field>
OPLS_2005

> <r_lp_Energy>
34.3832

> <b_lp_Chiralities_Consistent>
1

> <s_lp_Variant>
AV-unprocessed.smi:2807-5

> <Gold.Version>
5.8.1

> <Gold.Id.Protein>
6NUR|6NUR_protein|mol2

> <Gold.PLP.Fitness>
51.5771

> <Gold.PLP.PLP>
-49.1916

> <Gold.PLP.part.hbond>
-0.8019

> <Gold.PLP.part.metal>
0.0000

> <Gold.PLP.part.buried>
-3.9682

> <Gold.PLP.part.nonpolar>
-44.4734

> <Gold.PLP.part.repulsive>
1.0885

> <Gold.PLP.ligand.clash>
0.0000

> <Gold.PLP.ligand.torsion>
0.3549

> <Gold.PLP.Chemscore.Hbond>
1.0000

> <Gold.PLP.Chemscore.CHOScore>
0.0000

> <Gold.PLP.Chemscore.Metal>
0.0000

> <Gold.Chemscore.Hbonds>
donor molecule, donor type, donor heavy atom, donor atom, acceptor molecule, acceptor atom, score
      L1  H     9    27       P1  8028  0.96

> <Gold.PLP.Chemscore.Internal.Correction>
0.0954

> <Gold.Rescore>
     Score         DG    S(hbond)    S(metal)    S(lipo)     H(rot)  DE(clash)    DE(int)     intcor
     14.36     -15.75       1.00        0.00     102.97       2.00       0.04       1.36       ----

> <Gold.Chemscore.Fitness>
14.3574

> <Gold.Chemscore.DG>
-15.7527

> <Gold.Chemscore.ZeroCoef>
-5.4800

> <Gold.Chemscore.Hbond>
0.9987

> <Gold.Chemscore.Metal>
0.0000

> <Gold.Chemscore.Lipo>
102.9738

> <Gold.Chemscore.Internal_Hbond>
0.0000

> <Gold.Chemscore.DEClash>
0.0382

> <Gold.Chemscore.DEInternal>
1.3570

> <Gold.Chemscore.Rot>
1.9964

> <Gold.Chemscore.Internal.Correction>
   9.000000E+99

> <Gold.Chemscore.Hbonds>
donor molecule, donor type, donor heavy atom, donor atom, acceptor molecule, acceptor atom, score
      L1  H     9    27       P1  8028  0.86

> <Gold.Chemscore.Hbond.Weighted>
-3.3356

> <Gold.Chemscore.Metal.Weighted>
-0.0000

> <Gold.Chemscore.Lipo.Weighted>
-12.0479

> <Gold.Chemscore.Internal_Hbond.Weighted>
0.0000

> <Gold.Chemscore.DEClash.Weighted>
0.0382

> <Gold.Chemscore.DEInternal.Weighted>
1.3570

> <Gold.Chemscore.Rot.Weighted>
5.1108

> <Gold.Chemscore.Internal.Correction.Weighted>
   9.000000E+99

> <Gold.Protein.RotatedTorsions>
[ 6907 6896 6895 6894 ] final   11.52 input  -60.11 | X-H torsion
[ 7974 7965 7964 7962 ] final  121.67 input  175.53 | X-H torsion
[ 8008 7997 7996 7995 ] final   28.41 input   59.86 | X-H torsion
[ 10167 10162 10161 10158 ] final   59.04 input  -65.29 | X-H torsion
[ 10718 10713 10712 10709 ] final  -16.84 input   66.30 | X-H torsion
[ 10763 10752 10751 10750 ] final -127.13 input  -60.55 | X-H torsion
[ 11005 11000 10999 10996 ] final  145.59 input  -57.11 | X-H torsion

> <Gold.Protein.ActiveResidues>
 VAL166  LYS551  ARG553  GLY616  TRP617  ASP618  TYR619  PRO620  LYS621  CYS622 
 ASP623  PHE694  ASN695  SER759  ASP760  ASP761  ALA762  ILE779  LEU786  VAL792 
 PHE793  MET794  SER795  GLU796  ALA797  LYS798  CYS799  TRP800  GLU811  SER814 

> <Gold.Protein.RotatedAtoms>
  151.7556  135.0822  160.0337 H   0  0  0  0  0  0  0  0  0  0  0  0  # atno 6907 bound_to 6896
  152.3387  133.6038  159.5870 H   0  0  0  0  0  0  0  0  0  0  0  0  # atno 6908 bound_to 6896
  150.7466  133.9671  159.3576 H   0  0  0  0  0  0  0  0  0  0  0  0  # atno 6909 bound_to 6896
  145.1166  139.3417  143.4736 H   0  0  0  0  0  0  0  0  0  0  0  0  # atno 7974 bound_to 7965
  155.0582  140.3187  155.4669 H   0  0  0  0  0  0  0  0  0  0  0  0  # atno 8008 bound_to 7997
  156.2819  140.2133  156.5653 H   0  0  0  0  0  0  0  0  0  0  0  0  # atno 8009 bound_to 7997
  154.7154  140.0494  157.0577 H   0  0  0  0  0  0  0  0  0  0  0  0  # atno 8010 bound_to 7997
  140.1807  144.4185  150.6617 H   0  0  0  0  0  0  0  0  0  0  0  0  # atno 10167 bound_to 10162
  156.5819  130.4776  149.6317 H   0  0  0  0  0  0  0  0  0  0  0  0  # atno 10718 bound_to 10713
  154.8750  135.3972  154.3544 H   0  0  0  0  0  0  0  0  0  0  0  0  # atno 10763 bound_to 10752
  153.4325  135.7025  153.6227 H   0  0  0  0  0  0  0  0  0  0  0  0  # atno 10764 bound_to 10752
  153.4842  135.3762  155.2428 H   0  0  0  0  0  0  0  0  0  0  0  0  # atno 10765 bound_to 10752
  140.0724  134.9144  157.1367 H   0  0  0  0  0  0  0  0  0  0  0  0  # atno 11005 bound_to 11000
  146.3523  140.1108  142.8604 LP  0  0  0  0  0  0  0  0  0  0  0  0  # atno 17320 bound_to 7965
  145.0787  140.9206  143.4838 LP  0  0  0  0  0  0  0  0  0  0  0  0  # atno 17321 bound_to 7965
  140.6521  143.2228  151.6052 LP  0  0  0  0  0  0  0  0  0  0  0  0  # atno 17342 bound_to 10162
  139.5297  144.2952  152.1120 LP  0  0  0  0  0  0  0  0  0  0  0  0  # atno 17343 bound_to 10162
  156.2624  130.6970  151.1743 LP  0  0  0  0  0  0  0  0  0  0  0  0  # atno 17370 bound_to 10713
  157.7324  131.0600  150.5628 LP  0  0  0  0  0  0  0  0  0  0  0  0  # atno 17371 bound_to 10713
  140.3607  134.2497  155.7187 LP  0  0  0  0  0  0  0  0  0  0  0  0  # atno 17394 bound_to 11000
  141.2017  133.7957  157.0429 LP  0  0  0  0  0  0  0  0  0  0  0  0  # atno 17395 bound_to 11000

$$$$
