AV-unprocessed.smi:1113|AV-procd|sdf|4798|dock4
  -GOLD-   22720 3343D 1   1.00000     0.00000
 Structure written by MMmdl.
 40 41  0  0  0  0  0  0  0  0  1 V2000
  146.0084  134.5370  151.2494 C   0  0  0  0  0  0  0  0  0  0  0  0
  145.1147  135.7634  151.0239 C   0  0  2  0  0  0  0  0  0  0  0  0
  145.6232  136.4594  149.9041 O   0  0  0  0  0  0  0  0  0  0  0  0
  145.1159  136.7073  152.2420 C   0  0  0  0  0  0  0  0  0  0  0  0
  146.4717  137.0371  152.6687 N   0  0  0  0  0  0  0  0  0  0  0  0
  146.7861  137.9388  153.6090 C   0  0  0  0  0  0  0  0  0  0  0  0
  145.9478  138.5877  154.2345 O   0  0  0  0  0  0  0  0  0  0  0  0
  148.1181  138.0470  153.7503 N   0  0  0  0  0  0  0  0  0  0  0  0
  148.8496  138.8823  154.6369 C   0  0  0  0  0  0  0  0  0  0  0  0
  148.3844  139.2996  155.9066 C   0  0  0  0  0  0  0  0  0  0  0  0
  149.2150  140.1118  156.7020 C   0  0  0  0  0  0  0  0  0  0  0  0
  150.4848  140.4763  156.2095 C   0  0  0  0  0  0  0  0  0  0  0  0
  151.3151  141.2834  157.0000 N   0  0  0  0  0  0  0  0  0  0  0  0
  150.8021  142.6350  157.1875 C   0  0  0  0  0  0  0  0  0  0  0  0
  151.8275  143.4853  157.9574 C   0  0  0  0  0  0  0  0  0  0  0  0
  152.1458  142.8489  159.1919 O   0  0  0  0  0  0  0  0  0  0  0  0
  152.7163  141.5577  158.9962 C   0  0  0  0  0  0  0  0  0  0  0  0
  151.7125  140.6578  158.2552 C   0  0  0  0  0  0  0  0  0  0  0  0
  150.9411  140.0711  155.0009 N   0  0  0  0  0  0  0  0  0  0  0  0
  150.1402  139.2921  154.2437 C   0  0  0  0  0  0  0  0  0  0  0  0
  145.6524  133.9455  152.0934 H   0  0  0  0  0  0  0  0  0  0  0  0
  147.0391  134.8266  151.4576 H   0  0  0  0  0  0  0  0  0  0  0  0
  146.0140  133.8876  150.3732 H   0  0  0  0  0  0  0  0  0  0  0  0
  144.1026  135.4234  150.8000 H   0  0  0  0  0  0  0  0  0  0  0  0
  145.8864  135.8281  149.2523 H   0  0  0  0  0  0  0  0  0  0  0  0
  144.5904  137.6326  151.9987 H   0  0  0  0  0  0  0  0  0  0  0  0
  144.5728  136.2641  153.0778 H   0  0  0  0  0  0  0  0  0  0  0  0
  147.2247  136.5568  152.1979 H   0  0  0  0  0  0  0  0  0  0  0  0
  148.6768  137.5085  153.1045 H   0  0  0  0  0  0  0  0  0  0  0  0
  147.4211  139.0035  156.2920 H   0  0  0  0  0  0  0  0  0  0  0  0
  148.8828  140.4437  157.6748 H   0  0  0  0  0  0  0  0  0  0  0  0
  150.5914  143.0884  156.2181 H   0  0  0  0  0  0  0  0  0  0  0  0
  149.8619  142.6004  157.7396 H   0  0  0  0  0  0  0  0  0  0  0  0
  152.7339  143.6305  157.3671 H   0  0  0  0  0  0  0  0  0  0  0  0
  151.4185  144.4746  158.1621 H   0  0  0  0  0  0  0  0  0  0  0  0
  153.6498  141.6421  158.4374 H   0  0  0  0  0  0  0  0  0  0  0  0
  152.9635  141.1269  159.9663 H   0  0  0  0  0  0  0  0  0  0  0  0
  150.8342  140.4911  158.8806 H   0  0  0  0  0  0  0  0  0  0  0  0
  152.1585  139.6824  158.0568 H   0  0  0  0  0  0  0  0  0  0  0  0
  150.5444  138.9894  153.2887 H   0  0  0  0  0  0  0  0  0  0  0  0
  1  2  1  0  0  0  0
  1 21  1  0  0  0  0
  1 22  1  0  0  0  0
  1 23  1  0  0  0  0
  2  3  1  0  0  0  0
  2  4  1  0  0  0  0
  2 24  1  0  0  0  0
  3 25  1  0  0  0  0
  4  5  1  0  0  0  0
  4 26  1  0  0  0  0
  4 27  1  0  0  0  0
  5  6  1  0  0  0  0
  5 28  1  0  0  0  0
  6  7  2  0  0  0  0
  6  8  1  0  0  0  0
  8  9  1  0  0  0  0
  8 29  1  0  0  0  0
  9 20  1  0  0  0  0
  9 10  2  0  0  0  0
 10 11  1  0  0  0  0
 10 30  1  0  0  0  0
 11 12  2  0  0  0  0
 11 31  1  0  0  0  0
 12 13  1  0  0  0  0
 12 19  1  0  0  0  0
 13 18  1  0  0  0  0
 13 14  1  0  0  0  0
 14 15  1  0  0  0  0
 14 32  1  0  0  0  0
 14 33  1  0  0  0  0
 15 16  1  0  0  0  0
 15 34  1  0  0  0  0
 15 35  1  0  0  0  0
 16 17  1  0  0  0  0
 17 18  1  0  0  0  0
 17 36  1  0  0  0  0
 17 37  1  0  0  0  0
 18 38  1  0  0  0  0
 18 39  1  0  0  0  0
 19 20  2  0  0  0  0
 20 40  1  0  0  0  0
M  END
> <s_m_source_file>
AV-unprocessed.smi

> <i_m_source_file_index>
1113

> <i_lp_mmshare_version>
43012

> <i_f3d_flags>
0

> <s_epik_input>
W0NIM11bQ0BIXShbT0hdKVtDSDJdW05IXUMoPU8pW05IXWMxW2NIXVtjSF1jKG5bY0hdMSlOMltDSDJdW0NIMl1PW0NIMl1bQ0gyXTI=

> <s_epik_cmdline>
J2VwaWtfcHl0aG9uJywgJy1waCcsICc3LjAnLCAnLXRuJywgJzgnLCAnLW1hJywgJzIwMCcsICctbWV0YWxfYmluZGluZycsICctaW1hZScsICc8aW5maWxlLm1hZT4nLCAnLW9tYWUnLCAnPG91dGZpbGUubWFlPic=

> <r_lp_tautomer_probability>
1

> <r_epik_Ionization_Penalty>
0.00204837

> <r_epik_Ionization_Penalty_Charging>
0

> <r_epik_Ionization_Penalty_Neutral>
0.00204837

> <r_epik_State_Penalty>
0.00137592

> <r_epik_Charging_Adjusted_Penalty>
0.00137592

> <i_epik_Tot_Q>
0

> <i_epik_Tot_abs_Q>
0

> <r_epik_Metal_State_Penalty>
-0

> <b_epik_Metal_Only>
0

> <s_lp_Force_Field>
OPLS_2005

> <r_lp_Energy>
20.5006

> <b_lp_Chiralities_Consistent>
1

> <s_lp_Variant>
AV-unprocessed.smi:1113-1

> <Gold.Version>
5.8.1

> <Gold.Id.Protein>
6NUR|6NUR_protein|mol2

> <Gold.PLP.Fitness>
43.8406

> <Gold.PLP.PLP>
-30.9105

> <Gold.PLP.part.hbond>
-5.0000

> <Gold.PLP.part.metal>
0.0000

> <Gold.PLP.part.buried>
-5.3701

> <Gold.PLP.part.nonpolar>
-21.3476

> <Gold.PLP.part.repulsive>
0.2219

> <Gold.PLP.ligand.clash>
0.0000

> <Gold.PLP.ligand.torsion>
0.2937

> <Gold.PLP.Chemscore.Hbond>
3.6000

> <Gold.PLP.Chemscore.CHOScore>
0.8652

> <Gold.PLP.Chemscore.Metal>
0.0000

> <Gold.Chemscore.Hbonds>
donor molecule, donor type, donor heavy atom, donor atom, acceptor molecule, acceptor atom, score
      L1  H     3    25       P1  7921  1.00
      L1  H     5    28       P1  7948  1.00
      L1  H     8    29       P1  7948  1.00
      P1  H  7989  7998       L1    19  0.55
      L1  C    20    40       P1  7957  0.79

> <Gold.PLP.Chemscore.Internal.Correction>
0.1217

> <Gold.Rescore>
     Score         DG    S(hbond)    S(metal)    S(lipo)     H(rot)  DE(clash)    DE(int)     intcor
     18.02     -18.61       3.05        0.00      70.63       2.08       0.09       0.50       ----

> <Gold.Chemscore.Fitness>
18.0185

> <Gold.Chemscore.DG>
-18.6091

> <Gold.Chemscore.ZeroCoef>
-5.4800

> <Gold.Chemscore.Hbond>
3.0508

> <Gold.Chemscore.Metal>
0.0000

> <Gold.Chemscore.Lipo>
70.6339

> <Gold.Chemscore.Internal_Hbond>
0.0000

> <Gold.Chemscore.DEClash>
0.0913

> <Gold.Chemscore.DEInternal>
0.4993

> <Gold.Chemscore.Rot>
2.0799

> <Gold.Chemscore.Internal.Correction>
   9.000000E+99

> <Gold.Chemscore.Hbonds>
donor molecule, donor type, donor heavy atom, donor atom, acceptor molecule, acceptor atom, score
      L1  H     3    25       P1  7921  0.99
      L1  H     5    28       P1  7948  0.98
      L1  H     8    29       P1  7948  0.99
      P1  H  7989  7998       L1    19  0.03

> <Gold.Chemscore.Hbond.Weighted>
-10.1895

> <Gold.Chemscore.Metal.Weighted>
-0.0000

> <Gold.Chemscore.Lipo.Weighted>
-8.2642

> <Gold.Chemscore.Internal_Hbond.Weighted>
0.0000

> <Gold.Chemscore.DEClash.Weighted>
0.0913

> <Gold.Chemscore.DEInternal.Weighted>
0.4993

> <Gold.Chemscore.Rot.Weighted>
5.3246

> <Gold.Chemscore.Internal.Correction.Weighted>
   9.000000E+99

> <Gold.Protein.RotatedTorsions>
[ 6907 6896 6895 6894 ] final    1.65 input  -60.11 | X-H torsion
[ 7974 7965 7964 7962 ] final   10.63 input  175.53 | X-H torsion
[ 8008 7997 7996 7995 ] final -156.76 input   59.86 | X-H torsion
[ 10167 10162 10161 10158 ] final -174.87 input  -65.29 | X-H torsion
[ 10718 10713 10712 10709 ] final  -85.80 input   66.30 | X-H torsion
[ 10763 10752 10751 10750 ] final  -57.76 input  -60.55 | X-H torsion
[ 11005 11000 10999 10996 ] final  174.12 input  -57.11 | X-H torsion

> <Gold.Protein.ActiveResidues>
 VAL166  LYS551  ARG553  GLY616  TRP617  ASP618  TYR619  PRO620  LYS621  CYS622 
 ASP623  PHE694  ASN695  SER759  ASP760  ASP761  ALA762  ILE779  LEU786  VAL792 
 PHE793  MET794  SER795  GLU796  ALA797  LYS798  CYS799  TRP800  GLU811  SER814 

> <Gold.Protein.RotatedAtoms>
  151.5961  135.1050  160.0049 H   0  0  0  0  0  0  0  0  0  0  0  0  # atno 6907 bound_to 6896
  152.4282  133.7227  159.6553 H   0  0  0  0  0  0  0  0  0  0  0  0  # atno 6908 bound_to 6896
  150.8172  133.8245  159.3177 H   0  0  0  0  0  0  0  0  0  0  0  0  # atno 6909 bound_to 6896
  146.2385  139.9605  142.8459 H   0  0  0  0  0  0  0  0  0  0  0  0  # atno 7974 bound_to 7965
  155.7222  140.0791  157.2326 H   0  0  0  0  0  0  0  0  0  0  0  0  # atno 8008 bound_to 7997
  154.4043  140.1610  156.2469 H   0  0  0  0  0  0  0  0  0  0  0  0  # atno 8009 bound_to 7997
  155.9186  140.3399  155.6158 H   0  0  0  0  0  0  0  0  0  0  0  0  # atno 8010 bound_to 7997
  139.5611  144.1869  152.1239 H   0  0  0  0  0  0  0  0  0  0  0  0  # atno 10167 bound_to 10162
  155.9994  130.4743  150.4617 H   0  0  0  0  0  0  0  0  0  0  0  0  # atno 10718 bound_to 10713
  154.2275  135.6367  153.5164 H   0  0  0  0  0  0  0  0  0  0  0  0  # atno 10763 bound_to 10752
  152.9956  135.5511  154.6048 H   0  0  0  0  0  0  0  0  0  0  0  0  # atno 10764 bound_to 10752
  154.5523  135.2902  155.0971 H   0  0  0  0  0  0  0  0  0  0  0  0  # atno 10765 bound_to 10752
  140.3479  134.7220  157.4248 H   0  0  0  0  0  0  0  0  0  0  0  0  # atno 11005 bound_to 11000
  145.1775  140.9751  143.4285 LP  0  0  0  0  0  0  0  0  0  0  0  0  # atno 17320 bound_to 7965
  144.9972  139.3633  143.6185 LP  0  0  0  0  0  0  0  0  0  0  0  0  # atno 17321 bound_to 7965
  140.1382  144.5226  150.6760 LP  0  0  0  0  0  0  0  0  0  0  0  0  # atno 17342 bound_to 10162
  140.6890  143.2365  151.5182 LP  0  0  0  0  0  0  0  0  0  0  0  0  # atno 17343 bound_to 10162
  157.2641  131.0573  151.2302 LP  0  0  0  0  0  0  0  0  0  0  0  0  # atno 17370 bound_to 10713
  157.3406  130.7031  149.6379 LP  0  0  0  0  0  0  0  0  0  0  0  0  # atno 17371 bound_to 10713
  140.0727  134.5840  155.8624 LP  0  0  0  0  0  0  0  0  0  0  0  0  # atno 17394 bound_to 11000
  141.2020  133.6622  156.5984 LP  0  0  0  0  0  0  0  0  0  0  0  0  # atno 17395 bound_to 11000

$$$$
