AV-unprocessed.smi:1138|AV-procd|sdf|4868|dock6
  -GOLD-   22720 3443D 1   1.00000     0.00000
 Structure written by MMmdl.
 49 51  0  0  0  0  0  0  0  0  1 V2000
  143.9357  131.8104  150.6464 C   0  0  0  0  0  0  0  0  0  0  0  0
  144.9313  132.3157  151.5863 N   0  0  0  0  0  0  0  0  0  0  0  0
  145.8267  131.3832  152.2601 C   0  0  0  0  0  0  0  0  0  0  0  0
  145.1511  133.7085  151.6924 C   0  0  0  0  0  0  0  0  0  0  0  0
  145.8695  134.2630  152.7806 C   0  0  0  0  0  0  0  0  0  0  0  0
  146.0674  135.6556  152.8357 C   0  0  0  0  0  0  0  0  0  0  0  0
  145.5557  136.4673  151.8057 C   0  0  0  0  0  0  0  0  0  0  0  0
  145.7628  137.8704  151.8941 N   0  0  0  0  0  0  0  0  0  0  0  0
  146.4595  138.5544  152.8179 C   0  0  0  0  0  0  0  0  0  0  0  0
  147.0523  138.0574  153.7753 O   0  0  0  0  0  0  0  0  0  0  0  0
  146.4153  139.8731  152.5799 N   0  0  0  0  0  0  0  0  0  0  0  0
  147.0424  140.8989  153.4082 C   0  0  0  0  0  0  0  0  0  0  0  0
  148.5744  140.7101  153.3999 C   0  0  0  0  0  0  0  0  0  0  0  0
  149.2614  141.6554  154.4021 C   0  0  0  0  0  0  0  0  0  0  0  0
  148.6878  141.4282  155.7346 N   0  0  0  0  0  0  0  0  0  0  0  0
  149.3918  140.8606  156.7461 C   0  0  0  0  0  0  0  0  0  0  0  0
  148.8733  140.5743  157.8264 O   0  0  0  0  0  0  0  0  0  0  0  0
  150.8502  140.6122  156.5083 C   0  0  0  0  0  0  0  0  0  0  0  0
  151.6232  139.9509  157.6301 C   0  0  0  0  0  0  0  0  0  0  0  0
  151.8599  141.4052  157.3189 C   0  0  0  0  0  0  0  0  0  0  0  0
  147.2674  141.8040  155.7735 C   0  0  0  0  0  0  0  0  0  0  0  0
  146.4782  140.8623  154.8471 C   0  0  0  0  0  0  0  0  0  0  0  0
  144.8360  135.8303  150.7681 C   0  0  0  0  0  0  0  0  0  0  0  0
  144.6425  134.4956  150.7129 N   0  0  0  0  0  0  0  0  0  0  0  0
  142.9500  132.2172  150.8744 H   0  0  0  0  0  0  0  0  0  0  0  0
  143.8633  130.7237  150.6893 H   0  0  0  0  0  0  0  0  0  0  0  0
  144.1979  132.0893  149.6251 H   0  0  0  0  0  0  0  0  0  0  0  0
  145.7546  131.4966  153.3422 H   0  0  0  0  0  0  0  0  0  0  0  0
  146.8598  131.5561  151.9571 H   0  0  0  0  0  0  0  0  0  0  0  0
  145.5781  130.3498  152.0179 H   0  0  0  0  0  0  0  0  0  0  0  0
  146.2721  133.6505  153.5730 H   0  0  0  0  0  0  0  0  0  0  0  0
  146.6133  136.0913  153.6599 H   0  0  0  0  0  0  0  0  0  0  0  0
  145.2659  138.4247  151.2123 H   0  0  0  0  0  0  0  0  0  0  0  0
  145.9015  140.1935  151.7722 H   0  0  0  0  0  0  0  0  0  0  0  0
  146.8310  141.8814  152.9815 H   0  0  0  0  0  0  0  0  0  0  0  0
  148.8221  139.6789  153.6569 H   0  0  0  0  0  0  0  0  0  0  0  0
  148.9676  140.8817  152.3972 H   0  0  0  0  0  0  0  0  0  0  0  0
  150.3410  141.5027  154.3710 H   0  0  0  0  0  0  0  0  0  0  0  0
  149.1018  142.6944  154.1101 H   0  0  0  0  0  0  0  0  0  0  0  0
  151.1445  140.3850  155.4851 H   0  0  0  0  0  0  0  0  0  0  0  0
  151.0919  139.7162  158.5512 H   0  0  0  0  0  0  0  0  0  0  0  0
  152.3896  139.2335  157.3447 H   0  0  0  0  0  0  0  0  0  0  0  0
  152.7894  141.6744  156.8214 H   0  0  0  0  0  0  0  0  0  0  0  0
  151.5061  142.1301  158.0496 H   0  0  0  0  0  0  0  0  0  0  0  0
  146.8359  141.7997  156.7735 H   0  0  0  0  0  0  0  0  0  0  0  0
  147.1623  142.8330  155.4265 H   0  0  0  0  0  0  0  0  0  0  0  0
  145.4242  141.1423  154.8460 H   0  0  0  0  0  0  0  0  0  0  0  0
  146.5283  139.8459  155.2412 H   0  0  0  0  0  0  0  0  0  0  0  0
  144.3794  136.3841  149.9631 H   0  0  0  0  0  0  0  0  0  0  0  0
  1  2  1  0  0  0  0
  1 25  1  0  0  0  0
  1 26  1  0  0  0  0
  1 27  1  0  0  0  0
  2  3  1  0  0  0  0
  2  4  1  0  0  0  0
  3 28  1  0  0  0  0
  3 29  1  0  0  0  0
  3 30  1  0  0  0  0
  4 24  1  0  0  0  0
  4  5  2  0  0  0  0
  5  6  1  0  0  0  0
  5 31  1  0  0  0  0
  6  7  2  0  0  0  0
  6 32  1  0  0  0  0
  7  8  1  0  0  0  0
  7 23  1  0  0  0  0
  8  9  1  0  0  0  0
  8 33  1  0  0  0  0
  9 10  2  0  0  0  0
  9 11  1  0  0  0  0
 11 12  1  0  0  0  0
 11 34  1  0  0  0  0
 12 22  1  0  0  0  0
 12 13  1  0  0  0  0
 12 35  1  0  0  0  0
 13 14  1  0  0  0  0
 13 36  1  0  0  0  0
 13 37  1  0  0  0  0
 14 15  1  0  0  0  0
 14 38  1  0  0  0  0
 14 39  1  0  0  0  0
 15 16  1  0  0  0  0
 15 21  1  0  0  0  0
 16 17  2  0  0  0  0
 16 18  1  0  0  0  0
 18 20  1  0  0  0  0
 18 19  1  0  0  0  0
 18 40  1  0  0  0  0
 19 20  1  0  0  0  0
 19 41  1  0  0  0  0
 19 42  1  0  0  0  0
 20 43  1  0  0  0  0
 20 44  1  0  0  0  0
 21 22  1  0  0  0  0
 21 45  1  0  0  0  0
 21 46  1  0  0  0  0
 22 47  1  0  0  0  0
 22 48  1  0  0  0  0
 23 24  2  0  0  0  0
 23 49  1  0  0  0  0
M  END
> <s_m_source_file>
AV-unprocessed.smi

> <i_m_source_file_index>
1138

> <i_lp_mmshare_version>
43012

> <i_f3d_flags>
0

> <s_epik_input>
W0NIM11OKFtDSDNdKWMxW2NIXVtjSF1jKFtjSF1uMSlbTkhdQyg9TylbTkhdW0NIXTJbQ0gyXVtDSDJdTihbQ0gyXVtDSDJdMilDKD1PKVtDSF0zW0NIMl1bQ0gyXTM=

> <s_epik_cmdline>
J2VwaWtfcHl0aG9uJywgJy1waCcsICc3LjAnLCAnLXRuJywgJzgnLCAnLW1hJywgJzIwMCcsICctbWV0YWxfYmluZGluZycsICctaW1hZScsICc8aW5maWxlLm1hZT4nLCAnLW9tYWUnLCAnPG91dGZpbGUubWFlPic=

> <r_lp_tautomer_probability>
1

> <r_epik_Ionization_Penalty>
0.622325

> <r_epik_Ionization_Penalty_Charging>
0

> <r_epik_Ionization_Penalty_Neutral>
0.622325

> <r_epik_State_Penalty>
0.637335

> <r_epik_Charging_Adjusted_Penalty>
0.637335

> <i_epik_Tot_Q>
0

> <i_epik_Tot_abs_Q>
0

> <r_epik_Metal_State_Penalty>
0.306682

> <b_epik_Metal_Only>
0

> <s_lp_Force_Field>
OPLS_2005

> <r_lp_Energy>
33.2088

> <b_lp_Chiralities_Consistent>
1

> <s_lp_Variant>
AV-unprocessed.smi:1138-2

> <Gold.Version>
5.8.1

> <Gold.Id.Protein>
6NUR|6NUR_protein|mol2

> <Gold.PLP.Fitness>
43.5921

> <Gold.PLP.PLP>
-38.3379

> <Gold.PLP.part.hbond>
-2.5405

> <Gold.PLP.part.metal>
0.0000

> <Gold.PLP.part.buried>
-2.8692

> <Gold.PLP.part.nonpolar>
-34.1490

> <Gold.PLP.part.repulsive>
0.4435

> <Gold.PLP.ligand.clash>
0.0000

> <Gold.PLP.ligand.torsion>
0.2271

> <Gold.PLP.Chemscore.Hbond>
0.9280

> <Gold.PLP.Chemscore.CHOScore>
0.9321

> <Gold.PLP.Chemscore.Metal>
0.0000

> <Gold.Chemscore.Hbonds>
donor molecule, donor type, donor heavy atom, donor atom, acceptor molecule, acceptor atom, score
      L1  H     8    33       P1 10171  1.00
      L1  H    11    34       P1 10175  0.04
      L1  C    23    49       P1 10171  1.00

> <Gold.PLP.Chemscore.Internal.Correction>
0.1281

> <Gold.Rescore>
     Score         DG    S(hbond)    S(metal)    S(lipo)     H(rot)  DE(clash)    DE(int)     intcor
     11.22     -15.25       1.00        0.00      81.19       1.20       1.25       2.78       ----

> <Gold.Chemscore.Fitness>
11.2231

> <Gold.Chemscore.DG>
-15.2471

> <Gold.Chemscore.ZeroCoef>
-5.4800

> <Gold.Chemscore.Hbond>
0.9975

> <Gold.Chemscore.Metal>
0.0000

> <Gold.Chemscore.Lipo>
81.1933

> <Gold.Chemscore.Internal_Hbond>
0.0000

> <Gold.Chemscore.DEClash>
1.2467

> <Gold.Chemscore.DEInternal>
2.7773

> <Gold.Chemscore.Rot>
1.1969

> <Gold.Chemscore.Internal.Correction>
   9.000000E+99

> <Gold.Chemscore.Hbonds>
donor molecule, donor type, donor heavy atom, donor atom, acceptor molecule, acceptor atom, score
      L1  H     8    33       P1 10171  0.93
      L1  H    11    34       P1 10175  0.01

> <Gold.Chemscore.Hbond.Weighted>
-3.3316

> <Gold.Chemscore.Metal.Weighted>
-0.0000

> <Gold.Chemscore.Lipo.Weighted>
-9.4996

> <Gold.Chemscore.Internal_Hbond.Weighted>
0.0000

> <Gold.Chemscore.DEClash.Weighted>
1.2467

> <Gold.Chemscore.DEInternal.Weighted>
2.7773

> <Gold.Chemscore.Rot.Weighted>
3.0641

> <Gold.Chemscore.Internal.Correction.Weighted>
   9.000000E+99

> <Gold.Protein.RotatedTorsions>
[ 6907 6896 6895 6894 ] final   98.60 input  -60.11 | X-H torsion
[ 7974 7965 7964 7962 ] final   31.53 input  175.53 | X-H torsion
[ 8008 7997 7996 7995 ] final   62.37 input   59.86 | X-H torsion
[ 10167 10162 10161 10158 ] final -134.66 input  -65.29 | X-H torsion
[ 10718 10713 10712 10709 ] final  100.12 input   66.30 | X-H torsion
[ 10763 10752 10751 10750 ] final -135.03 input  -60.55 | X-H torsion
[ 11005 11000 10999 10996 ] final   91.30 input  -57.11 | X-H torsion

> <Gold.Protein.ActiveResidues>
 VAL166  LYS551  ARG553  GLY616  TRP617  ASP618  TYR619  PRO620  LYS621  CYS622 
 ASP623  PHE694  ASN695  SER759  ASP760  ASP761  ALA762  ILE779  LEU786  VAL792 
 PHE793  MET794  SER795  GLU796  ALA797  LYS798  CYS799  TRP800  GLU811  SER814 

> <Gold.Protein.RotatedAtoms>
  152.5406  134.0556  159.8128 H   0  0  0  0  0  0  0  0  0  0  0  0  # atno 6907 bound_to 6896
  151.0691  133.5473  159.2635 H   0  0  0  0  0  0  0  0  0  0  0  0  # atno 6908 bound_to 6896
  151.2343  135.0574  159.9054 H   0  0  0  0  0  0  0  0  0  0  0  0  # atno 6909 bound_to 6896
  146.1544  139.6645  142.9076 H   0  0  0  0  0  0  0  0  0  0  0  0  # atno 7974 bound_to 7965
  155.6133  140.3495  155.4629 H   0  0  0  0  0  0  0  0  0  0  0  0  # atno 8008 bound_to 7997
  156.0137  140.1238  157.0452 H   0  0  0  0  0  0  0  0  0  0  0  0  # atno 8009 bound_to 7997
  154.4290  140.1076  156.5851 H   0  0  0  0  0  0  0  0  0  0  0  0  # atno 8010 bound_to 7997
  139.8858  143.6783  152.2620 H   0  0  0  0  0  0  0  0  0  0  0  0  # atno 10167 bound_to 10162
  157.6861  131.0689  150.5052 H   0  0  0  0  0  0  0  0  0  0  0  0  # atno 10718 bound_to 10713
  154.8710  135.3716  154.4831 H   0  0  0  0  0  0  0  0  0  0  0  0  # atno 10763 bound_to 10752
  153.5483  135.7025  153.5608 H   0  0  0  0  0  0  0  0  0  0  0  0  # atno 10764 bound_to 10752
  153.3738  135.4014  155.1772 H   0  0  0  0  0  0  0  0  0  0  0  0  # atno 10765 bound_to 10752
  139.8841  134.8666  156.3408 H   0  0  0  0  0  0  0  0  0  0  0  0  # atno 11005 bound_to 11000
  145.4744  141.0437  143.2681 LP  0  0  0  0  0  0  0  0  0  0  0  0  # atno 17320 bound_to 7965
  144.7945  139.6262  143.7099 LP  0  0  0  0  0  0  0  0  0  0  0  0  # atno 17321 bound_to 7965
  139.7154  144.7613  151.1042 LP  0  0  0  0  0  0  0  0  0  0  0  0  # atno 17342 bound_to 10162
  140.7736  143.5276  150.9462 LP  0  0  0  0  0  0  0  0  0  0  0  0  # atno 17343 bound_to 10162
  156.5372  130.4199  149.6172 LP  0  0  0  0  0  0  0  0  0  0  0  0  # atno 17370 bound_to 10713
  156.3017  130.7180  151.2053 LP  0  0  0  0  0  0  0  0  0  0  0  0  # atno 17371 bound_to 10713
  140.9660  133.7358  156.0467 LP  0  0  0  0  0  0  0  0  0  0  0  0  # atno 17394 bound_to 11000
  140.7930  134.3595  157.5459 LP  0  0  0  0  0  0  0  0  0  0  0  0  # atno 17395 bound_to 11000

$$$$
