AV-unprocessed.smi:1844|AV-procd|sdf|7508|dock7
  -GOLD-   22720 9213D 1   1.00000     0.00000
 Structure written by MMmdl.
 45 46  0  0  0  0  0  0  0  0  1 V2000
  143.8146  140.4880  155.9156 C   0  0  0  0  0  0  0  0  0  0  0  0
  145.2419  140.3126  155.6936 N   0  0  0  0  0  0  0  0  0  0  0  0
  146.1890  141.1647  156.1193 C   0  0  0  0  0  0  0  0  0  0  0  0
  145.9047  142.1833  156.7516 O   0  0  0  0  0  0  0  0  0  0  0  0
  147.5518  140.7620  155.7629 C   0  0  0  0  0  0  0  0  0  0  0  0
  147.8636  139.5052  155.0982 C   0  0  0  0  0  0  0  0  0  0  0  0
  149.1364  139.1920  154.7857 C   0  0  0  0  0  0  0  0  0  0  0  0
  150.2518  140.0897  155.0992 C   0  0  0  0  0  0  0  0  0  0  0  0
  151.4161  139.8105  154.8119 O   0  0  0  0  0  0  0  0  0  0  0  0
  149.9163  141.2553  155.7309 N   0  0  0  0  0  0  0  0  0  0  0  0
  150.9496  142.2371  156.1014 C   0  0  0  0  0  0  0  0  0  0  0  0
  151.2735  142.2520  157.6022 C   0  0  0  0  0  0  0  0  0  0  0  0
  150.6258  141.5724  158.4000 O   0  0  0  0  0  0  0  0  0  0  0  0
  152.2988  143.0363  157.9674 N   0  0  0  0  0  0  0  0  0  0  0  0
  152.7897  143.2111  159.3327 C   0  0  2  0  0  0  0  0  0  0  0  0
  153.1339  141.8342  159.9390 C   0  0  0  0  0  0  0  0  0  0  0  0
  153.5899  141.9532  161.4001 C   0  0  0  0  0  0  0  0  0  0  0  0
  152.5345  142.6751  162.2482 C   0  0  0  0  0  0  0  0  0  0  0  0
  152.2059  144.0549  161.6592 C   0  0  0  0  0  0  0  0  0  0  0  0
  151.7394  143.9586  160.1922 C   0  0  1  0  0  0  0  0  0  0  0  0
  151.4121  145.3569  159.6378 C   0  0  0  0  0  0  0  0  0  0  0  0
  148.5831  141.5804  156.0495 C   0  0  0  0  0  0  0  0  0  0  0  0
  143.2698  139.6291  155.5242 H   0  0  0  0  0  0  0  0  0  0  0  0
  143.4516  141.3825  155.4084 H   0  0  0  0  0  0  0  0  0  0  0  0
  143.5921  140.5761  156.9796 H   0  0  0  0  0  0  0  0  0  0  0  0
  145.5317  139.4926  155.1812 H   0  0  0  0  0  0  0  0  0  0  0  0
  147.0886  138.7991  154.8384 H   0  0  0  0  0  0  0  0  0  0  0  0
  149.3427  138.2543  154.2905 H   0  0  0  0  0  0  0  0  0  0  0  0
  151.8736  142.0414  155.5553 H   0  0  0  0  0  0  0  0  0  0  0  0
  150.6449  143.2389  155.7925 H   0  0  0  0  0  0  0  0  0  0  0  0
  152.7765  143.5550  157.2447 H   0  0  0  0  0  0  0  0  0  0  0  0
  153.6978  143.8172  159.3110 H   0  0  0  0  0  0  0  0  0  0  0  0
  152.2625  141.1799  159.8865 H   0  0  0  0  0  0  0  0  0  0  0  0
  153.9167  141.3504  159.3535 H   0  0  0  0  0  0  0  0  0  0  0  0
  153.7835  140.9620  161.8110 H   0  0  0  0  0  0  0  0  0  0  0  0
  154.5336  142.4980  161.4462 H   0  0  0  0  0  0  0  0  0  0  0  0
  151.6276  142.0712  162.2982 H   0  0  0  0  0  0  0  0  0  0  0  0
  152.8915  142.7835  163.2729 H   0  0  0  0  0  0  0  0  0  0  0  0
  151.4353  144.5327  162.2653 H   0  0  0  0  0  0  0  0  0  0  0  0
  153.0874  144.6943  161.7233 H   0  0  0  0  0  0  0  0  0  0  0  0
  150.8160  143.3773  160.1786 H   0  0  0  0  0  0  0  0  0  0  0  0
  152.3031  145.9845  159.5994 H   0  0  0  0  0  0  0  0  0  0  0  0
  150.6768  145.8635  160.2636 H   0  0  0  0  0  0  0  0  0  0  0  0
  150.9977  145.3065  158.6308 H   0  0  0  0  0  0  0  0  0  0  0  0
  148.4634  142.5394  156.5341 H   0  0  0  0  0  0  0  0  0  0  0  0
  1  2  1  0  0  0  0
  1 23  1  0  0  0  0
  1 24  1  0  0  0  0
  1 25  1  0  0  0  0
  2  3  1  0  0  0  0
  2 26  1  0  0  0  0
  3  4  2  0  0  0  0
  3  5  1  0  0  0  0
  5 22  2  0  0  0  0
  5  6  1  0  0  0  0
  6  7  2  0  0  0  0
  6 27  1  0  0  0  0
  7  8  1  0  0  0  0
  7 28  1  0  0  0  0
  8  9  2  0  0  0  0
  8 10  1  0  0  0  0
 10 11  1  0  0  0  0
 10 22  1  0  0  0  0
 11 12  1  0  0  0  0
 11 29  1  0  0  0  0
 11 30  1  0  0  0  0
 12 13  2  0  0  0  0
 12 14  1  0  0  0  0
 14 15  1  0  0  0  0
 14 31  1  0  0  0  0
 15 20  1  0  0  0  0
 15 16  1  0  0  0  0
 15 32  1  0  0  0  0
 16 17  1  0  0  0  0
 16 33  1  0  0  0  0
 16 34  1  0  0  0  0
 17 18  1  0  0  0  0
 17 35  1  0  0  0  0
 17 36  1  0  0  0  0
 18 19  1  0  0  0  0
 18 37  1  0  0  0  0
 18 38  1  0  0  0  0
 19 20  1  0  0  0  0
 19 39  1  0  0  0  0
 19 40  1  0  0  0  0
 20 21  1  0  0  0  0
 20 41  1  0  0  0  0
 21 42  1  0  0  0  0
 21 43  1  0  0  0  0
 21 44  1  0  0  0  0
 22 45  1  0  0  0  0
M  END
> <s_m_source_file>
AV-unprocessed.smi

> <i_m_source_file_index>
1844

> <i_lp_mmshare_version>
43012

> <i_f3d_flags>
0

> <s_epik_input>
W0NIM11bTkhdQyg9TyljMVtjSF1bY0hdYyg9TyluKFtjSF0xKVtDSDJdQyg9TylbTkhdW0NAQEhdMltDSDJdW0NIMl1bQ0gyXVtDSDJdW0NASF0yW0NIM10=

> <s_epik_cmdline>
J2VwaWtfcHl0aG9uJywgJy1waCcsICc3LjAnLCAnLXRuJywgJzgnLCAnLW1hJywgJzIwMCcsICctbWV0YWxfYmluZGluZycsICctaW1hZScsICc8aW5maWxlLm1hZT4nLCAnLW9tYWUnLCAnPG91dGZpbGUubWFlPic=

> <r_lp_tautomer_probability>
1

> <r_epik_Ionization_Penalty>
3.66612e-07

> <r_epik_Ionization_Penalty_Charging>
5.18929e-08

> <r_epik_Ionization_Penalty_Neutral>
3.14719e-07

> <r_epik_State_Penalty>
-0

> <r_epik_Charging_Adjusted_Penalty>
5.18929e-08

> <i_epik_Tot_Q>
0

> <i_epik_Tot_abs_Q>
0

> <r_epik_Metal_State_Penalty>
-0

> <b_epik_Metal_Only>
0

> <s_lp_Force_Field>
OPLS_2005

> <r_lp_Energy>
22.707

> <b_lp_Chiralities_Consistent>
1

> <s_lp_Variant>
AV-unprocessed.smi:1844-1

> <Gold.Version>
5.8.1

> <Gold.Id.Protein>
6NUR|6NUR_protein|mol2

> <Gold.PLP.Fitness>
46.0505

> <Gold.PLP.PLP>
-40.7196

> <Gold.PLP.part.hbond>
-1.0000

> <Gold.PLP.part.metal>
0.0000

> <Gold.PLP.part.buried>
-3.3799

> <Gold.PLP.part.nonpolar>
-35.8007

> <Gold.PLP.part.repulsive>
0.1987

> <Gold.PLP.ligand.clash>
0.0000

> <Gold.PLP.ligand.torsion>
0.2814

> <Gold.PLP.Chemscore.Hbond>
1.0000

> <Gold.PLP.Chemscore.CHOScore>
0.9623

> <Gold.PLP.Chemscore.Metal>
0.0000

> <Gold.Chemscore.Hbonds>
donor molecule, donor type, donor heavy atom, donor atom, acceptor molecule, acceptor atom, score
      P1  H  7989  7998       L1     9  1.00
      L1  C    22    45       P1  8028  0.98

> <Gold.PLP.Chemscore.Internal.Correction>
0.0066

> <Gold.Rescore>
     Score         DG    S(hbond)    S(metal)    S(lipo)     H(rot)  DE(clash)    DE(int)     intcor
     15.04     -16.33       0.85        0.00     101.03       1.49       0.10       1.19       ----

> <Gold.Chemscore.Fitness>
15.0370

> <Gold.Chemscore.DG>
-16.3294

> <Gold.Chemscore.ZeroCoef>
-5.4800

> <Gold.Chemscore.Hbond>
0.8531

> <Gold.Chemscore.Metal>
0.0000

> <Gold.Chemscore.Lipo>
101.0306

> <Gold.Chemscore.Internal_Hbond>
0.0000

> <Gold.Chemscore.DEClash>
0.1012

> <Gold.Chemscore.DEInternal>
1.1913

> <Gold.Chemscore.Rot>
1.4923

> <Gold.Chemscore.Internal.Correction>
   9.000000E+99

> <Gold.Chemscore.Hbonds>
donor molecule, donor type, donor heavy atom, donor atom, acceptor molecule, acceptor atom, score
      P1  H  7989  7998       L1     9  0.26

> <Gold.Chemscore.Hbond.Weighted>
-2.8493

> <Gold.Chemscore.Metal.Weighted>
-0.0000

> <Gold.Chemscore.Lipo.Weighted>
-11.8206

> <Gold.Chemscore.Internal_Hbond.Weighted>
0.0000

> <Gold.Chemscore.DEClash.Weighted>
0.1012

> <Gold.Chemscore.DEInternal.Weighted>
1.1913

> <Gold.Chemscore.Rot.Weighted>
3.8204

> <Gold.Chemscore.Internal.Correction.Weighted>
   9.000000E+99

> <Gold.Protein.RotatedTorsions>
[ 6907 6896 6895 6894 ] final  -52.81 input  -60.11 | X-H torsion
[ 7974 7965 7964 7962 ] final   38.04 input  175.53 | X-H torsion
[ 8008 7997 7996 7995 ] final  155.32 input   59.86 | X-H torsion
[ 10167 10162 10161 10158 ] final -107.97 input  -65.29 | X-H torsion
[ 10718 10713 10712 10709 ] final   33.76 input   66.30 | X-H torsion
[ 10763 10752 10751 10750 ] final  -30.58 input  -60.55 | X-H torsion
[ 11005 11000 10999 10996 ] final  133.51 input  -57.11 | X-H torsion

> <Gold.Protein.ActiveResidues>
 VAL166  LYS551  ARG553  GLY616  TRP617  ASP618  TYR619  PRO620  LYS621  CYS622 
 ASP623  PHE694  ASN695  SER759  ASP760  ASP761  ALA762  ILE779  LEU786  VAL792 
 PHE793  MET794  SER795  GLU796  ALA797  LYS798  CYS799  TRP800  GLU811  SER814 

> <Gold.Protein.RotatedAtoms>
  150.8484  134.7800  159.6988 H   0  0  0  0  0  0  0  0  0  0  0  0  # atno 6907 bound_to 6896
  152.4555  134.5298  159.9817 H   0  0  0  0  0  0  0  0  0  0  0  0  # atno 6908 bound_to 6896
  151.5423  133.3392  159.2973 H   0  0  0  0  0  0  0  0  0  0  0  0  # atno 6909 bound_to 6896
  146.1092  139.5821  142.9363 H   0  0  0  0  0  0  0  0  0  0  0  0  # atno 7974 bound_to 7965
  156.2484  140.1942  156.6783 H   0  0  0  0  0  0  0  0  0  0  0  0  # atno 8008 bound_to 7997
  154.6341  140.0592  156.9793 H   0  0  0  0  0  0  0  0  0  0  0  0  # atno 8009 bound_to 7997
  155.1665  140.3264  155.4403 H   0  0  0  0  0  0  0  0  0  0  0  0  # atno 8010 bound_to 7997
  140.1712  143.4041  152.1353 H   0  0  0  0  0  0  0  0  0  0  0  0  # atno 10167 bound_to 10162
  157.3019  130.7355  149.6672 H   0  0  0  0  0  0  0  0  0  0  0  0  # atno 10718 bound_to 10713
  153.7834  135.6903  153.4884 H   0  0  0  0  0  0  0  0  0  0  0  0  # atno 10763 bound_to 10752
  153.1797  135.4511  155.0010 H   0  0  0  0  0  0  0  0  0  0  0  0  # atno 10764 bound_to 10752
  154.8073  135.3362  154.7335 H   0  0  0  0  0  0  0  0  0  0  0  0  # atno 10765 bound_to 10752
  139.9856  134.9533  156.9735 H   0  0  0  0  0  0  0  0  0  0  0  0  # atno 11005 bound_to 11000
  145.5698  141.0395  143.2180 LP  0  0  0  0  0  0  0  0  0  0  0  0  # atno 17320 bound_to 7965
  144.7497  139.7226  143.7278 LP  0  0  0  0  0  0  0  0  0  0  0  0  # atno 17321 bound_to 7965
  139.5337  144.7187  151.4967 LP  0  0  0  0  0  0  0  0  0  0  0  0  # atno 17342 bound_to 10162
  140.6581  143.8557  150.6857 LP  0  0  0  0  0  0  0  0  0  0  0  0  # atno 17343 bound_to 10162
  155.9672  130.4277  150.4756 LP  0  0  0  0  0  0  0  0  0  0  0  0  # atno 17370 bound_to 10713
  157.2739  131.0593  151.2242 LP  0  0  0  0  0  0  0  0  0  0  0  0  # atno 17371 bound_to 10713
  140.5009  134.1098  155.7250 LP  0  0  0  0  0  0  0  0  0  0  0  0  # atno 17394 bound_to 11000
  141.1521  133.8949  157.2070 LP  0  0  0  0  0  0  0  0  0  0  0  0  # atno 17395 bound_to 11000

$$$$
