AV-unprocessed.smi:1047|AV-procd|sdf|4579|dock2
  -GOLD-   22720 3 43D 1   1.00000     0.00000
 Structure written by MMmdl.
 56 58  0  0  0  0  0  0  0  0  2 V2000
  145.4153  134.7800  150.5675 C   0  0  0  0  0  0  0  0  0  0  0  0
  145.3721  136.1886  151.1768 C   0  0  0  0  0  0  0  0  0  0  0  0
  146.2547  136.3242  152.3624 N   0  3  2  0  0  0  0  0  0  0  0  0
  146.0293  135.2808  153.3928 C   0  0  0  0  0  0  0  0  0  0  0  0
  146.9923  135.4758  154.5754 C   0  0  0  0  0  0  0  0  0  0  0  0
  146.8371  136.7861  155.1055 O   0  0  0  0  0  0  0  0  0  0  0  0
  147.1608  137.7937  154.1524 C   0  0  2  0  0  0  0  0  0  0  0  0
  147.0596  139.1613  154.8445 C   0  0  0  0  0  0  0  0  0  0  0  0
  147.2640  140.2459  153.8900 N   0  0  0  0  0  0  0  0  0  0  0  0
  148.1299  141.3093  154.3917 C   0  0  0  0  0  0  0  0  0  0  0  0
  149.4505  140.7345  154.9402 C   0  0  1  0  0  0  0  0  0  0  0  0
  150.1979  140.2234  153.8562 O   0  0  0  0  0  0  0  0  0  0  0  0
  150.3343  141.7778  155.6515 C   0  0  0  0  0  0  0  0  0  0  0  0
  151.1594  141.1979  156.6957 N   0  0  0  0  0  0  0  0  0  0  0  0
  151.7899  140.0083  156.6606 C   0  0  0  0  0  0  0  0  0  0  0  0
  152.5002  139.6637  157.7307 N   0  0  0  0  0  0  0  0  0  0  0  0
  152.3143  140.7612  158.5540 C   0  0  0  0  0  0  0  0  0  0  0  0
  152.8075  141.0284  159.8497 C   0  0  0  0  0  0  0  0  0  0  0  0
  152.4849  142.2333  160.5138 C   0  0  0  0  0  0  0  0  0  0  0  0
  153.0372  142.4798  161.9068 C   0  0  0  0  0  0  0  0  0  0  0  0
  151.6571  143.1943  159.8797 C   0  0  0  0  0  0  0  0  0  0  0  0
  151.2997  144.4974  160.5723 C   0  0  0  0  0  0  0  0  0  0  0  0
  151.1539  142.9422  158.5863 C   0  0  0  0  0  0  0  0  0  0  0  0
  151.4821  141.7397  157.9355 C   0  0  0  0  0  0  0  0  0  0  0  0
  146.1798  137.6746  152.9700 C   0  0  0  0  0  0  0  0  0  0  0  0
  144.8303  134.7433  149.6483 H   0  0  0  0  0  0  0  0  0  0  0  0
  145.0033  134.0292  151.2411 H   0  0  0  0  0  0  0  0  0  0  0  0
  146.4362  134.4882  150.3194 H   0  0  0  0  0  0  0  0  0  0  0  0
  145.6967  136.8933  150.4100 H   0  0  0  0  0  0  0  0  0  0  0  0
  144.3490  136.4645  151.4369 H   0  0  0  0  0  0  0  0  0  0  0  0
  144.9972  135.3291  153.7435 H   0  0  0  0  0  0  0  0  0  0  0  0
  146.1782  134.2876  152.9700 H   0  0  0  0  0  0  0  0  0  0  0  0
  146.7756  134.7502  155.3595 H   0  0  0  0  0  0  0  0  0  0  0  0
  148.0270  135.3132  154.2689 H   0  0  0  0  0  0  0  0  0  0  0  0
  148.1805  137.6485  153.7895 H   0  0  0  0  0  0  0  0  0  0  0  0
  146.0727  139.2642  155.2973 H   0  0  0  0  0  0  0  0  0  0  0  0
  147.7845  139.2234  155.6571 H   0  0  0  0  0  0  0  0  0  0  0  0
  147.6488  139.8726  153.0278 H   0  0  0  0  0  0  0  0  0  0  0  0
  148.3294  142.0473  153.6134 H   0  0  0  0  0  0  0  0  0  0  0  0
  147.6035  141.8371  155.1869 H   0  0  0  0  0  0  0  0  0  0  0  0
  149.2410  139.9181  155.6333 H   0  0  0  0  0  0  0  0  0  0  0  0
  149.6966  140.3471  153.0646 H   0  0  0  0  0  0  0  0  0  0  0  0
  150.9941  142.2661  154.9326 H   0  0  0  0  0  0  0  0  0  0  0  0
  149.7179  142.5639  156.0892 H   0  0  0  0  0  0  0  0  0  0  0  0
  151.7202  139.3573  155.8012 H   0  0  0  0  0  0  0  0  0  0  0  0
  153.4389  140.2967  160.3318 H   0  0  0  0  0  0  0  0  0  0  0  0
  153.7027  143.3432  161.9051 H   0  0  0  0  0  0  0  0  0  0  0  0
  153.6023  141.6206  162.2694 H   0  0  0  0  0  0  0  0  0  0  0  0
  152.2278  142.6675  162.6125 H   0  0  0  0  0  0  0  0  0  0  0  0
  150.7061  145.1426  159.9238 H   0  0  0  0  0  0  0  0  0  0  0  0
  152.2015  145.0433  160.8502 H   0  0  0  0  0  0  0  0  0  0  0  0
  150.7192  144.3032  161.4744 H   0  0  0  0  0  0  0  0  0  0  0  0
  150.5205  143.6653  158.0943 H   0  0  0  0  0  0  0  0  0  0  0  0
  146.4207  138.4273  152.2181 H   0  0  0  0  0  0  0  0  0  0  0  0
  145.1589  137.8691  153.3039 H   0  0  0  0  0  0  0  0  0  0  0  0
  147.2028  136.2146  152.0314 H   0  0  0  0  0  0  0  0  0  0  0  0
  1  2  1  0  0  0  0
  1 26  1  0  0  0  0
  1 27  1  0  0  0  0
  1 28  1  0  0  0  0
  2  3  1  0  0  0  0
  2 29  1  0  0  0  0
  2 30  1  0  0  0  0
  3 25  1  0  0  0  0
  3  4  1  0  0  0  0
  3 56  1  0  0  0  0
  4  5  1  0  0  0  0
  4 31  1  0  0  0  0
  4 32  1  0  0  0  0
  5  6  1  0  0  0  0
  5 33  1  0  0  0  0
  5 34  1  0  0  0  0
  6  7  1  0  0  0  0
  7  8  1  0  0  0  0
  7 25  1  0  0  0  0
  7 35  1  0  0  0  0
  8  9  1  0  0  0  0
  8 36  1  0  0  0  0
  8 37  1  0  0  0  0
  9 10  1  0  0  0  0
  9 38  1  0  0  0  0
 10 11  1  0  0  0  0
 10 39  1  0  0  0  0
 10 40  1  0  0  0  0
 11 12  1  0  0  0  0
 11 13  1  0  0  0  0
 11 41  1  0  0  0  0
 12 42  1  0  0  0  0
 13 14  1  0  0  0  0
 13 43  1  0  0  0  0
 13 44  1  0  0  0  0
 14 24  1  0  0  0  0
 14 15  1  0  0  0  0
 15 16  2  0  0  0  0
 15 45  1  0  0  0  0
 16 17  1  0  0  0  0
 17 24  2  0  0  0  0
 17 18  1  0  0  0  0
 18 19  2  0  0  0  0
 18 46  1  0  0  0  0
 19 20  1  0  0  0  0
 19 21  1  0  0  0  0
 20 47  1  0  0  0  0
 20 48  1  0  0  0  0
 20 49  1  0  0  0  0
 21 22  1  0  0  0  0
 21 23  2  0  0  0  0
 22 50  1  0  0  0  0
 22 51  1  0  0  0  0
 22 52  1  0  0  0  0
 23 24  1  0  0  0  0
 23 53  1  0  0  0  0
 25 54  1  0  0  0  0
 25 55  1  0  0  0  0
M  CHG  1   3   1
M  END
> <s_m_source_file>
AV-unprocessed.smi

> <i_m_source_file_index>
1047

> <i_lp_mmshare_version>
43012

> <i_f3d_flags>
0

> <s_epik_input>
W0NIM11bQ0gyXU4xW0NIMl1bQ0gyXU9bQ0BIXShbQ0gyXTEpW0NIMl1bTkhdW0NIMl1bQ0BIXShbT0hdKVtDSDJdbihbY0hdbjIpYyhjMjMpW2NIXWMoW0NIM10pYyhbY0hdMylbQ0gzXQ==

> <s_epik_cmdline>
J2VwaWtfcHl0aG9uJywgJy1waCcsICc3LjAnLCAnLXRuJywgJzgnLCAnLW1hJywgJzIwMCcsICctbWV0YWxfYmluZGluZycsICctaW1hZScsICc8aW5maWxlLm1hZT4nLCAnLW9tYWUnLCAnPG91dGZpbGUubWFlPic=

> <r_epik_Ionization_Penalty>
1.19246

> <r_epik_Ionization_Penalty_Charging>
0.210041

> <r_epik_Ionization_Penalty_Neutral>
0.982415

> <r_epik_State_Penalty>
1.57595

> <r_epik_Charging_Adjusted_Penalty>
1.78599

> <i_epik_Tot_Q>
1

> <i_epik_Tot_abs_Q>
1

> <r_epik_Metal_State_Penalty>
1.46172

> <b_epik_Metal_Only>
0

> <s_lp_Force_Field>
OPLS_2005

> <r_lp_Energy>
30.8486

> <b_lp_Chiralities_Consistent>
1

> <s_lp_Variant>
AV-unprocessed.smi:1047-20

> <Gold.Version>
5.8.1

> <Gold.Id.Protein>
6NUR|6NUR_protein|mol2

> <Gold.PLP.Fitness>
59.5992

> <Gold.PLP.PLP>
-47.1476

> <Gold.PLP.part.hbond>
-3.8386

> <Gold.PLP.part.metal>
0.0000

> <Gold.PLP.part.buried>
-5.7632

> <Gold.PLP.part.nonpolar>
-36.7384

> <Gold.PLP.part.repulsive>
0.0714

> <Gold.PLP.ligand.clash>
0.0000

> <Gold.PLP.ligand.torsion>
1.0558

> <Gold.PLP.Chemscore.Hbond>
4.7440

> <Gold.PLP.Chemscore.CHOScore>
0.0000

> <Gold.PLP.Chemscore.Metal>
0.0000

> <Gold.Chemscore.Hbonds>
donor molecule, donor type, donor heavy atom, donor atom, acceptor molecule, acceptor atom, score
      L1  H     3    56       P1  7948  2.00
      L1  H    12    42       P1  7957  0.91
      P1  H  7989  7998       L1    12  0.83
      P1  H  7997  8009       L1    16  0.54

> <Gold.PLP.Chemscore.Internal.Correction>
0.3312

> <Gold.Rescore>
     Score         DG    S(hbond)    S(metal)    S(lipo)     H(rot)  DE(clash)    DE(int)     intcor
     22.45     -23.69       3.13        0.00     123.72       2.62       0.21       1.04       ----

> <Gold.Chemscore.Fitness>
22.4475

> <Gold.Chemscore.DG>
-23.6934

> <Gold.Chemscore.ZeroCoef>
-5.4800

> <Gold.Chemscore.Hbond>
3.1280

> <Gold.Chemscore.Metal>
0.0000

> <Gold.Chemscore.Lipo>
123.7221

> <Gold.Chemscore.Internal_Hbond>
0.0000

> <Gold.Chemscore.DEClash>
0.2076

> <Gold.Chemscore.DEInternal>
1.0383

> <Gold.Chemscore.Rot>
2.6209

> <Gold.Chemscore.Internal.Correction>
   9.000000E+99

> <Gold.Chemscore.Hbonds>
donor molecule, donor type, donor heavy atom, donor atom, acceptor molecule, acceptor atom, score
      L1  H     3    56       P1  7948  1.00
      L1  H    12    42       P1  7957  0.89
      P1  H  7989  7998       L1    12  0.28
      P1  H  7997  8009       L1    16  0.04

> <Gold.Chemscore.Hbond.Weighted>
-10.4475

> <Gold.Chemscore.Metal.Weighted>
-0.0000

> <Gold.Chemscore.Lipo.Weighted>
-14.4755

> <Gold.Chemscore.Internal_Hbond.Weighted>
0.0000

> <Gold.Chemscore.DEClash.Weighted>
0.2076

> <Gold.Chemscore.DEInternal.Weighted>
1.0383

> <Gold.Chemscore.Rot.Weighted>
6.7096

> <Gold.Chemscore.Internal.Correction.Weighted>
   9.000000E+99

> <Gold.Protein.RotatedTorsions>
[ 6907 6896 6895 6894 ] final  171.92 input  -60.11 | X-H torsion
[ 7974 7965 7964 7962 ] final  135.99 input  175.53 | X-H torsion
[ 8008 7997 7996 7995 ] final  157.72 input   59.86 | X-H torsion
[ 10167 10162 10161 10158 ] final  -93.58 input  -65.29 | X-H torsion
[ 10718 10713 10712 10709 ] final  156.90 input   66.30 | X-H torsion
[ 10763 10752 10751 10750 ] final  105.77 input  -60.55 | X-H torsion
[ 11005 11000 10999 10996 ] final  174.00 input  -57.11 | X-H torsion

> <Gold.Protein.ActiveResidues>
 VAL166  LYS551  ARG553  GLY616  TRP617  ASP618  TYR619  PRO620  LYS621  CYS622 
 ASP623  PHE694  ASN695  SER759  ASP760  ASP761  ALA762  ILE779  LEU786  VAL792 
 PHE793  MET794  SER795  GLU796  ALA797  LYS798  CYS799  TRP800  GLU811  SER814 

> <Gold.Protein.RotatedAtoms>
  151.7925  133.3361  159.3502 H   0  0  0  0  0  0  0  0  0  0  0  0  # atno 6907 bound_to 6896
  150.7387  134.5829  159.5957 H   0  0  0  0  0  0  0  0  0  0  0  0  # atno 6908 bound_to 6896
  152.3200  134.7393  160.0367 H   0  0  0  0  0  0  0  0  0  0  0  0  # atno 6909 bound_to 6896
  144.9608  139.4712  143.5480 H   0  0  0  0  0  0  0  0  0  0  0  0  # atno 7974 bound_to 7965
  156.2347  140.1878  156.7151 H   0  0  0  0  0  0  0  0  0  0  0  0  # atno 8008 bound_to 7997
  154.6085  140.0625  156.9490 H   0  0  0  0  0  0  0  0  0  0  0  0  # atno 8009 bound_to 7997
  155.2056  140.3296  155.4339 H   0  0  0  0  0  0  0  0  0  0  0  0  # atno 8010 bound_to 7997
  140.3232  143.3037  152.0023 H   0  0  0  0  0  0  0  0  0  0  0  0  # atno 10167 bound_to 10162
  157.1987  131.0671  151.2038 H   0  0  0  0  0  0  0  0  0  0  0  0  # atno 10718 bound_to 10713
  153.3839  135.3899  155.1876 H   0  0  0  0  0  0  0  0  0  0  0  0  # atno 10763 bound_to 10752
  154.8711  135.3732  154.4823 H   0  0  0  0  0  0  0  0  0  0  0  0  # atno 10764 bound_to 10752
  153.5302  135.7086  153.5748 H   0  0  0  0  0  0  0  0  0  0  0  0  # atno 10765 bound_to 10752
  140.3466  134.7231  157.4239 H   0  0  0  0  0  0  0  0  0  0  0  0  # atno 11005 bound_to 11000
  146.3352  139.8757  142.8832 LP  0  0  0  0  0  0  0  0  0  0  0  0  # atno 17320 bound_to 7965
  145.2702  141.0106  143.3776 LP  0  0  0  0  0  0  0  0  0  0  0  0  # atno 17321 bound_to 7965
  139.4870  144.6294  151.7100 LP  0  0  0  0  0  0  0  0  0  0  0  0  # atno 17342 bound_to 10162
  140.5464  144.0496  150.6109 LP  0  0  0  0  0  0  0  0  0  0  0  0  # atno 17343 bound_to 10162
  157.3789  130.7220  149.6616 LP  0  0  0  0  0  0  0  0  0  0  0  0  # atno 17370 bound_to 10713
  155.9703  130.4178  150.4297 LP  0  0  0  0  0  0  0  0  0  0  0  0  # atno 17371 bound_to 10713
  140.0737  134.5827  155.8614 LP  0  0  0  0  0  0  0  0  0  0  0  0  # atno 17394 bound_to 11000
  141.2024  133.6624  156.6003 LP  0  0  0  0  0  0  0  0  0  0  0  0  # atno 17395 bound_to 11000

$$$$
