AV-unprocessed.smi:1762|AV-procd|sdf|7104|dock8
  -GOLD-   22720 8323D 1   1.00000     0.00000
 Structure written by MMmdl.
 52 53  0  0  0  0  0  0  0  0  1 V2000
  152.9866  143.7296  158.9456 C   0  0  0  0  0  0  0  0  0  0  0  0
  152.1964  142.6136  159.6516 C   0  0  1  0  0  0  0  0  0  0  0  0
  151.8474  141.4333  158.7238 C   0  0  0  0  0  0  0  0  0  0  0  0
  153.0023  140.5727  158.4111 N   0  0  0  0  0  0  0  0  0  0  0  0
  152.6892  139.4364  157.4994 C   0  0  1  0  0  0  0  0  0  0  0  0
  151.6775  138.4330  158.1026 C   0  0  0  0  0  0  0  0  0  0  0  0
  151.1653  138.6482  159.2020 O   0  0  0  0  0  0  0  0  0  0  0  0
  151.4140  137.3347  157.3768 N   0  0  0  0  0  0  0  0  0  0  0  0
  150.4900  136.2763  157.7649 C   0  0  0  0  0  0  0  0  0  0  0  0
  149.8424  135.6138  156.5374 C   0  0  0  0  0  0  0  0  0  0  0  0
  150.4712  134.2727  156.2101 C   0  0  0  0  0  0  0  0  0  0  0  0
  150.1039  133.5711  155.0420 C   0  0  0  0  0  0  0  0  0  0  0  0
  150.7109  132.3260  154.7883 C   0  0  0  0  0  0  0  0  0  0  0  0
  151.6561  131.8324  155.7083 C   0  0  0  0  0  0  0  0  0  0  0  0
  151.9532  132.6092  156.8460 C   0  0  0  0  0  0  0  0  0  0  0  0
  151.3763  133.8040  157.0990 N   0  0  0  0  0  0  0  0  0  0  0  0
  152.2568  139.8474  156.0513 C   0  0  0  0  0  0  0  0  0  0  0  0
  150.7931  140.3200  155.9486 C   0  0  0  0  0  0  0  0  0  0  0  0
  152.5453  138.7652  154.9907 C   0  0  0  0  0  0  0  0  0  0  0  0
  153.6166  140.1475  159.6735 C   0  0  0  0  0  0  0  0  0  0  0  0
  154.0062  141.3345  160.5736 C   0  0  2  0  0  0  0  0  0  0  0  0
  154.5627  140.8780  161.9268 C   0  0  0  0  0  0  0  0  0  0  0  0
  152.8626  142.1451  160.8215 O   0  0  0  0  0  0  0  0  0  0  0  0
  152.4040  144.1593  158.1303 H   0  0  0  0  0  0  0  0  0  0  0  0
  153.9202  143.3650  158.5177 H   0  0  0  0  0  0  0  0  0  0  0  0
  153.2271  144.5353  159.6392 H   0  0  0  0  0  0  0  0  0  0  0  0
  151.2611  143.0577  159.9935 H   0  0  0  0  0  0  0  0  0  0  0  0
  151.0689  140.8320  159.1967 H   0  0  0  0  0  0  0  0  0  0  0  0
  151.4003  141.8571  157.8254 H   0  0  0  0  0  0  0  0  0  0  0  0
  153.6180  138.8746  157.3781 H   0  0  0  0  0  0  0  0  0  0  0  0
  151.8821  137.2301  156.4883 H   0  0  0  0  0  0  0  0  0  0  0  0
  151.0486  135.5356  158.3375 H   0  0  0  0  0  0  0  0  0  0  0  0
  149.7244  136.6736  158.4335 H   0  0  0  0  0  0  0  0  0  0  0  0
  148.7736  135.4728  156.7042 H   0  0  0  0  0  0  0  0  0  0  0  0
  149.9315  136.2686  155.6692 H   0  0  0  0  0  0  0  0  0  0  0  0
  149.3731  133.9748  154.3566 H   0  0  0  0  0  0  0  0  0  0  0  0
  150.4557  131.7599  153.9047 H   0  0  0  0  0  0  0  0  0  0  0  0
  152.1417  130.8816  155.5462 H   0  0  0  0  0  0  0  0  0  0  0  0
  152.6731  132.2616  157.5721 H   0  0  0  0  0  0  0  0  0  0  0  0
  152.8821  140.6835  155.7432 H   0  0  0  0  0  0  0  0  0  0  0  0
  150.0893  139.5126  156.1486 H   0  0  0  0  0  0  0  0  0  0  0  0
  150.5777  140.6978  154.9489 H   0  0  0  0  0  0  0  0  0  0  0  0
  150.5819  141.1273  156.6499 H   0  0  0  0  0  0  0  0  0  0  0  0
  151.8965  137.8959  155.1015 H   0  0  0  0  0  0  0  0  0  0  0  0
  153.5788  138.4226  155.0485 H   0  0  0  0  0  0  0  0  0  0  0  0
  152.3881  139.1571  153.9855 H   0  0  0  0  0  0  0  0  0  0  0  0
  152.9386  139.4821  160.2110 H   0  0  0  0  0  0  0  0  0  0  0  0
  154.5293  139.5846  159.4907 H   0  0  0  0  0  0  0  0  0  0  0  0
  154.7720  141.9300  160.0755 H   0  0  0  0  0  0  0  0  0  0  0  0
  155.4530  140.2620  161.7979 H   0  0  0  0  0  0  0  0  0  0  0  0
  153.8271  140.2929  162.4795 H   0  0  0  0  0  0  0  0  0  0  0  0
  154.8378  141.7347  162.5426 H   0  0  0  0  0  0  0  0  0  0  0  0
  1  2  1  0  0  0  0
  1 24  1  0  0  0  0
  1 25  1  0  0  0  0
  1 26  1  0  0  0  0
  2 23  1  0  0  0  0
  2  3  1  0  0  0  0
  2 27  1  0  0  0  0
  3  4  1  0  0  0  0
  3 28  1  0  0  0  0
  3 29  1  0  0  0  0
  4  5  1  0  0  0  0
  4 20  1  0  0  0  0
  5  6  1  0  0  0  0
  5 17  1  0  0  0  0
  5 30  1  0  0  0  0
  6  7  2  0  0  0  0
  6  8  1  0  0  0  0
  8  9  1  0  0  0  0
  8 31  1  0  0  0  0
  9 10  1  0  0  0  0
  9 32  1  0  0  0  0
  9 33  1  0  0  0  0
 10 11  1  0  0  0  0
 10 34  1  0  0  0  0
 10 35  1  0  0  0  0
 11 16  1  0  0  0  0
 11 12  2  0  0  0  0
 12 13  1  0  0  0  0
 12 36  1  0  0  0  0
 13 14  2  0  0  0  0
 13 37  1  0  0  0  0
 14 15  1  0  0  0  0
 14 38  1  0  0  0  0
 15 16  2  0  0  0  0
 15 39  1  0  0  0  0
 17 18  1  0  0  0  0
 17 19  1  0  0  0  0
 17 40  1  0  0  0  0
 18 41  1  0  0  0  0
 18 42  1  0  0  0  0
 18 43  1  0  0  0  0
 19 44  1  0  0  0  0
 19 45  1  0  0  0  0
 19 46  1  0  0  0  0
 20 21  1  0  0  0  0
 20 47  1  0  0  0  0
 20 48  1  0  0  0  0
 21 22  1  0  0  0  0
 21 23  1  0  0  0  0
 21 49  1  0  0  0  0
 22 50  1  0  0  0  0
 22 51  1  0  0  0  0
 22 52  1  0  0  0  0
M  END
> <s_m_source_file>
AV-unprocessed.smi

> <i_m_source_file_index>
1762

> <i_lp_mmshare_version>
43012

> <i_f3d_flags>
0

> <s_epik_input>
W0NIM11bQ0BASF0xW0NIMl1OKFtDSDJdW0NASF0oTzEpW0NIM10pW0NAQEhdKFtDSF0oW0NIM10pW0NIM10pQyg9TylbTkhdW0NIMl1bQ0gyXWMyW2NIXVtjSF1bY0hdW2NIXW4y

> <s_epik_cmdline>
J2VwaWtfcHl0aG9uJywgJy1waCcsICc3LjAnLCAnLXRuJywgJzgnLCAnLW1hJywgJzIwMCcsICctbWV0YWxfYmluZGluZycsICctaW1hZScsICc8aW5maWxlLm1hZT4nLCAnLW9tYWUnLCAnPG91dGZpbGUubWFlPic=

> <r_epik_Ionization_Penalty>
0.0399736

> <r_epik_Ionization_Penalty_Charging>
0

> <r_epik_Ionization_Penalty_Neutral>
0.0399736

> <r_epik_State_Penalty>
0.0317634

> <r_epik_Charging_Adjusted_Penalty>
0.0317634

> <i_epik_Tot_Q>
0

> <i_epik_Tot_abs_Q>
0

> <r_epik_Metal_State_Penalty>
0.0307795

> <b_epik_Metal_Only>
0

> <s_lp_Force_Field>
OPLS_2005

> <r_lp_Energy>
30.2117

> <b_lp_Chiralities_Consistent>
1

> <s_lp_Variant>
AV-unprocessed.smi:1762-6

> <Gold.Version>
5.8.1

> <Gold.Id.Protein>
6NUR|6NUR_protein|mol2

> <Gold.PLP.Fitness>
40.6112

> <Gold.PLP.PLP>
-41.1317

> <Gold.PLP.part.hbond>
-2.2504

> <Gold.PLP.part.metal>
0.0000

> <Gold.PLP.part.buried>
-4.3453

> <Gold.PLP.part.nonpolar>
-34.6595

> <Gold.PLP.part.repulsive>
0.0751

> <Gold.PLP.ligand.clash>
0.0000

> <Gold.PLP.ligand.torsion>
0.9369

> <Gold.PLP.Chemscore.Hbond>
0.3377

> <Gold.PLP.Chemscore.CHOScore>
0.0000

> <Gold.PLP.Chemscore.Metal>
0.0000

> <Gold.Chemscore.Hbonds>
donor molecule, donor type, donor heavy atom, donor atom, acceptor molecule, acceptor atom, score
      P1  H  6896  6909       L1    16  0.23

> <Gold.PLP.Chemscore.Internal.Correction>
0.3403

> <Gold.Rescore>
     Score         DG    S(hbond)    S(metal)    S(lipo)     H(rot)  DE(clash)    DE(int)     intcor
     12.67     -15.38       0.07        0.00     117.70       1.60       0.08       2.64       ----

> <Gold.Chemscore.Fitness>
12.6674

> <Gold.Chemscore.DG>
-15.3830

> <Gold.Chemscore.ZeroCoef>
-5.4800

> <Gold.Chemscore.Hbond>
0.0677

> <Gold.Chemscore.Metal>
0.0000

> <Gold.Chemscore.Lipo>
117.7018

> <Gold.Chemscore.Internal_Hbond>
0.0000

> <Gold.Chemscore.DEClash>
0.0757

> <Gold.Chemscore.DEInternal>
2.6399

> <Gold.Chemscore.Rot>
1.5993

> <Gold.Chemscore.Internal.Correction>
   9.000000E+99

> <Gold.Chemscore.Hbonds>
donor molecule, donor type, donor heavy atom, donor atom, acceptor molecule, acceptor atom, score
      P1  H  6896  6909       L1    16  0.11

> <Gold.Chemscore.Hbond.Weighted>
-0.2260

> <Gold.Chemscore.Metal.Weighted>
-0.0000

> <Gold.Chemscore.Lipo.Weighted>
-13.7711

> <Gold.Chemscore.Internal_Hbond.Weighted>
0.0000

> <Gold.Chemscore.DEClash.Weighted>
0.0757

> <Gold.Chemscore.DEInternal.Weighted>
2.6399

> <Gold.Chemscore.Rot.Weighted>
4.0941

> <Gold.Chemscore.Internal.Correction.Weighted>
   9.000000E+99

> <Gold.Protein.RotatedTorsions>
[ 6907 6896 6895 6894 ] final   -3.77 input  -60.11 | X-H torsion
[ 7974 7965 7964 7962 ] final  -30.45 input  175.53 | X-H torsion
[ 8008 7997 7996 7995 ] final  -77.40 input   59.86 | X-H torsion
[ 10167 10162 10161 10158 ] final  178.94 input  -65.29 | X-H torsion
[ 10718 10713 10712 10709 ] final   76.33 input   66.30 | X-H torsion
[ 10763 10752 10751 10750 ] final   75.46 input  -60.55 | X-H torsion
[ 11005 11000 10999 10996 ] final   98.34 input  -57.11 | X-H torsion

> <Gold.Protein.ActiveResidues>
 VAL166  LYS551  ARG553  GLY616  TRP617  ASP618  TYR619  PRO620  LYS621  CYS622 
 ASP623  PHE694  ASN695  SER759  ASP760  ASP761  ALA762  ILE779  LEU786  VAL792 
 PHE793  MET794  SER795  GLU796  ALA797  LYS798  CYS799  TRP800  GLU811  SER814 

> <Gold.Protein.RotatedAtoms>
  151.5084  135.1064  159.9847 H   0  0  0  0  0  0  0  0  0  0  0  0  # atno 6907 bound_to 6896
  152.4672  133.7945  159.6930 H   0  0  0  0  0  0  0  0  0  0  0  0  # atno 6908 bound_to 6896
  150.8662  133.7508  159.3001 H   0  0  0  0  0  0  0  0  0  0  0  0  # atno 6909 bound_to 6896
  146.1142  140.5541  142.8764 H   0  0  0  0  0  0  0  0  0  0  0  0  # atno 7974 bound_to 7965
  154.5593  140.0711  156.8793 H   0  0  0  0  0  0  0  0  0  0  0  0  # atno 8008 bound_to 7997
  155.2842  140.3374  155.4238 H   0  0  0  0  0  0  0  0  0  0  0  0  # atno 8009 bound_to 7997
  156.2028  140.1728  156.7848 H   0  0  0  0  0  0  0  0  0  0  0  0  # atno 8010 bound_to 7997
  139.5315  144.2620  152.0699 H   0  0  0  0  0  0  0  0  0  0  0  0  # atno 10167 bound_to 10162
  157.6669  130.9769  150.1481 H   0  0  0  0  0  0  0  0  0  0  0  0  # atno 10718 bound_to 10713
  153.0656  135.4988  154.8192 H   0  0  0  0  0  0  0  0  0  0  0  0  # atno 10763 bound_to 10752
  154.6948  135.2991  154.9429 H   0  0  0  0  0  0  0  0  0  0  0  0  # atno 10764 bound_to 10752
  154.0172  135.6746  153.4822 H   0  0  0  0  0  0  0  0  0  0  0  0  # atno 10765 bound_to 10752
  139.8773  134.9044  156.4441 H   0  0  0  0  0  0  0  0  0  0  0  0  # atno 11005 bound_to 11000
  144.7538  140.5257  143.6783 LP  0  0  0  0  0  0  0  0  0  0  0  0  # atno 17320 bound_to 7965
  145.5601  139.1479  143.3346 LP  0  0  0  0  0  0  0  0  0  0  0  0  # atno 17321 bound_to 7965
  140.2084  144.4587  150.6397 LP  0  0  0  0  0  0  0  0  0  0  0  0  # atno 17342 bound_to 10162
  140.6496  143.2221  151.6107 LP  0  0  0  0  0  0  0  0  0  0  0  0  # atno 17343 bound_to 10162
  156.2287  130.3680  149.8470 LP  0  0  0  0  0  0  0  0  0  0  0  0  # atno 17370 bound_to 10713
  156.6303  130.8663  151.3494 LP  0  0  0  0  0  0  0  0  0  0  0  0  # atno 17371 bound_to 10713
  140.8978  133.7801  155.9646 LP  0  0  0  0  0  0  0  0  0  0  0  0  # atno 17394 bound_to 11000
  140.8683  134.2757  157.5202 LP  0  0  0  0  0  0  0  0  0  0  0  0  # atno 17395 bound_to 11000

$$$$
