AV-unprocessed.smi:389|AV-procd|sdf|2477|dock9
  -GOLD-   2262022413D 1   1.00000     0.00000
 Structure written by MMmdl.
 33 33  0  0  0  0  0  0  0  0  2 V2000
  144.0330  132.7318  149.0090 C   0  0  0  0  0  0  0  0  0  0  0  0
  144.4374  132.6330  150.4896 C   0  0  0  0  0  0  0  0  0  0  0  0
  144.1848  133.9702  151.2031 C   0  0  0  0  0  0  0  0  0  0  0  0
  145.9015  132.1842  150.6728 C   0  0  0  0  0  0  0  0  0  0  0  0
  146.1709  131.4536  152.0022 C   0  0  0  0  0  0  0  0  0  0  0  0
  147.5396  131.6576  152.4614 N   0  0  0  0  0  0  0  0  0  0  0  0
  147.8917  132.3563  153.5513 C   0  0  0  0  0  0  0  0  0  0  0  0
  147.0762  132.9246  154.2793 O   0  0  0  0  0  0  0  0  0  0  0  0
  149.3977  132.4423  153.8363 C   0  0  0  0  0  0  0  0  0  0  0  0
  149.7202  133.2734  155.0074 N   0  0  0  0  0  0  0  0  0  0  0  0
  149.5141  134.6602  154.9001 C   0  0  0  0  0  0  0  0  0  0  0  0
  149.7761  135.4985  155.9208 C   0  0  0  0  0  0  0  0  0  0  0  0
  150.2874  134.9340  157.1637 C   0  0  0  0  0  0  0  0  0  0  0  0
  150.5373  135.6851  158.1045 O   0  0  0  0  0  0  0  0  0  0  0  0
  150.4653  133.5815  157.2205 N   0  5  0  0  0  0  0  0  0  0  0  0
  150.1907  132.7405  156.1753 C   0  0  0  0  0  0  0  0  0  0  0  0
  150.3541  131.5220  156.2494 O   0  0  0  0  0  0  0  0  0  0  0  0
  144.6716  133.4327  148.4704 H   0  0  0  0  0  0  0  0  0  0  0  0
  143.0037  133.0767  148.9064 H   0  0  0  0  0  0  0  0  0  0  0  0
  144.0971  131.7667  148.5073 H   0  0  0  0  0  0  0  0  0  0  0  0
  143.7954  131.8897  150.9640 H   0  0  0  0  0  0  0  0  0  0  0  0
  144.7959  134.7679  150.7794 H   0  0  0  0  0  0  0  0  0  0  0  0
  144.4185  133.9006  152.2658 H   0  0  0  0  0  0  0  0  0  0  0  0
  143.1401  134.2702  151.1179 H   0  0  0  0  0  0  0  0  0  0  0  0
  146.2000  131.5505  149.8364 H   0  0  0  0  0  0  0  0  0  0  0  0
  146.5431  133.0651  150.6245 H   0  0  0  0  0  0  0  0  0  0  0  0
  145.4681  131.7809  152.7703 H   0  0  0  0  0  0  0  0  0  0  0  0
  146.0253  130.3804  151.8832 H   0  0  0  0  0  0  0  0  0  0  0  0
  148.2734  131.2249  151.9192 H   0  0  0  0  0  0  0  0  0  0  0  0
  149.8028  131.4369  153.9656 H   0  0  0  0  0  0  0  0  0  0  0  0
  149.8898  132.8363  152.9461 H   0  0  0  0  0  0  0  0  0  0  0  0
  149.1264  134.9949  153.9492 H   0  0  0  0  0  0  0  0  0  0  0  0
  149.6083  136.5610  155.8235 H   0  0  0  0  0  0  0  0  0  0  0  0
  1  2  1  0  0  0  0
  1 18  1  0  0  0  0
  1 19  1  0  0  0  0
  1 20  1  0  0  0  0
  2  3  1  0  0  0  0
  2  4  1  0  0  0  0
  2 21  1  0  0  0  0
  3 22  1  0  0  0  0
  3 23  1  0  0  0  0
  3 24  1  0  0  0  0
  4  5  1  0  0  0  0
  4 25  1  0  0  0  0
  4 26  1  0  0  0  0
  5  6  1  0  0  0  0
  5 27  1  0  0  0  0
  5 28  1  0  0  0  0
  6  7  1  0  0  0  0
  6 29  1  0  0  0  0
  7  8  2  0  0  0  0
  7  9  1  0  0  0  0
  9 10  1  0  0  0  0
  9 30  1  0  0  0  0
  9 31  1  0  0  0  0
 10 16  1  0  0  0  0
 10 11  1  0  0  0  0
 11 12  2  0  0  0  0
 11 32  1  0  0  0  0
 12 13  1  0  0  0  0
 12 33  1  0  0  0  0
 13 14  2  0  0  0  0
 13 15  1  0  0  0  0
 15 16  1  0  0  0  0
 16 17  2  0  0  0  0
M  CHG  1  15  -1
M  END
> <s_m_source_file>
AV-unprocessed.smi

> <i_m_source_file_index>
389

> <i_lp_mmshare_version>
43012

> <i_f3d_flags>
0

> <s_epik_input>
W0NIM11bQ0hdKFtDSDNdKVtDSDJdW0NIMl1bTkhdQyg9TylbQ0gyXW4xW2NIXVtjSF1jKD1PKVtuSF1jMT1P

> <s_epik_cmdline>
J2VwaWtfcHl0aG9uJywgJy1waCcsICc3LjAnLCAnLXRuJywgJzgnLCAnLW1hJywgJzIwMCcsICctbWV0YWxfYmluZGluZycsICctaW1hZScsICc8aW5maWxlLm1hZT4nLCAnLW9tYWUnLCAnPG91dGZpbGUubWFlPic=

> <r_lp_tautomer_probability>
0.999537

> <r_epik_Ionization_Penalty>
3.12283

> <r_epik_Ionization_Penalty_Charging>
2.83566e-08

> <r_epik_Ionization_Penalty_Neutral>
3.12283

> <r_epik_State_Penalty>
3.12192

> <r_epik_Charging_Adjusted_Penalty>
3.12192

> <i_epik_Tot_Q>
-1

> <i_epik_Tot_abs_Q>
1

> <r_epik_Metal_State_Penalty>
0.463748

> <b_epik_Metal_Only>
1

> <s_lp_Force_Field>
OPLS_2005

> <r_lp_Energy>
12.9702

> <b_lp_Chiralities_Consistent>
1

> <s_lp_Variant>
AV-unprocessed.smi:389-2

> <Gold.Version>
5.8.1

> <Gold.Id.Protein>
6NUR|6NUR_protein|mol2

> <Gold.PLP.Fitness>
40.1197

> <Gold.PLP.PLP>
-30.4303

> <Gold.PLP.part.hbond>
-3.0000

> <Gold.PLP.part.metal>
0.0000

> <Gold.PLP.part.buried>
-4.5274

> <Gold.PLP.part.nonpolar>
-23.6618

> <Gold.PLP.part.repulsive>
0.0495

> <Gold.PLP.ligand.clash>
0.0000

> <Gold.PLP.ligand.torsion>
0.5918

> <Gold.PLP.Chemscore.Hbond>
2.6206

> <Gold.PLP.Chemscore.CHOScore>
1.0000

> <Gold.PLP.Chemscore.Metal>
0.0000

> <Gold.Chemscore.Hbonds>
donor molecule, donor type, donor heavy atom, donor atom, acceptor molecule, acceptor atom, score
      L1  H     6    29       P1 10747  0.99
      P1  H  6896  6908       L1    15  1.17
      P1  H  6896  6909       L1    14  0.37
      L1  C    11    32       P1  7948  1.00

> <Gold.PLP.Chemscore.Internal.Correction>
0.0110

> <Gold.Rescore>
     Score         DG    S(hbond)    S(metal)    S(lipo)     H(rot)  DE(clash)    DE(int)     intcor
     12.20     -12.77       1.73        0.00      60.71       2.18       0.01       0.56       ----

> <Gold.Chemscore.Fitness>
12.2024

> <Gold.Chemscore.DG>
-12.7737

> <Gold.Chemscore.ZeroCoef>
-5.4800

> <Gold.Chemscore.Hbond>
1.7304

> <Gold.Chemscore.Metal>
0.0000

> <Gold.Chemscore.Lipo>
60.7144

> <Gold.Chemscore.Internal_Hbond>
0.0000

> <Gold.Chemscore.DEClash>
0.0120

> <Gold.Chemscore.DEInternal>
0.5593

> <Gold.Chemscore.Rot>
2.1834

> <Gold.Chemscore.Internal.Correction>
   9.000000E+99

> <Gold.Chemscore.Hbonds>
donor molecule, donor type, donor heavy atom, donor atom, acceptor molecule, acceptor atom, score
      L1  H     6    29       P1 10747  0.93
      P1  H  6896  6908       L1    15  0.08
      P1  H  6896  6909       L1    14  0.37

> <Gold.Chemscore.Hbond.Weighted>
-5.7795

> <Gold.Chemscore.Metal.Weighted>
-0.0000

> <Gold.Chemscore.Lipo.Weighted>
-7.1036

> <Gold.Chemscore.Internal_Hbond.Weighted>
0.0000

> <Gold.Chemscore.DEClash.Weighted>
0.0120

> <Gold.Chemscore.DEInternal.Weighted>
0.5593

> <Gold.Chemscore.Rot.Weighted>
5.5895

> <Gold.Chemscore.Internal.Correction.Weighted>
   9.000000E+99

> <Gold.Protein.RotatedTorsions>
[ 6907 6896 6895 6894 ] final   95.62 input  -60.11 | X-H torsion
[ 7974 7965 7964 7962 ] final  -95.21 input  175.53 | X-H torsion
[ 8008 7997 7996 7995 ] final  142.12 input   59.86 | X-H torsion
[ 10167 10162 10161 10158 ] final   32.89 input  -65.29 | X-H torsion
[ 10718 10713 10712 10709 ] final -102.80 input   66.30 | X-H torsion
[ 10763 10752 10751 10750 ] final   -5.63 input  -60.55 | X-H torsion
[ 11005 11000 10999 10996 ] final  125.30 input  -57.11 | X-H torsion

> <Gold.Protein.ActiveResidues>
 VAL166  LYS551  ARG553  GLY616  TRP617  ASP618  TYR619  PRO620  LYS621  CYS622 
 ASP623  PHE694  ASN695  SER759  ASP760  ASP761  ALA762  ILE779  LEU786  VAL792 
 PHE793  MET794  SER795  GLU796  ALA797  LYS798  CYS799  TRP800  GLU811  SER814 

> <Gold.Protein.RotatedAtoms>
  152.5442  134.1012  159.8318 H   0  0  0  0  0  0  0  0  0  0  0  0  # atno 6907 bound_to 6896
  151.1090  133.5180  159.2614 H   0  0  0  0  0  0  0  0  0  0  0  0  # atno 6908 bound_to 6896
  151.1906  135.0410  159.8885 H   0  0  0  0  0  0  0  0  0  0  0  0  # atno 6909 bound_to 6896
  145.3631  140.9494  143.2489 H   0  0  0  0  0  0  0  0  0  0  0  0  # atno 7974 bound_to 7965
  156.2955  140.2297  156.4677 H   0  0  0  0  0  0  0  0  0  0  0  0  # atno 8008 bound_to 7997
  154.7963  140.0451  157.1260 H   0  0  0  0  0  0  0  0  0  0  0  0  # atno 8009 bound_to 7997
  154.9586  140.3051  155.5045 H   0  0  0  0  0  0  0  0  0  0  0  0  # atno 8010 bound_to 7997
  140.4458  144.1121  150.6182 H   0  0  0  0  0  0  0  0  0  0  0  0  # atno 10167 bound_to 10162
  156.0242  130.5437  150.7161 H   0  0  0  0  0  0  0  0  0  0  0  0  # atno 10718 bound_to 10713
  153.4011  135.7005  153.6425 H   0  0  0  0  0  0  0  0  0  0  0  0  # atno 10763 bound_to 10752
  153.4958  135.3663  155.2515 H   0  0  0  0  0  0  0  0  0  0  0  0  # atno 10764 bound_to 10752
  154.8710  135.4100  154.3346 H   0  0  0  0  0  0  0  0  0  0  0  0  # atno 10765 bound_to 10752
  139.9400  134.9636  156.8538 H   0  0  0  0  0  0  0  0  0  0  0  0  # atno 11005 bound_to 11000
  144.8632  139.5147  143.6802 LP  0  0  0  0  0  0  0  0  0  0  0  0  # atno 17320 bound_to 7965
  146.2918  139.7163  142.9155 LP  0  0  0  0  0  0  0  0  0  0  0  0  # atno 17321 bound_to 7965
  140.4266  143.2587  151.9649 LP  0  0  0  0  0  0  0  0  0  0  0  0  # atno 17342 bound_to 10162
  139.4792  144.5783  151.7975 LP  0  0  0  0  0  0  0  0  0  0  0  0  # atno 17343 bound_to 10162
  157.4788  131.0900  151.0560 LP  0  0  0  0  0  0  0  0  0  0  0  0  # atno 17370 bound_to 10713
  157.0999  130.5977  149.5458 LP  0  0  0  0  0  0  0  0  0  0  0  0  # atno 17371 bound_to 10713
  140.5977  134.0201  155.7524 LP  0  0  0  0  0  0  0  0  0  0  0  0  # atno 17394 bound_to 11000
  141.1030  133.9738  157.3046 LP  0  0  0  0  0  0  0  0  0  0  0  0  # atno 17395 bound_to 11000

$$$$
