AV-unprocessed.smi:2416|AV-procd|sdf|9547|dock8
  -GOLD-   2272013183D 1   1.00000     0.00000
 Structure written by MMmdl.
 40 41  0  0  0  0  0  0  0  0  1 V2000
  147.8294  141.2170  157.2520 C   0  0  0  0  0  0  0  0  0  0  0  0
  146.7935  140.5257  156.5659 O   0  0  0  0  0  0  0  0  0  0  0  0
  146.7096  140.7484  155.1573 C   0  0  2  0  0  0  0  0  0  0  0  0
  146.4504  142.2366  154.8752 C   0  0  0  0  0  0  0  0  0  0  0  0
  145.8068  139.7139  154.4609 C   0  0  0  0  0  0  0  0  0  0  0  0
  146.8835  139.6301  153.3812 C   0  0  2  0  0  0  0  0  0  0  0  0
  147.0485  138.2784  152.8571 N   0  0  0  0  0  0  0  0  0  0  0  0
  146.0377  137.4331  152.6127 C   0  0  0  0  0  0  0  0  0  0  0  0
  144.8559  137.7152  152.8123 O   0  0  0  0  0  0  0  0  0  0  0  0
  146.4884  136.2622  152.1286 N   0  0  0  0  0  0  0  0  0  0  0  0
  145.7329  135.1270  151.7304 C   0  0  0  0  0  0  0  0  0  0  0  0
  146.4994  134.0069  151.3357 C   0  0  0  0  0  0  0  0  0  0  0  0
  145.8453  132.8308  150.9192 C   0  0  0  0  0  0  0  0  0  0  0  0
  144.4395  132.8076  150.9079 C   0  0  0  0  0  0  0  0  0  0  0  0
  143.7666  131.7005  150.5137 F   0  0  0  0  0  0  0  0  0  0  0  0
  143.7505  133.9643  151.3166 C   0  0  0  0  0  0  0  0  0  0  0  0
  144.3764  135.0919  151.7164 N   0  0  0  0  0  0  0  0  0  0  0  0
  147.9189  140.0455  154.4578 C   0  0  0  0  0  0  0  0  0  0  0  0
  149.0571  140.9502  153.9746 C   0  0  0  0  0  0  0  0  0  0  0  0
  148.5935  138.9071  155.2498 C   0  0  0  0  0  0  0  0  0  0  0  0
  147.7165  141.0543  158.3236 H   0  0  0  0  0  0  0  0  0  0  0  0
  147.7905  142.2922  157.0763 H   0  0  0  0  0  0  0  0  0  0  0  0
  148.8166  140.8509  156.9715 H   0  0  0  0  0  0  0  0  0  0  0  0
  146.5200  142.4669  153.8124 H   0  0  0  0  0  0  0  0  0  0  0  0
  147.1708  142.8692  155.3942 H   0  0  0  0  0  0  0  0  0  0  0  0
  145.4531  142.5426  155.1895 H   0  0  0  0  0  0  0  0  0  0  0  0
  145.6810  138.7896  155.0282 H   0  0  0  0  0  0  0  0  0  0  0  0
  144.8488  140.1026  154.1146 H   0  0  0  0  0  0  0  0  0  0  0  0
  146.7413  140.3891  152.6085 H   0  0  0  0  0  0  0  0  0  0  0  0
  147.9913  137.9727  152.6657 H   0  0  0  0  0  0  0  0  0  0  0  0
  147.4888  136.1754  152.0268 H   0  0  0  0  0  0  0  0  0  0  0  0
  147.5790  134.0439  151.3503 H   0  0  0  0  0  0  0  0  0  0  0  0
  146.4127  131.9641  150.6138 H   0  0  0  0  0  0  0  0  0  0  0  0
  142.6708  133.9866  151.3227 H   0  0  0  0  0  0  0  0  0  0  0  0
  149.8199  140.3845  153.4388 H   0  0  0  0  0  0  0  0  0  0  0  0
  149.5460  141.4547  154.8086 H   0  0  0  0  0  0  0  0  0  0  0  0
  148.7045  141.7212  153.2897 H   0  0  0  0  0  0  0  0  0  0  0  0
  149.2940  138.3453  154.6311 H   0  0  0  0  0  0  0  0  0  0  0  0
  147.8713  138.1915  155.6432 H   0  0  0  0  0  0  0  0  0  0  0  0
  149.1551  139.2931  156.1011 H   0  0  0  0  0  0  0  0  0  0  0  0
  1  2  1  0  0  0  0
  1 21  1  0  0  0  0
  1 22  1  0  0  0  0
  1 23  1  0  0  0  0
  2  3  1  0  0  0  0
  3 18  1  0  0  0  0
  3  4  1  0  0  0  0
  3  5  1  0  0  0  0
  4 24  1  0  0  0  0
  4 25  1  0  0  0  0
  4 26  1  0  0  0  0
  5  6  1  0  0  0  0
  5 27  1  0  0  0  0
  5 28  1  0  0  0  0
  6  7  1  0  0  0  0
  6 18  1  0  0  0  0
  6 29  1  0  0  0  0
  7  8  1  0  0  0  0
  7 30  1  0  0  0  0
  8  9  2  0  0  0  0
  8 10  1  0  0  0  0
 10 11  1  0  0  0  0
 10 31  1  0  0  0  0
 11 17  1  0  0  0  0
 11 12  2  0  0  0  0
 12 13  1  0  0  0  0
 12 32  1  0  0  0  0
 13 14  2  0  0  0  0
 13 33  1  0  0  0  0
 14 15  1  0  0  0  0
 14 16  1  0  0  0  0
 16 17  2  0  0  0  0
 16 34  1  0  0  0  0
 18 19  1  0  0  0  0
 18 20  1  0  0  0  0
 19 35  1  0  0  0  0
 19 36  1  0  0  0  0
 19 37  1  0  0  0  0
 20 38  1  0  0  0  0
 20 39  1  0  0  0  0
 20 40  1  0  0  0  0
M  END
> <s_m_source_file>
AV-unprocessed.smi

> <i_m_source_file_index>
2416

> <i_lp_mmshare_version>
43012

> <i_f3d_flags>
0

> <s_epik_input>
W0NIM11PW0NAQF0xKFtDSDNdKVtDSDJdW0NASF0oQzEoW0NIM10pW0NIM10pW05IXUMoPU8pW05IXWMyW2NIXVtjSF1jKEYpW2NIXW4y

> <s_epik_cmdline>
J2VwaWtfcHl0aG9uJywgJy1waCcsICc3LjAnLCAnLXRuJywgJzgnLCAnLW1hJywgJzIwMCcsICctbWV0YWxfYmluZGluZycsICctaW1hZScsICc8aW5maWxlLm1hZT4nLCAnLW9tYWUnLCAnPG91dGZpbGUubWFlPic=

> <r_lp_tautomer_probability>
1

> <r_epik_Ionization_Penalty>
3.67756e-05

> <r_epik_Ionization_Penalty_Charging>
0

> <r_epik_Ionization_Penalty_Neutral>
3.67756e-05

> <r_epik_State_Penalty>
-0

> <r_epik_Charging_Adjusted_Penalty>
0

> <i_epik_Tot_Q>
0

> <i_epik_Tot_abs_Q>
0

> <r_epik_Metal_State_Penalty>
-0

> <b_epik_Metal_Only>
0

> <s_lp_Force_Field>
OPLS_2005

> <r_lp_Energy>
27.0586

> <b_lp_Chiralities_Consistent>
1

> <s_lp_Variant>
AV-unprocessed.smi:2416-4

> <Gold.Version>
5.8.1

> <Gold.Id.Protein>
6NUR|6NUR_protein|mol2

> <Gold.PLP.Fitness>
33.4038

> <Gold.PLP.PLP>
-26.5458

> <Gold.PLP.part.hbond>
-1.7592

> <Gold.PLP.part.metal>
0.0000

> <Gold.PLP.part.buried>
-3.4221

> <Gold.PLP.part.nonpolar>
-22.9838

> <Gold.PLP.part.repulsive>
0.7565

> <Gold.PLP.ligand.clash>
0.0000

> <Gold.PLP.ligand.torsion>
0.3538

> <Gold.PLP.Chemscore.Hbond>
1.3991

> <Gold.PLP.Chemscore.CHOScore>
1.0000

> <Gold.PLP.Chemscore.Metal>
0.0000

> <Gold.Chemscore.Hbonds>
donor molecule, donor type, donor heavy atom, donor atom, acceptor molecule, acceptor atom, score
      L1  H     7    30       P1  7948  0.57
      L1  H    10    31       P1  7948  0.81
      L1  C    16    34       P1 10186  1.00

> <Gold.PLP.Chemscore.Internal.Correction>
0.3685

> <Gold.Rescore>
     Score         DG    S(hbond)    S(metal)    S(lipo)     H(rot)  DE(clash)    DE(int)     intcor
     11.16     -15.34       1.82        0.00      59.89       1.27       1.10       3.09       ----

> <Gold.Chemscore.Fitness>
11.1585

> <Gold.Chemscore.DG>
-15.3420

> <Gold.Chemscore.ZeroCoef>
-5.4800

> <Gold.Chemscore.Hbond>
1.8244

> <Gold.Chemscore.Metal>
0.0000

> <Gold.Chemscore.Lipo>
59.8938

> <Gold.Chemscore.Internal_Hbond>
0.0000

> <Gold.Chemscore.DEClash>
1.0970

> <Gold.Chemscore.DEInternal>
3.0865

> <Gold.Chemscore.Rot>
1.2653

> <Gold.Chemscore.Internal.Correction>
   9.000000E+99

> <Gold.Chemscore.Hbonds>
donor molecule, donor type, donor heavy atom, donor atom, acceptor molecule, acceptor atom, score
      L1  H     7    30       P1  7948  0.57
      L1  H    10    31       P1  7948  0.80

> <Gold.Chemscore.Hbond.Weighted>
-6.0937

> <Gold.Chemscore.Metal.Weighted>
-0.0000

> <Gold.Chemscore.Lipo.Weighted>
-7.0076

> <Gold.Chemscore.Internal_Hbond.Weighted>
0.0000

> <Gold.Chemscore.DEClash.Weighted>
1.0970

> <Gold.Chemscore.DEInternal.Weighted>
3.0865

> <Gold.Chemscore.Rot.Weighted>
3.2392

> <Gold.Chemscore.Internal.Correction.Weighted>
   9.000000E+99

> <Gold.Protein.RotatedTorsions>
[ 6907 6896 6895 6894 ] final   -2.97 input  -60.11 | X-H torsion
[ 7974 7965 7964 7962 ] final  -84.61 input  175.53 | X-H torsion
[ 8008 7997 7996 7995 ] final  -99.93 input   59.86 | X-H torsion
[ 10167 10162 10161 10158 ] final   -1.58 input  -65.29 | X-H torsion
[ 10718 10713 10712 10709 ] final   58.12 input   66.30 | X-H torsion
[ 10763 10752 10751 10750 ] final  -81.57 input  -60.55 | X-H torsion
[ 11005 11000 10999 10996 ] final  123.04 input  -57.11 | X-H torsion

> <Gold.Protein.ActiveResidues>
 VAL166  LYS551  ARG553  GLY616  TRP617  ASP618  TYR619  PRO620  LYS621  CYS622 
 ASP623  PHE694  ASN695  SER759  ASP760  ASP761  ALA762  ILE779  LEU786  VAL792 
 PHE793  MET794  SER795  GLU796  ALA797  LYS798  CYS799  TRP800  GLU811  SER814 

> <Gold.Protein.RotatedAtoms>
  151.5213  135.1067  159.9878 H   0  0  0  0  0  0  0  0  0  0  0  0  # atno 6907 bound_to 6896
  152.4619  133.7837  159.6875 H   0  0  0  0  0  0  0  0  0  0  0  0  # atno 6908 bound_to 6896
  150.8585  133.7614  159.3025 H   0  0  0  0  0  0  0  0  0  0  0  0  # atno 6909 bound_to 6896
  145.5044  140.9545  143.1742 H   0  0  0  0  0  0  0  0  0  0  0  0  # atno 7974 bound_to 7965
  154.8216  140.0444  157.1415 H   0  0  0  0  0  0  0  0  0  0  0  0  # atno 8008 bound_to 7997
  154.9253  140.3032  155.5175 H   0  0  0  0  0  0  0  0  0  0  0  0  # atno 8009 bound_to 7997
  156.2980  140.2333  156.4307 H   0  0  0  0  0  0  0  0  0  0  0  0  # atno 8010 bound_to 7997
  140.6816  143.6758  150.8147 H   0  0  0  0  0  0  0  0  0  0  0  0  # atno 10167 bound_to 10162
  157.5570  130.8807  149.9051 H   0  0  0  0  0  0  0  0  0  0  0  0  # atno 10718 bound_to 10713
  154.5652  135.5622  153.7043 H   0  0  0  0  0  0  0  0  0  0  0  0  # atno 10763 bound_to 10752
  153.0030  135.6283  154.2190 H   0  0  0  0  0  0  0  0  0  0  0  0  # atno 10764 bound_to 10752
  154.2129  135.2873  155.2932 H   0  0  0  0  0  0  0  0  0  0  0  0  # atno 10765 bound_to 10752
  139.9295  134.9641  156.8200 H   0  0  0  0  0  0  0  0  0  0  0  0  # atno 11005 bound_to 11000
  144.7762  139.6625  143.7174 LP  0  0  0  0  0  0  0  0  0  0  0  0  # atno 17320 bound_to 7965
  146.2206  139.5629  142.9621 LP  0  0  0  0  0  0  0  0  0  0  0  0  # atno 17321 bound_to 7965
  140.0459  143.5299  152.2696 LP  0  0  0  0  0  0  0  0  0  0  0  0  # atno 17342 bound_to 10162
  139.6143  144.7616  151.2882 LP  0  0  0  0  0  0  0  0  0  0  0  0  # atno 17343 bound_to 10162
  156.0628  130.3697  150.0945 LP  0  0  0  0  0  0  0  0  0  0  0  0  # atno 17370 bound_to 10713
  156.9113  130.9652  151.3562 LP  0  0  0  0  0  0  0  0  0  0  0  0  # atno 17371 bound_to 10713
  140.6242  133.9966  155.7632 LP  0  0  0  0  0  0  0  0  0  0  0  0  # atno 17394 bound_to 11000
  141.0875  133.9968  157.3291 LP  0  0  0  0  0  0  0  0  0  0  0  0  # atno 17395 bound_to 11000

$$$$
