#       Name:                AV-unprocessed.smi:285
#       Creating user name   scv26
#       Creation time:       Thu Mar 26 21:52:57 2020


#       File generated by GOLD software.
#

@<TRIPOS>MOLECULE
AV-unprocessed.smi:285
    40    42     1
SMALL
NO_CHARGES


@<TRIPOS>ATOM
      1 ****        -5.2235   0.0992   0.3197 N.pl3          1 S1                 0.0000
      2 ****        -3.9257   0.4113   0.1981 C.ar           1 S1                 0.0000
      3 ****        -3.5878   1.7151   0.0633 N.ar           1 S1                 0.0000
      4 ****        -2.3002   2.0537  -0.0607 C.ar           1 S1                 0.0000
      5 ****        -1.2249   1.2613  -0.0738 N.ar           1 S1                 0.0000
      6 ****        -1.5667  -0.0542   0.0638 C.ar           1 S1                 0.0000
      7 ****        -2.8925  -0.5595   0.2035 C.ar           1 S1                 0.0000
      8 ****        -2.8692  -1.9443   0.3156 N.2            1 S1                 0.0000
      9 ****        -1.5961  -2.2169   0.2444 C.2            1 S1                 0.0000
     10 ****        -0.9900  -4.0203   0.3318 Br             1 S1                 0.0000
     11 ****        -0.7335  -1.1548   0.0935 N.pl3          1 S1                 0.0000
     12 ****         0.7567  -1.1548  -0.0117 C.3            1 S1                 0.0000
     13 ****         1.2168  -0.7944  -1.4203 C.3            1 S1                 0.0000
     14 ****         2.5141  -0.0380  -1.1547 C.3            1 S1                 0.0000
     15 ****         3.6233  -0.7655  -1.6441 O.3            1 S1                 0.0000
     16 ****         2.5861   0.1080   0.3793 C.3            1 S1                 0.0000
     17 ****         3.0022   1.5127   0.8416 C.3            1 S1                 0.0000
     18 ****         3.4584   1.4698   2.1769 O.3            1 S1                 0.0000
     19 ****         1.2608  -0.1649   0.8154 O.3            1 S1                 0.0000
     20 ****        -5.5019  -0.8664   0.4212 H              1 S1                 0.0000
     21 ****        -5.9206   0.8297   0.3114 H              1 S1                 0.0000
     22 ****        -2.1029   3.1105  -0.1636 H              1 S1                 0.0000
     23 ****         1.0939  -2.1372   0.3195 H              1 S1                 0.0000
     24 ****         1.3278  -1.6932  -2.0286 H              1 S1                 0.0000
     25 ****         0.4901  -0.1355  -1.8970 H              1 S1                 0.0000
     26 ****         2.4768   0.9344  -1.6477 H              1 S1                 0.0000
     27 ****         3.6586  -1.5985  -1.1992 H              1 S1                 0.0000
     28 ****         3.2514  -0.6525   0.7945 H              1 S1                 0.0000
     29 ****         3.8260   1.8803   0.2291 H              1 S1                 0.0000
     30 ****         2.1803   2.2226   0.7413 H              1 S1                 0.0000
     31 ****         3.7113   2.3425   2.4364 H              1 S1                 0.0000
     32 ****        -4.2965   2.4205   0.0565 LP             1 S1                 0.0000
     33 ****        -0.2857   1.5904  -0.1721 LP             1 S1                 0.0000
     34 ****        -3.6376  -2.5750   0.4240 LP             1 S1                 0.0000
     35 ****         4.4649  -0.2544  -1.4691 LP             1 S1                 0.0000
     36 ****         3.5215  -0.9133  -2.6278 LP             1 S1                 0.0000
     37 ****         4.2454   0.8566   2.2448 LP             1 S1                 0.0000
     38 ****         2.7263   1.1397   2.7729 LP             1 S1                 0.0000
     39 ****         1.2700  -0.4819   1.7638 LP             1 S1                 0.0000
     40 ****         0.6997   0.6598   0.7450 LP             1 S1                 0.0000
@<TRIPOS>BOND
    1    1    2 1     
    2    1   20 1     
    3    1   21 1     
    4    2    7 ar    
    5    2    3 ar    
    6    3    4 ar    
    7    4    5 ar    
    8    4   22 1     
    9    5    6 ar    
   10    6   11 1     
   11    6    7 ar    
   12    7    8 1     
   13    8    9 2     
   14    9   10 1     
   15    9   11 1     
   16   11   12 1     
   17   12   19 1     
   18   12   13 1     
   19   12   23 1     
   20   13   14 1     
   21   13   24 1     
   22   13   25 1     
   23   14   15 1     
   24   14   16 1     
   25   14   26 1     
   26   15   27 1     
   27   16   17 1     
   28   16   19 1     
   29   16   28 1     
   30   17   18 1     
   31   17   29 1     
   32   17   30 1     
   33   18   31 1     
   34    3   32 1     
   35    5   33 1     
   36    8   34 1     
   37   15   35 1     
   38   15   36 1     
   39   18   37 1     
   40   18   38 1     
   41   19   39 1     
   42   19   40 1     
@<TRIPOS>SUBSTRUCTURE
      1 S1             1
@<TRIPOS>SET
LONE_PAIRS      STATIC     ATOMS    <user>   **** ""
9 32 33 34 35 36 37 38 39 40
DONOR_HYDROGENS      STATIC     ATOMS    <user>   **** ""
4 20 21 27 31
ATOM$BLUE        STATIC     ATOMS    COLORGROUP SYSTEM
9 32 33 34 35 36 37 38 39 40
ATOM$RED        STATIC     ATOMS    COLORGROUP SYSTEM
4 20 21 27 31
