#       Name:                AV-unprocessed.smi:1403
#       Creating user name   scv26
#       Creation time:       Fri Mar 27 05:33:08 2020


#       File generated by GOLD software.
#

@<TRIPOS>MOLECULE
AV-unprocessed.smi:1403
    44    45     1
SMALL
NO_CHARGES


@<TRIPOS>ATOM
      1 ****        -2.1756  -1.1883   2.6313 C.3            1 S1                 0.0000
      2 ****        -1.6442  -0.5320   1.3479 C.3            1 S1                 0.0000
      3 ****        -0.1841  -0.5556   1.3845 N.am           1 S1                 0.0000
      4 ****         0.6266   0.4304   0.9705 C.2            1 S1                 0.0000
      5 ****         0.2156   1.5088   0.5397 O.2            1 S1                 0.0000
      6 ****         2.1327   0.1512   1.0766 C.3            1 S1                 0.0000
      7 ****         2.9358   0.9782   0.1639 N.am           1 S1                 0.0000
      8 ****         3.5793   2.1152   0.6316 C.2            1 S1                 0.0000
      9 ****         4.3220   2.9288  -0.1558 C.2            1 S1                 0.0000
     10 ****         4.4831   2.6367  -1.5761 C.2            1 S1                 0.0000
     11 ****         5.1357   3.3114  -2.3693 O.2            1 S1                 0.0000
     12 ****         3.8191   1.4858  -2.0091 N.am           1 S1                 0.0000
     13 ****         3.0512   0.6437  -1.2033 C.2            1 S1                 0.0000
     14 ****         2.5038  -0.3460  -1.6881 O.2            1 S1                 0.0000
     15 ****        -2.1427  -1.2441   0.0733 C.3            1 S1                 0.0000
     16 ****        -3.6617  -1.2454  -0.1101 C.3            1 S1                 0.0000
     17 ****        -3.8462  -1.3617  -1.6158 C.3            1 S1                 0.0000
     18 ****        -2.4574  -1.0667  -2.1873 C.3            1 S1                 0.0000
     19 ****        -1.7120  -0.5573  -1.0921 O.3            1 S1                 0.0000
     20 ****         3.8991   1.2449  -2.9863 H              1 S1                 0.0000
     21 ****        -3.2641  -1.1498   2.6763 H              1 S1                 0.0000
     22 ****        -1.7975  -0.6770   3.5170 H              1 S1                 0.0000
     23 ****        -1.8758  -2.2347   2.6966 H              1 S1                 0.0000
     24 ****        -1.9967   0.5010   1.3354 H              1 S1                 0.0000
     25 ****         0.2447  -1.4024   1.7278 H              1 S1                 0.0000
     26 ****         2.4364   0.3207   2.1107 H              1 S1                 0.0000
     27 ****         2.3270  -0.9069   0.8890 H              1 S1                 0.0000
     28 ****         3.4842   2.3733   1.6766 H              1 S1                 0.0000
     29 ****         4.7984   3.8014   0.2675 H              1 S1                 0.0000
     30 ****        -1.7652  -2.2681   0.0367 H              1 S1                 0.0000
     31 ****        -4.1492  -2.0525   0.4375 H              1 S1                 0.0000
     32 ****        -4.0852  -0.3013   0.2356 H              1 S1                 0.0000
     33 ****        -4.1781  -2.3593  -1.9049 H              1 S1                 0.0000
     34 ****        -4.5868  -0.6445  -1.9712 H              1 S1                 0.0000
     35 ****        -1.9862  -1.9832  -2.5452 H              1 S1                 0.0000
     36 ****        -2.4848  -0.3531  -3.0110 H              1 S1                 0.0000
     37 ****        -0.7675   1.6835   0.4854 LP             1 S1                 0.0000
     38 ****         0.8650   2.2094   0.2443 LP             1 S1                 0.0000
     39 ****         5.6090   4.1341  -2.0547 LP             1 S1                 0.0000
     40 ****         5.1933   3.0376  -3.3294 LP             1 S1                 0.0000
     41 ****         1.9532  -0.9470  -1.1087 LP             1 S1                 0.0000
     42 ****         2.6095  -0.5494  -2.6615 LP             1 S1                 0.0000
     43 ****        -0.7358  -0.7155  -1.2405 LP             1 S1                 0.0000
     44 ****        -1.8794   0.4234  -0.9919 LP             1 S1                 0.0000
@<TRIPOS>BOND
    1    1    2 1     
    2    1   21 1     
    3    1   22 1     
    4    1   23 1     
    5    2    3 1     
    6    2   15 1     
    7    2   24 1     
    8    3    4 am    
    9    3   25 1     
   10    4    5 2     
   11    4    6 1     
   12    6    7 1     
   13    6   26 1     
   14    6   27 1     
   15    7   13 1     
   16    7    8 1     
   17    8    9 2     
   18    8   28 1     
   19    9   10 1     
   20    9   29 1     
   21   10   11 2     
   22   10   12 1     
   23   12   20 1     
   24   12   13 1     
   25   13   14 2     
   26   15   19 1     
   27   15   16 1     
   28   15   30 1     
   29   16   17 1     
   30   16   31 1     
   31   16   32 1     
   32   17   18 1     
   33   17   33 1     
   34   17   34 1     
   35   18   19 1     
   36   18   35 1     
   37   18   36 1     
   38    5   37 1     
   39    5   38 1     
   40   11   39 1     
   41   11   40 1     
   42   14   41 1     
   43   14   42 1     
   44   19   43 1     
   45   19   44 1     
@<TRIPOS>SUBSTRUCTURE
      1 S1             1
@<TRIPOS>SET
LONE_PAIRS      STATIC     ATOMS    <user>   **** ""
8 37 38 39 40 41 42 43 44
DONOR_HYDROGENS      STATIC     ATOMS    <user>   **** ""
2 25 20
ATOM$BLUE        STATIC     ATOMS    COLORGROUP SYSTEM
8 37 38 39 40 41 42 43 44
ATOM$RED        STATIC     ATOMS    COLORGROUP SYSTEM
2 25 20
