AV-unprocessed.smi:2520|AV-procd|sdf|9910|dock9
  -GOLD-   2272013543D 1   1.00000     0.00000
 Structure written by MMmdl.
 41 44  0  0  0  0  0  0  0  0  1 V2000
  146.1717  137.9303  154.7139 O   0  0  0  0  0  0  0  0  0  0  0  0
  147.0206  137.6621  153.8654 C   0  0  0  0  0  0  0  0  0  0  0  0
  146.7620  136.7830  152.8743 N   0  0  0  0  0  0  0  0  0  0  0  0
  145.5935  136.0244  152.5721 C   0  0  0  0  0  0  0  0  0  0  0  0
  145.7033  135.1976  151.4335 C   0  0  0  0  0  0  0  0  0  0  0  0
  144.5990  134.4078  151.0705 C   0  0  0  0  0  0  0  0  0  0  0  0
  143.4518  134.4959  151.8769 C   0  0  0  0  0  0  0  0  0  0  0  0
  143.3898  135.2972  152.9620 N   0  0  0  0  0  0  0  0  0  0  0  0
  144.4456  136.0445  153.3008 N   0  0  0  0  0  0  0  0  0  0  0  0
  148.2446  138.2129  153.8651 N   0  0  0  0  0  0  0  0  0  0  0  0
  148.7102  139.2104  154.8204 C   0  0  1  0  0  0  0  0  0  0  0  0
  150.0230  139.8763  154.3768 C   0  0  2  0  0  0  0  0  0  0  0  0
  151.2774  139.6672  155.1801 C   0  0  0  0  0  0  0  0  0  0  0  0
  151.2996  140.8896  156.1022 C   0  0  0  0  0  0  0  0  0  0  0  0
  149.9459  141.3359  156.1422 O   0  0  0  0  0  0  0  0  0  0  0  0
  149.4091  141.1930  154.8293 C   0  0  2  0  0  0  0  0  0  0  0  0
  147.9977  140.5794  154.7151 C   0  0  0  0  0  0  0  0  0  0  0  0
  146.9786  140.9588  155.7863 C   0  0  0  0  0  0  0  0  0  0  0  0
  146.1952  142.1696  155.2659 C   0  0  0  0  0  0  0  0  0  0  0  0
  146.4447  142.2127  153.7549 C   0  0  0  0  0  0  0  0  0  0  0  0
  147.2306  140.9399  153.4396 C   0  0  0  0  0  0  0  0  0  0  0  0
  147.5473  136.5963  152.2678 H   0  0  0  0  0  0  0  0  0  0  0  0
  146.6114  135.1681  150.8491 H   0  0  0  0  0  0  0  0  0  0  0  0
  144.6301  133.7593  150.2074 H   0  0  0  0  0  0  0  0  0  0  0  0
  142.5703  133.9149  151.6504 H   0  0  0  0  0  0  0  0  0  0  0  0
  148.8886  137.9389  153.1366 H   0  0  0  0  0  0  0  0  0  0  0  0
  148.7626  138.8519  155.8511 H   0  0  0  0  0  0  0  0  0  0  0  0
  150.1634  139.8510  153.2943 H   0  0  0  0  0  0  0  0  0  0  0  0
  151.2197  138.7447  155.7588 H   0  0  0  0  0  0  0  0  0  0  0  0
  152.1712  139.6181  154.5577 H   0  0  0  0  0  0  0  0  0  0  0  0
  151.6760  140.6586  157.0988 H   0  0  0  0  0  0  0  0  0  0  0  0
  151.9201  141.6794  155.6765 H   0  0  0  0  0  0  0  0  0  0  0  0
  149.6255  142.0370  154.1725 H   0  0  0  0  0  0  0  0  0  0  0  0
  146.2912  140.1277  155.9498 H   0  0  0  0  0  0  0  0  0  0  0  0
  147.4411  141.1712  156.7503 H   0  0  0  0  0  0  0  0  0  0  0  0
  145.1336  142.0756  155.4963 H   0  0  0  0  0  0  0  0  0  0  0  0
  146.5527  143.0889  155.7310 H   0  0  0  0  0  0  0  0  0  0  0  0
  145.5192  142.2744  153.1815 H   0  0  0  0  0  0  0  0  0  0  0  0
  147.0453  143.0888  153.5076 H   0  0  0  0  0  0  0  0  0  0  0  0
  147.8854  141.0760  152.5780 H   0  0  0  0  0  0  0  0  0  0  0  0
  146.5243  140.1507  153.1793 H   0  0  0  0  0  0  0  0  0  0  0  0
  1  2  2  0  0  0  0
  2  3  1  0  0  0  0
  2 10  1  0  0  0  0
  3  4  1  0  0  0  0
  3 22  1  0  0  0  0
  4  9  1  0  0  0  0
  4  5  2  0  0  0  0
  5  6  1  0  0  0  0
  5 23  1  0  0  0  0
  6  7  2  0  0  0  0
  6 24  1  0  0  0  0
  7  8  1  0  0  0  0
  7 25  1  0  0  0  0
  8  9  2  0  0  0  0
 10 11  1  0  0  0  0
 10 26  1  0  0  0  0
 11 17  1  0  0  0  0
 11 12  1  0  0  0  0
 11 27  1  0  0  0  0
 12 16  1  0  0  0  0
 12 13  1  0  0  0  0
 12 28  1  0  0  0  0
 13 14  1  0  0  0  0
 13 29  1  0  0  0  0
 13 30  1  0  0  0  0
 14 15  1  0  0  0  0
 14 31  1  0  0  0  0
 14 32  1  0  0  0  0
 15 16  1  0  0  0  0
 16 17  1  0  0  0  0
 16 33  1  0  0  0  0
 17 21  1  0  0  0  0
 17 18  1  0  0  0  0
 18 19  1  0  0  0  0
 18 34  1  0  0  0  0
 18 35  1  0  0  0  0
 19 20  1  0  0  0  0
 19 36  1  0  0  0  0
 19 37  1  0  0  0  0
 20 21  1  0  0  0  0
 20 38  1  0  0  0  0
 20 39  1  0  0  0  0
 21 40  1  0  0  0  0
 21 41  1  0  0  0  0
M  END
> <s_m_source_file>
AV-unprocessed.smi

> <i_m_source_file_index>
2520

> <i_lp_mmshare_version>
43012

> <i_f3d_flags>
0

> <s_epik_input>
bjFuW2NIXVtjSF1bY0hdYzFbTkhdQyg9TylbTkhdW0NAQEhdMltDQEBIXShbQ0gyXVtDSDJdTzMpW0NASF0zQzI0W0NIMl1bQ0gyXVtDSDJdW0NIMl00

> <s_epik_cmdline>
J2VwaWtfcHl0aG9uJywgJy1waCcsICc3LjAnLCAnLXRuJywgJzgnLCAnLW1hJywgJzIwMCcsICctbWV0YWxfYmluZGluZycsICctaW1hZScsICc8aW5maWxlLm1hZT4nLCAnLW9tYWUnLCAnPG91dGZpbGUubWFlPic=

> <r_lp_tautomer_probability>
1

> <r_epik_Ionization_Penalty>
0.00552561

> <r_epik_Ionization_Penalty_Charging>
0

> <r_epik_Ionization_Penalty_Neutral>
0.00552561

> <r_epik_State_Penalty>
-0

> <r_epik_Charging_Adjusted_Penalty>
0

> <i_epik_Tot_Q>
0

> <i_epik_Tot_abs_Q>
0

> <r_epik_Metal_State_Penalty>
-0

> <b_epik_Metal_Only>
0

> <s_lp_Force_Field>
OPLS_2005

> <r_lp_Energy>
61.147

> <b_lp_Chiralities_Consistent>
1

> <s_lp_Variant>
AV-unprocessed.smi:2520-4

> <Gold.Version>
5.8.1

> <Gold.Id.Protein>
6NUR|6NUR_protein|mol2

> <Gold.PLP.Fitness>
38.8205

> <Gold.PLP.PLP>
-31.9033

> <Gold.PLP.part.hbond>
-1.8451

> <Gold.PLP.part.metal>
0.0000

> <Gold.PLP.part.buried>
-2.5358

> <Gold.PLP.part.nonpolar>
-28.1247

> <Gold.PLP.part.repulsive>
0.4135

> <Gold.PLP.ligand.clash>
0.0000

> <Gold.PLP.ligand.torsion>
0.0982

> <Gold.PLP.Chemscore.Hbond>
1.5319

> <Gold.PLP.Chemscore.CHOScore>
0.7773

> <Gold.PLP.Chemscore.Metal>
0.0000

> <Gold.Chemscore.Hbonds>
donor molecule, donor type, donor heavy atom, donor atom, acceptor molecule, acceptor atom, score
      L1  H     3    22       P1  7948  0.91
      L1  H    10    26       P1  7948  0.55
      L1  C     7    25       P1 10186  0.52

> <Gold.PLP.Chemscore.Internal.Correction>
0.1859

> <Gold.Rescore>
     Score         DG    S(hbond)    S(metal)    S(lipo)     H(rot)  DE(clash)    DE(int)     intcor
     16.39     -18.37       1.90        0.00      77.90       1.00       0.65       1.32       ----

> <Gold.Chemscore.Fitness>
16.3924

> <Gold.Chemscore.DG>
-18.3674

> <Gold.Chemscore.ZeroCoef>
-5.4800

> <Gold.Chemscore.Hbond>
1.8962

> <Gold.Chemscore.Metal>
0.0000

> <Gold.Chemscore.Lipo>
77.8991

> <Gold.Chemscore.Internal_Hbond>
0.0000

> <Gold.Chemscore.DEClash>
0.6518

> <Gold.Chemscore.DEInternal>
1.3233

> <Gold.Chemscore.Rot>
1.0000

> <Gold.Chemscore.Internal.Correction>
   9.000000E+99

> <Gold.Chemscore.Hbonds>
donor molecule, donor type, donor heavy atom, donor atom, acceptor molecule, acceptor atom, score
      L1  H     3    22       P1  7948  0.88
      L1  H    10    26       P1  7948  0.52

> <Gold.Chemscore.Hbond.Weighted>
-6.3332

> <Gold.Chemscore.Metal.Weighted>
-0.0000

> <Gold.Chemscore.Lipo.Weighted>
-9.1142

> <Gold.Chemscore.Internal_Hbond.Weighted>
0.0000

> <Gold.Chemscore.DEClash.Weighted>
0.6518

> <Gold.Chemscore.DEInternal.Weighted>
1.3233

> <Gold.Chemscore.Rot.Weighted>
2.5600

> <Gold.Chemscore.Internal.Correction.Weighted>
   9.000000E+99

> <Gold.Protein.RotatedTorsions>
[ 6907 6896 6895 6894 ] final   26.72 input  -60.11 | X-H torsion
[ 7974 7965 7964 7962 ] final   19.47 input  175.53 | X-H torsion
[ 8008 7997 7996 7995 ] final  -49.49 input   59.86 | X-H torsion
[ 10167 10162 10161 10158 ] final -152.30 input  -65.29 | X-H torsion
[ 10718 10713 10712 10709 ] final -112.42 input   66.30 | X-H torsion
[ 10763 10752 10751 10750 ] final -131.94 input  -60.55 | X-H torsion
[ 11005 11000 10999 10996 ] final -107.12 input  -57.11 | X-H torsion

> <Gold.Protein.ActiveResidues>
 VAL166  LYS551  ARG553  GLY616  TRP617  ASP618  TYR619  PRO620  LYS621  CYS622 
 ASP623  PHE694  ASN695  SER759  ASP760  ASP761  ALA762  ILE779  LEU786  VAL792 
 PHE793  MET794  SER795  GLU796  ALA797  LYS798  CYS799  TRP800  GLU811  SER814 

> <Gold.Protein.RotatedAtoms>
  151.9916  134.9976  160.0561 H   0  0  0  0  0  0  0  0  0  0  0  0  # atno 6907 bound_to 6896
  152.1603  133.4573  159.4866 H   0  0  0  0  0  0  0  0  0  0  0  0  # atno 6908 bound_to 6896
  150.6887  134.1997  159.4360 H   0  0  0  0  0  0  0  0  0  0  0  0  # atno 6909 bound_to 6896
  146.2148  139.8309  142.8660 H   0  0  0  0  0  0  0  0  0  0  0  0  # atno 7974 bound_to 7965
  154.4045  140.1295  156.4511 H   0  0  0  0  0  0  0  0  0  0  0  0  # atno 8008 bound_to 7997
  155.7366  140.3490  155.5064 H   0  0  0  0  0  0  0  0  0  0  0  0  # atno 8009 bound_to 7997
  155.9078  140.1030  157.1292 H   0  0  0  0  0  0  0  0  0  0  0  0  # atno 8010 bound_to 7997
  139.7194  143.8982  152.2497 H   0  0  0  0  0  0  0  0  0  0  0  0  # atno 10167 bound_to 10162
  156.0704  130.5919  150.8506 H   0  0  0  0  0  0  0  0  0  0  0  0  # atno 10718 bound_to 10713
  154.8747  135.3814  154.4328 H   0  0  0  0  0  0  0  0  0  0  0  0  # atno 10763 bound_to 10752
  153.5021  135.7030  153.5831 H   0  0  0  0  0  0  0  0  0  0  0  0  # atno 10764 bound_to 10752
  153.4158  135.3913  155.2046 H   0  0  0  0  0  0  0  0  0  0  0  0  # atno 10765 bound_to 10752
  141.0970  133.8953  157.1938 H   0  0  0  0  0  0  0  0  0  0  0  0  # atno 11005 bound_to 11000
  145.2998  141.0191  143.3615 LP  0  0  0  0  0  0  0  0  0  0  0  0  # atno 17320 bound_to 7965
  144.9014  139.4644  143.6630 LP  0  0  0  0  0  0  0  0  0  0  0  0  # atno 17321 bound_to 7965
  139.8873  144.6985  150.8809 LP  0  0  0  0  0  0  0  0  0  0  0  0  # atno 17342 bound_to 10162
  140.7750  143.3613  151.1822 LP  0  0  0  0  0  0  0  0  0  0  0  0  # atno 17343 bound_to 10162
  157.5772  131.0946  150.9327 LP  0  0  0  0  0  0  0  0  0  0  0  0  # atno 17370 bound_to 10713
  156.9531  130.5427  149.5283 LP  0  0  0  0  0  0  0  0  0  0  0  0  # atno 17371 bound_to 10713
  139.9809  135.0098  156.9748 LP  0  0  0  0  0  0  0  0  0  0  0  0  # atno 17394 bound_to 11000
  140.5116  134.0997  155.7271 LP  0  0  0  0  0  0  0  0  0  0  0  0  # atno 17395 bound_to 11000

$$$$
