AV-unprocessed.smi:1135|AV-procd|sdf|4861|dock2
  -GOLD-   22720 3433D 1   1.00000     0.00000
 Structure written by MMmdl.
 46 47  0  0  0  0  0  0  0  0  2 V2000
  148.9450  141.5177  154.6456 C   0  0  0  0  0  0  0  0  0  0  0  0
  149.0941  140.1253  155.2746 C   0  0  2  0  0  0  0  0  0  0  0  0
  149.8128  139.1499  154.3249 C   0  0  0  0  0  0  0  0  0  0  0  0
  149.9517  137.7486  154.9496 C   0  0  0  0  0  0  0  0  0  0  0  0
  148.5966  137.1428  155.3879 C   0  0  2  0  0  0  0  0  0  0  0  0
  148.8662  135.8128  156.1269 C   0  0  0  0  0  0  0  0  0  0  0  0
  147.8068  136.8863  154.1741 N   0  0  0  0  0  0  0  0  0  0  0  0
  146.4707  136.8703  154.0406 C   0  0  0  0  0  0  0  0  0  0  0  0
  145.6740  137.1180  154.9458 O   0  0  0  0  0  0  0  0  0  0  0  0
  146.1014  136.5101  152.8027 N   0  0  0  0  0  0  0  0  0  0  0  0
  144.7229  136.3045  152.3619 C   0  0  0  0  0  0  0  0  0  0  0  0
  144.6353  135.8149  150.9013 C   0  0  0  0  0  0  0  0  0  0  0  0
  144.7309  134.3058  150.7510 C   0  0  0  0  0  0  0  0  0  0  0  0
  145.8335  133.5701  151.2387 C   0  0  0  0  0  0  0  0  0  0  0  0
  145.8410  132.1666  151.1012 C   0  0  0  0  0  0  0  0  0  0  0  0
  144.7504  131.5289  150.4747 C   0  0  0  0  0  0  0  0  0  0  0  0
  143.6780  132.3121  150.0018 C   0  0  0  0  0  0  0  0  0  0  0  0
  143.7067  133.6544  150.1540 N   0  3  0  0  0  0  0  0  0  0  0  0
  147.8859  138.1512  156.3296 C   0  0  0  0  0  0  0  0  0  0  0  0
  147.7325  139.5486  155.7024 C   0  0  0  0  0  0  0  0  0  0  0  0
  148.3370  141.4814  153.7412 H   0  0  0  0  0  0  0  0  0  0  0  0
  149.9168  141.9335  154.3778 H   0  0  0  0  0  0  0  0  0  0  0  0
  148.4701  142.2125  155.3388 H   0  0  0  0  0  0  0  0  0  0  0  0
  149.7079  140.2346  156.1700 H   0  0  0  0  0  0  0  0  0  0  0  0
  149.2699  139.0841  153.3813 H   0  0  0  0  0  0  0  0  0  0  0  0
  150.8030  139.5350  154.0793 H   0  0  0  0  0  0  0  0  0  0  0  0
  150.4514  137.0833  154.2441 H   0  0  0  0  0  0  0  0  0  0  0  0
  150.6149  137.8193  155.8131 H   0  0  0  0  0  0  0  0  0  0  0  0
  149.5321  135.9630  156.9773 H   0  0  0  0  0  0  0  0  0  0  0  0
  149.3374  135.0816  155.4688 H   0  0  0  0  0  0  0  0  0  0  0  0
  147.9523  135.3646  156.5163 H   0  0  0  0  0  0  0  0  0  0  0  0
  148.3461  136.6689  153.3488 H   0  0  0  0  0  0  0  0  0  0  0  0
  146.8270  136.3332  152.1231 H   0  0  0  0  0  0  0  0  0  0  0  0
  144.2139  135.6016  153.0235 H   0  0  0  0  0  0  0  0  0  0  0  0
  144.1900  137.2503  152.4612 H   0  0  0  0  0  0  0  0  0  0  0  0
  143.6975  136.1528  150.4585 H   0  0  0  0  0  0  0  0  0  0  0  0
  145.4294  136.2776  150.3138 H   0  0  0  0  0  0  0  0  0  0  0  0
  146.6571  134.0719  151.7255 H   0  0  0  0  0  0  0  0  0  0  0  0
  146.6712  131.5858  151.4754 H   0  0  0  0  0  0  0  0  0  0  0  0
  144.7357  130.4549  150.3608 H   0  0  0  0  0  0  0  0  0  0  0  0
  142.8025  131.9084  149.5146 H   0  0  0  0  0  0  0  0  0  0  0  0
  146.9090  137.7798  156.6383 H   0  0  0  0  0  0  0  0  0  0  0  0
  148.4623  138.2478  157.2507 H   0  0  0  0  0  0  0  0  0  0  0  0
  147.2575  140.2174  156.4208 H   0  0  0  0  0  0  0  0  0  0  0  0
  147.0614  139.4983  154.8439 H   0  0  0  0  0  0  0  0  0  0  0  0
  142.9139  134.1998  149.8146 H   0  0  0  0  0  0  0  0  0  0  0  0
  1  2  1  0  0  0  0
  1 21  1  0  0  0  0
  1 22  1  0  0  0  0
  1 23  1  0  0  0  0
  2 20  1  0  0  0  0
  2  3  1  0  0  0  0
  2 24  1  0  0  0  0
  3  4  1  0  0  0  0
  3 25  1  0  0  0  0
  3 26  1  0  0  0  0
  4  5  1  0  0  0  0
  4 27  1  0  0  0  0
  4 28  1  0  0  0  0
  5  6  1  0  0  0  0
  5  7  1  0  0  0  0
  5 19  1  0  0  0  0
  6 29  1  0  0  0  0
  6 30  1  0  0  0  0
  6 31  1  0  0  0  0
  7  8  1  0  0  0  0
  7 32  1  0  0  0  0
  8  9  2  0  0  0  0
  8 10  1  0  0  0  0
 10 11  1  0  0  0  0
 10 33  1  0  0  0  0
 11 12  1  0  0  0  0
 11 34  1  0  0  0  0
 11 35  1  0  0  0  0
 12 13  1  0  0  0  0
 12 36  1  0  0  0  0
 12 37  1  0  0  0  0
 13 18  1  0  0  0  0
 13 14  2  0  0  0  0
 14 15  1  0  0  0  0
 14 38  1  0  0  0  0
 15 16  2  0  0  0  0
 15 39  1  0  0  0  0
 16 17  1  0  0  0  0
 16 40  1  0  0  0  0
 17 18  2  0  0  0  0
 17 41  1  0  0  0  0
 18 46  1  0  0  0  0
 19 20  1  0  0  0  0
 19 42  1  0  0  0  0
 19 43  1  0  0  0  0
 20 44  1  0  0  0  0
 20 45  1  0  0  0  0
M  CHG  1  18   1
M  END
> <s_m_source_file>
AV-unprocessed.smi

> <i_m_source_file_index>
1135

> <i_lp_mmshare_version>
43012

> <i_f3d_flags>
0

> <s_epik_input>
W0NIMl0xW0NIMl1bQ0BIXShbQ0gzXSlbQ0gyXVtDSDJdW0NAQF0xKFtDSDNdKVtOSF1DKD1PKVtOSF1bQ0gyXVtDSDJdYzJbY0hdW2NIXVtjSF1bY0hdbjI=

> <s_epik_cmdline>
J2VwaWtfcHl0aG9uJywgJy1waCcsICc3LjAnLCAnLXRuJywgJzgnLCAnLW1hJywgJzIwMCcsICctbWV0YWxfYmluZGluZycsICctaW1hZScsICc8aW5maWxlLm1hZT4nLCAnLW9tYWUnLCAnPG91dGZpbGUubWFlPic=

> <r_epik_Ionization_Penalty>
1.55217

> <r_epik_Ionization_Penalty_Charging>
1.55211

> <r_epik_Ionization_Penalty_Neutral>
5.91929e-05

> <r_epik_State_Penalty>
1.64641

> <r_epik_Charging_Adjusted_Penalty>
3.19851

> <i_epik_Tot_Q>
1

> <i_epik_Tot_abs_Q>
1

> <r_epik_Metal_State_Penalty>
1.68848

> <b_epik_Metal_Only>
0

> <s_lp_Force_Field>
OPLS_2005

> <r_lp_Energy>
12.4708

> <b_lp_Chiralities_Consistent>
1

> <s_lp_Variant>
AV-unprocessed.smi:1135-4

> <Gold.Version>
5.8.1

> <Gold.Id.Protein>
6NUR|6NUR_protein|mol2

> <Gold.PLP.Fitness>
41.5903

> <Gold.PLP.PLP>
-31.4139

> <Gold.PLP.part.hbond>
-3.0000

> <Gold.PLP.part.metal>
0.0000

> <Gold.PLP.part.buried>
-2.8709

> <Gold.PLP.part.nonpolar>
-25.1738

> <Gold.PLP.part.repulsive>
0.0515

> <Gold.PLP.ligand.clash>
0.0000

> <Gold.PLP.ligand.torsion>
0.7257

> <Gold.PLP.Chemscore.Hbond>
3.8640

> <Gold.PLP.Chemscore.CHOScore>
0.0000

> <Gold.PLP.Chemscore.Metal>
0.0000

> <Gold.Chemscore.Hbonds>
donor molecule, donor type, donor heavy atom, donor atom, acceptor molecule, acceptor atom, score
      L1  H     7    32       P1  7948  1.00
      L1  H    10    33       P1  7948  0.68
      L1  H    18    46       P1 10186  2.00

> <Gold.PLP.Chemscore.Internal.Correction>
0.0358

> <Gold.Rescore>
     Score         DG    S(hbond)    S(metal)    S(lipo)     H(rot)  DE(clash)    DE(int)     intcor
     19.02     -21.13       2.77        0.00      87.63       1.51       0.04       2.06       ----

> <Gold.Chemscore.Fitness>
19.0203

> <Gold.Chemscore.DG>
-21.1251

> <Gold.Chemscore.ZeroCoef>
-5.4800

> <Gold.Chemscore.Hbond>
2.7707

> <Gold.Chemscore.Metal>
0.0000

> <Gold.Chemscore.Lipo>
87.6308

> <Gold.Chemscore.Internal_Hbond>
0.0000

> <Gold.Chemscore.DEClash>
0.0421

> <Gold.Chemscore.DEInternal>
2.0627

> <Gold.Chemscore.Rot>
1.5085

> <Gold.Chemscore.Internal.Correction>
   9.000000E+99

> <Gold.Chemscore.Hbonds>
donor molecule, donor type, donor heavy atom, donor atom, acceptor molecule, acceptor atom, score
      L1  H     7    32       P1  7948  1.00
      L1  H    10    33       P1  7948  0.66
      L1  H    18    46       P1 10186  0.94

> <Gold.Chemscore.Hbond.Weighted>
-9.2540

> <Gold.Chemscore.Metal.Weighted>
-0.0000

> <Gold.Chemscore.Lipo.Weighted>
-10.2528

> <Gold.Chemscore.Internal_Hbond.Weighted>
0.0000

> <Gold.Chemscore.DEClash.Weighted>
0.0421

> <Gold.Chemscore.DEInternal.Weighted>
2.0627

> <Gold.Chemscore.Rot.Weighted>
3.8617

> <Gold.Chemscore.Internal.Correction.Weighted>
   9.000000E+99

> <Gold.Protein.RotatedTorsions>
[ 6907 6896 6895 6894 ] final  -14.68 input  -60.11 | X-H torsion
[ 7974 7965 7964 7962 ] final  143.66 input  175.53 | X-H torsion
[ 8008 7997 7996 7995 ] final  120.28 input   59.86 | X-H torsion
[ 10167 10162 10161 10158 ] final  115.79 input  -65.29 | X-H torsion
[ 10718 10713 10712 10709 ] final -149.32 input   66.30 | X-H torsion
[ 10763 10752 10751 10750 ] final  -36.67 input  -60.55 | X-H torsion
[ 11005 11000 10999 10996 ] final -104.30 input  -57.11 | X-H torsion

> <Gold.Protein.ActiveResidues>
 VAL166  LYS551  ARG553  GLY616  TRP617  ASP618  TYR619  PRO620  LYS621  CYS622 
 ASP623  PHE694  ASN695  SER759  ASP760  ASP761  ALA762  ILE779  LEU786  VAL792 
 PHE793  MET794  SER795  GLU796  ALA797  LYS798  CYS799  TRP800  GLU811  SER814 

> <Gold.Protein.RotatedAtoms>
  151.3357  135.0852  159.9353 H   0  0  0  0  0  0  0  0  0  0  0  0  # atno 6907 bound_to 6896
  152.5224  133.9498  159.7676 H   0  0  0  0  0  0  0  0  0  0  0  0  # atno 6908 bound_to 6896
  150.9845  133.6159  159.2747 H   0  0  0  0  0  0  0  0  0  0  0  0  # atno 6909 bound_to 6896
  144.8902  139.5569  143.5802 H   0  0  0  0  0  0  0  0  0  0  0  0  # atno 7974 bound_to 7965
  156.2635  140.2834  156.1125 H   0  0  0  0  0  0  0  0  0  0  0  0  # atno 8008 bound_to 7997
  155.1242  140.0392  157.2775 H   0  0  0  0  0  0  0  0  0  0  0  0  # atno 8009 bound_to 7997
  154.6647  140.2574  155.7076 H   0  0  0  0  0  0  0  0  0  0  0  0  # atno 8010 bound_to 7997
  139.6292  144.7112  151.2467 H   0  0  0  0  0  0  0  0  0  0  0  0  # atno 10167 bound_to 10162
  156.4317  130.8078  151.2306 H   0  0  0  0  0  0  0  0  0  0  0  0  # atno 10718 bound_to 10713
  153.8836  135.6819  153.4765 H   0  0  0  0  0  0  0  0  0  0  0  0  # atno 10763 bound_to 10752
  153.1220  135.4735  154.9208 H   0  0  0  0  0  0  0  0  0  0  0  0  # atno 10764 bound_to 10752
  154.7657  135.3223  154.8243 H   0  0  0  0  0  0  0  0  0  0  0  0  # atno 10765 bound_to 10752
  141.1106  133.8712  157.1594 H   0  0  0  0  0  0  0  0  0  0  0  0  # atno 11005 bound_to 11000
  146.3049  139.7547  142.9063 LP  0  0  0  0  0  0  0  0  0  0  0  0  # atno 17320 bound_to 7965
  145.3796  141.0356  143.3185 LP  0  0  0  0  0  0  0  0  0  0  0  0  # atno 17321 bound_to 7965
  140.7429  143.6510  150.8248 LP  0  0  0  0  0  0  0  0  0  0  0  0  # atno 17342 bound_to 10162
  140.0133  143.5619  152.2830 LP  0  0  0  0  0  0  0  0  0  0  0  0  # atno 17343 bound_to 10162
  157.7508  131.0196  150.3675 LP  0  0  0  0  0  0  0  0  0  0  0  0  # atno 17370 bound_to 10713
  156.4013  130.3916  149.6957 LP  0  0  0  0  0  0  0  0  0  0  0  0  # atno 17371 bound_to 10713
  139.9999  135.0032  157.0165 LP  0  0  0  0  0  0  0  0  0  0  0  0  # atno 17394 bound_to 11000
  140.4784  134.1314  155.7213 LP  0  0  0  0  0  0  0  0  0  0  0  0  # atno 17395 bound_to 11000

$$$$
