AV-unprocessed.smi:2712|AV-procd|sdf|10477|dock8
  -GOLD-   2272014523D 1   1.00000     0.00000
 Structure written by MMmdl.
 52 53  0  0  0  0  0  0  0  0  1 V2000
  152.2707  143.7693  161.7146 C   0  0  0  0  0  0  0  0  0  0  0  0
  152.0173  143.5252  160.2566 C   0  0  0  0  0  0  0  0  0  0  0  0
  152.0298  144.5855  159.2669 C   0  0  0  0  0  0  0  0  0  0  0  0
  151.7901  144.2849  157.9725 C   0  0  0  0  0  0  0  0  0  0  0  0
  151.5188  142.9160  157.5390 C   0  0  0  0  0  0  0  0  0  0  0  0
  151.2927  142.6104  156.3682 O   0  0  0  0  0  0  0  0  0  0  0  0
  151.5402  142.0034  158.5556 N   0  0  0  0  0  0  0  0  0  0  0  0
  151.3032  140.5752  158.3001 C   0  0  0  0  0  0  0  0  0  0  0  0
  152.4013  139.6660  158.8707 C   0  0  0  0  0  0  0  0  0  0  0  0
  153.5902  139.9702  158.7631 O   0  0  0  0  0  0  0  0  0  0  0  0
  151.9799  138.5530  159.4916 N   0  0  0  0  0  0  0  0  0  0  0  0
  152.8423  137.5454  160.1058 C   0  0  1  0  0  0  0  0  0  0  0  0
  153.8767  137.0916  159.0589 C   0  0  0  0  0  0  0  0  0  0  0  0
  155.1078  136.3470  159.6001 C   0  0  0  0  0  0  0  0  0  0  0  0
  154.8407  135.3809  160.7667 C   0  0  0  0  0  0  0  0  0  0  0  0
  154.9541  136.0447  162.1685 C   0  0  2  0  0  0  0  0  0  0  0  0
  155.2129  135.0073  163.3242 C   0  0  0  0  0  0  0  0  0  0  0  0
  154.0769  133.9665  163.4284 C   0  0  0  0  0  0  0  0  0  0  0  0
  155.3474  135.7158  164.6923 C   0  0  0  0  0  0  0  0  0  0  0  0
  156.5480  134.2585  163.0976 C   0  0  0  0  0  0  0  0  0  0  0  0
  153.7530  136.9889  162.4510 C   0  0  0  0  0  0  0  0  0  0  0  0
  153.4716  138.0862  161.4067 C   0  0  0  0  0  0  0  0  0  0  0  0
  151.7803  142.3098  159.8850 N   0  0  0  0  0  0  0  0  0  0  0  0
  152.3369  144.8361  161.9303 H   0  0  0  0  0  0  0  0  0  0  0  0
  153.2071  143.3063  162.0273 H   0  0  0  0  0  0  0  0  0  0  0  0
  151.4676  143.3556  162.3253 H   0  0  0  0  0  0  0  0  0  0  0  0
  152.2293  145.6025  159.5708 H   0  0  0  0  0  0  0  0  0  0  0  0
  151.7998  145.0754  157.2365 H   0  0  0  0  0  0  0  0  0  0  0  0
  150.3506  140.2662  158.7342 H   0  0  0  0  0  0  0  0  0  0  0  0
  151.2048  140.4034  157.2263 H   0  0  0  0  0  0  0  0  0  0  0  0
  150.9851  138.3852  159.5349 H   0  0  0  0  0  0  0  0  0  0  0  0
  152.2213  136.6827  160.3540 H   0  0  0  0  0  0  0  0  0  0  0  0
  153.3680  136.4542  158.3344 H   0  0  0  0  0  0  0  0  0  0  0  0
  154.2340  137.9519  158.4905 H   0  0  0  0  0  0  0  0  0  0  0  0
  155.5453  135.7882  158.7720 H   0  0  0  0  0  0  0  0  0  0  0  0
  155.8746  137.0666  159.8888 H   0  0  0  0  0  0  0  0  0  0  0  0
  153.8774  134.8852  160.6416 H   0  0  0  0  0  0  0  0  0  0  0  0
  155.5811  134.5911  160.6699 H   0  0  0  0  0  0  0  0  0  0  0  0
  155.8377  136.6842  162.1459 H   0  0  0  0  0  0  0  0  0  0  0  0
  154.2641  133.2621  164.2398 H   0  0  0  0  0  0  0  0  0  0  0  0
  153.9765  133.3786  162.5163 H   0  0  0  0  0  0  0  0  0  0  0  0
  153.1129  134.4332  163.6285 H   0  0  0  0  0  0  0  0  0  0  0  0
  154.4007  136.1310  165.0375 H   0  0  0  0  0  0  0  0  0  0  0  0
  156.0760  136.5262  164.6522 H   0  0  0  0  0  0  0  0  0  0  0  0
  155.6741  135.0242  165.4697 H   0  0  0  0  0  0  0  0  0  0  0  0
  156.8046  133.6384  163.9573 H   0  0  0  0  0  0  0  0  0  0  0  0
  157.3744  134.9534  162.9444 H   0  0  0  0  0  0  0  0  0  0  0  0
  156.5172  133.5848  162.2430 H   0  0  0  0  0  0  0  0  0  0  0  0
  152.8439  136.4082  162.6058 H   0  0  0  0  0  0  0  0  0  0  0  0
  153.9268  137.5180  163.3863 H   0  0  0  0  0  0  0  0  0  0  0  0
  154.3706  138.6669  161.1960 H   0  0  0  0  0  0  0  0  0  0  0  0
  152.7774  138.7874  161.8724 H   0  0  0  0  0  0  0  0  0  0  0  0
  1  2  1  0  0  0  0
  1 24  1  0  0  0  0
  1 25  1  0  0  0  0
  1 26  1  0  0  0  0
  2 23  2  0  0  0  0
  2  3  1  0  0  0  0
  3  4  2  0  0  0  0
  3 27  1  0  0  0  0
  4  5  1  0  0  0  0
  4 28  1  0  0  0  0
  5  6  2  0  0  0  0
  5  7  1  0  0  0  0
  7  8  1  0  0  0  0
  7 23  1  0  0  0  0
  8  9  1  0  0  0  0
  8 29  1  0  0  0  0
  8 30  1  0  0  0  0
  9 10  2  0  0  0  0
  9 11  1  0  0  0  0
 11 12  1  0  0  0  0
 11 31  1  0  0  0  0
 12 22  1  0  0  0  0
 12 13  1  0  0  0  0
 12 32  1  0  0  0  0
 13 14  1  0  0  0  0
 13 33  1  0  0  0  0
 13 34  1  0  0  0  0
 14 15  1  0  0  0  0
 14 35  1  0  0  0  0
 14 36  1  0  0  0  0
 15 16  1  0  0  0  0
 15 37  1  0  0  0  0
 15 38  1  0  0  0  0
 16 17  1  0  0  0  0
 16 21  1  0  0  0  0
 16 39  1  0  0  0  0
 17 18  1  0  0  0  0
 17 19  1  0  0  0  0
 17 20  1  0  0  0  0
 18 40  1  0  0  0  0
 18 41  1  0  0  0  0
 18 42  1  0  0  0  0
 19 43  1  0  0  0  0
 19 44  1  0  0  0  0
 19 45  1  0  0  0  0
 20 46  1  0  0  0  0
 20 47  1  0  0  0  0
 20 48  1  0  0  0  0
 21 22  1  0  0  0  0
 21 49  1  0  0  0  0
 21 50  1  0  0  0  0
 22 51  1  0  0  0  0
 22 52  1  0  0  0  0
M  END
> <s_m_source_file>
AV-unprocessed.smi

> <i_m_source_file_index>
2712

> <i_lp_mmshare_version>
43012

> <i_f3d_flags>
0

> <s_epik_input>
W0NIM11jMVtjSF1bY0hdYyg9TyluKG4xKVtDSDJdQyg9TylbTkhdW0NAQEhdMltDSDJdW0NIMl1bQ0gyXVtDQEBIXShDKFtDSDNdKShbQ0gzXSlbQ0gzXSlbQ0gyXVtDSDJdMg==

> <s_epik_cmdline>
J2VwaWtfcHl0aG9uJywgJy1waCcsICc3LjAnLCAnLXRuJywgJzgnLCAnLW1hJywgJzIwMCcsICctbWV0YWxfYmluZGluZycsICctaW1hZScsICc8aW5maWxlLm1hZT4nLCAnLW9tYWUnLCAnPG91dGZpbGUubWFlPic=

> <r_lp_tautomer_probability>
1

> <r_epik_Ionization_Penalty>
8.71758e-07

> <r_epik_Ionization_Penalty_Charging>
8.50442e-07

> <r_epik_Ionization_Penalty_Neutral>
2.13165e-08

> <r_epik_State_Penalty>
-0

> <r_epik_Charging_Adjusted_Penalty>
8.50442e-07

> <i_epik_Tot_Q>
0

> <i_epik_Tot_abs_Q>
0

> <r_epik_Metal_State_Penalty>
-0

> <b_epik_Metal_Only>
0

> <s_lp_Force_Field>
OPLS_2005

> <r_lp_Energy>
38.5576

> <b_lp_Chiralities_Consistent>
1

> <s_lp_Variant>
AV-unprocessed.smi:2712-4

> <Gold.Version>
5.8.1

> <Gold.Id.Protein>
6NUR|6NUR_protein|mol2

> <Gold.PLP.Fitness>
42.1733

> <Gold.PLP.PLP>
-39.9608

> <Gold.PLP.part.hbond>
-1.1528

> <Gold.PLP.part.metal>
0.0000

> <Gold.PLP.part.buried>
-5.2323

> <Gold.PLP.part.nonpolar>
-33.0410

> <Gold.PLP.part.repulsive>
0.3968

> <Gold.PLP.ligand.clash>
0.0000

> <Gold.PLP.ligand.torsion>
0.4293

> <Gold.PLP.Chemscore.Hbond>
1.0000

> <Gold.PLP.Chemscore.CHOScore>
0.0000

> <Gold.PLP.Chemscore.Metal>
0.0000

> <Gold.Chemscore.Hbonds>
donor molecule, donor type, donor heavy atom, donor atom, acceptor molecule, acceptor atom, score
      P1  H  7997  8010       L1    10  1.00

> <Gold.PLP.Chemscore.Internal.Correction>
0.0710

> <Gold.Rescore>
     Score         DG    S(hbond)    S(metal)    S(lipo)     H(rot)  DE(clash)    DE(int)     intcor
     16.15     -17.88       0.96        0.00     111.62       1.52       0.05       1.67       ----

> <Gold.Chemscore.Fitness>
16.1523

> <Gold.Chemscore.DG>
-17.8754

> <Gold.Chemscore.ZeroCoef>
-5.4800

> <Gold.Chemscore.Hbond>
0.9631

> <Gold.Chemscore.Metal>
0.0000

> <Gold.Chemscore.Lipo>
111.6238

> <Gold.Chemscore.Internal_Hbond>
0.0000

> <Gold.Chemscore.DEClash>
0.0536

> <Gold.Chemscore.DEInternal>
1.6695

> <Gold.Chemscore.Rot>
1.5162

> <Gold.Chemscore.Internal.Correction>
   9.000000E+99

> <Gold.Chemscore.Hbonds>
donor molecule, donor type, donor heavy atom, donor atom, acceptor molecule, acceptor atom, score
      P1  H  7997  8010       L1    10  0.95

> <Gold.Chemscore.Hbond.Weighted>
-3.2169

> <Gold.Chemscore.Metal.Weighted>
-0.0000

> <Gold.Chemscore.Lipo.Weighted>
-13.0600

> <Gold.Chemscore.Internal_Hbond.Weighted>
0.0000

> <Gold.Chemscore.DEClash.Weighted>
0.0536

> <Gold.Chemscore.DEInternal.Weighted>
1.6695

> <Gold.Chemscore.Rot.Weighted>
3.8814

> <Gold.Chemscore.Internal.Correction.Weighted>
   9.000000E+99

> <Gold.Protein.RotatedTorsions>
[ 6907 6896 6895 6894 ] final   -3.48 input  -60.11 | X-H torsion
[ 7974 7965 7964 7962 ] final   82.61 input  175.53 | X-H torsion
[ 8008 7997 7996 7995 ] final   19.54 input   59.86 | X-H torsion
[ 10167 10162 10161 10158 ] final  -74.38 input  -65.29 | X-H torsion
[ 10718 10713 10712 10709 ] final  -88.58 input   66.30 | X-H torsion
[ 10763 10752 10751 10750 ] final   60.00 input  -60.55 | X-H torsion
[ 11005 11000 10999 10996 ] final -164.43 input  -57.11 | X-H torsion

> <Gold.Protein.ActiveResidues>
 VAL166  LYS551  ARG553  GLY616  TRP617  ASP618  TYR619  PRO620  LYS621  CYS622 
 ASP623  PHE694  ASN695  SER759  ASP760  ASP761  ALA762  ILE779  LEU786  VAL792 
 PHE793  MET794  SER795  GLU796  ALA797  LYS798  CYS799  TRP800  GLU811  SER814 

> <Gold.Protein.RotatedAtoms>
  151.5131  135.1065  159.9858 H   0  0  0  0  0  0  0  0  0  0  0  0  # atno 6907 bound_to 6896
  152.4653  133.7906  159.6910 H   0  0  0  0  0  0  0  0  0  0  0  0  # atno 6908 bound_to 6896
  150.8634  133.7546  159.3010 H   0  0  0  0  0  0  0  0  0  0  0  0  # atno 6909 bound_to 6896
  145.6228  139.2389  143.2129 H   0  0  0  0  0  0  0  0  0  0  0  0  # atno 7974 bound_to 7965
  154.9222  140.3029  155.5210 H   0  0  0  0  0  0  0  0  0  0  0  0  # atno 8008 bound_to 7997
  156.3009  140.2369  156.4210 H   0  0  0  0  0  0  0  0  0  0  0  0  # atno 8009 bound_to 7997
  154.8319  140.0418  157.1471 H   0  0  0  0  0  0  0  0  0  0  0  0  # atno 8010 bound_to 7997
  140.5032  143.2357  151.7717 H   0  0  0  0  0  0  0  0  0  0  0  0  # atno 10167 bound_to 10162
  155.9983  130.4841  150.5041 H   0  0  0  0  0  0  0  0  0  0  0  0  # atno 10718 bound_to 10713
  152.9909  135.5552  154.5803 H   0  0  0  0  0  0  0  0  0  0  0  0  # atno 10763 bound_to 10752
  154.5186  135.2806  155.1284 H   0  0  0  0  0  0  0  0  0  0  0  0  # atno 10764 bound_to 10752
  154.2647  135.6374  153.5340 H   0  0  0  0  0  0  0  0  0  0  0  0  # atno 10765 bound_to 10752
  140.5870  134.5084  157.5187 H   0  0  0  0  0  0  0  0  0  0  0  0  # atno 11005 bound_to 11000
  146.1418  140.7047  142.9363 LP  0  0  0  0  0  0  0  0  0  0  0  0  # atno 17320 bound_to 7965
  144.7224  140.4417  143.6998 LP  0  0  0  0  0  0  0  0  0  0  0  0  # atno 17321 bound_to 7965
  139.4877  144.4493  151.9673 LP  0  0  0  0  0  0  0  0  0  0  0  0  # atno 17342 bound_to 10162
  140.3583  144.3005  150.5937 LP  0  0  0  0  0  0  0  0  0  0  0  0  # atno 17343 bound_to 10162
  157.3022  131.0647  151.2060 LP  0  0  0  0  0  0  0  0  0  0  0  0  # atno 17370 bound_to 10713
  157.3036  130.6855  149.6177 LP  0  0  0  0  0  0  0  0  0  0  0  0  # atno 17371 bound_to 10713
  139.9291  134.7998  156.0981 LP  0  0  0  0  0  0  0  0  0  0  0  0  # atno 17394 bound_to 11000
  141.0960  133.6695  156.2645 LP  0  0  0  0  0  0  0  0  0  0  0  0  # atno 17395 bound_to 11000

$$$$
