AV-unprocessed.smi:2235|AV-procd|sdf|9044|dock4
  -GOLD-   2272012253D 1   1.00000     0.00000
 Structure written by MMmdl.
 36 37  0  0  0  0  0  0  0  0  1 V2000
  151.2505  140.2193  158.2035 O   0  0  0  0  0  0  0  0  0  0  0  0
  151.4473  140.9972  157.2700 C   0  0  0  0  0  0  0  0  0  0  0  0
  151.8282  140.4568  155.8913 C   0  0  0  0  0  0  0  0  0  0  0  0
  150.6548  140.0140  155.1600 N   0  0  0  0  0  0  0  0  0  0  0  0
  149.5284  140.7373  154.8282 C   0  0  0  0  0  0  0  0  0  0  0  0
  148.6916  139.9040  154.1410 C   0  0  0  0  0  0  0  0  0  0  0  0
  147.3378  140.2010  153.5577 C   0  0  0  0  0  0  0  0  0  0  0  0
  146.7691  138.9915  152.8035 C   0  0  0  0  0  0  0  0  0  0  0  0
  147.5880  138.6882  151.6947 O   0  0  0  0  0  0  0  0  0  0  0  0
  149.4079  138.6740  154.1035 C   0  0  0  0  0  0  0  0  0  0  0  0
  150.5804  138.7420  154.7128 N   0  0  0  0  0  0  0  0  0  0  0  0
  151.3501  142.3307  157.3841 N   0  0  0  0  0  0  0  0  0  0  0  0
  150.9993  143.0447  158.6085 C   0  0  0  0  0  0  0  0  0  0  0  0
  150.9817  144.5638  158.3617 C   0  0  0  0  0  0  0  0  0  0  0  0
  152.2282  145.1146  159.0542 C   0  0  0  0  0  0  0  0  0  0  0  0
  152.4289  144.1874  160.2486 C   0  0  0  0  0  0  0  0  0  0  0  0
  152.0354  142.8041  159.7270 C   0  0  0  0  0  0  0  0  0  0  0  0
  152.3520  141.2237  155.3183 H   0  0  0  0  0  0  0  0  0  0  0  0
  152.5123  139.6138  155.9976 H   0  0  0  0  0  0  0  0  0  0  0  0
  149.4177  141.7753  155.1058 H   0  0  0  0  0  0  0  0  0  0  0  0
  146.6418  140.4950  154.3442 H   0  0  0  0  0  0  0  0  0  0  0  0
  147.3947  141.0529  152.8787 H   0  0  0  0  0  0  0  0  0  0  0  0
  146.7183  138.1191  153.4557 H   0  0  0  0  0  0  0  0  0  0  0  0
  145.7575  139.1966  152.4516 H   0  0  0  0  0  0  0  0  0  0  0  0
  148.4031  139.1577  151.7855 H   0  0  0  0  0  0  0  0  0  0  0  0
  149.1110  137.7382  153.6535 H   0  0  0  0  0  0  0  0  0  0  0  0
  151.5262  142.8906  156.5621 H   0  0  0  0  0  0  0  0  0  0  0  0
  150.0071  142.7305  158.9378 H   0  0  0  0  0  0  0  0  0  0  0  0
  150.9450  144.8324  157.3051 H   0  0  0  0  0  0  0  0  0  0  0  0
  150.0949  144.9926  158.8308 H   0  0  0  0  0  0  0  0  0  0  0  0
  153.0853  145.0413  158.3833 H   0  0  0  0  0  0  0  0  0  0  0  0
  152.1197  146.1597  159.3458 H   0  0  0  0  0  0  0  0  0  0  0  0
  153.4474  144.2152  160.6364 H   0  0  0  0  0  0  0  0  0  0  0  0
  151.7565  144.4804  161.0561 H   0  0  0  0  0  0  0  0  0  0  0  0
  151.6410  142.1687  160.5205 H   0  0  0  0  0  0  0  0  0  0  0  0
  152.9232  142.3081  159.3312 H   0  0  0  0  0  0  0  0  0  0  0  0
  1  2  2  0  0  0  0
  2  3  1  0  0  0  0
  2 12  1  0  0  0  0
  3  4  1  0  0  0  0
  3 18  1  0  0  0  0
  3 19  1  0  0  0  0
  4 11  1  0  0  0  0
  4  5  1  0  0  0  0
  5  6  2  0  0  0  0
  5 20  1  0  0  0  0
  6  7  1  0  0  0  0
  6 10  1  0  0  0  0
  7  8  1  0  0  0  0
  7 21  1  0  0  0  0
  7 22  1  0  0  0  0
  8  9  1  0  0  0  0
  8 23  1  0  0  0  0
  8 24  1  0  0  0  0
  9 25  1  0  0  0  0
 10 11  2  0  0  0  0
 10 26  1  0  0  0  0
 12 13  1  0  0  0  0
 12 27  1  0  0  0  0
 13 17  1  0  0  0  0
 13 14  1  0  0  0  0
 13 28  1  0  0  0  0
 14 15  1  0  0  0  0
 14 29  1  0  0  0  0
 14 30  1  0  0  0  0
 15 16  1  0  0  0  0
 15 31  1  0  0  0  0
 15 32  1  0  0  0  0
 16 17  1  0  0  0  0
 16 33  1  0  0  0  0
 16 34  1  0  0  0  0
 17 35  1  0  0  0  0
 17 36  1  0  0  0  0
M  END
> <s_m_source_file>
AV-unprocessed.smi

> <i_m_source_file_index>
2235

> <i_lp_mmshare_version>
43012

> <i_f3d_flags>
0

> <s_epik_input>
W0NIMl0xW0NIMl1bQ0gyXVtDSDJdW0NIXTFbTkhdQyg9TylbQ0gyXW4yW2NIXWMoW2NIXW4yKVtDSDJdW0NIMl1bT0hd

> <s_epik_cmdline>
J2VwaWtfcHl0aG9uJywgJy1waCcsICc3LjAnLCAnLXRuJywgJzgnLCAnLW1hJywgJzIwMCcsICctbWV0YWxfYmluZGluZycsICctaW1hZScsICc8aW5maWxlLm1hZT4nLCAnLW9tYWUnLCAnPG91dGZpbGUubWFlPic=

> <r_lp_tautomer_probability>
1

> <r_epik_Ionization_Penalty>
3.35381e-05

> <r_epik_Ionization_Penalty_Charging>
0

> <r_epik_Ionization_Penalty_Neutral>
3.35381e-05

> <r_epik_State_Penalty>
-0

> <r_epik_Charging_Adjusted_Penalty>
0

> <i_epik_Tot_Q>
0

> <i_epik_Tot_abs_Q>
0

> <r_epik_Metal_State_Penalty>
-0

> <b_epik_Metal_Only>
0

> <s_lp_Force_Field>
OPLS_2005

> <r_lp_Energy>
18.0157

> <b_lp_Chiralities_Consistent>
1

> <s_lp_Variant>
AV-unprocessed.smi:2235-1

> <Gold.Version>
5.8.1

> <Gold.Id.Protein>
6NUR|6NUR_protein|mol2

> <Gold.PLP.Fitness>
45.9188

> <Gold.PLP.PLP>
-38.8387

> <Gold.PLP.part.hbond>
-2.5807

> <Gold.PLP.part.metal>
0.0000

> <Gold.PLP.part.buried>
-0.6649

> <Gold.PLP.part.nonpolar>
-33.8816

> <Gold.PLP.part.repulsive>
0.1808

> <Gold.PLP.ligand.clash>
0.0000

> <Gold.PLP.ligand.torsion>
0.3259

> <Gold.PLP.Chemscore.Hbond>
1.5632

> <Gold.PLP.Chemscore.CHOScore>
1.0000

> <Gold.PLP.Chemscore.Metal>
0.0000

> <Gold.Chemscore.Hbonds>
donor molecule, donor type, donor heavy atom, donor atom, acceptor molecule, acceptor atom, score
      L1  H     9    25       P1  7957  0.99
      P1  H  7954  7966       L1     9  0.50
      L1  C    10    26       P1  7948  1.00

> <Gold.PLP.Chemscore.Internal.Correction>
0.0423

> <Gold.Rescore>
     Score         DG    S(hbond)    S(metal)    S(lipo)     H(rot)  DE(clash)    DE(int)     intcor
     13.70     -14.16       0.99        0.00      99.70       2.46       0.11       0.35       ----

> <Gold.Chemscore.Fitness>
13.6963

> <Gold.Chemscore.DG>
-14.1570

> <Gold.Chemscore.ZeroCoef>
-5.4800

> <Gold.Chemscore.Hbond>
0.9896

> <Gold.Chemscore.Metal>
0.0000

> <Gold.Chemscore.Lipo>
99.6983

> <Gold.Chemscore.Internal_Hbond>
0.0000

> <Gold.Chemscore.DEClash>
0.1108

> <Gold.Chemscore.DEInternal>
0.3500

> <Gold.Chemscore.Rot>
2.4581

> <Gold.Chemscore.Internal.Correction>
   9.000000E+99

> <Gold.Chemscore.Hbonds>
donor molecule, donor type, donor heavy atom, donor atom, acceptor molecule, acceptor atom, score
      L1  H     9    25       P1  7957  0.88
      P1  H  7954  7966       L1     9  0.03

> <Gold.Chemscore.Hbond.Weighted>
-3.3052

> <Gold.Chemscore.Metal.Weighted>
-0.0000

> <Gold.Chemscore.Lipo.Weighted>
-11.6647

> <Gold.Chemscore.Internal_Hbond.Weighted>
0.0000

> <Gold.Chemscore.DEClash.Weighted>
0.1108

> <Gold.Chemscore.DEInternal.Weighted>
0.3500

> <Gold.Chemscore.Rot.Weighted>
6.2928

> <Gold.Chemscore.Internal.Correction.Weighted>
   9.000000E+99

> <Gold.Protein.RotatedTorsions>
[ 6907 6896 6895 6894 ] final  152.79 input  -60.11 | X-H torsion
[ 7974 7965 7964 7962 ] final  -84.52 input  175.53 | X-H torsion
[ 8008 7997 7996 7995 ] final  -52.55 input   59.86 | X-H torsion
[ 10167 10162 10161 10158 ] final  178.98 input  -65.29 | X-H torsion
[ 10718 10713 10712 10709 ] final -107.69 input   66.30 | X-H torsion
[ 10763 10752 10751 10750 ] final  -54.91 input  -60.55 | X-H torsion
[ 11005 11000 10999 10996 ] final  -93.03 input  -57.11 | X-H torsion

> <Gold.Protein.ActiveResidues>
 VAL166  LYS551  ARG553  GLY616  TRP617  ASP618  TYR619  PRO620  LYS621  CYS622 
 ASP623  PHE694  ASN695  SER759  ASP760  ASP761  ALA762  ILE779  LEU786  VAL792 
 PHE793  MET794  SER795  GLU796  ALA797  LYS798  CYS799  TRP800  GLU811  SER814 

> <Gold.Protein.RotatedAtoms>
  152.0818  133.4156  159.4504 H   0  0  0  0  0  0  0  0  0  0  0  0  # atno 6907 bound_to 6896
  150.6862  134.2973  159.4701 H   0  0  0  0  0  0  0  0  0  0  0  0  # atno 6908 bound_to 6896
  152.0816  134.9467  160.0624 H   0  0  0  0  0  0  0  0  0  0  0  0  # atno 6909 bound_to 6896
  145.5055  140.9544  143.1736 H   0  0  0  0  0  0  0  0  0  0  0  0  # atno 7974 bound_to 7965
  154.4109  140.1221  156.5009 H   0  0  0  0  0  0  0  0  0  0  0  0  # atno 8008 bound_to 7997
  155.6896  140.3495  155.4868 H   0  0  0  0  0  0  0  0  0  0  0  0  # atno 8009 bound_to 7997
  155.9481  140.1099  157.0990 H   0  0  0  0  0  0  0  0  0  0  0  0  # atno 8010 bound_to 7997
  139.5316  144.2616  152.0702 H   0  0  0  0  0  0  0  0  0  0  0  0  # atno 10167 bound_to 10162
  156.0449  130.5675  150.7857 H   0  0  0  0  0  0  0  0  0  0  0  0  # atno 10718 bound_to 10713
  154.1824  135.6441  153.5037 H   0  0  0  0  0  0  0  0  0  0  0  0  # atno 10763 bound_to 10752
  153.0056  135.5409  154.6500 H   0  0  0  0  0  0  0  0  0  0  0  0  # atno 10764 bound_to 10752
  154.5868  135.2930  155.0649 H   0  0  0  0  0  0  0  0  0  0  0  0  # atno 10765 bound_to 10752
  141.1507  133.7860  157.0102 H   0  0  0  0  0  0  0  0  0  0  0  0  # atno 11005 bound_to 11000
  144.7756  139.6637  143.7176 LP  0  0  0  0  0  0  0  0  0  0  0  0  # atno 17320 bound_to 7965
  146.2199  139.5617  142.9625 LP  0  0  0  0  0  0  0  0  0  0  0  0  # atno 17321 bound_to 7965
  140.2080  144.4591  150.6399 LP  0  0  0  0  0  0  0  0  0  0  0  0  # atno 17342 bound_to 10162
  140.6498  143.2222  151.6102 LP  0  0  0  0  0  0  0  0  0  0  0  0  # atno 17343 bound_to 10162
  157.5312  131.0936  150.9952 LP  0  0  0  0  0  0  0  0  0  0  0  0  # atno 17370 bound_to 10713
  157.0258  130.5692  149.5337 LP  0  0  0  0  0  0  0  0  0  0  0  0  # atno 17371 bound_to 10713
  140.0882  134.9608  157.1734 LP  0  0  0  0  0  0  0  0  0  0  0  0  # atno 17394 bound_to 11000
  140.3482  134.2628  155.7202 LP  0  0  0  0  0  0  0  0  0  0  0  0  # atno 17395 bound_to 11000

$$$$
