AV-unprocessed.smi:33|AV-procd|sdf|213|dock4
  -GOLD-   2262015513D 1   1.00000     0.00000
 Structure written by MMmdl.
 67 72  0  0  0  0  0  0  0  0  1 V2000
  152.4122  140.2152  157.7054 O   0  0  0  0  0  0  0  0  0  0  0  0
  151.6946  141.2064  157.8554 C   0  0  0  0  0  0  0  0  0  0  0  0
  150.5783  141.4379  157.1363 O   0  0  0  0  0  0  0  0  0  0  0  0
  150.2571  140.6136  156.0272 C   0  0  0  0  0  0  0  0  0  0  0  0
  148.7798  140.8164  155.6609 C   0  0  2  0  0  0  0  0  0  0  0  0
  148.0338  139.6808  156.1062 O   0  0  0  0  0  0  0  0  0  0  0  0
  147.5112  138.9705  155.0252 C   0  0  2  0  0  0  0  0  0  0  0  0
  147.6726  137.4981  155.2505 N   0  0  0  0  0  0  0  0  0  0  0  0
  146.6998  136.5309  155.1277 C   0  0  0  0  0  0  0  0  0  0  0  0
  147.0901  135.3076  155.3627 N   0  0  0  0  0  0  0  0  0  0  0  0
  148.4368  135.4405  155.6735 C   0  0  0  0  0  0  0  0  0  0  0  0
  149.4642  134.5227  156.0229 C   0  0  0  0  0  0  0  0  0  0  0  0
  149.2585  133.1871  156.1087 N   0  0  0  0  0  0  0  0  0  0  0  0
  149.8008  132.5030  157.2918 C   0  0  0  0  0  0  0  0  0  0  0  0
  149.9849  133.1392  158.3313 O   0  0  0  0  0  0  0  0  0  0  0  0
  150.0896  131.0289  157.2544 C   0  0  0  0  0  0  0  0  0  0  0  0
  149.8801  130.2377  158.4052 C   0  0  0  0  0  0  0  0  0  0  0  0
  150.1636  128.8584  158.3797 C   0  0  0  0  0  0  0  0  0  0  0  0
  150.6769  128.2655  157.2105 C   0  0  0  0  0  0  0  0  0  0  0  0
  150.9154  129.0539  156.0690 C   0  0  0  0  0  0  0  0  0  0  0  0
  150.6304  130.4328  156.0928 C   0  0  0  0  0  0  0  0  0  0  0  0
  148.5110  132.5468  155.0162 C   0  0  0  0  0  0  0  0  0  0  0  0
  148.4998  133.0697  153.9002 O   0  0  0  0  0  0  0  0  0  0  0  0
  147.8135  131.2337  155.2349 C   0  0  0  0  0  0  0  0  0  0  0  0
  148.0284  130.1626  154.3401 C   0  0  0  0  0  0  0  0  0  0  0  0
  147.3672  128.9338  154.5312 C   0  0  0  0  0  0  0  0  0  0  0  0
  146.4739  128.7738  155.6074 C   0  0  0  0  0  0  0  0  0  0  0  0
  146.2340  129.8463  156.4871 C   0  0  0  0  0  0  0  0  0  0  0  0
  146.8939  131.0756  156.2963 C   0  0  0  0  0  0  0  0  0  0  0  0
  150.7040  135.0173  156.2736 N   0  0  0  0  0  0  0  0  0  0  0  0
  150.9236  136.3318  156.1835 C   0  0  0  0  0  0  0  0  0  0  0  0
  150.0629  137.3003  155.8639 N   0  0  0  0  0  0  0  0  0  0  0  0
  148.8147  136.8102  155.6136 C   0  0  0  0  0  0  0  0  0  0  0  0
  148.2199  139.4626  153.7577 C   0  0  2  0  0  0  0  0  0  0  0  0
  149.3782  138.7233  153.4137 O   0  0  0  0  0  0  0  0  0  0  0  0
  148.5600  140.8889  154.1449 C   0  0  1  0  0  0  0  0  0  0  0  0
  147.5135  141.6752  153.8857 F   0  0  0  0  0  0  0  0  0  0  0  0
  151.9685  142.2742  158.8596 C   0  0  0  0  0  0  0  0  0  0  0  0
  152.4002  141.9115  160.1569 C   0  0  0  0  0  0  0  0  0  0  0  0
  152.6687  142.8980  161.1257 C   0  0  0  0  0  0  0  0  0  0  0  0
  152.5083  144.2597  160.8089 C   0  0  0  0  0  0  0  0  0  0  0  0
  152.0775  144.6335  159.5227 C   0  0  0  0  0  0  0  0  0  0  0  0
  151.8078  143.6483  158.5529 C   0  0  0  0  0  0  0  0  0  0  0  0
  150.8950  140.8956  155.1892 H   0  0  0  0  0  0  0  0  0  0  0  0
  150.4532  139.5630  156.2420 H   0  0  0  0  0  0  0  0  0  0  0  0
  148.4081  141.7209  156.1443 H   0  0  0  0  0  0  0  0  0  0  0  0
  146.4328  139.1317  154.9889 H   0  0  0  0  0  0  0  0  0  0  0  0
  145.6821  136.7637  154.8493 H   0  0  0  0  0  0  0  0  0  0  0  0
  149.4870  130.6821  159.3082 H   0  0  0  0  0  0  0  0  0  0  0  0
  149.9883  128.2553  159.2583 H   0  0  0  0  0  0  0  0  0  0  0  0
  150.8942  127.2077  157.1916 H   0  0  0  0  0  0  0  0  0  0  0  0
  151.3186  128.6019  155.1747 H   0  0  0  0  0  0  0  0  0  0  0  0
  150.8216  131.0289  155.2121 H   0  0  0  0  0  0  0  0  0  0  0  0
  148.7126  130.2740  153.5113 H   0  0  0  0  0  0  0  0  0  0  0  0
  147.5454  128.1141  153.8510 H   0  0  0  0  0  0  0  0  0  0  0  0
  145.9673  127.8313  155.7538 H   0  0  0  0  0  0  0  0  0  0  0  0
  145.5425  129.7266  157.3078 H   0  0  0  0  0  0  0  0  0  0  0  0
  146.6969  131.8933  156.9746 H   0  0  0  0  0  0  0  0  0  0  0  0
  151.9322  136.6551  156.3954 H   0  0  0  0  0  0  0  0  0  0  0  0
  147.5304  139.4174  152.9139 H   0  0  0  0  0  0  0  0  0  0  0  0
  149.8404  139.1903  152.7341 H   0  0  0  0  0  0  0  0  0  0  0  0
  149.4069  141.3033  153.5964 H   0  0  0  0  0  0  0  0  0  0  0  0
  152.5296  140.8724  160.4232 H   0  0  0  0  0  0  0  0  0  0  0  0
  152.9978  142.6089  162.1126 H   0  0  0  0  0  0  0  0  0  0  0  0
  152.7148  145.0161  161.5518 H   0  0  0  0  0  0  0  0  0  0  0  0
  151.9531  145.6783  159.2785 H   0  0  0  0  0  0  0  0  0  0  0  0
  151.4776  143.9696  157.5758 H   0  0  0  0  0  0  0  0  0  0  0  0
  1  2  2  0  0  0  0
  2  3  1  0  0  0  0
  2 38  1  0  0  0  0
  3  4  1  0  0  0  0
  4  5  1  0  0  0  0
  4 44  1  0  0  0  0
  4 45  1  0  0  0  0
  5 36  1  0  0  0  0
  5  6  1  0  0  0  0
  5 46  1  0  0  0  0
  6  7  1  0  0  0  0
  7  8  1  0  0  0  0
  7 34  1  0  0  0  0
  7 47  1  0  0  0  0
  8 33  1  0  0  0  0
  8  9  1  0  0  0  0
  9 10  2  0  0  0  0
  9 48  1  0  0  0  0
 10 11  1  0  0  0  0
 11 33  2  0  0  0  0
 11 12  1  0  0  0  0
 12 13  1  0  0  0  0
 12 30  2  0  0  0  0
 13 14  1  0  0  0  0
 13 22  1  0  0  0  0
 14 15  2  0  0  0  0
 14 16  1  0  0  0  0
 16 21  1  0  0  0  0
 16 17  2  0  0  0  0
 17 18  1  0  0  0  0
 17 49  1  0  0  0  0
 18 19  2  0  0  0  0
 18 50  1  0  0  0  0
 19 20  1  0  0  0  0
 19 51  1  0  0  0  0
 20 21  2  0  0  0  0
 20 52  1  0  0  0  0
 21 53  1  0  0  0  0
 22 23  2  0  0  0  0
 22 24  1  0  0  0  0
 24 29  1  0  0  0  0
 24 25  2  0  0  0  0
 25 26  1  0  0  0  0
 25 54  1  0  0  0  0
 26 27  2  0  0  0  0
 26 55  1  0  0  0  0
 27 28  1  0  0  0  0
 27 56  1  0  0  0  0
 28 29  2  0  0  0  0
 28 57  1  0  0  0  0
 29 58  1  0  0  0  0
 30 31  1  0  0  0  0
 31 32  2  0  0  0  0
 31 59  1  0  0  0  0
 32 33  1  0  0  0  0
 34 35  1  0  0  0  0
 34 36  1  0  0  0  0
 34 60  1  0  0  0  0
 35 61  1  0  0  0  0
 36 37  1  0  0  0  0
 36 62  1  0  0  0  0
 38 43  1  0  0  0  0
 38 39  2  0  0  0  0
 39 40  1  0  0  0  0
 39 63  1  0  0  0  0
 40 41  2  0  0  0  0
 40 64  1  0  0  0  0
 41 42  1  0  0  0  0
 41 65  1  0  0  0  0
 42 43  2  0  0  0  0
 42 66  1  0  0  0  0
 43 67  1  0  0  0  0
M  END
> <s_m_source_file>
AV-unprocessed.smi

> <i_m_source_file_index>
33

> <i_lp_mmshare_version>
43012

> <i_f3d_flags>
0

> <s_epik_input>
W2NIXTFbY0hdW2NIXVtjSF1bY0hdYzFDKD1PKU9bQ0gyXVtDQEBIXTJPW0NASF0oW0NAQEhdKFtPSF0pW0NAQEhdMkYpbihbY0hdbjMpYyhjMzQpbltjSF1uYzROKEMoPU8pYzVbY0hdW2NIXVtjSF1bY0hdW2NIXTUpQyg9TyljNltjSF1bY0hdW2NIXVtjSF1bY0hdNg==

> <s_epik_cmdline>
J2VwaWtfcHl0aG9uJywgJy1waCcsICc3LjAnLCAnLXRuJywgJzgnLCAnLW1hJywgJzIwMCcsICctbWV0YWxfYmluZGluZycsICctaW1hZScsICc8aW5maWxlLm1hZT4nLCAnLW9tYWUnLCAnPG91dGZpbGUubWFlPic=

> <r_lp_tautomer_probability>
1

> <r_epik_Ionization_Penalty>
0.00067664

> <r_epik_Ionization_Penalty_Charging>
0

> <r_epik_Ionization_Penalty_Neutral>
0.00067664

> <r_epik_State_Penalty>
0.000428095

> <r_epik_Charging_Adjusted_Penalty>
0.000428095

> <i_epik_Tot_Q>
0

> <i_epik_Tot_abs_Q>
0

> <r_epik_Metal_State_Penalty>
-0

> <b_epik_Metal_Only>
0

> <s_epik_Chemistry_Notes>
This compound has an ester and may undergo hydrolysis at high or low pH. This compound contains an acetal/aminal-like group ( X-CH(R)-Y where X, Y are N, S, or O) that may be acid/base labile, releasing an aldehyde.

> <s_lp_Force_Field>
OPLS_2005

> <r_lp_Energy>
74.9187

> <b_lp_Chiralities_Consistent>
1

> <s_lp_Variant>
AV-unprocessed.smi:33-15

> <Gold.Version>
5.8.1

> <Gold.Id.Protein>
6NUR|6NUR_protein|mol2

> <Gold.PLP.Fitness>
63.7039

> <Gold.PLP.PLP>
-59.5693

> <Gold.PLP.part.hbond>
-4.2922

> <Gold.PLP.part.metal>
0.0000

> <Gold.PLP.part.buried>
-5.6365

> <Gold.PLP.part.nonpolar>
-49.3226

> <Gold.PLP.part.repulsive>
0.4793

> <Gold.PLP.ligand.clash>
1.0151

> <Gold.PLP.ligand.torsion>
4.2986

> <Gold.PLP.Chemscore.Hbond>
2.7920

> <Gold.PLP.Chemscore.CHOScore>
0.0000

> <Gold.PLP.Chemscore.Metal>
0.0000

> <Gold.Chemscore.Hbonds>
donor molecule, donor type, donor heavy atom, donor atom, acceptor molecule, acceptor atom, score
      L1  H    35    61       P1  7957  0.86
      P1  H  6896  6907       L1    15  0.80
      P1  H  7997  8008       L1     1  0.54

> <Gold.PLP.Chemscore.Internal.Correction>
5.3710

> <Gold.Rescore>
     Score         DG    S(hbond)    S(metal)    S(lipo)     H(rot)  DE(clash)    DE(int)     intcor
     15.93     -24.34       2.81        0.00     136.24       2.52       0.10       8.31       ----

> <Gold.Chemscore.Fitness>
15.9281

> <Gold.Chemscore.DG>
-24.3443

> <Gold.Chemscore.ZeroCoef>
-5.4800

> <Gold.Chemscore.Hbond>
2.8107

> <Gold.Chemscore.Metal>
0.0000

> <Gold.Chemscore.Lipo>
136.2374

> <Gold.Chemscore.Internal_Hbond>
0.0000

> <Gold.Chemscore.DEClash>
0.1033

> <Gold.Chemscore.DEInternal>
8.3128

> <Gold.Chemscore.Rot>
2.5247

> <Gold.Chemscore.Internal.Correction>
   9.000000E+99

> <Gold.Chemscore.Hbonds>
donor molecule, donor type, donor heavy atom, donor atom, acceptor molecule, acceptor atom, score
      L1  H    35    61       P1  7957  0.80
      P1  H  6896  6907       L1    15  0.77
      P1  H  7997  8008       L1     1  0.50

> <Gold.Chemscore.Hbond.Weighted>
-9.3878

> <Gold.Chemscore.Metal.Weighted>
-0.0000

> <Gold.Chemscore.Lipo.Weighted>
-15.9398

> <Gold.Chemscore.Internal_Hbond.Weighted>
0.0000

> <Gold.Chemscore.DEClash.Weighted>
0.1033

> <Gold.Chemscore.DEInternal.Weighted>
8.3128

> <Gold.Chemscore.Rot.Weighted>
6.4633

> <Gold.Chemscore.Internal.Correction.Weighted>
   9.000000E+99

> <Gold.Protein.RotatedTorsions>
[ 6907 6896 6895 6894 ] final -150.02 input  -60.11 | X-H torsion
[ 7974 7965 7964 7962 ] final  -53.42 input  175.53 | X-H torsion
[ 8008 7997 7996 7995 ] final  -69.51 input   59.86 | X-H torsion
[ 10167 10162 10161 10158 ] final  -97.48 input  -65.29 | X-H torsion
[ 10718 10713 10712 10709 ] final   23.85 input   66.30 | X-H torsion
[ 10763 10752 10751 10750 ] final -149.30 input  -60.55 | X-H torsion
[ 11005 11000 10999 10996 ] final  142.16 input  -57.11 | X-H torsion

> <Gold.Protein.ActiveResidues>
 VAL166  LYS551  ARG553  GLY616  TRP617  ASP618  TYR619  PRO620  LYS621  CYS622 
 ASP623  PHE694  ASN695  SER759  ASP760  ASP761  ALA762  ILE779  LEU786  VAL792 
 PHE793  MET794  SER795  GLU796  ALA797  LYS798  CYS799  TRP800  GLU811  SER814 

> <Gold.Protein.RotatedAtoms>
  151.1926  133.4658  159.2594 H   0  0  0  0  0  0  0  0  0  0  0  0  # atno 6907 bound_to 6896
  151.1149  135.0047  159.8521 H   0  0  0  0  0  0  0  0  0  0  0  0  # atno 6908 bound_to 6896
  152.5452  134.1842  159.8701 H   0  0  0  0  0  0  0  0  0  0  0  0  # atno 6909 bound_to 6896
  145.8970  140.8024  142.9762 H   0  0  0  0  0  0  0  0  0  0  0  0  # atno 7974 bound_to 7965
  154.4944  140.0852  156.7664 H   0  0  0  0  0  0  0  0  0  0  0  0  # atno 8008 bound_to 7997
  155.4153  140.3443  155.4248 H   0  0  0  0  0  0  0  0  0  0  0  0  # atno 8009 bound_to 7997
  156.1373  140.1519  156.8962 H   0  0  0  0  0  0  0  0  0  0  0  0  # atno 8010 bound_to 7997
  140.2830  143.3270  152.0422 H   0  0  0  0  0  0  0  0  0  0  0  0  # atno 10167 bound_to 10162
  157.1718  130.6763  149.6080 H   0  0  0  0  0  0  0  0  0  0  0  0  # atno 10718 bound_to 10713
  154.8185  135.3312  154.7108 H   0  0  0  0  0  0  0  0  0  0  0  0  # atno 10763 bound_to 10752
  153.7745  135.6923  153.4904 H   0  0  0  0  0  0  0  0  0  0  0  0  # atno 10764 bound_to 10752
  153.2022  135.4512  155.0228 H   0  0  0  0  0  0  0  0  0  0  0  0  # atno 10765 bound_to 10752
  140.0455  134.9283  157.0922 H   0  0  0  0  0  0  0  0  0  0  0  0  # atno 11005 bound_to 11000
  144.6733  140.1618  143.7421 LP  0  0  0  0  0  0  0  0  0  0  0  0  # atno 17320 bound_to 7965
  145.8838  139.2337  143.1590 LP  0  0  0  0  0  0  0  0  0  0  0  0  # atno 17321 bound_to 7965
  139.4957  144.6578  151.6533 LP  0  0  0  0  0  0  0  0  0  0  0  0  # atno 17342 bound_to 10162
  140.5796  143.9969  150.6261 LP  0  0  0  0  0  0  0  0  0  0  0  0  # atno 17343 bound_to 10162
  155.9737  130.4676  150.6332 LP  0  0  0  0  0  0  0  0  0  0  0  0  # atno 17370 bound_to 10713
  157.4036  131.0813  151.1286 LP  0  0  0  0  0  0  0  0  0  0  0  0  # atno 17371 bound_to 10713
  140.4000  134.2093  155.7164 LP  0  0  0  0  0  0  0  0  0  0  0  0  # atno 17394 bound_to 11000
  141.1905  133.8216  157.0916 LP  0  0  0  0  0  0  0  0  0  0  0  0  # atno 17395 bound_to 11000

$$$$
