AV-unprocessed.smi:3303|AV-procd|sdf|12664|dock8
  -GOLD-   2272019 03D 1   1.00000     0.00000
 Structure written by MMmdl.
 45 46  0  0  0  0  0  0  0  0  3 V2000
  152.0181  138.7414  155.1174 C   0  0  0  0  0  0  0  0  0  0  0  0
  150.9139  139.6838  154.6096 C   0  0  1  0  0  0  0  0  0  0  0  0
  149.6133  138.9291  154.2717 C   0  0  0  0  0  0  0  0  0  0  0  0
  148.5831  139.8320  153.6934 N   0  3  1  0  0  0  0  0  0  0  0  0
  147.3966  139.0618  153.2471 C   0  0  0  0  0  0  0  0  0  0  0  0
  148.2587  140.9744  154.6008 C   0  0  2  0  0  0  0  0  0  0  0  0
  147.2290  141.9431  153.9870 C   0  0  0  0  0  0  0  0  0  0  0  0
  149.5394  141.7556  154.9751 C   0  0  0  0  0  0  0  0  0  0  0  0
  150.6418  140.8622  155.5676 C   0  0  1  0  0  0  0  0  0  0  0  0
  150.2706  140.4043  156.9288 N   0  3  0  0  0  0  0  0  0  0  0  0
  151.3067  140.6207  157.9585 C   0  0  0  0  0  0  0  0  0  0  0  0
  151.9349  142.0142  157.8249 C   0  0  0  0  0  0  0  0  0  0  0  0
  152.2036  142.6513  159.1747 C   0  0  0  0  0  0  0  0  0  0  0  0
  153.0134  142.0030  160.1315 C   0  0  0  0  0  0  0  0  0  0  0  0
  153.2351  142.6442  161.3659 C   0  0  0  0  0  0  0  0  0  0  0  0
  152.6422  143.9011  161.5939 C   0  0  0  0  0  0  0  0  0  0  0  0
  151.8515  144.4648  160.5728 C   0  0  0  0  0  0  0  0  0  0  0  0
  151.6342  143.8594  159.3847 N   0  0  0  0  0  0  0  0  0  0  0  0
  151.7230  138.2259  156.0318 H   0  0  0  0  0  0  0  0  0  0  0  0
  152.9378  139.2893  155.3248 H   0  0  0  0  0  0  0  0  0  0  0  0
  152.2530  137.9792  154.3737 H   0  0  0  0  0  0  0  0  0  0  0  0
  151.2837  140.1115  153.6760 H   0  0  0  0  0  0  0  0  0  0  0  0
  149.8380  138.1390  153.5538 H   0  0  0  0  0  0  0  0  0  0  0  0
  149.2124  138.4386  155.1604 H   0  0  0  0  0  0  0  0  0  0  0  0
  146.8262  138.6915  154.1000 H   0  0  0  0  0  0  0  0  0  0  0  0
  147.6951  138.2046  152.6430 H   0  0  0  0  0  0  0  0  0  0  0  0
  146.7376  139.6658  152.6241 H   0  0  0  0  0  0  0  0  0  0  0  0
  147.8256  140.5629  155.5143 H   0  0  0  0  0  0  0  0  0  0  0  0
  147.0858  142.8150  154.6262 H   0  0  0  0  0  0  0  0  0  0  0  0
  146.2483  141.4817  153.8713 H   0  0  0  0  0  0  0  0  0  0  0  0
  147.5527  142.3022  153.0092 H   0  0  0  0  0  0  0  0  0  0  0  0
  149.9286  142.2478  154.0823 H   0  0  0  0  0  0  0  0  0  0  0  0
  149.3004  142.5570  155.6762 H   0  0  0  0  0  0  0  0  0  0  0  0
  151.5513  141.4624  155.6365 H   0  0  0  0  0  0  0  0  0  0  0  0
  149.4365  140.8955  157.2176 H   0  0  0  0  0  0  0  0  0  0  0  0
  150.8610  140.5083  158.9479 H   0  0  0  0  0  0  0  0  0  0  0  0
  152.0742  139.8517  157.8576 H   0  0  0  0  0  0  0  0  0  0  0  0
  152.8732  141.9525  157.2714 H   0  0  0  0  0  0  0  0  0  0  0  0
  151.2789  142.6653  157.2454 H   0  0  0  0  0  0  0  0  0  0  0  0
  153.4558  141.0384  159.9293 H   0  0  0  0  0  0  0  0  0  0  0  0
  153.8486  142.1802  162.1242 H   0  0  0  0  0  0  0  0  0  0  0  0
  152.7900  144.4211  162.5289 H   0  0  0  0  0  0  0  0  0  0  0  0
  151.3827  145.4276  160.7129 H   0  0  0  0  0  0  0  0  0  0  0  0
  150.0646  139.4162  156.8904 H   0  0  0  0  0  0  0  0  0  0  0  0
  148.9898  140.2309  152.8588 H   0  0  0  0  0  0  0  0  0  0  0  0
  1  2  1  0  0  0  0
  1 19  1  0  0  0  0
  1 20  1  0  0  0  0
  1 21  1  0  0  0  0
  2  9  1  0  0  0  0
  2  3  1  0  0  0  0
  2 22  1  0  0  0  0
  3  4  1  0  0  0  0
  3 23  1  0  0  0  0
  3 24  1  0  0  0  0
  4  5  1  0  0  0  0
  4  6  1  0  0  0  0
  4 45  1  0  0  0  0
  5 25  1  0  0  0  0
  5 26  1  0  0  0  0
  5 27  1  0  0  0  0
  6  7  1  0  0  0  0
  6  8  1  0  0  0  0
  6 28  1  0  0  0  0
  7 29  1  0  0  0  0
  7 30  1  0  0  0  0
  7 31  1  0  0  0  0
  8  9  1  0  0  0  0
  8 32  1  0  0  0  0
  8 33  1  0  0  0  0
  9 10  1  0  0  0  0
  9 34  1  0  0  0  0
 10 11  1  0  0  0  0
 10 35  1  0  0  0  0
 10 44  1  0  0  0  0
 11 12  1  0  0  0  0
 11 36  1  0  0  0  0
 11 37  1  0  0  0  0
 12 13  1  0  0  0  0
 12 38  1  0  0  0  0
 12 39  1  0  0  0  0
 13 18  1  0  0  0  0
 13 14  2  0  0  0  0
 14 15  1  0  0  0  0
 14 40  1  0  0  0  0
 15 16  2  0  0  0  0
 15 41  1  0  0  0  0
 16 17  1  0  0  0  0
 16 42  1  0  0  0  0
 17 18  2  0  0  0  0
 17 43  1  0  0  0  0
M  CHG  1   4   1
M  CHG  1  10   1
M  END
> <s_m_source_file>
AV-unprocessed.smi

> <i_m_source_file_index>
3303

> <i_lp_mmshare_version>
43012

> <i_f3d_flags>
0

> <s_epik_input>
W0NIM11bQ0BASF0xW0NIMl1OKFtDSDNdKVtDQEBIXShbQ0gzXSlbQ0gyXVtDQEhdMVtOSF1bQ0gyXVtDSDJdYzJbY0hdW2NIXVtjSF1bY0hdbjI=

> <s_epik_cmdline>
J2VwaWtfcHl0aG9uJywgJy1waCcsICc3LjAnLCAnLXRuJywgJzgnLCAnLW1hJywgJzIwMCcsICctbWV0YWxfYmluZGluZycsICctaW1hZScsICc8aW5maWxlLm1hZT4nLCAnLW9tYWUnLCAnPG91dGZpbGUubWFlPic=

> <r_epik_Ionization_Penalty>
0.0769462

> <r_epik_Ionization_Penalty_Charging>
0.0759813

> <r_epik_Ionization_Penalty_Neutral>
0.000964829

> <r_epik_State_Penalty>
0.0654373

> <r_epik_Charging_Adjusted_Penalty>
0.141419

> <i_epik_Tot_Q>
2

> <i_epik_Tot_abs_Q>
2

> <r_epik_Metal_State_Penalty>
0.0656439

> <b_epik_Metal_Only>
0

> <s_lp_Force_Field>
OPLS_2005

> <r_lp_Energy>
34.3244

> <b_lp_Chiralities_Consistent>
1

> <s_lp_Variant>
AV-unprocessed.smi:3303-8

> <Gold.Version>
5.8.1

> <Gold.Id.Protein>
6NUR|6NUR_protein|mol2

> <Gold.PLP.Fitness>
45.7090

> <Gold.PLP.PLP>
-44.7707

> <Gold.PLP.part.hbond>
-1.0000

> <Gold.PLP.part.metal>
0.0000

> <Gold.PLP.part.buried>
-2.7756

> <Gold.PLP.part.nonpolar>
-39.2670

> <Gold.PLP.part.repulsive>
0.1415

> <Gold.PLP.ligand.clash>
0.0000

> <Gold.PLP.ligand.torsion>
1.0432

> <Gold.PLP.Chemscore.Hbond>
1.0000

> <Gold.PLP.Chemscore.CHOScore>
0.0000

> <Gold.PLP.Chemscore.Metal>
0.0000

> <Gold.Chemscore.Hbonds>
donor molecule, donor type, donor heavy atom, donor atom, acceptor molecule, acceptor atom, score
      L1  H     4    45       P1  7957  1.00

> <Gold.PLP.Chemscore.Internal.Correction>
0.0248

> <Gold.Rescore>
     Score         DG    S(hbond)    S(metal)    S(lipo)     H(rot)  DE(clash)    DE(int)     intcor
     19.07     -20.12       1.00        0.00     126.71       1.37       0.07       0.97       ----

> <Gold.Chemscore.Fitness>
19.0706

> <Gold.Chemscore.DG>
-20.1162

> <Gold.Chemscore.ZeroCoef>
-5.4800

> <Gold.Chemscore.Hbond>
0.9968

> <Gold.Chemscore.Metal>
0.0000

> <Gold.Chemscore.Lipo>
126.7115

> <Gold.Chemscore.Internal_Hbond>
0.0000

> <Gold.Chemscore.DEClash>
0.0721

> <Gold.Chemscore.DEInternal>
0.9735

> <Gold.Chemscore.Rot>
1.3744

> <Gold.Chemscore.Internal.Correction>
   9.000000E+99

> <Gold.Chemscore.Hbonds>
donor molecule, donor type, donor heavy atom, donor atom, acceptor molecule, acceptor atom, score
      L1  H     4    45       P1  7957  0.94

> <Gold.Chemscore.Hbond.Weighted>
-3.3294

> <Gold.Chemscore.Metal.Weighted>
-0.0000

> <Gold.Chemscore.Lipo.Weighted>
-14.8252

> <Gold.Chemscore.Internal_Hbond.Weighted>
0.0000

> <Gold.Chemscore.DEClash.Weighted>
0.0721

> <Gold.Chemscore.DEInternal.Weighted>
0.9735

> <Gold.Chemscore.Rot.Weighted>
3.5185

> <Gold.Chemscore.Internal.Correction.Weighted>
   9.000000E+99

> <Gold.Protein.RotatedTorsions>
[ 6907 6896 6895 6894 ] final  -39.00 input  -60.11 | X-H torsion
[ 7974 7965 7964 7962 ] final   47.41 input  175.53 | X-H torsion
[ 8008 7997 7996 7995 ] final   89.70 input   59.86 | X-H torsion
[ 10167 10162 10161 10158 ] final  -19.80 input  -65.29 | X-H torsion
[ 10718 10713 10712 10709 ] final  -66.32 input   66.30 | X-H torsion
[ 10763 10752 10751 10750 ] final  151.25 input  -60.55 | X-H torsion
[ 11005 11000 10999 10996 ] final   89.82 input  -57.11 | X-H torsion

> <Gold.Protein.ActiveResidues>
 VAL166  LYS551  ARG553  GLY616  TRP617  ASP618  TYR619  PRO620  LYS621  CYS622 
 ASP623  PHE694  ASN695  SER759  ASP760  ASP761  ALA762  ILE779  LEU786  VAL792 
 PHE793  MET794  SER795  GLU796  ALA797  LYS798  CYS799  TRP800  GLU811  SER814 

> <Gold.Protein.RotatedAtoms>
  150.9956  134.9280  159.7924 H   0  0  0  0  0  0  0  0  0  0  0  0  # atno 6907 bound_to 6896
  152.5263  134.3223  159.9163 H   0  0  0  0  0  0  0  0  0  0  0  0  # atno 6908 bound_to 6896
  151.3229  133.3991  159.2690 H   0  0  0  0  0  0  0  0  0  0  0  0  # atno 6909 bound_to 6896
  146.0301  139.4753  142.9843 H   0  0  0  0  0  0  0  0  0  0  0  0  # atno 7974 bound_to 7965
  156.0031  140.3358  155.6865 H   0  0  0  0  0  0  0  0  0  0  0  0  # atno 8008 bound_to 7997
  155.6262  140.0680  157.2681 H   0  0  0  0  0  0  0  0  0  0  0  0  # atno 8009 bound_to 7997
  154.4256  140.1768  156.1412 H   0  0  0  0  0  0  0  0  0  0  0  0  # atno 8010 bound_to 7997
  140.7271  143.4783  151.0152 H   0  0  0  0  0  0  0  0  0  0  0  0  # atno 10167 bound_to 10162
  156.0619  130.4260  150.1691 H   0  0  0  0  0  0  0  0  0  0  0  0  # atno 10718 bound_to 10713
  154.1006  135.2846  155.3252 H   0  0  0  0  0  0  0  0  0  0  0  0  # atno 10763 bound_to 10752
  154.6558  135.5352  153.7960 H   0  0  0  0  0  0  0  0  0  0  0  0  # atno 10764 bound_to 10752
  153.0380  135.6521  154.1170 H   0  0  0  0  0  0  0  0  0  0  0  0  # atno 10765 bound_to 10752
  139.8868  134.8575  156.3197 H   0  0  0  0  0  0  0  0  0  0  0  0  # atno 11005 bound_to 11000
  145.7055  141.0123  143.1481 LP  0  0  0  0  0  0  0  0  0  0  0  0  # atno 17320 bound_to 7965
  144.7026  139.8695  143.7439 LP  0  0  0  0  0  0  0  0  0  0  0  0  # atno 17321 bound_to 7965
  139.8480  143.7475  152.3179 LP  0  0  0  0  0  0  0  0  0  0  0  0  # atno 17342 bound_to 10162
  139.7648  144.7495  151.0311 LP  0  0  0  0  0  0  0  0  0  0  0  0  # atno 17343 bound_to 10162
  156.9758  130.9849  151.3448 LP  0  0  0  0  0  0  0  0  0  0  0  0  # atno 17370 bound_to 10713
  157.5634  130.8261  149.8296 LP  0  0  0  0  0  0  0  0  0  0  0  0  # atno 17371 bound_to 10713
  140.9795  133.7276  156.0651 LP  0  0  0  0  0  0  0  0  0  0  0  0  # atno 17394 bound_to 11000
  140.7768  134.3771  157.5496 LP  0  0  0  0  0  0  0  0  0  0  0  0  # atno 17395 bound_to 11000

$$$$
