AV-unprocessed.smi:2923|AV-procd|sdf|11204|dock7
  -GOLD-   2272016 93D 1   1.00000     0.00000
 Structure written by MMmdl.
 47 49  0  0  0  0  0  0  0  0  2 V2000
  143.4422  132.4434  149.5082 C   0  0  0  0  0  0  0  0  0  0  0  0
  144.5227  132.6719  150.4588 N   0  0  0  0  0  0  0  0  0  0  0  0
  145.3417  131.5584  150.9250 C   0  0  0  0  0  0  0  0  0  0  0  0
  144.7414  133.9677  150.9747 C   0  0  0  0  0  0  0  0  0  0  0  0
  146.0123  134.4318  151.3938 C   0  0  0  0  0  0  0  0  0  0  0  0
  146.1497  135.7411  151.8984 C   0  0  0  0  0  0  0  0  0  0  0  0
  145.0232  136.5862  151.9757 C   0  0  0  0  0  0  0  0  0  0  0  0
  145.2087  137.8921  152.5048 N   0  0  0  0  0  0  0  0  0  0  0  0
  146.2495  138.3697  153.2087 C   0  0  0  0  0  0  0  0  0  0  0  0
  147.2284  137.7149  153.5658 O   0  0  0  0  0  0  0  0  0  0  0  0
  146.0885  139.6690  153.4924 N   0  0  0  0  0  0  0  0  0  0  0  0
  147.0494  140.4730  154.2411 C   0  0  2  0  0  0  0  0  0  0  0  0
  146.3737  141.3808  155.2806 C   0  0  1  0  0  0  0  0  0  0  0  0
  146.6244  141.1572  156.7474 C   0  0  0  0  0  0  0  0  0  0  0  0
  147.7533  142.1451  157.0557 C   0  0  0  0  0  0  0  0  0  0  0  0
  148.3660  142.3961  155.7932 O   0  0  0  0  0  0  0  0  0  0  0  0
  147.3272  142.4731  154.8200 C   0  0  1  0  0  0  0  0  0  0  0  0
  147.5684  141.7269  153.4908 C   0  0  0  0  0  0  0  0  0  0  0  0
  149.0185  141.6710  153.0077 C   0  0  0  0  0  0  0  0  0  0  0  0
  146.7300  142.2501  152.3155 C   0  0  0  0  0  0  0  0  0  0  0  0
  143.7729  136.0732  151.5557 C   0  0  0  0  0  0  0  0  0  0  0  0
  143.6864  134.8121  151.0805 N   0  3  0  0  0  0  0  0  0  0  0  0
  142.4801  132.7021  149.9516 H   0  0  0  0  0  0  0  0  0  0  0  0
  143.3980  131.3981  149.2022 H   0  0  0  0  0  0  0  0  0  0  0  0
  143.5870  133.0463  148.6112 H   0  0  0  0  0  0  0  0  0  0  0  0
  146.3938  131.7356  150.6983 H   0  0  0  0  0  0  0  0  0  0  0  0
  145.0504  130.6232  150.4463 H   0  0  0  0  0  0  0  0  0  0  0  0
  145.2351  131.4292  152.0027 H   0  0  0  0  0  0  0  0  0  0  0  0
  146.8889  133.8037  151.3381 H   0  0  0  0  0  0  0  0  0  0  0  0
  147.1195  136.0925  152.2196 H   0  0  0  0  0  0  0  0  0  0  0  0
  144.4430  138.5332  152.3569 H   0  0  0  0  0  0  0  0  0  0  0  0
  145.2542  140.1354  153.1681 H   0  0  0  0  0  0  0  0  0  0  0  0
  147.8611  139.8900  154.6823 H   0  0  0  0  0  0  0  0  0  0  0  0
  145.3397  141.6194  155.0250 H   0  0  0  0  0  0  0  0  0  0  0  0
  145.7432  141.3517  157.3592 H   0  0  0  0  0  0  0  0  0  0  0  0
  146.9436  140.1317  156.9357 H   0  0  0  0  0  0  0  0  0  0  0  0
  147.3482  143.0803  157.4451 H   0  0  0  0  0  0  0  0  0  0  0  0
  148.4694  141.7555  157.7794 H   0  0  0  0  0  0  0  0  0  0  0  0
  146.8702  143.4609  154.7440 H   0  0  0  0  0  0  0  0  0  0  0  0
  149.3886  142.6603  152.7374 H   0  0  0  0  0  0  0  0  0  0  0  0
  149.1241  141.0272  152.1339 H   0  0  0  0  0  0  0  0  0  0  0  0
  149.6836  141.2765  153.7762 H   0  0  0  0  0  0  0  0  0  0  0  0
  147.0545  143.2444  152.0074 H   0  0  0  0  0  0  0  0  0  0  0  0
  145.6734  142.3259  152.5739 H   0  0  0  0  0  0  0  0  0  0  0  0
  146.8056  141.5988  151.4442 H   0  0  0  0  0  0  0  0  0  0  0  0
  142.8358  136.6080  151.5887 H   0  0  0  0  0  0  0  0  0  0  0  0
  142.7697  134.4752  150.7858 H   0  0  0  0  0  0  0  0  0  0  0  0
  1  2  1  0  0  0  0
  1 23  1  0  0  0  0
  1 24  1  0  0  0  0
  1 25  1  0  0  0  0
  2  3  1  0  0  0  0
  2  4  1  0  0  0  0
  3 26  1  0  0  0  0
  3 27  1  0  0  0  0
  3 28  1  0  0  0  0
  4 22  1  0  0  0  0
  4  5  2  0  0  0  0
  5  6  1  0  0  0  0
  5 29  1  0  0  0  0
  6  7  2  0  0  0  0
  6 30  1  0  0  0  0
  7  8  1  0  0  0  0
  7 21  1  0  0  0  0
  8  9  1  0  0  0  0
  8 31  1  0  0  0  0
  9 10  2  0  0  0  0
  9 11  1  0  0  0  0
 11 12  1  0  0  0  0
 11 32  1  0  0  0  0
 12 18  1  0  0  0  0
 12 13  1  0  0  0  0
 12 33  1  0  0  0  0
 13 17  1  0  0  0  0
 13 14  1  0  0  0  0
 13 34  1  0  0  0  0
 14 15  1  0  0  0  0
 14 35  1  0  0  0  0
 14 36  1  0  0  0  0
 15 16  1  0  0  0  0
 15 37  1  0  0  0  0
 15 38  1  0  0  0  0
 16 17  1  0  0  0  0
 17 18  1  0  0  0  0
 17 39  1  0  0  0  0
 18 19  1  0  0  0  0
 18 20  1  0  0  0  0
 19 40  1  0  0  0  0
 19 41  1  0  0  0  0
 19 42  1  0  0  0  0
 20 43  1  0  0  0  0
 20 44  1  0  0  0  0
 20 45  1  0  0  0  0
 21 22  2  0  0  0  0
 21 46  1  0  0  0  0
 22 47  1  0  0  0  0
M  CHG  1  22   1
M  END
> <s_m_source_file>
AV-unprocessed.smi

> <i_m_source_file_index>
2923

> <i_lp_mmshare_version>
43012

> <i_f3d_flags>
0

> <s_epik_input>
W0NIM11OKFtDSDNdKWMxW2NIXVtjSF1jKFtjSF1uMSlbTkhdQyg9TylbTkhdW0NASF0yQyhbQ0gzXSkoW0NIM10pW0NAQEhdKFtDQEhdMjMpT1tDSDJdW0NIMl0z

> <s_epik_cmdline>
J2VwaWtfcHl0aG9uJywgJy1waCcsICc3LjAnLCAnLXRuJywgJzgnLCAnLW1hJywgJzIwMCcsICctbWV0YWxfYmluZGluZycsICctaW1hZScsICc8aW5maWxlLm1hZT4nLCAnLW9tYWUnLCAnPG91dGZpbGUubWFlPic=

> <r_lp_tautomer_probability>
0.999994

> <r_epik_Ionization_Penalty>
0.252205

> <r_epik_Ionization_Penalty_Charging>
0.252185

> <r_epik_Ionization_Penalty_Neutral>
1.99479e-05

> <r_epik_State_Penalty>
0.243573

> <r_epik_Charging_Adjusted_Penalty>
0.495758

> <i_epik_Tot_Q>
1

> <i_epik_Tot_abs_Q>
1

> <r_epik_Metal_State_Penalty>
0.534372

> <b_epik_Metal_Only>
0

> <s_lp_Force_Field>
OPLS_2005

> <r_lp_Energy>
44.365

> <b_lp_Chiralities_Consistent>
1

> <s_lp_Variant>
AV-unprocessed.smi:2923-3

> <Gold.Version>
5.8.1

> <Gold.Id.Protein>
6NUR|6NUR_protein|mol2

> <Gold.PLP.Fitness>
40.3906

> <Gold.PLP.PLP>
-29.5339

> <Gold.PLP.part.hbond>
-3.1290

> <Gold.PLP.part.metal>
0.0000

> <Gold.PLP.part.buried>
-4.3105

> <Gold.PLP.part.nonpolar>
-23.1999

> <Gold.PLP.part.repulsive>
0.2535

> <Gold.PLP.ligand.clash>
0.0000

> <Gold.PLP.ligand.torsion>
0.5479

> <Gold.PLP.Chemscore.Hbond>
3.9250

> <Gold.PLP.Chemscore.CHOScore>
0.0000

> <Gold.PLP.Chemscore.Metal>
0.0000

> <Gold.Chemscore.Hbonds>
donor molecule, donor type, donor heavy atom, donor atom, acceptor molecule, acceptor atom, score
      L1  H     8    31       P1 10175  0.91
      L1  H    11    32       P1 10175  1.00
      L1  H    22    47       P1 10186  1.43

> <Gold.PLP.Chemscore.Internal.Correction>
0.1776

> <Gold.Rescore>
     Score         DG    S(hbond)    S(metal)    S(lipo)     H(rot)  DE(clash)    DE(int)     intcor
     16.23     -18.30       2.27        0.00      66.67       1.00       0.40       1.66       ----

> <Gold.Chemscore.Fitness>
16.2347

> <Gold.Chemscore.DG>
-18.2968

> <Gold.Chemscore.ZeroCoef>
-5.4800

> <Gold.Chemscore.Hbond>
2.2684

> <Gold.Chemscore.Metal>
0.0000

> <Gold.Chemscore.Lipo>
66.6700

> <Gold.Chemscore.Internal_Hbond>
0.0000

> <Gold.Chemscore.DEClash>
0.3987

> <Gold.Chemscore.DEInternal>
1.6634

> <Gold.Chemscore.Rot>
1.0000

> <Gold.Chemscore.Internal.Correction>
   9.000000E+99

> <Gold.Chemscore.Hbonds>
donor molecule, donor type, donor heavy atom, donor atom, acceptor molecule, acceptor atom, score
      L1  H     8    31       P1 10175  0.84
      L1  H    11    32       P1 10175  1.00
      L1  H    22    47       P1 10186  0.21

> <Gold.Chemscore.Hbond.Weighted>
-7.5764

> <Gold.Chemscore.Metal.Weighted>
-0.0000

> <Gold.Chemscore.Lipo.Weighted>
-7.8004

> <Gold.Chemscore.Internal_Hbond.Weighted>
0.0000

> <Gold.Chemscore.DEClash.Weighted>
0.3987

> <Gold.Chemscore.DEInternal.Weighted>
1.6634

> <Gold.Chemscore.Rot.Weighted>
2.5600

> <Gold.Chemscore.Internal.Correction.Weighted>
   9.000000E+99

> <Gold.Protein.RotatedTorsions>
[ 6907 6896 6895 6894 ] final -136.27 input  -60.11 | X-H torsion
[ 7974 7965 7964 7962 ] final  -88.23 input  175.53 | X-H torsion
[ 8008 7997 7996 7995 ] final  162.54 input   59.86 | X-H torsion
[ 10167 10162 10161 10158 ] final  160.47 input  -65.29 | X-H torsion
[ 10718 10713 10712 10709 ] final  141.96 input   66.30 | X-H torsion
[ 10763 10752 10751 10750 ] final   60.18 input  -60.55 | X-H torsion
[ 11005 11000 10999 10996 ] final -136.81 input  -57.11 | X-H torsion

> <Gold.Protein.ActiveResidues>
 VAL166  LYS551  ARG553  GLY616  TRP617  ASP618  TYR619  PRO620  LYS621  CYS622 
 ASP623  PHE694  ASN695  SER759  ASP760  ASP761  ALA762  ILE779  LEU786  VAL792 
 PHE793  MET794  SER795  GLU796  ALA797  LYS798  CYS799  TRP800  GLU811  SER814 

> <Gold.Protein.RotatedAtoms>
  151.0080  133.5992  159.2686 H   0  0  0  0  0  0  0  0  0  0  0  0  # atno 6907 bound_to 6896
  151.3154  135.0804  159.9297 H   0  0  0  0  0  0  0  0  0  0  0  0  # atno 6908 bound_to 6896
  152.5292  133.9737  159.7828 H   0  0  0  0  0  0  0  0  0  0  0  0  # atno 6909 bound_to 6896
  145.4560  140.9561  143.1996 H   0  0  0  0  0  0  0  0  0  0  0  0  # atno 7974 bound_to 7965
  156.2024  140.1747  156.7872 H   0  0  0  0  0  0  0  0  0  0  0  0  # atno 8008 bound_to 7997
  154.5609  140.0700  156.8848 H   0  0  0  0  0  0  0  0  0  0  0  0  # atno 8009 bound_to 7997
  155.2850  140.3351  155.4258 H   0  0  0  0  0  0  0  0  0  0  0  0  # atno 8010 bound_to 7997
  139.4840  144.4631  151.8678 H   0  0  0  0  0  0  0  0  0  0  0  0  # atno 10167 bound_to 10162
  157.3860  131.0998  151.0693 H   0  0  0  0  0  0  0  0  0  0  0  0  # atno 10718 bound_to 10713
  152.9914  135.5545  154.5833 H   0  0  0  0  0  0  0  0  0  0  0  0  # atno 10763 bound_to 10752
  154.5210  135.2807  155.1265 H   0  0  0  0  0  0  0  0  0  0  0  0  # atno 10764 bound_to 10752
  154.2618  135.6379  153.5330 H   0  0  0  0  0  0  0  0  0  0  0  0  # atno 10765 bound_to 10752
  140.8770  134.1979  157.4615 H   0  0  0  0  0  0  0  0  0  0  0  0  # atno 11005 bound_to 11000
  144.8032  139.6101  143.7062 LP  0  0  0  0  0  0  0  0  0  0  0  0  # atno 17320 bound_to 7965
  146.2478  139.6135  142.9448 LP  0  0  0  0  0  0  0  0  0  0  0  0  # atno 17321 bound_to 7965
  140.4094  144.2388  150.5889 LP  0  0  0  0  0  0  0  0  0  0  0  0  # atno 17342 bound_to 10162
  140.4980  143.2326  151.8720 LP  0  0  0  0  0  0  0  0  0  0  0  0  # atno 17343 bound_to 10162
  157.1744  130.6281  149.5651 LP  0  0  0  0  0  0  0  0  0  0  0  0  # atno 17370 bound_to 10713
  155.9787  130.4774  150.6670 LP  0  0  0  0  0  0  0  0  0  0  0  0  # atno 17371 bound_to 10713
  139.8716  134.9800  156.5059 LP  0  0  0  0  0  0  0  0  0  0  0  0  # atno 17394 bound_to 11000
  140.8506  133.8135  155.9165 LP  0  0  0  0  0  0  0  0  0  0  0  0  # atno 17395 bound_to 11000

$$$$
