AV-unprocessed.smi:889|AV-procd|sdf|4056|dock5
  -GOLD-   22720 1543D 1   1.00000     0.00000
 Structure written by MMmdl.
 43 44  0  0  0  0  0  0  0  0  1 V2000
  151.5435  145.4891  160.0241 C   0  0  0  0  0  0  0  0  0  0  0  0
  152.0446  144.0912  159.8931 C   0  0  0  0  0  0  0  0  0  0  0  0
  152.6428  143.2330  160.7709 C   0  0  0  0  0  0  0  0  0  0  0  0
  152.8601  142.0579  159.9988 C   0  0  0  0  0  0  0  0  0  0  0  0
  153.4848  140.7582  160.4301 C   0  0  0  0  0  0  0  0  0  0  0  0
  153.4558  139.7464  159.2840 C   0  0  0  0  0  0  0  0  0  0  0  0
  154.5022  139.2359  158.8845 O   0  0  0  0  0  0  0  0  0  0  0  0
  152.2505  139.4578  158.7721 N   0  0  0  0  0  0  0  0  0  0  0  0
  152.0067  138.5000  157.7000 C   0  0  0  0  0  0  0  0  0  0  0  0
  151.3026  139.1535  156.4927 C   0  0  0  0  0  0  0  0  0  0  0  0
  150.0384  139.9135  156.9599 C   0  0  0  0  0  0  0  0  0  0  0  0
  149.5380  141.0831  156.0750 C   0  0  0  0  0  0  0  0  0  0  0  0
  148.2121  141.6951  156.5561 C   0  0  0  0  0  0  0  0  0  0  0  0
  149.4159  140.6289  154.6123 C   0  0  0  0  0  0  0  0  0  0  0  0
  152.2383  139.9843  155.5836 C   0  0  0  0  0  0  0  0  0  0  0  0
  152.4454  138.7620  154.6939 C   0  0  0  0  0  0  0  0  0  0  0  0
  151.1305  138.2338  155.2609 C   0  0  0  0  0  0  0  0  0  0  0  0
  152.4252  142.2013  158.7565 N   0  0  0  0  0  0  0  0  0  0  0  0
  151.9054  143.4981  158.6790 O   0  0  0  0  0  0  0  0  0  0  0  0
  150.9184  145.5931  160.9112 H   0  0  0  0  0  0  0  0  0  0  0  0
  150.9478  145.7769  159.1575 H   0  0  0  0  0  0  0  0  0  0  0  0
  152.3739  146.1899  160.1114 H   0  0  0  0  0  0  0  0  0  0  0  0
  152.8877  143.4160  161.8065 H   0  0  0  0  0  0  0  0  0  0  0  0
  154.5170  140.9213  160.7422 H   0  0  0  0  0  0  0  0  0  0  0  0
  152.9646  140.3396  161.2933 H   0  0  0  0  0  0  0  0  0  0  0  0
  151.4442  139.9292  159.1563 H   0  0  0  0  0  0  0  0  0  0  0  0
  152.9696  138.0811  157.4051 H   0  0  0  0  0  0  0  0  0  0  0  0
  151.4258  137.6564  158.0747 H   0  0  0  0  0  0  0  0  0  0  0  0
  149.2199  139.2039  157.0881 H   0  0  0  0  0  0  0  0  0  0  0  0
  150.2125  140.3058  157.9628 H   0  0  0  0  0  0  0  0  0  0  0  0
  150.2882  141.8738  156.0856 H   0  0  0  0  0  0  0  0  0  0  0  0
  147.4329  140.9373  156.6424 H   0  0  0  0  0  0  0  0  0  0  0  0
  147.8579  142.4576  155.8618 H   0  0  0  0  0  0  0  0  0  0  0  0
  148.3222  142.1792  157.5253 H   0  0  0  0  0  0  0  0  0  0  0  0
  148.6729  139.8385  154.5023 H   0  0  0  0  0  0  0  0  0  0  0  0
  150.3665  140.2475  154.2380 H   0  0  0  0  0  0  0  0  0  0  0  0
  149.1198  141.4559  153.9663 H   0  0  0  0  0  0  0  0  0  0  0  0
  151.7222  140.7918  155.0612 H   0  0  0  0  0  0  0  0  0  0  0  0
  153.1461  140.3490  156.0657 H   0  0  0  0  0  0  0  0  0  0  0  0
  152.4325  138.9678  153.6231 H   0  0  0  0  0  0  0  0  0  0  0  0
  153.3087  138.1618  154.9842 H   0  0  0  0  0  0  0  0  0  0  0  0
  151.1379  137.1655  155.4784 H   0  0  0  0  0  0  0  0  0  0  0  0
  150.2743  138.5029  154.6398 H   0  0  0  0  0  0  0  0  0  0  0  0
  1  2  1  0  0  0  0
  1 20  1  0  0  0  0
  1 21  1  0  0  0  0
  1 22  1  0  0  0  0
  2 19  1  0  0  0  0
  2  3  2  0  0  0  0
  3  4  1  0  0  0  0
  3 23  1  0  0  0  0
  4  5  1  0  0  0  0
  4 18  2  0  0  0  0
  5  6  1  0  0  0  0
  5 24  1  0  0  0  0
  5 25  1  0  0  0  0
  6  7  2  0  0  0  0
  6  8  1  0  0  0  0
  8  9  1  0  0  0  0
  8 26  1  0  0  0  0
  9 10  1  0  0  0  0
  9 27  1  0  0  0  0
  9 28  1  0  0  0  0
 10 17  1  0  0  0  0
 10 11  1  0  0  0  0
 10 15  1  0  0  0  0
 11 12  1  0  0  0  0
 11 29  1  0  0  0  0
 11 30  1  0  0  0  0
 12 13  1  0  0  0  0
 12 14  1  0  0  0  0
 12 31  1  0  0  0  0
 13 32  1  0  0  0  0
 13 33  1  0  0  0  0
 13 34  1  0  0  0  0
 14 35  1  0  0  0  0
 14 36  1  0  0  0  0
 14 37  1  0  0  0  0
 15 16  1  0  0  0  0
 15 38  1  0  0  0  0
 15 39  1  0  0  0  0
 16 17  1  0  0  0  0
 16 40  1  0  0  0  0
 16 41  1  0  0  0  0
 17 42  1  0  0  0  0
 17 43  1  0  0  0  0
 18 19  1  0  0  0  0
M  END
> <s_m_source_file>
AV-unprocessed.smi

> <i_m_source_file_index>
889

> <i_lp_mmshare_version>
43012

> <i_f3d_flags>
0

> <s_epik_input>
W0NIM11jMVtjSF1jKG5vMSlbQ0gyXUMoPU8pW05IXVtDSDJdQzIoW0NIMl1bQ0hdKFtDSDNdKVtDSDNdKVtDSDJdW0NIMl1bQ0gyXTI=

> <s_epik_cmdline>
J2VwaWtfcHl0aG9uJywgJy1waCcsICc3LjAnLCAnLXRuJywgJzgnLCAnLW1hJywgJzIwMCcsICctbWV0YWxfYmluZGluZycsICctaW1hZScsICc8aW5maWxlLm1hZT4nLCAnLW9tYWUnLCAnPG91dGZpbGUubWFlPic=

> <r_lp_tautomer_probability>
1

> <r_epik_Ionization_Penalty>
7.05168e-08

> <r_epik_Ionization_Penalty_Charging>
0

> <r_epik_Ionization_Penalty_Neutral>
7.05168e-08

> <r_epik_State_Penalty>
-0

> <r_epik_Charging_Adjusted_Penalty>
0

> <i_epik_Tot_Q>
0

> <i_epik_Tot_abs_Q>
0

> <r_epik_Metal_State_Penalty>
-0

> <b_epik_Metal_Only>
0

> <s_lp_Force_Field>
OPLS_2005

> <r_lp_Energy>
19.2899

> <b_lp_Chiralities_Consistent>
1

> <s_lp_Variant>
AV-unprocessed.smi:889-1

> <Gold.Version>
5.8.1

> <Gold.Id.Protein>
6NUR|6NUR_protein|mol2

> <Gold.PLP.Fitness>
41.2712

> <Gold.PLP.PLP>
-38.9632

> <Gold.PLP.part.hbond>
-1.0000

> <Gold.PLP.part.metal>
0.0000

> <Gold.PLP.part.buried>
-4.6399

> <Gold.PLP.part.nonpolar>
-32.9706

> <Gold.PLP.part.repulsive>
0.1325

> <Gold.PLP.ligand.clash>
0.0000

> <Gold.PLP.ligand.torsion>
0.5588

> <Gold.PLP.Chemscore.Hbond>
1.0000

> <Gold.PLP.Chemscore.CHOScore>
0.0000

> <Gold.PLP.Chemscore.Metal>
0.0000

> <Gold.Chemscore.Hbonds>
donor molecule, donor type, donor heavy atom, donor atom, acceptor molecule, acceptor atom, score
      P1  H  7997  8009       L1     7  1.00

> <Gold.PLP.Chemscore.Internal.Correction>
0.4257

> <Gold.Rescore>
     Score         DG    S(hbond)    S(metal)    S(lipo)     H(rot)  DE(clash)    DE(int)     intcor
     14.74     -16.85       0.97        0.00     106.50       1.68       0.10       2.01       ----

> <Gold.Chemscore.Fitness>
14.7381

> <Gold.Chemscore.DG>
-16.8524

> <Gold.Chemscore.ZeroCoef>
-5.4800

> <Gold.Chemscore.Hbond>
0.9656

> <Gold.Chemscore.Metal>
0.0000

> <Gold.Chemscore.Lipo>
106.4952

> <Gold.Chemscore.Internal_Hbond>
0.0000

> <Gold.Chemscore.DEClash>
0.1040

> <Gold.Chemscore.DEInternal>
2.0103

> <Gold.Chemscore.Rot>
1.6846

> <Gold.Chemscore.Internal.Correction>
   9.000000E+99

> <Gold.Chemscore.Hbonds>
donor molecule, donor type, donor heavy atom, donor atom, acceptor molecule, acceptor atom, score
      P1  H  7997  8009       L1     7  0.70

> <Gold.Chemscore.Hbond.Weighted>
-3.2251

> <Gold.Chemscore.Metal.Weighted>
-0.0000

> <Gold.Chemscore.Lipo.Weighted>
-12.4599

> <Gold.Chemscore.Internal_Hbond.Weighted>
0.0000

> <Gold.Chemscore.DEClash.Weighted>
0.1040

> <Gold.Chemscore.DEInternal.Weighted>
2.0103

> <Gold.Chemscore.Rot.Weighted>
4.3127

> <Gold.Chemscore.Internal.Correction.Weighted>
   9.000000E+99

> <Gold.Protein.RotatedTorsions>
[ 6907 6896 6895 6894 ] final  -14.21 input  -60.11 | X-H torsion
[ 7974 7965 7964 7962 ] final   44.26 input  175.53 | X-H torsion
[ 8008 7997 7996 7995 ] final  128.53 input   59.86 | X-H torsion
[ 10167 10162 10161 10158 ] final  149.92 input  -65.29 | X-H torsion
[ 10718 10713 10712 10709 ] final  176.88 input   66.30 | X-H torsion
[ 10763 10752 10751 10750 ] final  107.45 input  -60.55 | X-H torsion
[ 11005 11000 10999 10996 ] final  -35.98 input  -57.11 | X-H torsion

> <Gold.Protein.ActiveResidues>
 VAL166  LYS551  ARG553  GLY616  TRP617  ASP618  TYR619  PRO620  LYS621  CYS622 
 ASP623  PHE694  ASN695  SER759  ASP760  ASP761  ALA762  ILE779  LEU786  VAL792 
 PHE793  MET794  SER795  GLU796  ALA797  LYS798  CYS799  TRP800  GLU811  SER814 

> <Gold.Protein.RotatedAtoms>
  151.3430  135.0868  159.9376 H   0  0  0  0  0  0  0  0  0  0  0  0  # atno 6907 bound_to 6896
  152.5207  133.9429  159.7645 H   0  0  0  0  0  0  0  0  0  0  0  0  # atno 6908 bound_to 6896
  150.9789  133.6212  159.2755 H   0  0  0  0  0  0  0  0  0  0  0  0  # atno 6909 bound_to 6896
  146.0584  139.5094  142.9674 H   0  0  0  0  0  0  0  0  0  0  0  0  # atno 7974 bound_to 7965
  156.2917  140.2642  156.2451 H   0  0  0  0  0  0  0  0  0  0  0  0  # atno 8008 bound_to 7997
  154.9939  140.0388  157.2349 H   0  0  0  0  0  0  0  0  0  0  0  0  # atno 8009 bound_to 7997
  154.7662  140.2769  155.6179 H   0  0  0  0  0  0  0  0  0  0  0  0  # atno 8010 bound_to 7997
  139.4856  144.5563  151.7311 H   0  0  0  0  0  0  0  0  0  0  0  0  # atno 10167 bound_to 10162
  156.9135  130.9917  151.3016 H   0  0  0  0  0  0  0  0  0  0  0  0  # atno 10718 bound_to 10713
  153.4069  135.3844  155.2025 H   0  0  0  0  0  0  0  0  0  0  0  0  # atno 10763 bound_to 10752
  154.8734  135.3785  154.4549 H   0  0  0  0  0  0  0  0  0  0  0  0  # atno 10764 bound_to 10752
  153.5052  135.7088  153.5872 H   0  0  0  0  0  0  0  0  0  0  0  0  # atno 10765 bound_to 10752
  140.9838  133.7041  156.1731 H   0  0  0  0  0  0  0  0  0  0  0  0  # atno 11005 bound_to 11000
  145.6603  141.0242  143.1712 LP  0  0  0  0  0  0  0  0  0  0  0  0  # atno 17320 bound_to 7965
  144.7161  139.8193  143.7398 LP  0  0  0  0  0  0  0  0  0  0  0  0  # atno 17321 bound_to 7965
  140.5126  144.1002  150.5999 LP  0  0  0  0  0  0  0  0  0  0  0  0  # atno 17342 bound_to 10162
  140.3933  143.2741  152.0034 LP  0  0  0  0  0  0  0  0  0  0  0  0  # atno 17343 bound_to 10162
  157.5952  130.8472  149.8719 LP  0  0  0  0  0  0  0  0  0  0  0  0  # atno 17370 bound_to 10713
  156.0524  130.3715  150.1169 LP  0  0  0  0  0  0  0  0  0  0  0  0  # atno 17371 bound_to 10713
  140.7145  134.4425  157.5579 LP  0  0  0  0  0  0  0  0  0  0  0  0  # atno 17394 bound_to 11000
  139.8962  134.8666  156.2099 LP  0  0  0  0  0  0  0  0  0  0  0  0  # atno 17395 bound_to 11000

$$$$
