AV-unprocessed.smi:1586|AV-procd|sdf|6376|dock6
  -GOLD-   22720 7 03D 1   1.00000     0.00000
 Structure written by MMmdl.
 47 48  0  0  0  0  0  0  0  0  2 V2000
  144.3913  131.7902  150.9770 C   0  0  0  0  0  0  0  0  0  0  0  0
  144.9024  132.5443  152.2132 C   0  0  0  0  0  0  0  0  0  0  0  0
  146.2438  133.0949  152.0049 N   0  0  0  0  0  0  0  0  0  0  0  0
  146.3860  133.9675  150.8385 C   0  0  0  0  0  0  0  0  0  0  0  0
  145.6259  135.2998  151.0025 C   0  0  0  0  0  0  0  0  0  0  0  0
  146.0711  136.0439  152.2152 N   0  3  0  0  0  0  0  0  0  0  0  0
  145.3802  137.3629  152.4130 C   0  0  1  0  0  0  0  0  0  0  0  0
  143.9553  137.1751  152.9915 C   0  0  0  0  0  0  0  0  0  0  0  0
  146.1971  138.3308  153.3110 C   0  0  0  0  0  0  0  0  0  0  0  0
  147.6282  138.0451  153.2758 N   0  0  0  0  0  0  0  0  0  0  0  0
  148.5456  138.6322  154.0567 C   0  0  0  0  0  0  0  0  0  0  0  0
  148.2711  139.4780  154.9084 O   0  0  0  0  0  0  0  0  0  0  0  0
  149.7804  138.1775  153.7841 N   0  0  0  0  0  0  0  0  0  0  0  0
  151.0023  138.5825  154.3792 C   0  0  0  0  0  0  0  0  0  0  0  0
  152.1073  137.6931  154.4499 C   0  0  0  0  0  0  0  0  0  0  0  0
  153.0662  138.4429  155.0708 C   0  0  0  0  0  0  0  0  0  0  0  0
  154.4742  138.1600  155.4697 C   0  0  0  0  0  0  0  0  0  0  0  0
  152.5869  139.6846  155.3546 O   0  0  0  0  0  0  0  0  0  0  0  0
  151.2621  139.7676  154.9095 N   0  0  0  0  0  0  0  0  0  0  0  0
  145.9864  135.1455  153.4022 C   0  0  0  0  0  0  0  0  0  0  0  0
  146.7408  133.8194  153.1728 C   0  0  0  0  0  0  0  0  0  0  0  0
  143.4534  131.2825  151.2025 H   0  0  0  0  0  0  0  0  0  0  0  0
  145.1052  131.0328  150.6514 H   0  0  0  0  0  0  0  0  0  0  0  0
  144.1996  132.4599  150.1391 H   0  0  0  0  0  0  0  0  0  0  0  0
  144.1893  133.3149  152.5036 H   0  0  0  0  0  0  0  0  0  0  0  0
  144.9476  131.8379  153.0432 H   0  0  0  0  0  0  0  0  0  0  0  0
  147.4471  134.1738  150.6910 H   0  0  0  0  0  0  0  0  0  0  0  0
  146.0575  133.4531  149.9361 H   0  0  0  0  0  0  0  0  0  0  0  0
  145.8335  135.8769  150.1037 H   0  0  0  0  0  0  0  0  0  0  0  0
  144.5476  135.1394  151.0327 H   0  0  0  0  0  0  0  0  0  0  0  0
  145.2819  137.8300  151.4315 H   0  0  0  0  0  0  0  0  0  0  0  0
  143.4700  138.1248  153.2139 H   0  0  0  0  0  0  0  0  0  0  0  0
  143.9777  136.5977  153.9164 H   0  0  0  0  0  0  0  0  0  0  0  0
  143.2864  136.6734  152.2938 H   0  0  0  0  0  0  0  0  0  0  0  0
  146.0050  139.3618  153.0076 H   0  0  0  0  0  0  0  0  0  0  0  0
  145.9127  138.2425  154.3586 H   0  0  0  0  0  0  0  0  0  0  0  0
  147.9419  137.3575  152.6064 H   0  0  0  0  0  0  0  0  0  0  0  0
  149.8577  137.4738  153.0649 H   0  0  0  0  0  0  0  0  0  0  0  0
  152.1878  136.6738  154.1024 H   0  0  0  0  0  0  0  0  0  0  0  0
  154.6704  137.0877  155.4703 H   0  0  0  0  0  0  0  0  0  0  0  0
  154.6784  138.5410  156.4705 H   0  0  0  0  0  0  0  0  0  0  0  0
  155.1729  138.6312  154.7784 H   0  0  0  0  0  0  0  0  0  0  0  0
  146.4463  135.6136  154.2702 H   0  0  0  0  0  0  0  0  0  0  0  0
  144.9426  134.9639  153.6612 H   0  0  0  0  0  0  0  0  0  0  0  0
  146.6659  133.1843  154.0564 H   0  0  0  0  0  0  0  0  0  0  0  0
  147.8037  134.0225  153.0337 H   0  0  0  0  0  0  0  0  0  0  0  0
  147.0510  136.2471  152.0786 H   0  0  0  0  0  0  0  0  0  0  0  0
  1  2  1  0  0  0  0
  1 22  1  0  0  0  0
  1 23  1  0  0  0  0
  1 24  1  0  0  0  0
  2  3  1  0  0  0  0
  2 25  1  0  0  0  0
  2 26  1  0  0  0  0
  3 21  1  0  0  0  0
  3  4  1  0  0  0  0
  4  5  1  0  0  0  0
  4 27  1  0  0  0  0
  4 28  1  0  0  0  0
  5  6  1  0  0  0  0
  5 29  1  0  0  0  0
  5 30  1  0  0  0  0
  6  7  1  0  0  0  0
  6 20  1  0  0  0  0
  6 47  1  0  0  0  0
  7  8  1  0  0  0  0
  7  9  1  0  0  0  0
  7 31  1  0  0  0  0
  8 32  1  0  0  0  0
  8 33  1  0  0  0  0
  8 34  1  0  0  0  0
  9 10  1  0  0  0  0
  9 35  1  0  0  0  0
  9 36  1  0  0  0  0
 10 11  1  0  0  0  0
 10 37  1  0  0  0  0
 11 12  2  0  0  0  0
 11 13  1  0  0  0  0
 13 14  1  0  0  0  0
 13 38  1  0  0  0  0
 14 19  2  0  0  0  0
 14 15  1  0  0  0  0
 15 16  2  0  0  0  0
 15 39  1  0  0  0  0
 16 17  1  0  0  0  0
 16 18  1  0  0  0  0
 17 40  1  0  0  0  0
 17 41  1  0  0  0  0
 17 42  1  0  0  0  0
 18 19  1  0  0  0  0
 20 21  1  0  0  0  0
 20 43  1  0  0  0  0
 20 44  1  0  0  0  0
 21 45  1  0  0  0  0
 21 46  1  0  0  0  0
M  CHG  1   6   1
M  END
> <s_m_source_file>
AV-unprocessed.smi

> <i_m_source_file_index>
1586

> <i_lp_mmshare_version>
43012

> <i_f3d_flags>
0

> <s_epik_input>
W0NIM11bQ0gyXU4xW0NIMl1bQ0gyXU4oW0NIMl1bQ0gyXTEpW0NASF0oW0NIM10pW0NIMl1bTkhdQyg9TylbTkhdYzJbY0hdYyhbQ0gzXSlvbjI=

> <s_epik_cmdline>
J2VwaWtfcHl0aG9uJywgJy1waCcsICc3LjAnLCAnLXRuJywgJzgnLCAnLW1hJywgJzIwMCcsICctbWV0YWxfYmluZGluZycsICctaW1hZScsICc8aW5maWxlLm1hZT4nLCAnLW9tYWUnLCAnPG91dGZpbGUubWFlPic=

> <r_epik_Ionization_Penalty>
0.153363

> <r_epik_Ionization_Penalty_Charging>
0.151842

> <r_epik_Ionization_Penalty_Neutral>
0.00152029

> <r_epik_State_Penalty>
0.985235

> <r_epik_Charging_Adjusted_Penalty>
1.13708

> <i_epik_Tot_Q>
1

> <i_epik_Tot_abs_Q>
1

> <r_epik_Metal_State_Penalty>
0.996168

> <b_epik_Metal_Only>
0

> <s_lp_Force_Field>
OPLS_2005

> <r_lp_Energy>
21.483

> <b_lp_Chiralities_Consistent>
1

> <s_lp_Variant>
AV-unprocessed.smi:1586-4

> <Gold.Version>
5.8.1

> <Gold.Id.Protein>
6NUR|6NUR_protein|mol2

> <Gold.PLP.Fitness>
44.1320

> <Gold.PLP.PLP>
-30.8609

> <Gold.PLP.part.hbond>
-6.9636

> <Gold.PLP.part.metal>
0.0000

> <Gold.PLP.part.buried>
1.4065

> <Gold.PLP.part.nonpolar>
-25.8001

> <Gold.PLP.part.repulsive>
0.4217

> <Gold.PLP.ligand.clash>
0.0000

> <Gold.PLP.ligand.torsion>
0.8867

> <Gold.PLP.Chemscore.Hbond>
4.9920

> <Gold.PLP.Chemscore.CHOScore>
0.0000

> <Gold.PLP.Chemscore.Metal>
0.0000

> <Gold.Chemscore.Hbonds>
donor molecule, donor type, donor heavy atom, donor atom, acceptor molecule, acceptor atom, score
      L1  H     6    47       P1  7948  2.00
      L1  H    10    37       P1  7948  1.00
      L1  H    13    38       P1  7948  0.99
      P1  H  7989  7998       L1    19  0.75
      P1  H  7997  8010       L1    18  0.40

> <Gold.PLP.Chemscore.Internal.Correction>
0.0686

> <Gold.Rescore>
     Score         DG    S(hbond)    S(metal)    S(lipo)     H(rot)  DE(clash)    DE(int)     intcor
     14.82     -18.39       2.69        0.00      72.14       1.76       1.53       2.04       ----

> <Gold.Chemscore.Fitness>
14.8208

> <Gold.Chemscore.DG>
-18.3946

> <Gold.Chemscore.ZeroCoef>
-5.4800

> <Gold.Chemscore.Hbond>
2.6915

> <Gold.Chemscore.Metal>
0.0000

> <Gold.Chemscore.Lipo>
72.1373

> <Gold.Chemscore.Internal_Hbond>
0.0000

> <Gold.Chemscore.DEClash>
1.5299

> <Gold.Chemscore.DEInternal>
2.0439

> <Gold.Chemscore.Rot>
1.7637

> <Gold.Chemscore.Internal.Correction>
   9.000000E+99

> <Gold.Chemscore.Hbonds>
donor molecule, donor type, donor heavy atom, donor atom, acceptor molecule, acceptor atom, score
      L1  H     6    47       P1  7948  1.00
      L1  H    10    37       P1  7948  0.99
      L1  H    13    38       P1  7948  0.37
      P1  H  7989  7998       L1    19  0.05
      P1  H  7997  8010       L1    18  0.01

> <Gold.Chemscore.Hbond.Weighted>
-8.9896

> <Gold.Chemscore.Metal.Weighted>
-0.0000

> <Gold.Chemscore.Lipo.Weighted>
-8.4401

> <Gold.Chemscore.Internal_Hbond.Weighted>
0.0000

> <Gold.Chemscore.DEClash.Weighted>
1.5299

> <Gold.Chemscore.DEInternal.Weighted>
2.0439

> <Gold.Chemscore.Rot.Weighted>
4.5150

> <Gold.Chemscore.Internal.Correction.Weighted>
   9.000000E+99

> <Gold.Protein.RotatedTorsions>
[ 6907 6896 6895 6894 ] final -156.88 input  -60.11 | X-H torsion
[ 7974 7965 7964 7962 ] final   83.59 input  175.53 | X-H torsion
[ 8008 7997 7996 7995 ] final  104.07 input   59.86 | X-H torsion
[ 10167 10162 10161 10158 ] final  -65.95 input  -65.29 | X-H torsion
[ 10718 10713 10712 10709 ] final   40.77 input   66.30 | X-H torsion
[ 10763 10752 10751 10750 ] final  119.96 input  -60.55 | X-H torsion
[ 11005 11000 10999 10996 ] final  -21.00 input  -57.11 | X-H torsion

> <Gold.Protein.ActiveResidues>
 VAL166  LYS551  ARG553  GLY616  TRP617  ASP618  TYR619  PRO620  LYS621  CYS622 
 ASP623  PHE694  ASN695  SER759  ASP760  ASP761  ALA762  ILE779  LEU786  VAL792 
 PHE793  MET794  SER795  GLU796  ALA797  LYS798  CYS799  TRP800  GLU811  SER814 

> <Gold.Protein.RotatedAtoms>
  151.2943  133.4151  159.2635 H   0  0  0  0  0  0  0  0  0  0  0  0  # atno 6907 bound_to 6896
  151.0250  134.9498  159.8090 H   0  0  0  0  0  0  0  0  0  0  0  0  # atno 6908 bound_to 6896
  152.5333  134.2905  159.9094 H   0  0  0  0  0  0  0  0  0  0  0  0  # atno 6909 bound_to 6896
  145.6099  139.2366  143.2198 H   0  0  0  0  0  0  0  0  0  0  0  0  # atno 7974 bound_to 7965
  156.1540  140.3154  155.8695 H   0  0  0  0  0  0  0  0  0  0  0  0  # atno 8008 bound_to 7997
  155.3915  140.0494  157.3057 H   0  0  0  0  0  0  0  0  0  0  0  0  # atno 8009 bound_to 7997
  154.5084  140.2155  155.9216 H   0  0  0  0  0  0  0  0  0  0  0  0  # atno 8010 bound_to 7997
  140.5692  143.2316  151.6572 H   0  0  0  0  0  0  0  0  0  0  0  0  # atno 10167 bound_to 10162
  157.3859  130.7779  149.7230 H   0  0  0  0  0  0  0  0  0  0  0  0  # atno 10718 bound_to 10713
  153.5911  135.3466  155.2911 H   0  0  0  0  0  0  0  0  0  0  0  0  # atno 10763 bound_to 10752
  154.8652  135.4205  154.2516 H   0  0  0  0  0  0  0  0  0  0  0  0  # atno 10764 bound_to 10752
  153.3323  135.7045  153.7008 H   0  0  0  0  0  0  0  0  0  0  0  0  # atno 10765 bound_to 10752
  140.8519  133.7851  155.9975 H   0  0  0  0  0  0  0  0  0  0  0  0  # atno 11005 bound_to 11000
  146.1512  140.6922  142.9321 LP  0  0  0  0  0  0  0  0  0  0  0  0  # atno 17320 bound_to 7965
  144.7274  140.4568  143.6963 LP  0  0  0  0  0  0  0  0  0  0  0  0  # atno 17321 bound_to 7965
  139.5109  144.3528  152.0636 LP  0  0  0  0  0  0  0  0  0  0  0  0  # atno 17342 bound_to 10162
  140.2664  144.4012  150.6167 LP  0  0  0  0  0  0  0  0  0  0  0  0  # atno 17343 bound_to 10162
  155.9786  130.4049  150.3635 LP  0  0  0  0  0  0  0  0  0  0  0  0  # atno 17370 bound_to 10713
  157.1745  131.0377  151.2779 LP  0  0  0  0  0  0  0  0  0  0  0  0  # atno 17371 bound_to 10713
  140.8781  134.2645  157.5158 LP  0  0  0  0  0  0  0  0  0  0  0  0  # atno 17394 bound_to 11000
  139.8704  134.9601  156.4353 LP  0  0  0  0  0  0  0  0  0  0  0  0  # atno 17395 bound_to 11000

$$$$
