AV-unprocessed.smi:1606|AV-procd|sdf|6462|dock4
  -GOLD-   22720 7113D 1   1.00000     0.00000
 Structure written by MMmdl.
 36 37  0  0  0  0  0  0  0  0  2 V2000
  146.8132  142.9286  161.2368 O   0  0  0  0  0  0  0  0  0  0  0  0
  146.2951  144.0293  161.0482 C   0  0  0  0  0  0  0  0  0  0  0  0
  146.9892  145.1094  160.6580 N   0  0  0  0  0  0  0  0  0  0  0  0
  148.4281  145.1446  160.4106 C   0  0  0  0  0  0  0  0  0  0  0  0
  148.9267  144.0265  159.4697 C   0  0  0  0  0  0  0  0  0  0  0  0
  150.4034  144.1192  159.1245 C   0  0  0  0  0  0  0  0  0  0  0  0
  151.4131  143.9316  160.0931 C   0  0  0  0  0  0  0  0  0  0  0  0
  152.7659  144.0436  159.7087 C   0  0  0  0  0  0  0  0  0  0  0  0
  153.0802  144.3422  158.3665 C   0  0  0  0  0  0  0  0  0  0  0  0
  152.0323  144.5207  157.4405 C   0  0  0  0  0  0  0  0  0  0  0  0
  150.7495  144.4038  157.8474 N   0  3  0  0  0  0  0  0  0  0  0  0
  144.7841  144.2188  161.2336 C   0  0  0  0  0  0  0  0  0  0  0  0
  144.3567  143.9592  162.6897 C   0  0  0  0  0  0  0  0  0  0  0  0
  142.8285  144.0560  162.8283 C   0  0  0  0  0  0  0  0  0  0  0  0
  142.2004  143.1407  161.9364 O   0  0  0  0  0  0  0  0  0  0  0  0
  142.4816  143.4141  160.5680 C   0  0  0  0  0  0  0  0  0  0  0  0
  143.9905  143.2816  160.3057 C   0  0  0  0  0  0  0  0  0  0  0  0
  146.4843  145.9749  160.5309 H   0  0  0  0  0  0  0  0  0  0  0  0
  148.6521  146.1138  159.9641 H   0  0  0  0  0  0  0  0  0  0  0  0
  148.9692  145.1116  161.3576 H   0  0  0  0  0  0  0  0  0  0  0  0
  148.7299  143.0549  159.9243 H   0  0  0  0  0  0  0  0  0  0  0  0
  148.3514  144.0406  158.5430 H   0  0  0  0  0  0  0  0  0  0  0  0
  151.1563  143.7072  161.1183 H   0  0  0  0  0  0  0  0  0  0  0  0
  153.5530  143.9036  160.4352 H   0  0  0  0  0  0  0  0  0  0  0  0
  154.1100  144.4331  158.0525 H   0  0  0  0  0  0  0  0  0  0  0  0
  152.1792  144.7519  156.3955 H   0  0  0  0  0  0  0  0  0  0  0  0
  144.5274  145.2495  160.9808 H   0  0  0  0  0  0  0  0  0  0  0  0
  144.6798  142.9678  163.0119 H   0  0  0  0  0  0  0  0  0  0  0  0
  144.8346  144.6758  163.3592 H   0  0  0  0  0  0  0  0  0  0  0  0
  142.5296  143.8138  163.8482 H   0  0  0  0  0  0  0  0  0  0  0  0
  142.4825  145.0712  162.6277 H   0  0  0  0  0  0  0  0  0  0  0  0
  141.9302  142.7074  159.9476 H   0  0  0  0  0  0  0  0  0  0  0  0
  142.1264  144.4118  160.3050 H   0  0  0  0  0  0  0  0  0  0  0  0
  144.2042  143.5123  159.2612 H   0  0  0  0  0  0  0  0  0  0  0  0
  144.2905  142.2444  160.4646 H   0  0  0  0  0  0  0  0  0  0  0  0
  150.0062  144.5387  157.1612 H   0  0  0  0  0  0  0  0  0  0  0  0
  1  2  2  0  0  0  0
  2  3  1  0  0  0  0
  2 12  1  0  0  0  0
  3  4  1  0  0  0  0
  3 18  1  0  0  0  0
  4  5  1  0  0  0  0
  4 19  1  0  0  0  0
  4 20  1  0  0  0  0
  5  6  1  0  0  0  0
  5 21  1  0  0  0  0
  5 22  1  0  0  0  0
  6 11  1  0  0  0  0
  6  7  2  0  0  0  0
  7  8  1  0  0  0  0
  7 23  1  0  0  0  0
  8  9  2  0  0  0  0
  8 24  1  0  0  0  0
  9 10  1  0  0  0  0
  9 25  1  0  0  0  0
 10 11  2  0  0  0  0
 10 26  1  0  0  0  0
 11 36  1  0  0  0  0
 12 17  1  0  0  0  0
 12 13  1  0  0  0  0
 12 27  1  0  0  0  0
 13 14  1  0  0  0  0
 13 28  1  0  0  0  0
 13 29  1  0  0  0  0
 14 15  1  0  0  0  0
 14 30  1  0  0  0  0
 14 31  1  0  0  0  0
 15 16  1  0  0  0  0
 16 17  1  0  0  0  0
 16 32  1  0  0  0  0
 16 33  1  0  0  0  0
 17 34  1  0  0  0  0
 17 35  1  0  0  0  0
M  CHG  1  11   1
M  END
> <s_m_source_file>
AV-unprocessed.smi

> <i_m_source_file_index>
1606

> <i_lp_mmshare_version>
43012

> <i_f3d_flags>
0

> <s_epik_input>
W0NIMl0xW0NIMl1PW0NIMl1bQ0gyXVtDSF0xQyg9TylbTkhdW0NIMl1bQ0gyXWMyW2NIXVtjSF1bY0hdW2NIXW4y

> <s_epik_cmdline>
J2VwaWtfcHl0aG9uJywgJy1waCcsICc3LjAnLCAnLXRuJywgJzgnLCAnLW1hJywgJzIwMCcsICctbWV0YWxfYmluZGluZycsICctaW1hZScsICc8aW5maWxlLm1hZT4nLCAnLW9tYWUnLCAnPG91dGZpbGUubWFlPic=

> <r_epik_Ionization_Penalty>
1.82741

> <r_epik_Ionization_Penalty_Charging>
1.82741

> <r_epik_Ionization_Penalty_Neutral>
1.59153e-08

> <r_epik_State_Penalty>
1.94311

> <r_epik_Charging_Adjusted_Penalty>
3.77052

> <i_epik_Tot_Q>
1

> <i_epik_Tot_abs_Q>
1

> <r_epik_Metal_State_Penalty>
1.96982

> <b_epik_Metal_Only>
0

> <s_lp_Force_Field>
OPLS_2005

> <r_lp_Energy>
14.6238

> <b_lp_Chiralities_Consistent>
1

> <s_lp_Variant>
AV-unprocessed.smi:1606-2

> <Gold.Version>
5.8.1

> <Gold.Id.Protein>
6NUR|6NUR_protein|mol2

> <Gold.PLP.Fitness>
43.3426

> <Gold.PLP.PLP>
-32.9653

> <Gold.PLP.part.hbond>
-4.8482

> <Gold.PLP.part.metal>
0.0000

> <Gold.PLP.part.buried>
-3.7935

> <Gold.PLP.part.nonpolar>
-24.5213

> <Gold.PLP.part.repulsive>
0.2612

> <Gold.PLP.ligand.clash>
0.0000

> <Gold.PLP.ligand.torsion>
0.0988

> <Gold.PLP.Chemscore.Hbond>
3.5200

> <Gold.PLP.Chemscore.CHOScore>
0.0000

> <Gold.PLP.Chemscore.Metal>
0.0000

> <Gold.Chemscore.Hbonds>
donor molecule, donor type, donor heavy atom, donor atom, acceptor molecule, acceptor atom, score
      L1  H    11    36       P1  8028  2.00
      P1  H  6933  6944       L1     1  0.90
      P1  H  6934  6946       L1     1  0.55

> <Gold.PLP.Chemscore.Internal.Correction>
0.0149

> <Gold.Rescore>
     Score         DG    S(hbond)    S(metal)    S(lipo)     H(rot)  DE(clash)    DE(int)     intcor
     18.31     -20.56       2.01        0.00     105.72       1.56       0.89       1.37       ----

> <Gold.Chemscore.Fitness>
18.3059

> <Gold.Chemscore.DG>
-20.5613

> <Gold.Chemscore.ZeroCoef>
-5.4800

> <Gold.Chemscore.Hbond>
2.0054

> <Gold.Chemscore.Metal>
0.0000

> <Gold.Chemscore.Lipo>
105.7191

> <Gold.Chemscore.Internal_Hbond>
0.0000

> <Gold.Chemscore.DEClash>
0.8860

> <Gold.Chemscore.DEInternal>
1.3693

> <Gold.Chemscore.Rot>
1.5569

> <Gold.Chemscore.Internal.Correction>
   9.000000E+99

> <Gold.Chemscore.Hbonds>
donor molecule, donor type, donor heavy atom, donor atom, acceptor molecule, acceptor atom, score
      L1  H    11    36       P1  8028  0.40
      P1  H  6933  6944       L1     1  0.88
      P1  H  6934  6946       L1     1  0.53

> <Gold.Chemscore.Hbond.Weighted>
-6.6979

> <Gold.Chemscore.Metal.Weighted>
-0.0000

> <Gold.Chemscore.Lipo.Weighted>
-12.3691

> <Gold.Chemscore.Internal_Hbond.Weighted>
0.0000

> <Gold.Chemscore.DEClash.Weighted>
0.8860

> <Gold.Chemscore.DEInternal.Weighted>
1.3693

> <Gold.Chemscore.Rot.Weighted>
3.9857

> <Gold.Chemscore.Internal.Correction.Weighted>
   9.000000E+99

> <Gold.Protein.RotatedTorsions>
[ 6907 6896 6895 6894 ] final -139.59 input  -60.11 | X-H torsion
[ 7974 7965 7964 7962 ] final   80.53 input  175.53 | X-H torsion
[ 8008 7997 7996 7995 ] final -174.69 input   59.86 | X-H torsion
[ 10167 10162 10161 10158 ] final  170.34 input  -65.29 | X-H torsion
[ 10718 10713 10712 10709 ] final  -56.22 input   66.30 | X-H torsion
[ 10763 10752 10751 10750 ] final -142.90 input  -60.55 | X-H torsion
[ 11005 11000 10999 10996 ] final  -41.12 input  -57.11 | X-H torsion

> <Gold.Protein.ActiveResidues>
 VAL166  LYS551  ARG553  GLY616  TRP617  ASP618  TYR619  PRO620  LYS621  CYS622 
 ASP623  PHE694  ASN695  SER759  ASP760  ASP761  ALA762  ILE779  LEU786  VAL792 
 PHE793  MET794  SER795  GLU796  ALA797  LYS798  CYS799  TRP800  GLU811  SER814 

> <Gold.Protein.RotatedAtoms>
  151.0498  133.5634  159.2643 H   0  0  0  0  0  0  0  0  0  0  0  0  # atno 6907 bound_to 6896
  151.2649  135.0665  159.9122 H   0  0  0  0  0  0  0  0  0  0  0  0  # atno 6908 bound_to 6896
  152.5380  134.0237  159.8047 H   0  0  0  0  0  0  0  0  0  0  0  0  # atno 6909 bound_to 6896
  145.6501  139.2445  143.1982 H   0  0  0  0  0  0  0  0  0  0  0  0  # atno 7974 bound_to 7965
  155.9733  140.1167  157.0793 H   0  0  0  0  0  0  0  0  0  0  0  0  # atno 8008 bound_to 7997
  154.4162  140.1159  156.5403 H   0  0  0  0  0  0  0  0  0  0  0  0  # atno 8009 bound_to 7997
  155.6568  140.3473  155.4770 H   0  0  0  0  0  0  0  0  0  0  0  0  # atno 8010 bound_to 7997
  139.5016  144.3607  151.9828 H   0  0  0  0  0  0  0  0  0  0  0  0  # atno 10167 bound_to 10162
  156.1306  130.4159  150.0275 H   0  0  0  0  0  0  0  0  0  0  0  0  # atno 10718 bound_to 10713
  154.8491  135.3483  154.6101 H   0  0  0  0  0  0  0  0  0  0  0  0  # atno 10763 bound_to 10752
  153.6709  135.6985  153.5152 H   0  0  0  0  0  0  0  0  0  0  0  0  # atno 10764 bound_to 10752
  153.2743  135.4283  155.0974 H   0  0  0  0  0  0  0  0  0  0  0  0  # atno 10765 bound_to 10752
  141.0223  133.6857  156.2414 H   0  0  0  0  0  0  0  0  0  0  0  0  # atno 11005 bound_to 11000
  146.1211  140.7308  142.9457 LP  0  0  0  0  0  0  0  0  0  0  0  0  # atno 17320 bound_to 7965
  144.7126  140.4094  143.7069 LP  0  0  0  0  0  0  0  0  0  0  0  0  # atno 17321 bound_to 7965
  140.3043  144.3611  150.6051 LP  0  0  0  0  0  0  0  0  0  0  0  0  # atno 17342 bound_to 10162
  140.5849  143.2170  151.7361 LP  0  0  0  0  0  0  0  0  0  0  0  0  # atno 17343 bound_to 10162
  156.8189  130.9351  151.3642 LP  0  0  0  0  0  0  0  0  0  0  0  0  # atno 17370 bound_to 10713
  157.6484  130.8864  149.9584 LP  0  0  0  0  0  0  0  0  0  0  0  0  # atno 17371 bound_to 10713
  140.6551  134.5026  157.5580 LP  0  0  0  0  0  0  0  0  0  0  0  0  # atno 17394 bound_to 11000
  139.9154  134.8257  156.1384 LP  0  0  0  0  0  0  0  0  0  0  0  0  # atno 17395 bound_to 11000

$$$$
