AV-unprocessed.smi:1406|AV-procd|sdf|5711|dock4
  -GOLD-   22720 5343D 1   1.00000     0.00000
 Structure written by MMmdl.
 41 43  0  0  0  0  0  0  0  0  2 V2000
  154.2041  136.8580  159.6369 C   0  0  0  0  0  0  0  0  0  0  0  0
  153.7462  138.1344  160.3719 C   0  0  2  0  0  0  0  0  0  0  0  0
  153.8265  139.3917  159.4928 C   0  0  0  0  0  0  0  0  0  0  0  0
  154.9127  139.8942  159.2028 O   0  0  0  0  0  0  0  0  0  0  0  0
  152.6538  139.9127  159.0991 N   0  0  0  0  0  0  0  0  0  0  0  0
  152.5031  141.1723  158.3774 C   0  0  1  0  0  0  0  0  0  0  0  0
  151.0576  141.4539  157.9448 C   0  0  0  0  0  0  0  0  0  0  0  0
  150.9114  142.9854  158.0019 C   0  0  0  0  0  0  0  0  0  0  0  0
  152.2159  143.5071  158.4668 N   0  3  1  0  0  0  0  0  0  0  0  0
  152.1980  144.8302  159.1417 C   0  0  0  0  0  0  0  0  0  0  0  0
  151.7247  144.7459  160.6026 C   0  0  0  0  0  0  0  0  0  0  0  0
  152.5468  143.7119  161.3787 C   0  0  0  0  0  0  0  0  0  0  0  0
  152.4391  142.3476  160.6902 C   0  0  0  0  0  0  0  0  0  0  0  0
  152.8845  142.4128  159.2052 C   0  0  1  0  0  0  0  0  0  0  0  0
  154.4840  138.3533  161.6106 N   0  0  0  0  0  0  0  0  0  0  0  0
  154.6163  137.5658  162.6805 C   0  0  0  0  0  0  0  0  0  0  0  0
  155.3099  138.1115  163.6692 N   0  0  0  0  0  0  0  0  0  0  0  0
  155.5934  139.3236  163.1072 C   0  0  0  0  0  0  0  0  0  0  0  0
  155.1089  139.5263  161.8823 N   0  0  0  0  0  0  0  0  0  0  0  0
  153.5992  136.6792  158.7474 H   0  0  0  0  0  0  0  0  0  0  0  0
  154.1042  135.9833  160.2803 H   0  0  0  0  0  0  0  0  0  0  0  0
  155.2466  136.9162  159.3210 H   0  0  0  0  0  0  0  0  0  0  0  0
  152.6986  137.9934  160.6430 H   0  0  0  0  0  0  0  0  0  0  0  0
  151.8067  139.4341  159.3694 H   0  0  0  0  0  0  0  0  0  0  0  0
  153.1233  141.1472  157.4788 H   0  0  0  0  0  0  0  0  0  0  0  0
  150.8530  141.0585  156.9494 H   0  0  0  0  0  0  0  0  0  0  0  0
  150.3468  140.9932  158.6326 H   0  0  0  0  0  0  0  0  0  0  0  0
  150.6641  143.4094  157.0283 H   0  0  0  0  0  0  0  0  0  0  0  0
  150.1136  143.2559  158.6945 H   0  0  0  0  0  0  0  0  0  0  0  0
  153.2127  145.2293  159.1186 H   0  0  0  0  0  0  0  0  0  0  0  0
  151.5795  145.5264  158.5743 H   0  0  0  0  0  0  0  0  0  0  0  0
  151.8146  145.7235  161.0771 H   0  0  0  0  0  0  0  0  0  0  0  0
  150.6671  144.4825  160.6420 H   0  0  0  0  0  0  0  0  0  0  0  0
  153.5910  144.0235  161.4279 H   0  0  0  0  0  0  0  0  0  0  0  0
  152.1906  143.6425  162.4069 H   0  0  0  0  0  0  0  0  0  0  0  0
  153.0449  141.6219  161.2339 H   0  0  0  0  0  0  0  0  0  0  0  0
  151.4085  141.9974  160.7604 H   0  0  0  0  0  0  0  0  0  0  0  0
  153.9628  142.5749  159.1709 H   0  0  0  0  0  0  0  0  0  0  0  0
  154.1862  136.5770  162.7417 H   0  0  0  0  0  0  0  0  0  0  0  0
  156.1644  140.0837  163.6200 H   0  0  0  0  0  0  0  0  0  0  0  0
  152.7581  143.6296  157.6232 H   0  0  0  0  0  0  0  0  0  0  0  0
  1  2  1  0  0  0  0
  1 20  1  0  0  0  0
  1 21  1  0  0  0  0
  1 22  1  0  0  0  0
  2  3  1  0  0  0  0
  2 15  1  0  0  0  0
  2 23  1  0  0  0  0
  3  4  2  0  0  0  0
  3  5  1  0  0  0  0
  5  6  1  0  0  0  0
  5 24  1  0  0  0  0
  6 14  1  0  0  0  0
  6  7  1  0  0  0  0
  6 25  1  0  0  0  0
  7  8  1  0  0  0  0
  7 26  1  0  0  0  0
  7 27  1  0  0  0  0
  8  9  1  0  0  0  0
  8 28  1  0  0  0  0
  8 29  1  0  0  0  0
  9 14  1  0  0  0  0
  9 10  1  0  0  0  0
  9 41  1  0  0  0  0
 10 11  1  0  0  0  0
 10 30  1  0  0  0  0
 10 31  1  0  0  0  0
 11 12  1  0  0  0  0
 11 32  1  0  0  0  0
 11 33  1  0  0  0  0
 12 13  1  0  0  0  0
 12 34  1  0  0  0  0
 12 35  1  0  0  0  0
 13 14  1  0  0  0  0
 13 36  1  0  0  0  0
 13 37  1  0  0  0  0
 14 38  1  0  0  0  0
 15 19  1  0  0  0  0
 15 16  1  0  0  0  0
 16 17  2  0  0  0  0
 16 39  1  0  0  0  0
 17 18  1  0  0  0  0
 18 19  2  0  0  0  0
 18 40  1  0  0  0  0
M  CHG  1   9   1
M  END
> <s_m_source_file>
AV-unprocessed.smi

> <i_m_source_file_index>
1406

> <i_lp_mmshare_version>
43012

> <i_f3d_flags>
0

> <s_epik_input>
bjFbY0hdbltjSF1uMVtDQEhdKFtDSDNdKUMoPU8pW05IXVtDQEhdKFtDSDJdW0NIMl0yKVtDQEBIXShOMjMpW0NIMl1bQ0gyXVtDSDJdW0NIMl0z

> <s_epik_cmdline>
J2VwaWtfcHl0aG9uJywgJy1waCcsICc3LjAnLCAnLXRuJywgJzgnLCAnLW1hJywgJzIwMCcsICctbWV0YWxfYmluZGluZycsICctaW1hZScsICc8aW5maWxlLm1hZT4nLCAnLW9tYWUnLCAnPG91dGZpbGUubWFlPic=

> <r_lp_tautomer_probability>
1

> <r_epik_Ionization_Penalty>
0.00197066

> <r_epik_Ionization_Penalty_Charging>
0.00196223

> <r_epik_Ionization_Penalty_Neutral>
8.43107e-06

> <r_epik_State_Penalty>
0.00133866

> <r_epik_Charging_Adjusted_Penalty>
0.00330089

> <i_epik_Tot_Q>
1

> <i_epik_Tot_abs_Q>
1

> <r_epik_Metal_State_Penalty>
-0

> <b_epik_Metal_Only>
0

> <s_lp_Force_Field>
OPLS_2005

> <r_lp_Energy>
41.142

> <b_lp_Chiralities_Consistent>
1

> <s_lp_Variant>
AV-unprocessed.smi:1406-3

> <Gold.Version>
5.8.1

> <Gold.Id.Protein>
6NUR|6NUR_protein|mol2

> <Gold.PLP.Fitness>
40.5741

> <Gold.PLP.PLP>
-37.9336

> <Gold.PLP.part.hbond>
-1.0000

> <Gold.PLP.part.metal>
0.0000

> <Gold.PLP.part.buried>
-5.9397

> <Gold.PLP.part.nonpolar>
-30.5864

> <Gold.PLP.part.repulsive>
0.1428

> <Gold.PLP.ligand.clash>
0.0000

> <Gold.PLP.ligand.torsion>
0.2333

> <Gold.PLP.Chemscore.Hbond>
1.0000

> <Gold.PLP.Chemscore.CHOScore>
0.0000

> <Gold.PLP.Chemscore.Metal>
0.0000

> <Gold.Chemscore.Hbonds>
donor molecule, donor type, donor heavy atom, donor atom, acceptor molecule, acceptor atom, score
      P1  H  7997  8008       L1     4  1.00

> <Gold.PLP.Chemscore.Internal.Correction>
0.1071

> <Gold.Rescore>
     Score         DG    S(hbond)    S(metal)    S(lipo)     H(rot)  DE(clash)    DE(int)     intcor
     13.37     -14.91       0.97        0.00      94.06       1.89       0.01       1.53       ----

> <Gold.Chemscore.Fitness>
13.3655

> <Gold.Chemscore.DG>
-14.9070

> <Gold.Chemscore.ZeroCoef>
-5.4800

> <Gold.Chemscore.Hbond>
0.9733

> <Gold.Chemscore.Metal>
0.0000

> <Gold.Chemscore.Lipo>
94.0649

> <Gold.Chemscore.Internal_Hbond>
0.0000

> <Gold.Chemscore.DEClash>
0.0144

> <Gold.Chemscore.DEInternal>
1.5272

> <Gold.Chemscore.Rot>
1.8865

> <Gold.Chemscore.Internal.Correction>
   9.000000E+99

> <Gold.Chemscore.Hbonds>
donor molecule, donor type, donor heavy atom, donor atom, acceptor molecule, acceptor atom, score
      P1  H  7997  8008       L1     4  0.91

> <Gold.Chemscore.Hbond.Weighted>
-3.2510

> <Gold.Chemscore.Metal.Weighted>
-0.0000

> <Gold.Chemscore.Lipo.Weighted>
-11.0056

> <Gold.Chemscore.Internal_Hbond.Weighted>
0.0000

> <Gold.Chemscore.DEClash.Weighted>
0.0144

> <Gold.Chemscore.DEInternal.Weighted>
1.5272

> <Gold.Chemscore.Rot.Weighted>
4.8295

> <Gold.Chemscore.Internal.Correction.Weighted>
   9.000000E+99

> <Gold.Protein.RotatedTorsions>
[ 6907 6896 6895 6894 ] final   35.22 input  -60.11 | X-H torsion
[ 7974 7965 7964 7962 ] final  101.36 input  175.53 | X-H torsion
[ 8008 7997 7996 7995 ] final -135.59 input   59.86 | X-H torsion
[ 10167 10162 10161 10158 ] final -153.73 input  -65.29 | X-H torsion
[ 10718 10713 10712 10709 ] final  -94.83 input   66.30 | X-H torsion
[ 10763 10752 10751 10750 ] final -178.98 input  -60.55 | X-H torsion
[ 11005 11000 10999 10996 ] final    9.88 input  -57.11 | X-H torsion

> <Gold.Protein.ActiveResidues>
 VAL166  LYS551  ARG553  GLY616  TRP617  ASP618  TYR619  PRO620  LYS621  CYS622 
 ASP623  PHE694  ASN695  SER759  ASP760  ASP761  ALA762  ILE779  LEU786  VAL792 
 PHE793  MET794  SER795  GLU796  ALA797  LYS798  CYS799  TRP800  GLU811  SER814 

> <Gold.Protein.RotatedAtoms>
  152.1131  134.9260  160.0565 H   0  0  0  0  0  0  0  0  0  0  0  0  # atno 6907 bound_to 6896
  152.0430  133.3980  159.4353 H   0  0  0  0  0  0  0  0  0  0  0  0  # atno 6908 bound_to 6896
  150.6844  134.3315  159.4872 H   0  0  0  0  0  0  0  0  0  0  0  0  # atno 6909 bound_to 6896
  145.3733  139.2394  143.3443 H   0  0  0  0  0  0  0  0  0  0  0  0  # atno 7974 bound_to 7965
  155.3811  140.0494  157.3043 H   0  0  0  0  0  0  0  0  0  0  0  0  # atno 8008 bound_to 7997
  154.5082  140.2182  155.9171 H   0  0  0  0  0  0  0  0  0  0  0  0  # atno 8009 bound_to 7997
  156.1551  140.3128  155.8718 H   0  0  0  0  0  0  0  0  0  0  0  0  # atno 8010 bound_to 7997
  139.7073  143.9166  152.2454 H   0  0  0  0  0  0  0  0  0  0  0  0  # atno 10167 bound_to 10162
  156.0033  130.5084  150.5985 H   0  0  0  0  0  0  0  0  0  0  0  0  # atno 10718 bound_to 10713
  154.5409  135.2806  155.1096 H   0  0  0  0  0  0  0  0  0  0  0  0  # atno 10763 bound_to 10752
  154.2579  135.6327  153.5267 H   0  0  0  0  0  0  0  0  0  0  0  0  # atno 10764 bound_to 10752
  152.9979  135.5598  154.5948 H   0  0  0  0  0  0  0  0  0  0  0  0  # atno 10765 bound_to 10752
  140.5208  134.0561  155.7844 H   0  0  0  0  0  0  0  0  0  0  0  0  # atno 11005 bound_to 11000
  146.2875  140.4388  142.8752 LP  0  0  0  0  0  0  0  0  0  0  0  0  # atno 17320 bound_to 7965
  144.8560  140.7071  143.6137 LP  0  0  0  0  0  0  0  0  0  0  0  0  # atno 17321 bound_to 7965
  139.9025  144.6903  150.8649 LP  0  0  0  0  0  0  0  0  0  0  0  0  # atno 17342 bound_to 10162
  140.7724  143.3503  151.2028 LP  0  0  0  0  0  0  0  0  0  0  0  0  # atno 17343 bound_to 10162
  157.3838  131.0785  151.1454 LP  0  0  0  0  0  0  0  0  0  0  0  0  # atno 17370 bound_to 10713
  157.2167  130.6463  149.5795 LP  0  0  0  0  0  0  0  0  0  0  0  0  # atno 17371 bound_to 10713
  141.1335  133.9261  157.2484 LP  0  0  0  0  0  0  0  0  0  0  0  0  # atno 17394 bound_to 11000
  139.9607  135.0155  156.9253 LP  0  0  0  0  0  0  0  0  0  0  0  0  # atno 17395 bound_to 11000

$$$$
