AV-unprocessed.smi:2510|AV-procd|sdf|9879|dock8
  -GOLD-   2272013513D 1   1.00000     0.00000
 Structure written by MMmdl.
 48 49  0  0  0  0  0  0  0  0  1 V2000
  148.9902  138.9650  157.5078 C   0  0  0  0  0  0  0  0  0  0  0  0
  150.2727  138.9350  156.6644 C   0  0  0  0  0  0  0  0  0  0  0  0
  150.0682  138.7688  155.1422 C   0  0  0  0  0  0  0  0  0  0  0  0
  151.4461  138.3933  154.5102 C   0  0  0  0  0  0  0  0  0  0  0  0
  152.6513  139.2446  154.9462 C   0  0  0  0  0  0  0  0  0  0  0  0
  148.8620  137.8569  154.7696 C   0  0  2  0  0  0  0  0  0  0  0  0
  149.2128  136.4963  154.3821 N   0  0  0  0  0  0  0  0  0  0  0  0
  149.6036  135.5394  155.2371 C   0  0  0  0  0  0  0  0  0  0  0  0
  149.5785  135.6694  156.4606 O   0  0  0  0  0  0  0  0  0  0  0  0
  150.1382  134.2511  154.6119 C   0  0  0  0  0  0  0  0  0  0  0  0
  149.0441  133.5346  153.8851 C   0  0  0  0  0  0  0  0  0  0  0  0
  148.5940  132.2467  153.9739 C   0  0  0  0  0  0  0  0  0  0  0  0
  147.5607  132.1655  152.9954 C   0  0  0  0  0  0  0  0  0  0  0  0
  146.7181  130.9778  152.6350 C   0  0  0  0  0  0  0  0  0  0  0  0
  147.3769  133.3120  152.3575 N   0  0  0  0  0  0  0  0  0  0  0  0
  148.2832  134.1392  152.9100 N   0  0  0  0  0  0  0  0  0  0  0  0
  148.5869  138.7712  153.5708 C   0  0  1  0  0  0  0  0  0  0  0  0
  147.1652  138.9250  153.0461 C   0  0  0  0  0  0  0  0  0  0  0  0
  149.2442  139.8766  154.4203 C   0  0  1  0  0  0  0  0  0  0  0  0
  148.3224  140.5097  155.3033 O   0  0  0  0  0  0  0  0  0  0  0  0
  147.6321  141.5949  154.7078 C   0  0  0  0  0  0  0  0  0  0  0  0
  148.3741  135.0997  152.6107 H   0  0  0  0  0  0  0  0  0  0  0  0
  149.2315  138.9024  158.5691 H   0  0  0  0  0  0  0  0  0  0  0  0
  148.3328  138.1285  157.2698 H   0  0  0  0  0  0  0  0  0  0  0  0
  148.4369  139.8918  157.3631 H   0  0  0  0  0  0  0  0  0  0  0  0
  150.8558  139.8324  156.8741 H   0  0  0  0  0  0  0  0  0  0  0  0
  150.8895  138.1179  157.0401 H   0  0  0  0  0  0  0  0  0  0  0  0
  151.6777  137.3452  154.7031 H   0  0  0  0  0  0  0  0  0  0  0  0
  151.4143  138.4635  153.4236 H   0  0  0  0  0  0  0  0  0  0  0  0
  153.5785  138.8016  154.5818 H   0  0  0  0  0  0  0  0  0  0  0  0
  152.7353  139.3361  156.0270 H   0  0  0  0  0  0  0  0  0  0  0  0
  152.5981  140.2502  154.5299 H   0  0  0  0  0  0  0  0  0  0  0  0
  148.0500  137.9030  155.4999 H   0  0  0  0  0  0  0  0  0  0  0  0
  149.2563  136.2989  153.3930 H   0  0  0  0  0  0  0  0  0  0  0  0
  150.9498  134.4870  153.9225 H   0  0  0  0  0  0  0  0  0  0  0  0
  150.5613  133.6185  155.3934 H   0  0  0  0  0  0  0  0  0  0  0  0
  148.9603  131.4719  154.6312 H   0  0  0  0  0  0  0  0  0  0  0  0
  146.8781  130.1556  153.3330 H   0  0  0  0  0  0  0  0  0  0  0  0
  146.9600  130.6163  151.6353 H   0  0  0  0  0  0  0  0  0  0  0  0
  145.6563  131.2259  152.6539 H   0  0  0  0  0  0  0  0  0  0  0  0
  149.2593  138.5199  152.7475 H   0  0  0  0  0  0  0  0  0  0  0  0
  146.4644  139.1611  153.8472 H   0  0  0  0  0  0  0  0  0  0  0  0
  146.8214  138.0056  152.5721 H   0  0  0  0  0  0  0  0  0  0  0  0
  147.1026  139.7205  152.3037 H   0  0  0  0  0  0  0  0  0  0  0  0
  149.8391  140.5898  153.8502 H   0  0  0  0  0  0  0  0  0  0  0  0
  146.9165  142.0068  155.4190 H   0  0  0  0  0  0  0  0  0  0  0  0
  147.0832  141.2848  153.8186 H   0  0  0  0  0  0  0  0  0  0  0  0
  148.3242  142.3907  154.4297 H   0  0  0  0  0  0  0  0  0  0  0  0
  1  2  1  0  0  0  0
  1 23  1  0  0  0  0
  1 24  1  0  0  0  0
  1 25  1  0  0  0  0
  2  3  1  0  0  0  0
  2 26  1  0  0  0  0
  2 27  1  0  0  0  0
  3 19  1  0  0  0  0
  3  4  1  0  0  0  0
  3  6  1  0  0  0  0
  4  5  1  0  0  0  0
  4 28  1  0  0  0  0
  4 29  1  0  0  0  0
  5 30  1  0  0  0  0
  5 31  1  0  0  0  0
  5 32  1  0  0  0  0
  6  7  1  0  0  0  0
  6 17  1  0  0  0  0
  6 33  1  0  0  0  0
  7  8  1  0  0  0  0
  7 34  1  0  0  0  0
  8  9  2  0  0  0  0
  8 10  1  0  0  0  0
 10 35  1  0  0  0  0
 10 36  1  0  0  0  0
 10 11  1  0  0  0  0
 11 16  1  0  0  0  0
 11 12  2  0  0  0  0
 12 13  1  0  0  0  0
 12 37  1  0  0  0  0
 13 14  1  0  0  0  0
 13 15  2  0  0  0  0
 14 38  1  0  0  0  0
 14 39  1  0  0  0  0
 14 40  1  0  0  0  0
 15 16  1  0  0  0  0
 16 22  1  0  0  0  0
 17 18  1  0  0  0  0
 17 19  1  0  0  0  0
 17 41  1  0  0  0  0
 18 42  1  0  0  0  0
 18 43  1  0  0  0  0
 18 44  1  0  0  0  0
 19 20  1  0  0  0  0
 19 45  1  0  0  0  0
 20 21  1  0  0  0  0
 21 46  1  0  0  0  0
 21 47  1  0  0  0  0
 21 48  1  0  0  0  0
M  END
> <s_m_source_file>
AV-unprocessed.smi

> <i_m_source_file_index>
2510

> <i_lp_mmshare_version>
43012

> <i_f3d_flags>
0

> <s_epik_input>
W0NIM11PW0NAQEhdMVtDQEhdKFtDSDNdKVtDQEBIXShDMShbQ0gyXVtDSDNdKVtDSDJdW0NIM10pW05IXUMoPU8pW0NIMl1jMltjSF1jKFtDSDNdKVtuSF1uMg==

> <s_epik_cmdline>
J2VwaWtfcHl0aG9uJywgJy1waCcsICc3LjAnLCAnLXRuJywgJzgnLCAnLW1hJywgJzIwMCcsICctbWV0YWxfYmluZGluZycsICctaW1hZScsICc8aW5maWxlLm1hZT4nLCAnLW9tYWUnLCAnPG91dGZpbGUubWFlPic=

> <r_lp_tautomer_probability>
0.5

> <r_epik_Ionization_Penalty>
0.000134763

> <r_epik_Ionization_Penalty_Charging>
0

> <r_epik_Ionization_Penalty_Neutral>
0.000134763

> <r_epik_State_Penalty>
0.41068

> <r_epik_Charging_Adjusted_Penalty>
0.41068

> <i_epik_Tot_Q>
0

> <i_epik_Tot_abs_Q>
0

> <r_epik_Metal_State_Penalty>
0.410661

> <b_epik_Metal_Only>
0

> <s_lp_Force_Field>
OPLS_2005

> <r_lp_Energy>
26.7648

> <b_lp_Chiralities_Consistent>
1

> <s_lp_Variant>
AV-unprocessed.smi:2510-10

> <Gold.Version>
5.8.1

> <Gold.Id.Protein>
6NUR|6NUR_protein|mol2

> <Gold.PLP.Fitness>
35.4825

> <Gold.PLP.PLP>
-30.2839

> <Gold.PLP.part.hbond>
-1.9280

> <Gold.PLP.part.metal>
0.0000

> <Gold.PLP.part.buried>
-0.0745

> <Gold.PLP.part.nonpolar>
-28.7567

> <Gold.PLP.part.repulsive>
0.2284

> <Gold.PLP.ligand.clash>
0.0000

> <Gold.PLP.ligand.torsion>
0.7343

> <Gold.PLP.Chemscore.Hbond>
1.9920

> <Gold.PLP.Chemscore.CHOScore>
0.0000

> <Gold.PLP.Chemscore.Metal>
0.0000

> <Gold.Chemscore.Hbonds>
donor molecule, donor type, donor heavy atom, donor atom, acceptor molecule, acceptor atom, score
      L1  H     7    34       P1  7948  1.00
      L1  H    16    22       P1  7948  0.76

> <Gold.PLP.Chemscore.Internal.Correction>
0.6913

> <Gold.Rescore>
     Score         DG    S(hbond)    S(metal)    S(lipo)     H(rot)  DE(clash)    DE(int)     intcor
     12.90     -16.30       1.93        0.00      77.01       1.81       0.30       3.10       ----

> <Gold.Chemscore.Fitness>
12.9025

> <Gold.Chemscore.DG>
-16.3000

> <Gold.Chemscore.ZeroCoef>
-5.4800

> <Gold.Chemscore.Hbond>
1.9294

> <Gold.Chemscore.Metal>
0.0000

> <Gold.Chemscore.Lipo>
77.0065

> <Gold.Chemscore.Internal_Hbond>
0.0000

> <Gold.Chemscore.DEClash>
0.2975

> <Gold.Chemscore.DEInternal>
3.1000

> <Gold.Chemscore.Rot>
1.8102

> <Gold.Chemscore.Internal.Correction>
   9.000000E+99

> <Gold.Chemscore.Hbonds>
donor molecule, donor type, donor heavy atom, donor atom, acceptor molecule, acceptor atom, score
      L1  H     7    34       P1  7948  0.82
      L1  H    16    22       P1  7948  0.52

> <Gold.Chemscore.Hbond.Weighted>
-6.4444

> <Gold.Chemscore.Metal.Weighted>
-0.0000

> <Gold.Chemscore.Lipo.Weighted>
-9.0098

> <Gold.Chemscore.Internal_Hbond.Weighted>
0.0000

> <Gold.Chemscore.DEClash.Weighted>
0.2975

> <Gold.Chemscore.DEInternal.Weighted>
3.1000

> <Gold.Chemscore.Rot.Weighted>
4.6341

> <Gold.Chemscore.Internal.Correction.Weighted>
   9.000000E+99

> <Gold.Protein.RotatedTorsions>
[ 6907 6896 6895 6894 ] final -142.57 input  -60.11 | X-H torsion
[ 7974 7965 7964 7962 ] final   30.30 input  175.53 | X-H torsion
[ 8008 7997 7996 7995 ] final -116.83 input   59.86 | X-H torsion
[ 10167 10162 10161 10158 ] final  122.15 input  -65.29 | X-H torsion
[ 10718 10713 10712 10709 ] final -155.36 input   66.30 | X-H torsion
[ 10763 10752 10751 10750 ] final -111.09 input  -60.55 | X-H torsion
[ 11005 11000 10999 10996 ] final   -2.59 input  -57.11 | X-H torsion

> <Gold.Protein.ActiveResidues>
 VAL166  LYS551  ARG553  GLY616  TRP617  ASP618  TYR619  PRO620  LYS621  CYS622 
 ASP623  PHE694  ASN695  SER759  ASP760  ASP761  ALA762  ILE779  LEU786  VAL792 
 PHE793  MET794  SER795  GLU796  ALA797  LYS798  CYS799  TRP800  GLU811  SER814 

> <Gold.Protein.RotatedAtoms>
  151.0889  133.5331  159.2615 H   0  0  0  0  0  0  0  0  0  0  0  0  # atno 6907 bound_to 6896
  151.2206  135.0516  159.8958 H   0  0  0  0  0  0  0  0  0  0  0  0  # atno 6908 bound_to 6896
  152.5432  134.0692  159.8240 H   0  0  0  0  0  0  0  0  0  0  0  0  # atno 6909 bound_to 6896
  146.1620  139.6807  142.9027 H   0  0  0  0  0  0  0  0  0  0  0  0  # atno 7974 bound_to 7965
  155.0741  140.0393  157.2618 H   0  0  0  0  0  0  0  0  0  0  0  0  # atno 8008 bound_to 7997
  154.6959  140.2663  155.6742 H   0  0  0  0  0  0  0  0  0  0  0  0  # atno 8009 bound_to 7997
  156.2744  140.2750  156.1553 H   0  0  0  0  0  0  0  0  0  0  0  0  # atno 8010 bound_to 7997
  139.5876  144.7013  151.3370 H   0  0  0  0  0  0  0  0  0  0  0  0  # atno 10167 bound_to 10162
  156.5118  130.8438  151.2649 H   0  0  0  0  0  0  0  0  0  0  0  0  # atno 10718 bound_to 10713
  154.8282  135.4540  154.0986 H   0  0  0  0  0  0  0  0  0  0  0  0  # atno 10763 bound_to 10752
  153.2281  135.6902  153.7928 H   0  0  0  0  0  0  0  0  0  0  0  0  # atno 10764 bound_to 10752
  153.7320  135.3325  155.3264 H   0  0  0  0  0  0  0  0  0  0  0  0  # atno 10765 bound_to 10752
  140.6600  133.9328  155.8431 H   0  0  0  0  0  0  0  0  0  0  0  0  # atno 11005 bound_to 11000
  145.4563  141.0431  143.2776 LP  0  0  0  0  0  0  0  0  0  0  0  0  # atno 17320 bound_to 7965
  144.8040  139.6086  143.7059 LP  0  0  0  0  0  0  0  0  0  0  0  0  # atno 17321 bound_to 7965
  140.7145  143.7303  150.7629 LP  0  0  0  0  0  0  0  0  0  0  0  0  # atno 17342 bound_to 10162
  140.0851  143.4931  152.2509 LP  0  0  0  0  0  0  0  0  0  0  0  0  # atno 17343 bound_to 10162
  157.7449  130.9947  150.2717 LP  0  0  0  0  0  0  0  0  0  0  0  0  # atno 17370 bound_to 10713
  156.3233  130.3789  149.7556 LP  0  0  0  0  0  0  0  0  0  0  0  0  # atno 17371 bound_to 10713
  141.0472  134.0537  157.3829 LP  0  0  0  0  0  0  0  0  0  0  0  0  # atno 17394 bound_to 11000
  139.9016  135.0166  156.7295 LP  0  0  0  0  0  0  0  0  0  0  0  0  # atno 17395 bound_to 11000

$$$$
