AV-unprocessed.smi:2402|AV-procd|sdf|9507|dock1
  -GOLD-   2272013133D 1   1.00000     0.00000
 Structure written by MMmdl.
 38 39  0  0  0  0  0  0  0  0  1 V2000
  152.2242  145.7387  160.3860 C   0  0  0  0  0  0  0  0  0  0  0  0
  152.1257  144.3696  159.7467 C   0  0  0  0  0  0  0  0  0  0  0  0
  152.8778  143.2867  160.2404 C   0  0  0  0  0  0  0  0  0  0  0  0
  152.7408  142.0375  159.6039 C   0  0  0  0  0  0  0  0  0  0  0  0
  153.5210  140.8307  160.0810 C   0  0  0  0  0  0  0  0  0  0  0  0
  151.9256  141.8346  158.5469 N   0  0  0  0  0  0  0  0  0  0  0  0
  151.1954  142.8701  158.0636 C   0  0  0  0  0  0  0  0  0  0  0  0
  150.3077  142.7619  156.9605 N   0  0  0  0  0  0  0  0  0  0  0  0
  150.2651  141.8039  156.0179 C   0  0  0  0  0  0  0  0  0  0  0  0
  151.0252  140.8374  155.9477 O   0  0  0  0  0  0  0  0  0  0  0  0
  149.2746  142.0290  155.1427 N   0  0  0  0  0  0  0  0  0  0  0  0
  148.9570  141.1738  154.0047 C   0  0  2  0  0  0  0  0  0  0  0  0
  147.7345  141.6809  153.2877 C   0  0  0  0  0  0  0  0  0  0  0  0
  146.7599  140.7762  153.2265 C   0  0  0  0  0  0  0  0  0  0  0  0
  147.1249  139.4844  153.9103 C   0  0  1  0  0  0  0  0  0  0  0  0
  146.9719  138.2500  153.0016 C   0  0  0  0  0  0  0  0  0  0  0  0
  147.6170  138.4312  151.7568 O   0  0  0  0  0  0  0  0  0  0  0  0
  148.5668  139.7313  154.4240 C   0  0  0  0  0  0  0  0  0  0  0  0
  151.2730  144.1555  158.6451 C   0  0  0  0  0  0  0  0  0  0  0  0
  149.7894  141.1612  153.2992 H   0  0  0  0  0  0  0  0  0  0  0  0
  146.4576  139.3721  154.7655 H   0  0  0  0  0  0  0  0  0  0  0  0
  153.0966  145.8087  161.0362 H   0  0  0  0  0  0  0  0  0  0  0  0
  151.3344  145.9400  160.9824 H   0  0  0  0  0  0  0  0  0  0  0  0
  152.3087  146.5117  159.6216 H   0  0  0  0  0  0  0  0  0  0  0  0
  153.5418  143.4102  161.0836 H   0  0  0  0  0  0  0  0  0  0  0  0
  154.0252  141.0345  161.0260 H   0  0  0  0  0  0  0  0  0  0  0  0
  154.2750  140.5538  159.3439 H   0  0  0  0  0  0  0  0  0  0  0  0
  152.8554  139.9797  160.2283 H   0  0  0  0  0  0  0  0  0  0  0  0
  149.6218  143.4979  156.8826 H   0  0  0  0  0  0  0  0  0  0  0  0
  148.6969  142.8464  155.2734 H   0  0  0  0  0  0  0  0  0  0  0  0
  147.6868  142.6733  152.8645 H   0  0  0  0  0  0  0  0  0  0  0  0
  145.8003  140.9267  152.7549 H   0  0  0  0  0  0  0  0  0  0  0  0
  147.3879  137.3683  153.4899 H   0  0  0  0  0  0  0  0  0  0  0  0
  145.9168  138.0444  152.8196 H   0  0  0  0  0  0  0  0  0  0  0  0
  148.2739  139.1036  151.8533 H   0  0  0  0  0  0  0  0  0  0  0  0
  149.2723  139.0159  154.0001 H   0  0  0  0  0  0  0  0  0  0  0  0
  148.6064  139.5984  155.5061 H   0  0  0  0  0  0  0  0  0  0  0  0
  150.6850  144.9720  158.2514 H   0  0  0  0  0  0  0  0  0  0  0  0
  1  2  1  0  0  0  0
  1 22  1  0  0  0  0
  1 23  1  0  0  0  0
  1 24  1  0  0  0  0
  2 19  1  0  0  0  0
  2  3  2  0  0  0  0
  3  4  1  0  0  0  0
  3 25  1  0  0  0  0
  4  5  1  0  0  0  0
  4  6  2  0  0  0  0
  5 26  1  0  0  0  0
  5 27  1  0  0  0  0
  5 28  1  0  0  0  0
  6  7  1  0  0  0  0
  7  8  1  0  0  0  0
  7 19  2  0  0  0  0
  8  9  1  0  0  0  0
  8 29  1  0  0  0  0
  9 10  2  0  0  0  0
  9 11  1  0  0  0  0
 11 12  1  0  0  0  0
 11 30  1  0  0  0  0
 12 20  1  0  0  0  0
 12 18  1  0  0  0  0
 12 13  1  0  0  0  0
 13 14  2  0  0  0  0
 13 31  1  0  0  0  0
 14 15  1  0  0  0  0
 14 32  1  0  0  0  0
 15 21  1  0  0  0  0
 15 16  1  0  0  0  0
 15 18  1  0  0  0  0
 16 17  1  0  0  0  0
 16 33  1  0  0  0  0
 16 34  1  0  0  0  0
 17 35  1  0  0  0  0
 18 36  1  0  0  0  0
 18 37  1  0  0  0  0
 19 38  1  0  0  0  0
M  END
> <s_m_source_file>
AV-unprocessed.smi

> <i_m_source_file_index>
2402

> <i_lp_mmshare_version>
43012

> <i_f3d_flags>
0

> <s_epik_input>
W0NIM11jMVtjSF1jKFtDSDNdKW5jKFtjSF0xKVtOSF1DKD1PKVtOSF1bQ0BASF0yW0NIXT1bQ0hdW0NAQEhdKFtDSDJdMilbQ0gyXVtPSF0=

> <s_epik_cmdline>
J2VwaWtfcHl0aG9uJywgJy1waCcsICc3LjAnLCAnLXRuJywgJzgnLCAnLW1hJywgJzIwMCcsICctbWV0YWxfYmluZGluZycsICctaW1hZScsICc8aW5maWxlLm1hZT4nLCAnLW9tYWUnLCAnPG91dGZpbGUubWFlPic=

> <r_lp_tautomer_probability>
1

> <r_epik_Ionization_Penalty>
0.000257495

> <r_epik_Ionization_Penalty_Charging>
0

> <r_epik_Ionization_Penalty_Neutral>
0.000257495

> <r_epik_State_Penalty>
-0

> <r_epik_Charging_Adjusted_Penalty>
0

> <i_epik_Tot_Q>
0

> <i_epik_Tot_abs_Q>
0

> <r_epik_Metal_State_Penalty>
-0

> <b_epik_Metal_Only>
0

> <s_lp_Force_Field>
OPLS_2005

> <r_lp_Energy>
20

> <b_lp_Chiralities_Consistent>
1

> <s_lp_Variant>
AV-unprocessed.smi:2402-3

> <Gold.Version>
5.8.1

> <Gold.Id.Protein>
6NUR|6NUR_protein|mol2

> <Gold.PLP.Fitness>
49.6474

> <Gold.PLP.PLP>
-39.7933

> <Gold.PLP.part.hbond>
-5.0673

> <Gold.PLP.part.metal>
0.0000

> <Gold.PLP.part.buried>
-0.8553

> <Gold.PLP.part.nonpolar>
-32.8649

> <Gold.PLP.part.repulsive>
0.2448

> <Gold.PLP.ligand.clash>
0.0000

> <Gold.PLP.ligand.torsion>
0.1232

> <Gold.PLP.Chemscore.Hbond>
3.3600

> <Gold.PLP.Chemscore.CHOScore>
0.0000

> <Gold.PLP.Chemscore.Metal>
0.0000

> <Gold.Chemscore.Hbonds>
donor molecule, donor type, donor heavy atom, donor atom, acceptor molecule, acceptor atom, score
      L1  H     8    29       P1  8028  0.86
      L1  H    11    30       P1  8028  0.80
      L1  H    17    35       P1  7957  0.94
      P1  H  7954  7966       L1    17  0.75

> <Gold.PLP.Chemscore.Internal.Correction>
0.0205

> <Gold.Rescore>
     Score         DG    S(hbond)    S(metal)    S(lipo)     H(rot)  DE(clash)    DE(int)     intcor
     18.95     -22.18       2.57        0.00     108.40       1.78       1.91       1.33       ----

> <Gold.Chemscore.Fitness>
18.9464

> <Gold.Chemscore.DG>
-22.1789

> <Gold.Chemscore.ZeroCoef>
-5.4800

> <Gold.Chemscore.Hbond>
2.5702

> <Gold.Chemscore.Metal>
0.0000

> <Gold.Chemscore.Lipo>
108.3995

> <Gold.Chemscore.Internal_Hbond>
0.0000

> <Gold.Chemscore.DEClash>
1.9056

> <Gold.Chemscore.DEInternal>
1.3270

> <Gold.Chemscore.Rot>
1.7844

> <Gold.Chemscore.Internal.Correction>
   9.000000E+99

> <Gold.Chemscore.Hbonds>
donor molecule, donor type, donor heavy atom, donor atom, acceptor molecule, acceptor atom, score
      L1  H     8    29       P1  8028  0.83
      L1  H    11    30       P1  8028  0.79
      L1  H    17    35       P1  7957  0.90
      P1  H  7954  7966       L1    17  0.09

> <Gold.Chemscore.Hbond.Weighted>
-8.5843

> <Gold.Chemscore.Metal.Weighted>
-0.0000

> <Gold.Chemscore.Lipo.Weighted>
-12.6827

> <Gold.Chemscore.Internal_Hbond.Weighted>
0.0000

> <Gold.Chemscore.DEClash.Weighted>
1.9056

> <Gold.Chemscore.DEInternal.Weighted>
1.3270

> <Gold.Chemscore.Rot.Weighted>
4.5681

> <Gold.Chemscore.Internal.Correction.Weighted>
   9.000000E+99

> <Gold.Protein.RotatedTorsions>
[ 6907 6896 6895 6894 ] final  112.96 input  -60.11 | X-H torsion
[ 7974 7965 7964 7962 ] final  105.00 input  175.53 | X-H torsion
[ 8008 7997 7996 7995 ] final   32.48 input   59.86 | X-H torsion
[ 10167 10162 10161 10158 ] final  -46.75 input  -65.29 | X-H torsion
[ 10718 10713 10712 10709 ] final  122.73 input   66.30 | X-H torsion
[ 10763 10752 10751 10750 ] final -168.33 input  -60.55 | X-H torsion
[ 11005 11000 10999 10996 ] final  167.98 input  -57.11 | X-H torsion

> <Gold.Protein.ActiveResidues>
 VAL166  LYS551  ARG553  GLY616  TRP617  ASP618  TYR619  PRO620  LYS621  CYS622 
 ASP623  PHE694  ASN695  SER759  ASP760  ASP761  ALA762  ILE779  LEU786  VAL792 
 PHE793  MET794  SER795  GLU796  ALA797  LYS798  CYS799  TRP800  GLU811  SER814 

> <Gold.Protein.RotatedAtoms>
  152.4887  133.8442  159.7168 H   0  0  0  0  0  0  0  0  0  0  0  0  # atno 6907 bound_to 6896
  150.8997  133.7125  159.2889 H   0  0  0  0  0  0  0  0  0  0  0  0  # atno 6908 bound_to 6896
  151.4570  135.1039  159.9766 H   0  0  0  0  0  0  0  0  0  0  0  0  # atno 6909 bound_to 6896
  145.3254  139.2501  143.3689 H   0  0  0  0  0  0  0  0  0  0  0  0  # atno 7974 bound_to 7965
  155.1232  140.3250  155.4492 H   0  0  0  0  0  0  0  0  0  0  0  0  # atno 8008 bound_to 7997
  156.2657  140.2023  156.6301 H   0  0  0  0  0  0  0  0  0  0  0  0  # atno 8009 bound_to 7997
  154.6668  140.0541  157.0109 H   0  0  0  0  0  0  0  0  0  0  0  0  # atno 8010 bound_to 7997
  140.6804  143.2816  151.3828 H   0  0  0  0  0  0  0  0  0  0  0  0  # atno 10167 bound_to 10162
  157.5719  131.1082  150.8350 H   0  0  0  0  0  0  0  0  0  0  0  0  # atno 10718 bound_to 10713
  154.6639  135.2929  154.9830 H   0  0  0  0  0  0  0  0  0  0  0  0  # atno 10763 bound_to 10752
  154.0880  135.6595  153.4852 H   0  0  0  0  0  0  0  0  0  0  0  0  # atno 10764 bound_to 10752
  153.0446  135.5213  154.7603 H   0  0  0  0  0  0  0  0  0  0  0  0  # atno 10765 bound_to 10752
  140.2824  134.7739  157.3770 H   0  0  0  0  0  0  0  0  0  0  0  0  # atno 11005 bound_to 11000
  146.3066  140.3820  142.8685 LP  0  0  0  0  0  0  0  0  0  0  0  0  # atno 17320 bound_to 7965
  144.8906  140.7519  143.5929 LP  0  0  0  0  0  0  0  0  0  0  0  0  # atno 17321 bound_to 7965
  139.6123  144.1073  152.2311 LP  0  0  0  0  0  0  0  0  0  0  0  0  # atno 17342 bound_to 10162
  140.0491  144.5947  150.7350 LP  0  0  0  0  0  0  0  0  0  0  0  0  # atno 17343 bound_to 10162
  156.8819  130.5182  149.5290 LP  0  0  0  0  0  0  0  0  0  0  0  0  # atno 17370 bound_to 10713
  156.0765  130.5786  150.9483 LP  0  0  0  0  0  0  0  0  0  0  0  0  # atno 17371 bound_to 10713
  140.1271  134.5144  155.8136 LP  0  0  0  0  0  0  0  0  0  0  0  0  # atno 17394 bound_to 11000
  141.2160  133.6776  156.6971 LP  0  0  0  0  0  0  0  0  0  0  0  0  # atno 17395 bound_to 11000

$$$$
