AV-unprocessed.smi:340|AV-procd|sdf|2380|dock6
  -GOLD-   2262022303D 1   1.00000     0.00000
 Structure written by MMmdl.
 35 36  0  0  0  0  0  0  0  0  1 V2000
  149.3622  134.3985  154.9673 C   0  0  0  0  0  0  0  0  0  0  0  0
  150.0945  135.9441  155.6458 S   0  0  0  0  0  0  0  0  0  0  0  0
  149.0641  136.6152  156.4522 O   0  0  0  0  0  0  0  0  0  0  0  0
  151.4099  135.6331  156.2262 O   0  0  0  0  0  0  0  0  0  0  0  0
  150.3449  136.9094  154.2355 N   0  0  0  0  0  0  0  0  0  0  0  0
  151.4647  137.8410  154.0890 C   0  0  0  0  0  0  0  0  0  0  0  0
  151.4872  138.9241  155.1493 C   0  0  0  0  0  0  0  0  0  0  0  0
  150.5150  139.9427  155.1635 C   0  0  0  0  0  0  0  0  0  0  0  0
  150.5873  140.9394  156.1550 C   0  0  0  0  0  0  0  0  0  0  0  0
  151.6308  140.8895  157.1104 C   0  0  0  0  0  0  0  0  0  0  0  0
  151.7247  141.8808  158.1114 N   0  0  0  0  0  0  0  0  0  0  0  0
  152.6866  141.6162  159.1789 C   0  0  0  0  0  0  0  0  0  0  0  0
  152.4713  142.5927  160.3482 C   0  0  0  0  0  0  0  0  0  0  0  0
  152.5251  143.9341  159.8739 O   0  0  0  0  0  0  0  0  0  0  0  0
  151.5053  144.1983  158.9162 C   0  0  0  0  0  0  0  0  0  0  0  0
  151.6921  143.2818  157.6955 C   0  0  0  0  0  0  0  0  0  0  0  0
  152.5658  139.9069  157.0887 N   0  0  0  0  0  0  0  0  0  0  0  0
  152.4913  138.9524  156.1376 C   0  0  0  0  0  0  0  0  0  0  0  0
  149.0862  133.7399  155.7904 H   0  0  0  0  0  0  0  0  0  0  0  0
  150.0865  133.8891  154.3331 H   0  0  0  0  0  0  0  0  0  0  0  0
  148.4736  134.6399  154.3845 H   0  0  0  0  0  0  0  0  0  0  0  0
  149.5756  136.9704  153.5686 H   0  0  0  0  0  0  0  0  0  0  0  0
  152.3960  137.2775  154.1469 H   0  0  0  0  0  0  0  0  0  0  0  0
  151.4319  138.2856  153.0936 H   0  0  0  0  0  0  0  0  0  0  0  0
  149.7314  139.9671  154.4205 H   0  0  0  0  0  0  0  0  0  0  0  0
  149.8570  141.7348  156.1598 H   0  0  0  0  0  0  0  0  0  0  0  0
  152.6084  140.5958  159.5511 H   0  0  0  0  0  0  0  0  0  0  0  0
  153.6950  141.7311  158.7792 H   0  0  0  0  0  0  0  0  0  0  0  0
  151.5143  142.4069  160.8386 H   0  0  0  0  0  0  0  0  0  0  0  0
  153.2466  142.4519  161.1013 H   0  0  0  0  0  0  0  0  0  0  0  0
  150.5218  144.0518  159.3659 H   0  0  0  0  0  0  0  0  0  0  0  0
  151.5643  145.2437  158.6130 H   0  0  0  0  0  0  0  0  0  0  0  0
  152.6229  143.5284  157.1827 H   0  0  0  0  0  0  0  0  0  0  0  0
  150.8761  143.4485  156.9911 H   0  0  0  0  0  0  0  0  0  0  0  0
  153.2629  138.1967  156.1612 H   0  0  0  0  0  0  0  0  0  0  0  0
  1  2  1  0  0  0  0
  1 19  1  0  0  0  0
  1 20  1  0  0  0  0
  1 21  1  0  0  0  0
  2  3  2  0  0  0  0
  2  4  2  0  0  0  0
  2  5  1  0  0  0  0
  5  6  1  0  0  0  0
  5 22  1  0  0  0  0
  6  7  1  0  0  0  0
  6 23  1  0  0  0  0
  6 24  1  0  0  0  0
  7 18  1  0  0  0  0
  7  8  2  0  0  0  0
  8  9  1  0  0  0  0
  8 25  1  0  0  0  0
  9 10  2  0  0  0  0
  9 26  1  0  0  0  0
 10 11  1  0  0  0  0
 10 17  1  0  0  0  0
 11 16  1  0  0  0  0
 11 12  1  0  0  0  0
 12 13  1  0  0  0  0
 12 27  1  0  0  0  0
 12 28  1  0  0  0  0
 13 14  1  0  0  0  0
 13 29  1  0  0  0  0
 13 30  1  0  0  0  0
 14 15  1  0  0  0  0
 15 16  1  0  0  0  0
 15 31  1  0  0  0  0
 15 32  1  0  0  0  0
 16 33  1  0  0  0  0
 16 34  1  0  0  0  0
 17 18  2  0  0  0  0
 18 35  1  0  0  0  0
M  END
> <s_m_source_file>
AV-unprocessed.smi

> <i_m_source_file_index>
340

> <i_lp_mmshare_version>
43012

> <i_f3d_flags>
0

> <s_epik_input>
W0NIM11TKD1PKSg9TylbTkhdW0NIMl1jMVtjSF1bY0hdYyhuW2NIXTEpTjJbQ0gyXVtDSDJdT1tDSDJdW0NIMl0y

> <s_epik_cmdline>
J2VwaWtfcHl0aG9uJywgJy1waCcsICc3LjAnLCAnLXRuJywgJzgnLCAnLW1hJywgJzIwMCcsICctbWV0YWxfYmluZGluZycsICctaW1hZScsICc8aW5maWxlLm1hZT4nLCAnLW9tYWUnLCAnPG91dGZpbGUubWFlPic=

> <r_lp_tautomer_probability>
1

> <r_epik_Ionization_Penalty>
0.00676355

> <r_epik_Ionization_Penalty_Charging>
0

> <r_epik_Ionization_Penalty_Neutral>
0.00676355

> <r_epik_State_Penalty>
0.00499739

> <r_epik_Charging_Adjusted_Penalty>
0.00499739

> <i_epik_Tot_Q>
0

> <i_epik_Tot_abs_Q>
0

> <r_epik_Metal_State_Penalty>
0.025736

> <b_epik_Metal_Only>
0

> <s_lp_Force_Field>
OPLS_2005

> <r_lp_Energy>
12.1718

> <b_lp_Chiralities_Consistent>
1

> <s_lp_Variant>
AV-unprocessed.smi:340-1

> <Gold.Version>
5.8.1

> <Gold.Id.Protein>
6NUR|6NUR_protein|mol2

> <Gold.PLP.Fitness>
42.2957

> <Gold.PLP.PLP>
-35.4460

> <Gold.PLP.part.hbond>
-4.0000

> <Gold.PLP.part.metal>
0.0000

> <Gold.PLP.part.buried>
-3.4960

> <Gold.PLP.part.nonpolar>
-28.6528

> <Gold.PLP.part.repulsive>
0.1121

> <Gold.PLP.ligand.clash>
0.0000

> <Gold.PLP.ligand.torsion>
0.8334

> <Gold.PLP.Chemscore.Hbond>
2.3880

> <Gold.PLP.Chemscore.CHOScore>
0.0000

> <Gold.PLP.Chemscore.Metal>
0.0000

> <Gold.Chemscore.Hbonds>
donor molecule, donor type, donor heavy atom, donor atom, acceptor molecule, acceptor atom, score
      L1  H     5    22       P1  7948  0.82
      P1  H  7997  8010       L1    17  0.59
      P1  H 10752 10764       L1     4  0.83

> <Gold.PLP.Chemscore.Internal.Correction>
1.3524

> <Gold.Rescore>
     Score         DG    S(hbond)    S(metal)    S(lipo)     H(rot)  DE(clash)    DE(int)     intcor
     16.48     -17.34       1.73        0.00      86.83       1.59       0.04       0.82       ----

> <Gold.Chemscore.Fitness>
16.4832

> <Gold.Chemscore.DG>
-17.3404

> <Gold.Chemscore.ZeroCoef>
-5.4800

> <Gold.Chemscore.Hbond>
1.7296

> <Gold.Chemscore.Metal>
0.0000

> <Gold.Chemscore.Lipo>
86.8316

> <Gold.Chemscore.Internal_Hbond>
0.0000

> <Gold.Chemscore.DEClash>
0.0369

> <Gold.Chemscore.DEInternal>
0.8203

> <Gold.Chemscore.Rot>
1.5921

> <Gold.Chemscore.Internal.Correction>
   9.000000E+99

> <Gold.Chemscore.Hbonds>
donor molecule, donor type, donor heavy atom, donor atom, acceptor molecule, acceptor atom, score
      L1  H     5    22       P1  7948  0.65
      P1  H  7997  8010       L1    17  0.05
      P1  H 10752 10764       L1     4  0.78

> <Gold.Chemscore.Hbond.Weighted>
-5.7767

> <Gold.Chemscore.Metal.Weighted>
-0.0000

> <Gold.Chemscore.Lipo.Weighted>
-10.1593

> <Gold.Chemscore.Internal_Hbond.Weighted>
0.0000

> <Gold.Chemscore.DEClash.Weighted>
0.0369

> <Gold.Chemscore.DEInternal.Weighted>
0.8203

> <Gold.Chemscore.Rot.Weighted>
4.0757

> <Gold.Chemscore.Internal.Correction.Weighted>
   9.000000E+99

> <Gold.Protein.RotatedTorsions>
[ 6907 6896 6895 6894 ] final  159.28 input  -60.11 | X-H torsion
[ 7974 7965 7964 7962 ] final  -46.59 input  175.53 | X-H torsion
[ 8008 7997 7996 7995 ] final   41.19 input   59.86 | X-H torsion
[ 10167 10162 10161 10158 ] final  -92.98 input  -65.29 | X-H torsion
[ 10718 10713 10712 10709 ] final   97.11 input   66.30 | X-H torsion
[ 10763 10752 10751 10750 ] final  -40.84 input  -60.55 | X-H torsion
[ 11005 11000 10999 10996 ] final  -87.24 input  -57.11 | X-H torsion

> <Gold.Protein.ActiveResidues>
 VAL166  LYS551  ARG553  GLY616  TRP617  ASP618  TYR619  PRO620  LYS621  CYS622 
 ASP623  PHE694  ASN695  SER759  ASP760  ASP761  ALA762  ILE779  LEU786  VAL792 
 PHE793  MET794  SER795  GLU796  ALA797  LYS798  CYS799  TRP800  GLU811  SER814 

> <Gold.Protein.RotatedAtoms>
  151.9879  133.3780  159.4132 H   0  0  0  0  0  0  0  0  0  0  0  0  # atno 6907 bound_to 6896
  150.6925  134.3968  159.5110 H   0  0  0  0  0  0  0  0  0  0  0  0  # atno 6908 bound_to 6896
  152.1697  134.8844  160.0586 H   0  0  0  0  0  0  0  0  0  0  0  0  # atno 6909 bound_to 6896
  145.9703  140.7390  142.9414 H   0  0  0  0  0  0  0  0  0  0  0  0  # atno 7974 bound_to 7965
  155.2656  140.3362  155.4269 H   0  0  0  0  0  0  0  0  0  0  0  0  # atno 8008 bound_to 7997
  156.2155  140.1787  156.7640 H   0  0  0  0  0  0  0  0  0  0  0  0  # atno 8009 bound_to 7997
  154.5748  140.0664  156.9002 H   0  0  0  0  0  0  0  0  0  0  0  0  # atno 8010 bound_to 7997
  140.3293  143.3004  151.9959 H   0  0  0  0  0  0  0  0  0  0  0  0  # atno 10167 bound_to 10162
  157.6917  131.0599  150.4594 H   0  0  0  0  0  0  0  0  0  0  0  0  # atno 10718 bound_to 10713
  153.9526  135.6749  153.4744 H   0  0  0  0  0  0  0  0  0  0  0  0  # atno 10763 bound_to 10752
  153.0877  135.4890  154.8626 H   0  0  0  0  0  0  0  0  0  0  0  0  # atno 10764 bound_to 10752
  154.7317  135.3140  154.8839 H   0  0  0  0  0  0  0  0  0  0  0  0  # atno 10765 bound_to 10752
  141.1619  133.7500  156.9278 H   0  0  0  0  0  0  0  0  0  0  0  0  # atno 11005 bound_to 11000
  144.6835  140.2738  143.7302 LP  0  0  0  0  0  0  0  0  0  0  0  0  # atno 17320 bound_to 7965
  145.7915  139.1929  143.2100 LP  0  0  0  0  0  0  0  0  0  0  0  0  # atno 17321 bound_to 7965
  139.4859  144.6248  151.7186 LP  0  0  0  0  0  0  0  0  0  0  0  0  # atno 17342 bound_to 10162
  140.5411  144.0577  150.6089 LP  0  0  0  0  0  0  0  0  0  0  0  0  # atno 17343 bound_to 10162
  156.4939  130.4101  149.6391 LP  0  0  0  0  0  0  0  0  0  0  0  0  # atno 17370 bound_to 10713
  156.3391  130.7372  151.2314 LP  0  0  0  0  0  0  0  0  0  0  0  0  # atno 17371 bound_to 10713
  140.1407  134.9295  157.2462 LP  0  0  0  0  0  0  0  0  0  0  0  0  # atno 17394 bound_to 11000
  140.2840  134.3317  155.7334 LP  0  0  0  0  0  0  0  0  0  0  0  0  # atno 17395 bound_to 11000

$$$$
