AV-unprocessed.smi:3078|AV-procd|sdf|11733|dock9
  -GOLD-   2272017133D 1   1.00000     0.00000
 Structure written by MMmdl.
 23 23  0  0  0  0  0  0  0  0  2 V2000
  141.7960  137.9579  154.2987 C   0  0  0  0  0  0  0  0  0  0  0  0
  142.3734  136.8406  153.5825 N   0  0  0  0  0  0  0  0  0  0  0  0
  143.2338  136.8606  152.5065 C   0  0  0  0  0  0  0  0  0  0  0  0
  143.4989  135.5622  152.1654 C   0  0  0  0  0  0  0  0  0  0  0  0
  144.3738  135.0206  151.0620 C   0  0  2  0  0  0  0  0  0  0  0  0
  143.8791  135.5006  149.7614 N   0  3  0  0  0  0  0  0  0  0  0  0
  144.4609  133.4825  151.0655 C   0  0  0  0  0  0  0  0  0  0  0  0
  143.1874  132.8911  150.7006 N   0  0  0  0  0  0  0  0  0  0  0  0
  142.7399  134.8156  153.1124 C   0  0  0  0  0  0  0  0  0  0  0  0
  142.0706  135.5815  153.9578 N   0  0  0  0  0  0  0  0  0  0  0  0
  142.2917  138.8846  154.0082 H   0  0  0  0  0  0  0  0  0  0  0  0
  141.9169  137.8143  155.3729 H   0  0  0  0  0  0  0  0  0  0  0  0
  140.7340  138.0346  154.0641 H   0  0  0  0  0  0  0  0  0  0  0  0
  143.5790  137.7884  152.0741 H   0  0  0  0  0  0  0  0  0  0  0  0
  145.3849  135.4183  151.1624 H   0  0  0  0  0  0  0  0  0  0  0  0
  144.5141  135.2090  149.0321 H   0  0  0  0  0  0  0  0  0  0  0  0
  143.8221  136.5087  149.7742 H   0  0  0  0  0  0  0  0  0  0  0  0
  145.2340  133.1304  150.3819 H   0  0  0  0  0  0  0  0  0  0  0  0
  144.7245  133.1232  152.0607 H   0  0  0  0  0  0  0  0  0  0  0  0
  142.5090  133.6180  150.5214 H   0  0  0  0  0  0  0  0  0  0  0  0
  143.2810  132.3675  149.8416 H   0  0  0  0  0  0  0  0  0  0  0  0
  142.6558  133.7431  153.2090 H   0  0  0  0  0  0  0  0  0  0  0  0
  142.9632  135.1135  149.5851 H   0  0  0  0  0  0  0  0  0  0  0  0
  1  2  1  0  0  0  0
  1 11  1  0  0  0  0
  1 12  1  0  0  0  0
  1 13  1  0  0  0  0
  2 10  1  0  0  0  0
  2  3  1  0  0  0  0
  3  4  2  0  0  0  0
  3 14  1  0  0  0  0
  4  5  1  0  0  0  0
  4  9  1  0  0  0  0
  5  6  1  0  0  0  0
  5  7  1  0  0  0  0
  5 15  1  0  0  0  0
  6 16  1  0  0  0  0
  6 17  1  0  0  0  0
  6 23  1  0  0  0  0
  7  8  1  0  0  0  0
  7 18  1  0  0  0  0
  7 19  1  0  0  0  0
  8 20  1  0  0  0  0
  8 21  1  0  0  0  0
  9 10  2  0  0  0  0
  9 22  1  0  0  0  0
M  CHG  1   6   1
M  END
> <s_m_source_file>
AV-unprocessed.smi

> <i_m_source_file_index>
3078

> <i_lp_mmshare_version>
43012

> <i_f3d_flags>
0

> <s_epik_input>
W0NIM11uMVtjSF1jKFtjSF1uMSlbQ0BIXShbTkgyXSlbQ0gyXVtOSDJd

> <s_epik_cmdline>
J2VwaWtfcHl0aG9uJywgJy1waCcsICc3LjAnLCAnLXRuJywgJzgnLCAnLW1hJywgJzIwMCcsICctbWV0YWxfYmluZGluZycsICctaW1hZScsICc8aW5maWxlLm1hZT4nLCAnLW9tYWUnLCAnPG91dGZpbGUubWFlPic=

> <r_epik_Ionization_Penalty>
0.19937

> <r_epik_Ionization_Penalty_Charging>
0.0290541

> <r_epik_Ionization_Penalty_Neutral>
0.170316

> <r_epik_State_Penalty>
1.07715

> <r_epik_Charging_Adjusted_Penalty>
1.1062

> <i_epik_Tot_Q>
1

> <i_epik_Tot_abs_Q>
1

> <r_epik_Metal_State_Penalty>
1.07718

> <b_epik_Metal_Only>
0

> <s_lp_Force_Field>
OPLS_2005

> <r_lp_Energy>
0.880803

> <b_lp_Chiralities_Consistent>
1

> <s_lp_Variant>
AV-unprocessed.smi:3078-3

> <Gold.Version>
5.8.1

> <Gold.Id.Protein>
6NUR|6NUR_protein|mol2

> <Gold.PLP.Fitness>
36.6542

> <Gold.PLP.PLP>
-15.1339

> <Gold.PLP.part.hbond>
-3.3928

> <Gold.PLP.part.metal>
0.0000

> <Gold.PLP.part.buried>
-1.8321

> <Gold.PLP.part.nonpolar>
-11.4892

> <Gold.PLP.part.repulsive>
0.2185

> <Gold.PLP.ligand.clash>
0.0000

> <Gold.PLP.ligand.torsion>
0.0343

> <Gold.PLP.Chemscore.Hbond>
4.5263

> <Gold.PLP.Chemscore.CHOScore>
2.6656

> <Gold.PLP.Chemscore.Metal>
0.0000

> <Gold.Chemscore.Hbonds>
donor molecule, donor type, donor heavy atom, donor atom, acceptor molecule, acceptor atom, score
      L1  H     6    16       P1  7921  0.65
      L1  H     6    17       P1 10171  0.96
      L1  H     6    23       P1 10186  1.89
      L1  H     8    20       P1 10186  1.00
      L1  C     3    14       P1 10171  1.00
      L1  C     3    14       P1 10175  0.66
      L1  C     9    22       P1 10957  1.00

> <Gold.PLP.Chemscore.Internal.Correction>
0.0134

> <Gold.Rescore>
     Score         DG    S(hbond)    S(metal)    S(lipo)     H(rot)  DE(clash)    DE(int)     intcor
     16.34     -16.56       3.37        0.00      29.08       1.40       0.16       0.05       ----

> <Gold.Chemscore.Fitness>
16.3397

> <Gold.Chemscore.DG>
-16.5552

> <Gold.Chemscore.ZeroCoef>
-5.4800

> <Gold.Chemscore.Hbond>
3.3736

> <Gold.Chemscore.Metal>
0.0000

> <Gold.Chemscore.Lipo>
29.0846

> <Gold.Chemscore.Internal_Hbond>
0.0000

> <Gold.Chemscore.DEClash>
0.1644

> <Gold.Chemscore.DEInternal>
0.0511

> <Gold.Chemscore.Rot>
1.4045

> <Gold.Chemscore.Internal.Correction>
   9.000000E+99

> <Gold.Chemscore.Hbonds>
donor molecule, donor type, donor heavy atom, donor atom, acceptor molecule, acceptor atom, score
      L1  H     6    16       P1  7921  0.65
      L1  H     6    17       P1 10171  0.89
      L1  H     6    23       P1 10186  0.45
      L1  H     8    20       P1 10186  0.94

> <Gold.Chemscore.Hbond.Weighted>
-11.2679

> <Gold.Chemscore.Metal.Weighted>
-0.0000

> <Gold.Chemscore.Lipo.Weighted>
-3.4029

> <Gold.Chemscore.Internal_Hbond.Weighted>
0.0000

> <Gold.Chemscore.DEClash.Weighted>
0.1644

> <Gold.Chemscore.DEInternal.Weighted>
0.0511

> <Gold.Chemscore.Rot.Weighted>
3.5956

> <Gold.Chemscore.Internal.Correction.Weighted>
   9.000000E+99

> <Gold.Protein.RotatedTorsions>
[ 6907 6896 6895 6894 ] final  166.58 input  -60.11 | X-H torsion
[ 7974 7965 7964 7962 ] final  -13.06 input  175.53 | X-H torsion
[ 8008 7997 7996 7995 ] final   89.60 input   59.86 | X-H torsion
[ 10167 10162 10161 10158 ] final   31.05 input  -65.29 | X-H torsion
[ 10718 10713 10712 10709 ] final  -87.45 input   66.30 | X-H torsion
[ 10763 10752 10751 10750 ] final  -93.65 input  -60.55 | X-H torsion
[ 11005 11000 10999 10996 ] final -154.81 input  -57.11 | X-H torsion

> <Gold.Protein.ActiveResidues>
 VAL166  LYS551  ARG553  GLY616  TRP617  ASP618  TYR619  PRO620  LYS621  CYS622 
 ASP623  PHE694  ASN695  SER759  ASP760  ASP761  ALA762  ILE779  LEU786  VAL792 
 PHE793  MET794  SER795  GLU796  ALA797  LYS798  CYS799  TRP800  GLU811  SER814 

> <Gold.Protein.RotatedAtoms>
  151.8766  133.3486  159.3752 H   0  0  0  0  0  0  0  0  0  0  0  0  # atno 6907 bound_to 6896
  150.7138  134.5060  159.5593 H   0  0  0  0  0  0  0  0  0  0  0  0  # atno 6908 bound_to 6896
  152.2603  134.8041  160.0482 H   0  0  0  0  0  0  0  0  0  0  0  0  # atno 6909 bound_to 6896
  146.2128  140.3148  142.8385 H   0  0  0  0  0  0  0  0  0  0  0  0  # atno 7974 bound_to 7965
  156.0019  140.3359  155.6854 H   0  0  0  0  0  0  0  0  0  0  0  0  # atno 8008 bound_to 7997
  155.6278  140.0682  157.2676 H   0  0  0  0  0  0  0  0  0  0  0  0  # atno 8009 bound_to 7997
  154.4252  140.1765  156.1427 H   0  0  0  0  0  0  0  0  0  0  0  0  # atno 8010 bound_to 7997
  140.4623  144.0888  150.6216 H   0  0  0  0  0  0  0  0  0  0  0  0  # atno 10167 bound_to 10162
  155.9985  130.4800  150.4868 H   0  0  0  0  0  0  0  0  0  0  0  0  # atno 10718 bound_to 10713
  154.6980  135.5186  153.8485 H   0  0  0  0  0  0  0  0  0  0  0  0  # atno 10763 bound_to 10752
  153.0682  135.6592  154.0317 H   0  0  0  0  0  0  0  0  0  0  0  0  # atno 10764 bound_to 10752
  154.0180  135.2996  155.3364 H   0  0  0  0  0  0  0  0  0  0  0  0  # atno 10765 bound_to 10752
  140.6933  134.4017  157.5217 H   0  0  0  0  0  0  0  0  0  0  0  0  # atno 11005 bound_to 11000
  144.8962  140.7586  143.5896 LP  0  0  0  0  0  0  0  0  0  0  0  0  # atno 17320 bound_to 7965
  145.3073  139.1830  143.4658 LP  0  0  0  0  0  0  0  0  0  0  0  0  # atno 17321 bound_to 7965
  140.4078  143.2671  151.9869 LP  0  0  0  0  0  0  0  0  0  0  0  0  # atno 17342 bound_to 10162
  139.4808  144.5941  151.7720 LP  0  0  0  0  0  0  0  0  0  0  0  0  # atno 17343 bound_to 10162
  157.2868  131.0618  151.2161 LP  0  0  0  0  0  0  0  0  0  0  0  0  # atno 17370 bound_to 10713
  157.3188  130.6926  149.6257 LP  0  0  0  0  0  0  0  0  0  0  0  0  # atno 17371 bound_to 10713
  139.8917  134.8773  156.2306 LP  0  0  0  0  0  0  0  0  0  0  0  0  # atno 17394 bound_to 11000
  141.0223  133.7034  156.1289 LP  0  0  0  0  0  0  0  0  0  0  0  0  # atno 17395 bound_to 11000

$$$$
