AV-unprocessed.smi:2824|AV-procd|sdf|10887|dock4
  -GOLD-   2272015333D 1   1.00000     0.00000
 Structure written by MMmdl.
 38 39  0  0  0  0  0  0  0  0  1 V2000
  151.5748  144.7990  159.6930 C   0  0  0  0  0  0  0  0  0  0  0  0
  152.2201  143.6842  160.4949 C   0  0  0  0  0  0  0  0  0  0  0  0
  152.4611  143.8669  161.8730 C   0  0  0  0  0  0  0  0  0  0  0  0
  153.0575  142.8429  162.6306 C   0  0  0  0  0  0  0  0  0  0  0  0
  153.4136  141.6317  162.0114 C   0  0  0  0  0  0  0  0  0  0  0  0
  153.1749  141.4439  160.6365 C   0  0  0  0  0  0  0  0  0  0  0  0
  152.5750  142.4698  159.8618 C   0  0  0  0  0  0  0  0  0  0  0  0
  152.3105  142.3556  158.5123 O   0  0  0  0  0  0  0  0  0  0  0  0
  152.0270  141.0680  157.9815 C   0  0  0  0  0  0  0  0  0  0  0  0
  150.5636  141.0386  157.5093 C   0  0  1  0  0  0  0  0  0  0  0  0
  149.7761  141.5904  158.5470 O   0  0  0  0  0  0  0  0  0  0  0  0
  150.3516  141.8980  156.2434 C   0  0  0  0  0  0  0  0  0  0  0  0
  149.0219  141.6958  155.6552 N   0  0  0  0  0  0  0  0  0  0  0  0
  147.9772  142.0206  156.5027 N   0  0  0  0  0  0  0  0  0  0  0  0
  146.7442  141.8840  156.1342 C   0  0  0  0  0  0  0  0  0  0  0  0
  145.6758  142.2562  157.1322 C   0  0  0  0  0  0  0  0  0  0  0  0
  144.9084  143.2432  156.6691 F   0  0  0  0  0  0  0  0  0  0  0  0
  144.9009  141.2016  157.3877 F   0  0  0  0  0  0  0  0  0  0  0  0
  146.2354  142.6554  158.2749 F   0  0  0  0  0  0  0  0  0  0  0  0
  146.4577  141.3865  154.7988 C   0  0  0  0  0  0  0  0  0  0  0  0
  147.4788  141.0718  153.9731 C   0  0  0  0  0  0  0  0  0  0  0  0
  148.8727  141.2169  154.3855 C   0  0  0  0  0  0  0  0  0  0  0  0
  149.8248  140.9310  153.6598 O   0  0  0  0  0  0  0  0  0  0  0  0
  151.4033  145.6846  160.3053 H   0  0  0  0  0  0  0  0  0  0  0  0
  150.6147  144.4707  159.2943 H   0  0  0  0  0  0  0  0  0  0  0  0
  152.2141  145.0848  158.8572 H   0  0  0  0  0  0  0  0  0  0  0  0
  152.1892  144.7942  162.3556 H   0  0  0  0  0  0  0  0  0  0  0  0
  153.2404  142.9863  163.6853 H   0  0  0  0  0  0  0  0  0  0  0  0
  153.8704  140.8434  162.5915 H   0  0  0  0  0  0  0  0  0  0  0  0
  153.4616  140.4997  160.2000 H   0  0  0  0  0  0  0  0  0  0  0  0
  152.7045  140.8077  157.1660 H   0  0  0  0  0  0  0  0  0  0  0  0
  152.1658  140.3352  158.7781 H   0  0  0  0  0  0  0  0  0  0  0  0
  150.2634  140.0065  157.3233 H   0  0  0  0  0  0  0  0  0  0  0  0
  150.3447  142.0535  159.1429 H   0  0  0  0  0  0  0  0  0  0  0  0
  150.5249  142.9535  156.4633 H   0  0  0  0  0  0  0  0  0  0  0  0
  151.1022  141.6443  155.4926 H   0  0  0  0  0  0  0  0  0  0  0  0
  145.4349  141.2704  154.4728 H   0  0  0  0  0  0  0  0  0  0  0  0
  147.2613  140.7026  152.9816 H   0  0  0  0  0  0  0  0  0  0  0  0
  1  2  1  0  0  0  0
  1 24  1  0  0  0  0
  1 25  1  0  0  0  0
  1 26  1  0  0  0  0
  2  7  1  0  0  0  0
  2  3  2  0  0  0  0
  3  4  1  0  0  0  0
  3 27  1  0  0  0  0
  4  5  2  0  0  0  0
  4 28  1  0  0  0  0
  5  6  1  0  0  0  0
  5 29  1  0  0  0  0
  6  7  2  0  0  0  0
  6 30  1  0  0  0  0
  7  8  1  0  0  0  0
  8  9  1  0  0  0  0
  9 10  1  0  0  0  0
  9 31  1  0  0  0  0
  9 32  1  0  0  0  0
 10 11  1  0  0  0  0
 10 12  1  0  0  0  0
 10 33  1  0  0  0  0
 11 34  1  0  0  0  0
 12 13  1  0  0  0  0
 12 35  1  0  0  0  0
 12 36  1  0  0  0  0
 13 22  1  0  0  0  0
 13 14  1  0  0  0  0
 14 15  2  0  0  0  0
 15 16  1  0  0  0  0
 15 20  1  0  0  0  0
 16 17  1  0  0  0  0
 16 18  1  0  0  0  0
 16 19  1  0  0  0  0
 20 21  2  0  0  0  0
 20 37  1  0  0  0  0
 21 22  1  0  0  0  0
 21 38  1  0  0  0  0
 22 23  2  0  0  0  0
M  END
> <s_m_source_file>
AV-unprocessed.smi

> <i_m_source_file_index>
2824

> <i_lp_mmshare_version>
43012

> <i_f3d_flags>
0

> <s_epik_input>
W0NIM11jMVtjSF1bY0hdW2NIXVtjSF1jMU9bQ0gyXVtDQEhdKFtPSF0pW0NIMl1uMm5jKEMoRikoRilGKVtjSF1bY0hdYzI9Tw==

> <s_epik_cmdline>
J2VwaWtfcHl0aG9uJywgJy1waCcsICc3LjAnLCAnLXRuJywgJzgnLCAnLW1hJywgJzIwMCcsICctbWV0YWxfYmluZGluZycsICctaW1hZScsICc8aW5maWxlLm1hZT4nLCAnLW9tYWUnLCAnPG91dGZpbGUubWFlPic=

> <r_lp_tautomer_probability>
1

> <r_epik_Ionization_Penalty>
1.2156e-07

> <r_epik_Ionization_Penalty_Charging>
4.38548e-09

> <r_epik_Ionization_Penalty_Neutral>
1.17174e-07

> <r_epik_State_Penalty>
-0

> <r_epik_Charging_Adjusted_Penalty>
4.38548e-09

> <i_epik_Tot_Q>
0

> <i_epik_Tot_abs_Q>
0

> <r_epik_Metal_State_Penalty>
-0

> <b_epik_Metal_Only>
0

> <s_lp_Force_Field>
OPLS_2005

> <r_lp_Energy>
34.0789

> <b_lp_Chiralities_Consistent>
1

> <s_lp_Variant>
AV-unprocessed.smi:2824-2

> <Gold.Version>
5.8.1

> <Gold.Id.Protein>
6NUR|6NUR_protein|mol2

> <Gold.PLP.Fitness>
47.5911

> <Gold.PLP.PLP>
-45.1702

> <Gold.PLP.part.hbond>
-2.0465

> <Gold.PLP.part.metal>
0.0000

> <Gold.PLP.part.buried>
-4.8726

> <Gold.PLP.part.nonpolar>
-41.0340

> <Gold.PLP.part.repulsive>
4.2503

> <Gold.PLP.ligand.clash>
0.0000

> <Gold.PLP.ligand.torsion>
0.8710

> <Gold.PLP.Chemscore.Hbond>
1.3760

> <Gold.PLP.Chemscore.CHOScore>
0.0000

> <Gold.PLP.Chemscore.Metal>
0.0000

> <Gold.Chemscore.Hbonds>
donor molecule, donor type, donor heavy atom, donor atom, acceptor molecule, acceptor atom, score
      P1  H  7989  7998       L1    23  0.35
      P1  H  8011  8017       L1    23  0.98

> <Gold.PLP.Chemscore.Internal.Correction>
0.0348

> <Gold.Rescore>
     Score         DG    S(hbond)    S(metal)    S(lipo)     H(rot)  DE(clash)    DE(int)     intcor
     11.86     -15.90       1.19        0.00     112.01       2.60       1.63       2.40       ----

> <Gold.Chemscore.Fitness>
11.8634

> <Gold.Chemscore.DG>
-15.8972

> <Gold.Chemscore.ZeroCoef>
-5.4800

> <Gold.Chemscore.Hbond>
1.1862

> <Gold.Chemscore.Metal>
0.0000

> <Gold.Chemscore.Lipo>
112.0144

> <Gold.Chemscore.Internal_Hbond>
0.0000

> <Gold.Chemscore.DEClash>
1.6326

> <Gold.Chemscore.DEInternal>
2.4012

> <Gold.Chemscore.Rot>
2.5978

> <Gold.Chemscore.Internal.Correction>
   9.000000E+99

> <Gold.Chemscore.Hbonds>
donor molecule, donor type, donor heavy atom, donor atom, acceptor molecule, acceptor atom, score
      P1  H  7989  7998       L1    23  0.36
      P1  H  8011  8017       L1    23  0.36

> <Gold.Chemscore.Hbond.Weighted>
-3.9619

> <Gold.Chemscore.Metal.Weighted>
-0.0000

> <Gold.Chemscore.Lipo.Weighted>
-13.1057

> <Gold.Chemscore.Internal_Hbond.Weighted>
0.0000

> <Gold.Chemscore.DEClash.Weighted>
1.6326

> <Gold.Chemscore.DEInternal.Weighted>
2.4012

> <Gold.Chemscore.Rot.Weighted>
6.6504

> <Gold.Chemscore.Internal.Correction.Weighted>
   9.000000E+99

> <Gold.Protein.RotatedTorsions>
[ 6907 6896 6895 6894 ] final -169.20 input  -60.11 | X-H torsion
[ 7974 7965 7964 7962 ] final  147.68 input  175.53 | X-H torsion
[ 8008 7997 7996 7995 ] final  -77.21 input   59.86 | X-H torsion
[ 10167 10162 10161 10158 ] final    6.02 input  -65.29 | X-H torsion
[ 10718 10713 10712 10709 ] final -109.55 input   66.30 | X-H torsion
[ 10763 10752 10751 10750 ] final  175.69 input  -60.55 | X-H torsion
[ 11005 11000 10999 10996 ] final   11.31 input  -57.11 | X-H torsion

> <Gold.Protein.ActiveResidues>
 VAL166  LYS551  ARG553  GLY616  TRP617  ASP618  TYR619  PRO620  LYS621  CYS622 
 ASP623  PHE694  ASN695  SER759  ASP760  ASP761  ALA762  ILE779  LEU786  VAL792 
 PHE793  MET794  SER795  GLU796  ALA797  LYS798  CYS799  TRP800  GLU811  SER814 

> <Gold.Protein.RotatedAtoms>
  151.4878  133.3531  159.2848 H   0  0  0  0  0  0  0  0  0  0  0  0  # atno 6907 bound_to 6896
  150.8854  134.8253  159.7266 H   0  0  0  0  0  0  0  0  0  0  0  0  # atno 6908 bound_to 6896
  152.4790  134.4781  159.9709 H   0  0  0  0  0  0  0  0  0  0  0  0  # atno 6909 bound_to 6896
  144.8573  139.6059  143.5947 H   0  0  0  0  0  0  0  0  0  0  0  0  # atno 7974 bound_to 7965
  154.5575  140.0714  156.8767 H   0  0  0  0  0  0  0  0  0  0  0  0  # atno 8008 bound_to 7997
  155.2874  140.3376  155.4236 H   0  0  0  0  0  0  0  0  0  0  0  0  # atno 8009 bound_to 7997
  156.2014  140.1723  156.7876 H   0  0  0  0  0  0  0  0  0  0  0  0  # atno 8010 bound_to 7997
  140.6450  143.7683  150.7485 H   0  0  0  0  0  0  0  0  0  0  0  0  # atno 10167 bound_to 10162
  156.0543  130.5770  150.8115 H   0  0  0  0  0  0  0  0  0  0  0  0  # atno 10718 bound_to 10713
  154.4711  135.2771  155.1642 H   0  0  0  0  0  0  0  0  0  0  0  0  # atno 10763 bound_to 10752
  154.3391  135.6174  153.5591 H   0  0  0  0  0  0  0  0  0  0  0  0  # atno 10764 bound_to 10752
  152.9864  135.5784  154.5092 H   0  0  0  0  0  0  0  0  0  0  0  0  # atno 10765 bound_to 10752
  140.5046  134.0712  155.7802 H   0  0  0  0  0  0  0  0  0  0  0  0  # atno 11005 bound_to 11000
  146.2833  139.6935  142.9214 LP  0  0  0  0  0  0  0  0  0  0  0  0  # atno 17320 bound_to 7965
  145.4382  141.0420  143.2872 LP  0  0  0  0  0  0  0  0  0  0  0  0  # atno 17321 bound_to 7965
  140.1322  143.4516  152.2247 LP  0  0  0  0  0  0  0  0  0  0  0  0  # atno 17342 bound_to 10162
  139.5661  144.7435  151.4020 LP  0  0  0  0  0  0  0  0  0  0  0  0  # atno 17343 bound_to 10162
  157.5499  131.0943  150.9710 LP  0  0  0  0  0  0  0  0  0  0  0  0  # atno 17370 bound_to 10713
  156.9973  130.5586  149.5308 LP  0  0  0  0  0  0  0  0  0  0  0  0  # atno 17371 bound_to 10713
  141.1417  133.9126  157.2309 LP  0  0  0  0  0  0  0  0  0  0  0  0  # atno 17394 bound_to 11000
  139.9693  135.0133  156.9471 LP  0  0  0  0  0  0  0  0  0  0  0  0  # atno 17395 bound_to 11000

$$$$
