AV-unprocessed.smi:1762|AV-procd|sdf|7110|dock1
  -GOLD-   22720 8333D 1   1.00000     0.00000
 Structure written by MMmdl.
 53 54  0  0  0  0  0  0  0  0  2 V2000
  151.0098  142.2525  156.1975 C   0  0  0  0  0  0  0  0  0  0  0  0
  150.4096  140.8643  155.9475 C   0  0  1  0  0  0  0  0  0  0  0  0
  149.0409  140.9433  155.2479 C   0  0  0  0  0  0  0  0  0  0  0  0
  148.4899  139.6230  154.9230 N   0  0  0  0  0  0  0  0  0  0  0  0
  147.1266  139.7016  154.3250 C   0  0  1  0  0  0  0  0  0  0  0  0
  146.5679  138.3313  153.8694 C   0  0  0  0  0  0  0  0  0  0  0  0
  147.1529  137.2874  154.1567 O   0  0  0  0  0  0  0  0  0  0  0  0
  145.4507  138.3557  153.1245 N   0  0  0  0  0  0  0  0  0  0  0  0
  144.8104  137.1827  152.5367 C   0  0  0  0  0  0  0  0  0  0  0  0
  145.6354  136.5413  151.4041 C   0  0  0  0  0  0  0  0  0  0  0  0
  145.5681  135.0244  151.3845 C   0  0  0  0  0  0  0  0  0  0  0  0
  144.3992  134.3329  150.9995 C   0  0  0  0  0  0  0  0  0  0  0  0
  144.3967  132.9224  151.0120 C   0  0  0  0  0  0  0  0  0  0  0  0
  145.5611  132.2334  151.4103 C   0  0  0  0  0  0  0  0  0  0  0  0
  146.7003  132.9738  151.7856 C   0  0  0  0  0  0  0  0  0  0  0  0
  146.6626  134.3240  151.7602 N   0  3  0  0  0  0  0  0  0  0  0  0
  146.0839  140.4904  155.1891 C   0  0  0  0  0  0  0  0  0  0  0  0
  146.2444  142.0226  155.1252 C   0  0  0  0  0  0  0  0  0  0  0  0
  146.0104  140.0203  156.6547 C   0  0  0  0  0  0  0  0  0  0  0  0
  149.4829  138.8887  154.1187 C   0  0  0  0  0  0  0  0  0  0  0  0
  150.8789  138.8263  154.7709 C   0  0  2  0  0  0  0  0  0  0  0  0
  150.9566  137.8452  155.9540 C   0  0  0  0  0  0  0  0  0  0  0  0
  151.3191  140.1328  155.1332 O   0  0  0  0  0  0  0  0  0  0  0  0
  150.3597  142.8520  156.8350 H   0  0  0  0  0  0  0  0  0  0  0  0
  151.1543  142.7946  155.2625 H   0  0  0  0  0  0  0  0  0  0  0  0
  151.9788  142.1752  156.6908 H   0  0  0  0  0  0  0  0  0  0  0  0
  150.2979  140.3639  156.9097 H   0  0  0  0  0  0  0  0  0  0  0  0
  148.3777  141.4881  155.9160 H   0  0  0  0  0  0  0  0  0  0  0  0
  149.1289  141.5412  154.3389 H   0  0  0  0  0  0  0  0  0  0  0  0
  147.2264  140.2794  153.4035 H   0  0  0  0  0  0  0  0  0  0  0  0
  145.0402  139.2546  152.9162 H   0  0  0  0  0  0  0  0  0  0  0  0
  144.6568  136.4546  153.3335 H   0  0  0  0  0  0  0  0  0  0  0  0
  143.8169  137.4478  152.1719 H   0  0  0  0  0  0  0  0  0  0  0  0
  145.2859  136.9197  150.4429 H   0  0  0  0  0  0  0  0  0  0  0  0
  146.6789  136.8495  151.4843 H   0  0  0  0  0  0  0  0  0  0  0  0
  143.5140  134.8751  150.6999 H   0  0  0  0  0  0  0  0  0  0  0  0
  143.5116  132.3760  150.7205 H   0  0  0  0  0  0  0  0  0  0  0  0
  145.5796  131.1534  151.4271 H   0  0  0  0  0  0  0  0  0  0  0  0
  147.6330  132.5311  152.1036 H   0  0  0  0  0  0  0  0  0  0  0  0
  145.0946  140.2652  154.7949 H   0  0  0  0  0  0  0  0  0  0  0  0
  147.1722  142.3585  155.5864 H   0  0  0  0  0  0  0  0  0  0  0  0
  145.4271  142.5192  155.6492 H   0  0  0  0  0  0  0  0  0  0  0  0
  146.2330  142.3858  154.0977 H   0  0  0  0  0  0  0  0  0  0  0  0
  146.9037  140.2926  157.2172 H   0  0  0  0  0  0  0  0  0  0  0  0
  145.8868  138.9388  156.7136 H   0  0  0  0  0  0  0  0  0  0  0  0
  145.1600  140.4730  157.1651 H   0  0  0  0  0  0  0  0  0  0  0  0
  149.1734  137.8594  153.9388 H   0  0  0  0  0  0  0  0  0  0  0  0
  149.5726  139.3602  153.1385 H   0  0  0  0  0  0  0  0  0  0  0  0
  151.5827  138.4681  154.0191 H   0  0  0  0  0  0  0  0  0  0  0  0
  150.7449  136.8271  155.6269 H   0  0  0  0  0  0  0  0  0  0  0  0
  150.2399  138.0888  156.7380 H   0  0  0  0  0  0  0  0  0  0  0  0
  151.9526  137.8479  156.3970 H   0  0  0  0  0  0  0  0  0  0  0  0
  147.4979  134.8404  152.0374 H   0  0  0  0  0  0  0  0  0  0  0  0
  1  2  1  0  0  0  0
  1 24  1  0  0  0  0
  1 25  1  0  0  0  0
  1 26  1  0  0  0  0
  2 23  1  0  0  0  0
  2  3  1  0  0  0  0
  2 27  1  0  0  0  0
  3  4  1  0  0  0  0
  3 28  1  0  0  0  0
  3 29  1  0  0  0  0
  4  5  1  0  0  0  0
  4 20  1  0  0  0  0
  5  6  1  0  0  0  0
  5 17  1  0  0  0  0
  5 30  1  0  0  0  0
  6  7  2  0  0  0  0
  6  8  1  0  0  0  0
  8  9  1  0  0  0  0
  8 31  1  0  0  0  0
  9 10  1  0  0  0  0
  9 32  1  0  0  0  0
  9 33  1  0  0  0  0
 10 11  1  0  0  0  0
 10 34  1  0  0  0  0
 10 35  1  0  0  0  0
 11 16  1  0  0  0  0
 11 12  2  0  0  0  0
 12 13  1  0  0  0  0
 12 36  1  0  0  0  0
 13 14  2  0  0  0  0
 13 37  1  0  0  0  0
 14 15  1  0  0  0  0
 14 38  1  0  0  0  0
 15 16  2  0  0  0  0
 15 39  1  0  0  0  0
 16 53  1  0  0  0  0
 17 18  1  0  0  0  0
 17 19  1  0  0  0  0
 17 40  1  0  0  0  0
 18 41  1  0  0  0  0
 18 42  1  0  0  0  0
 18 43  1  0  0  0  0
 19 44  1  0  0  0  0
 19 45  1  0  0  0  0
 19 46  1  0  0  0  0
 20 21  1  0  0  0  0
 20 47  1  0  0  0  0
 20 48  1  0  0  0  0
 21 22  1  0  0  0  0
 21 23  1  0  0  0  0
 21 49  1  0  0  0  0
 22 50  1  0  0  0  0
 22 51  1  0  0  0  0
 22 52  1  0  0  0  0
M  CHG  1  16   1
M  END
> <s_m_source_file>
AV-unprocessed.smi

> <i_m_source_file_index>
1762

> <i_lp_mmshare_version>
43012

> <i_f3d_flags>
0

> <s_epik_input>
W0NIM11bQ0BASF0xW0NIMl1OKFtDSDJdW0NASF0oTzEpW0NIM10pW0NAQEhdKFtDSF0oW0NIM10pW0NIM10pQyg9TylbTkhdW0NIMl1bQ0gyXWMyW2NIXVtjSF1bY0hdW2NIXW4y

> <s_epik_cmdline>
J2VwaWtfcHl0aG9uJywgJy1waCcsICc3LjAnLCAnLXRuJywgJzgnLCAnLW1hJywgJzIwMCcsICctbWV0YWxfYmluZGluZycsICctaW1hZScsICc8aW5maWxlLm1hZT4nLCAnLW9tYWUnLCAnPG91dGZpbGUubWFlPic=

> <r_epik_Ionization_Penalty>
1.86475

> <r_epik_Ionization_Penalty_Charging>
1.85347

> <r_epik_Ionization_Penalty_Neutral>
0.0112771

> <r_epik_State_Penalty>
1.99714

> <r_epik_Charging_Adjusted_Penalty>
3.85061

> <i_epik_Tot_Q>
1

> <i_epik_Tot_abs_Q>
1

> <r_epik_Metal_State_Penalty>
2.02271

> <b_epik_Metal_Only>
0

> <s_lp_Force_Field>
OPLS_2005

> <r_lp_Energy>
36.5288

> <b_lp_Chiralities_Consistent>
1

> <s_lp_Variant>
AV-unprocessed.smi:1762-12

> <Gold.Version>
5.8.1

> <Gold.Id.Protein>
6NUR|6NUR_protein|mol2

> <Gold.PLP.Fitness>
46.0334

> <Gold.PLP.PLP>
-35.3377

> <Gold.PLP.part.hbond>
-3.0000

> <Gold.PLP.part.metal>
0.0000

> <Gold.PLP.part.buried>
-5.2534

> <Gold.PLP.part.nonpolar>
-27.4544

> <Gold.PLP.part.repulsive>
0.6706

> <Gold.PLP.ligand.clash>
0.0000

> <Gold.PLP.ligand.torsion>
0.8752

> <Gold.PLP.Chemscore.Hbond>
4.0000

> <Gold.PLP.Chemscore.CHOScore>
0.0000

> <Gold.PLP.Chemscore.Metal>
0.0000

> <Gold.Chemscore.Hbonds>
donor molecule, donor type, donor heavy atom, donor atom, acceptor molecule, acceptor atom, score
      L1  H     8    31       P1 10175  1.00
      L1  H    16    53       P1  7948  2.00
      P1  H  7989  7998       L1    23  1.00

> <Gold.PLP.Chemscore.Internal.Correction>
0.4461

> <Gold.Rescore>
     Score         DG    S(hbond)    S(metal)    S(lipo)     H(rot)  DE(clash)    DE(int)     intcor
     17.10     -19.83       2.38        0.00      92.15       1.72       0.07       2.65       ----

> <Gold.Chemscore.Fitness>
17.1043

> <Gold.Chemscore.DG>
-19.8255

> <Gold.Chemscore.ZeroCoef>
-5.4800

> <Gold.Chemscore.Hbond>
2.3834

> <Gold.Chemscore.Metal>
0.0000

> <Gold.Chemscore.Lipo>
92.1485

> <Gold.Chemscore.Internal_Hbond>
0.0000

> <Gold.Chemscore.DEClash>
0.0688

> <Gold.Chemscore.DEInternal>
2.6525

> <Gold.Chemscore.Rot>
1.7174

> <Gold.Chemscore.Internal.Correction>
   9.000000E+99

> <Gold.Chemscore.Hbonds>
donor molecule, donor type, donor heavy atom, donor atom, acceptor molecule, acceptor atom, score
      L1  H     8    31       P1 10175  0.98
      L1  H    16    53       P1  7948  0.79
      P1  H  7989  7998       L1    23  0.31

> <Gold.Chemscore.Hbond.Weighted>
-7.9607

> <Gold.Chemscore.Metal.Weighted>
-0.0000

> <Gold.Chemscore.Lipo.Weighted>
-10.7814

> <Gold.Chemscore.Internal_Hbond.Weighted>
0.0000

> <Gold.Chemscore.DEClash.Weighted>
0.0688

> <Gold.Chemscore.DEInternal.Weighted>
2.6525

> <Gold.Chemscore.Rot.Weighted>
4.3966

> <Gold.Chemscore.Internal.Correction.Weighted>
   9.000000E+99

> <Gold.Protein.RotatedTorsions>
[ 6907 6896 6895 6894 ] final -119.13 input  -60.11 | X-H torsion
[ 7974 7965 7964 7962 ] final  -83.53 input  175.53 | X-H torsion
[ 8008 7997 7996 7995 ] final   26.96 input   59.86 | X-H torsion
[ 10167 10162 10161 10158 ] final   22.93 input  -65.29 | X-H torsion
[ 10718 10713 10712 10709 ] final  -74.83 input   66.30 | X-H torsion
[ 10763 10752 10751 10750 ] final  -53.71 input  -60.55 | X-H torsion
[ 11005 11000 10999 10996 ] final   96.93 input  -57.11 | X-H torsion

> <Gold.Protein.ActiveResidues>
 VAL166  LYS551  ARG553  GLY616  TRP617  ASP618  TYR619  PRO620  LYS621  CYS622 
 ASP623  PHE694  ASN695  SER759  ASP760  ASP761  ALA762  ILE779  LEU786  VAL792 
 PHE793  MET794  SER795  GLU796  ALA797  LYS798  CYS799  TRP800  GLU811  SER814 

> <Gold.Protein.RotatedAtoms>
  150.8278  133.8141  159.3110 H   0  0  0  0  0  0  0  0  0  0  0  0  # atno 6907 bound_to 6896
  151.5880  135.1053  160.0042 H   0  0  0  0  0  0  0  0  0  0  0  0  # atno 6908 bound_to 6896
  152.4361  133.7323  159.6650 H   0  0  0  0  0  0  0  0  0  0  0  0  # atno 6909 bound_to 6896
  145.5187  140.9533  143.1667 H   0  0  0  0  0  0  0  0  0  0  0  0  # atno 7974 bound_to 7965
  155.0355  140.3163  155.4743 H   0  0  0  0  0  0  0  0  0  0  0  0  # atno 8008 bound_to 7997
  156.2865  140.2172  156.5420 H   0  0  0  0  0  0  0  0  0  0  0  0  # atno 8009 bound_to 7997
  154.7334  140.0479  157.0735 H   0  0  0  0  0  0  0  0  0  0  0  0  # atno 8010 bound_to 7997
  140.5309  143.9843  150.6465 H   0  0  0  0  0  0  0  0  0  0  0  0  # atno 10167 bound_to 10162
  156.0229  130.4426  150.2951 H   0  0  0  0  0  0  0  0  0  0  0  0  # atno 10718 bound_to 10713
  154.1632  135.6471  153.4991 H   0  0  0  0  0  0  0  0  0  0  0  0  # atno 10763 bound_to 10752
  153.0105  135.5365  154.6689 H   0  0  0  0  0  0  0  0  0  0  0  0  # atno 10764 bound_to 10752
  154.6008  135.2943  155.0509 H   0  0  0  0  0  0  0  0  0  0  0  0  # atno 10765 bound_to 10752
  139.8778  134.8975  156.4231 H   0  0  0  0  0  0  0  0  0  0  0  0  # atno 11005 bound_to 11000
  144.7688  139.6784  143.7204 LP  0  0  0  0  0  0  0  0  0  0  0  0  # atno 17320 bound_to 7965
  146.2120  139.5482  142.9675 LP  0  0  0  0  0  0  0  0  0  0  0  0  # atno 17321 bound_to 7965
  140.3217  143.3133  152.0777 LP  0  0  0  0  0  0  0  0  0  0  0  0  # atno 17342 bound_to 10162
  139.4954  144.6569  151.6553 LP  0  0  0  0  0  0  0  0  0  0  0  0  # atno 17343 bound_to 10162
  157.1054  131.0207  151.3069 LP  0  0  0  0  0  0  0  0  0  0  0  0  # atno 17370 bound_to 10713
  157.4746  130.7729  149.7356 LP  0  0  0  0  0  0  0  0  0  0  0  0  # atno 17371 bound_to 10713
  140.9119  133.7705  155.9802 LP  0  0  0  0  0  0  0  0  0  0  0  0  # atno 17394 bound_to 11000
  140.8536  134.2924  157.5265 LP  0  0  0  0  0  0  0  0  0  0  0  0  # atno 17395 bound_to 11000

$$$$
