AV-unprocessed.smi:720|AV-procd|sdf|3500|dock1
  -GOLD-   22720 0493D 1   1.00000     0.00000
 Structure written by MMmdl.
 46 48  0  0  0  0  0  0  0  0  1 V2000
  143.5468  144.0090  154.9911 C   0  0  0  0  0  0  0  0  0  0  0  0
  144.8049  144.5119  154.4509 N   0  0  0  0  0  0  0  0  0  0  0  0
  144.4928  145.4188  153.3538 C   0  0  0  0  0  0  0  0  0  0  0  0
  145.6553  143.4322  153.9456 C   0  0  0  0  0  0  0  0  0  0  0  0
  146.4088  142.6659  155.0539 C   0  0  0  0  0  0  0  0  0  0  0  0
  147.2448  141.5898  154.5503 N   0  0  0  0  0  0  0  0  0  0  0  0
  148.6176  141.5668  154.4036 C   0  0  0  0  0  0  0  0  0  0  0  0
  148.9593  140.3401  153.9106 C   0  0  0  0  0  0  0  0  0  0  0  0
  147.7029  139.6732  153.7980 C   0  0  0  0  0  0  0  0  0  0  0  0
  147.4986  138.3506  153.3299 N   0  0  0  0  0  0  0  0  0  0  0  0
  146.3698  137.6157  153.3545 C   0  0  0  0  0  0  0  0  0  0  0  0
  145.2844  138.0100  153.7762 O   0  0  0  0  0  0  0  0  0  0  0  0
  146.5179  136.3666  152.8775 N   0  0  0  0  0  0  0  0  0  0  0  0
  145.4999  135.3194  152.7644 C   0  0  1  0  0  0  0  0  0  0  0  0
  144.4541  135.6007  151.6586 C   0  0  0  0  0  0  0  0  0  0  0  0
  144.5695  134.3602  150.7542 C   0  0  2  0  0  0  0  0  0  0  0  0
  144.0286  133.1250  151.5006 C   0  0  0  0  0  0  0  0  0  0  0  0
  145.1253  132.8502  152.5485 C   0  0  0  0  0  0  0  0  0  0  0  0
  146.1278  133.9902  152.2906 C   0  0  1  0  0  0  0  0  0  0  0  0
  146.0705  134.1078  150.7703 C   0  0  0  0  0  0  0  0  0  0  0  0
  146.6835  140.4118  154.2003 N   0  0  0  0  0  0  0  0  0  0  0  0
  143.7099  143.4101  155.8847 H   0  0  0  0  0  0  0  0  0  0  0  0
  143.0129  143.4006  154.2597 H   0  0  0  0  0  0  0  0  0  0  0  0
  142.8985  144.8364  155.2819 H   0  0  0  0  0  0  0  0  0  0  0  0
  145.4039  145.8513  152.9389 H   0  0  0  0  0  0  0  0  0  0  0  0
  143.8694  146.2433  153.7018 H   0  0  0  0  0  0  0  0  0  0  0  0
  143.9623  144.9041  152.5513 H   0  0  0  0  0  0  0  0  0  0  0  0
  145.0887  142.7557  153.3037 H   0  0  0  0  0  0  0  0  0  0  0  0
  146.4155  143.8853  153.3080 H   0  0  0  0  0  0  0  0  0  0  0  0
  147.0669  143.3585  155.5794 H   0  0  0  0  0  0  0  0  0  0  0  0
  145.7127  142.2800  155.8008 H   0  0  0  0  0  0  0  0  0  0  0  0
  149.2311  142.4187  154.6565 H   0  0  0  0  0  0  0  0  0  0  0  0
  149.9537  139.9912  153.6765 H   0  0  0  0  0  0  0  0  0  0  0  0
  148.3219  137.8877  152.9740 H   0  0  0  0  0  0  0  0  0  0  0  0
  147.4447  136.1109  152.5688 H   0  0  0  0  0  0  0  0  0  0  0  0
  145.0224  135.1813  153.7363 H   0  0  0  0  0  0  0  0  0  0  0  0
  143.4488  135.7256  152.0629 H   0  0  0  0  0  0  0  0  0  0  0  0
  144.6971  136.5028  151.0947 H   0  0  0  0  0  0  0  0  0  0  0  0
  144.1354  134.4995  149.7637 H   0  0  0  0  0  0  0  0  0  0  0  0
  143.0560  133.3136  151.9565 H   0  0  0  0  0  0  0  0  0  0  0  0
  143.9229  132.2754  150.8248 H   0  0  0  0  0  0  0  0  0  0  0  0
  144.7400  132.8524  153.5688 H   0  0  0  0  0  0  0  0  0  0  0  0
  145.5900  131.8796  152.3700 H   0  0  0  0  0  0  0  0  0  0  0  0
  147.1187  133.7931  152.7019 H   0  0  0  0  0  0  0  0  0  0  0  0
  146.3612  133.1915  150.2534 H   0  0  0  0  0  0  0  0  0  0  0  0
  146.6541  134.9416  150.3758 H   0  0  0  0  0  0  0  0  0  0  0  0
  1  2  1  0  0  0  0
  1 22  1  0  0  0  0
  1 23  1  0  0  0  0
  1 24  1  0  0  0  0
  2  3  1  0  0  0  0
  2  4  1  0  0  0  0
  3 25  1  0  0  0  0
  3 26  1  0  0  0  0
  3 27  1  0  0  0  0
  4  5  1  0  0  0  0
  4 28  1  0  0  0  0
  4 29  1  0  0  0  0
  5  6  1  0  0  0  0
  5 30  1  0  0  0  0
  5 31  1  0  0  0  0
  6 21  1  0  0  0  0
  6  7  1  0  0  0  0
  7  8  2  0  0  0  0
  7 32  1  0  0  0  0
  8  9  1  0  0  0  0
  8 33  1  0  0  0  0
  9 10  1  0  0  0  0
  9 21  2  0  0  0  0
 10 11  1  0  0  0  0
 10 34  1  0  0  0  0
 11 12  2  0  0  0  0
 11 13  1  0  0  0  0
 13 14  1  0  0  0  0
 13 35  1  0  0  0  0
 14 19  1  0  0  0  0
 14 15  1  0  0  0  0
 14 36  1  0  0  0  0
 15 16  1  0  0  0  0
 15 37  1  0  0  0  0
 15 38  1  0  0  0  0
 16 20  1  0  0  0  0
 16 17  1  0  0  0  0
 16 39  1  0  0  0  0
 17 18  1  0  0  0  0
 17 40  1  0  0  0  0
 17 41  1  0  0  0  0
 18 19  1  0  0  0  0
 18 42  1  0  0  0  0
 18 43  1  0  0  0  0
 19 20  1  0  0  0  0
 19 44  1  0  0  0  0
 20 45  1  0  0  0  0
 20 46  1  0  0  0  0
M  END
> <s_m_source_file>
AV-unprocessed.smi

> <i_m_source_file_index>
720

> <i_lp_mmshare_version>
43012

> <i_f3d_flags>
0

> <s_epik_input>
W0NIM11OKFtDSDNdKVtDSDJdW0NIMl1uMVtjSF1bY0hdYyhuMSlbTkhdQyg9TylbTkhdW0NASF0oW0NIMl1bQ0BIXTIzKVtDQEhdKFtDSDJdMylbQ0gyXVtDSDJdMg==

> <s_epik_cmdline>
J2VwaWtfcHl0aG9uJywgJy1waCcsICc3LjAnLCAnLXRuJywgJzgnLCAnLW1hJywgJzIwMCcsICctbWV0YWxfYmluZGluZycsICctaW1hZScsICc8aW5maWxlLm1hZT4nLCAnLW9tYWUnLCAnPG91dGZpbGUubWFlPic=

> <r_lp_tautomer_probability>
1

> <r_epik_Ionization_Penalty>
1.83819

> <r_epik_Ionization_Penalty_Charging>
0

> <r_epik_Ionization_Penalty_Neutral>
1.83819

> <r_epik_State_Penalty>
1.95467

> <r_epik_Charging_Adjusted_Penalty>
1.95467

> <i_epik_Tot_Q>
0

> <i_epik_Tot_abs_Q>
0

> <r_epik_Metal_State_Penalty>
1.95467

> <b_epik_Metal_Only>
0

> <s_lp_Force_Field>
OPLS_2005

> <r_lp_Energy>
64.3951

> <b_lp_Chiralities_Consistent>
1

> <s_lp_Variant>
AV-unprocessed.smi:720-6

> <Gold.Version>
5.8.1

> <Gold.Id.Protein>
6NUR|6NUR_protein|mol2

> <Gold.PLP.Fitness>
42.4270

> <Gold.PLP.PLP>
-34.7926

> <Gold.PLP.part.hbond>
-2.0000

> <Gold.PLP.part.metal>
0.0000

> <Gold.PLP.part.buried>
-1.1320

> <Gold.PLP.part.nonpolar>
-31.7846

> <Gold.PLP.part.repulsive>
0.4816

> <Gold.PLP.ligand.clash>
0.0000

> <Gold.PLP.ligand.torsion>
0.4843

> <Gold.PLP.Chemscore.Hbond>
1.8268

> <Gold.PLP.Chemscore.CHOScore>
1.0000

> <Gold.PLP.Chemscore.Metal>
0.0000

> <Gold.Chemscore.Hbonds>
donor molecule, donor type, donor heavy atom, donor atom, acceptor molecule, acceptor atom, score
      L1  H    10    34       P1  7948  0.76
      L1  H    13    35       P1  7948  1.00
      L1  C     7    32       P1  8028  1.00

> <Gold.PLP.Chemscore.Internal.Correction>
0.1227

> <Gold.Rescore>
     Score         DG    S(hbond)    S(metal)    S(lipo)     H(rot)  DE(clash)    DE(int)     intcor
     14.10     -16.91       1.92        0.00      76.32       1.53       1.00       1.82       ----

> <Gold.Chemscore.Fitness>
14.0995

> <Gold.Chemscore.DG>
-16.9148

> <Gold.Chemscore.ZeroCoef>
-5.4800

> <Gold.Chemscore.Hbond>
1.9236

> <Gold.Chemscore.Metal>
0.0000

> <Gold.Chemscore.Lipo>
76.3241

> <Gold.Chemscore.Internal_Hbond>
0.0000

> <Gold.Chemscore.DEClash>
0.9995

> <Gold.Chemscore.DEInternal>
1.8158

> <Gold.Chemscore.Rot>
1.5312

> <Gold.Chemscore.Internal.Correction>
   9.000000E+99

> <Gold.Chemscore.Hbonds>
donor molecule, donor type, donor heavy atom, donor atom, acceptor molecule, acceptor atom, score
      L1  H    10    34       P1  7948  0.74
      L1  H    13    35       P1  7948  0.99

> <Gold.Chemscore.Hbond.Weighted>
-6.4248

> <Gold.Chemscore.Metal.Weighted>
-0.0000

> <Gold.Chemscore.Lipo.Weighted>
-8.9299

> <Gold.Chemscore.Internal_Hbond.Weighted>
0.0000

> <Gold.Chemscore.DEClash.Weighted>
0.9995

> <Gold.Chemscore.DEInternal.Weighted>
1.8158

> <Gold.Chemscore.Rot.Weighted>
3.9199

> <Gold.Chemscore.Internal.Correction.Weighted>
   9.000000E+99

> <Gold.Protein.RotatedTorsions>
[ 6907 6896 6895 6894 ] final  -83.40 input  -60.11 | X-H torsion
[ 7974 7965 7964 7962 ] final  151.84 input  175.53 | X-H torsion
[ 8008 7997 7996 7995 ] final  100.03 input   59.86 | X-H torsion
[ 10167 10162 10161 10158 ] final -102.80 input  -65.29 | X-H torsion
[ 10718 10713 10712 10709 ] final  -70.23 input   66.30 | X-H torsion
[ 10763 10752 10751 10750 ] final  -30.57 input  -60.55 | X-H torsion
[ 11005 11000 10999 10996 ] final   96.20 input  -57.11 | X-H torsion

> <Gold.Protein.ActiveResidues>
 VAL166  LYS551  ARG553  GLY616  TRP617  ASP618  TYR619  PRO620  LYS621  CYS622 
 ASP623  PHE694  ASN695  SER759  ASP760  ASP761  ALA762  ILE779  LEU786  VAL792 
 PHE793  MET794  SER795  GLU796  ALA797  LYS798  CYS799  TRP800  GLU811  SER814 

> <Gold.Protein.RotatedAtoms>
  150.6886  134.3518  159.4912 H   0  0  0  0  0  0  0  0  0  0  0  0  # atno 6907 bound_to 6896
  152.1358  134.9097  160.0565 H   0  0  0  0  0  0  0  0  0  0  0  0  # atno 6908 bound_to 6896
  152.0250  133.3879  159.4310 H   0  0  0  0  0  0  0  0  0  0  0  0  # atno 6909 bound_to 6896
  144.8264  139.6590  143.6078 H   0  0  0  0  0  0  0  0  0  0  0  0  # atno 7974 bound_to 7965
  156.1163  140.3219  155.8144 H   0  0  0  0  0  0  0  0  0  0  0  0  # atno 8008 bound_to 7997
  155.4584  140.0537  157.3011 H   0  0  0  0  0  0  0  0  0  0  0  0  # atno 8009 bound_to 7997
  154.4795  140.2047  155.9811 H   0  0  0  0  0  0  0  0  0  0  0  0  # atno 8010 bound_to 7997
  140.2268  143.3635  152.0921 H   0  0  0  0  0  0  0  0  0  0  0  0  # atno 10167 bound_to 10162
  156.0417  130.4327  150.2265 H   0  0  0  0  0  0  0  0  0  0  0  0  # atno 10718 bound_to 10713
  153.7831  135.6903  153.4885 H   0  0  0  0  0  0  0  0  0  0  0  0  # atno 10763 bound_to 10752
  153.1799  135.4510  155.0012 H   0  0  0  0  0  0  0  0  0  0  0  0  # atno 10764 bound_to 10752
  154.8074  135.3362  154.7332 H   0  0  0  0  0  0  0  0  0  0  0  0  # atno 10765 bound_to 10752
  139.8783  134.8939  156.4124 H   0  0  0  0  0  0  0  0  0  0  0  0  # atno 11005 bound_to 11000
  146.2569  139.6322  142.9389 LP  0  0  0  0  0  0  0  0  0  0  0  0  # atno 17320 bound_to 7965
  145.4991  141.0438  143.2550 LP  0  0  0  0  0  0  0  0  0  0  0  0  # atno 17321 bound_to 7965
  139.5124  144.6916  151.5744 LP  0  0  0  0  0  0  0  0  0  0  0  0  # atno 17342 bound_to 10162
  140.6214  143.9251  150.6529 LP  0  0  0  0  0  0  0  0  0  0  0  0  # atno 17343 bound_to 10162
  157.0359  131.0021  151.3298 LP  0  0  0  0  0  0  0  0  0  0  0  0  # atno 17370 bound_to 10713
  157.5244  130.8018  149.7845 LP  0  0  0  0  0  0  0  0  0  0  0  0  # atno 17371 bound_to 10713
  140.9191  133.7658  155.9884 LP  0  0  0  0  0  0  0  0  0  0  0  0  # atno 17394 bound_to 11000
  140.8460  134.3010  157.5294 LP  0  0  0  0  0  0  0  0  0  0  0  0  # atno 17395 bound_to 11000

$$$$
