AV-unprocessed.smi:2530|AV-procd|sdf|9962|dock7
  -GOLD-   2272014 03D 1   1.00000     0.00000
 Structure written by MMmdl.
 44 46  0  0  0  0  0  0  0  0  1 V2000
  153.0331  144.0073  162.3965 C   0  0  0  0  0  0  0  0  0  0  0  0
  153.1737  142.9302  161.3410 C   0  0  0  0  0  0  0  0  0  0  0  0
  152.7343  143.1632  160.0255 C   0  0  0  0  0  0  0  0  0  0  0  0
  152.8533  142.1510  159.0567 C   0  0  0  0  0  0  0  0  0  0  0  0
  153.4038  140.8934  159.3868 C   0  0  0  0  0  0  0  0  0  0  0  0
  153.4808  139.8432  158.2902 C   0  0  0  0  0  0  0  0  0  0  0  0
  153.8551  140.6527  160.7156 C   0  0  0  0  0  0  0  0  0  0  0  0
  154.4328  139.3131  161.1870 C   0  0  2  0  0  0  0  0  0  0  0  0
  155.7451  139.0663  160.7272 O   0  0  0  0  0  0  0  0  0  0  0  0
  153.5357  138.0892  160.8715 C   0  0  0  0  0  0  0  0  0  0  0  0
  153.6766  137.0045  161.8598 N   0  0  0  0  0  0  0  0  0  0  0  0
  153.4305  137.3331  163.2079 C   0  0  0  0  0  0  0  0  0  0  0  0
  153.5904  136.4696  164.1591 N   0  0  0  0  0  0  0  0  0  0  0  0
  154.0179  135.1705  163.8581 C   0  0  0  0  0  0  0  0  0  0  0  0
  154.1926  134.1710  164.9950 C   0  0  0  0  0  0  0  0  0  0  0  0
  154.6189  132.7353  164.6341 C   0  0  0  0  0  0  0  0  0  0  0  0
  153.6326  132.2488  165.7030 C   0  0  0  0  0  0  0  0  0  0  0  0
  152.8829  133.5750  165.5281 C   0  0  0  0  0  0  0  0  0  0  0  0
  154.2290  134.7985  162.5739 C   0  0  0  0  0  0  0  0  0  0  0  0
  154.0592  135.7518  161.4777 C   0  0  0  0  0  0  0  0  0  0  0  0
  154.2629  135.4524  160.3012 O   0  0  0  0  0  0  0  0  0  0  0  0
  153.7340  141.6832  161.6761 C   0  0  0  0  0  0  0  0  0  0  0  0
  153.0021  144.9985  161.9432 H   0  0  0  0  0  0  0  0  0  0  0  0
  153.8730  143.9796  163.0912 H   0  0  0  0  0  0  0  0  0  0  0  0
  152.1133  143.8588  162.9627 H   0  0  0  0  0  0  0  0  0  0  0  0
  152.3012  144.1155  159.7557 H   0  0  0  0  0  0  0  0  0  0  0  0
  152.5088  142.3456  158.0513 H   0  0  0  0  0  0  0  0  0  0  0  0
  154.5148  139.6820  157.9859 H   0  0  0  0  0  0  0  0  0  0  0  0
  152.9243  140.1555  157.4060 H   0  0  0  0  0  0  0  0  0  0  0  0
  153.0584  138.8950  158.6163 H   0  0  0  0  0  0  0  0  0  0  0  0
  154.5317  139.3715  162.2715 H   0  0  0  0  0  0  0  0  0  0  0  0
  156.2333  138.6560  161.4248 H   0  0  0  0  0  0  0  0  0  0  0  0
  152.4934  138.4000  160.7967 H   0  0  0  0  0  0  0  0  0  0  0  0
  153.7722  137.7119  159.8750 H   0  0  0  0  0  0  0  0  0  0  0  0
  153.1111  138.3601  163.3920 H   0  0  0  0  0  0  0  0  0  0  0  0
  154.8072  134.5733  165.8032 H   0  0  0  0  0  0  0  0  0  0  0  0
  154.3304  132.4015  163.6366 H   0  0  0  0  0  0  0  0  0  0  0  0
  155.6638  132.5056  164.8447 H   0  0  0  0  0  0  0  0  0  0  0  0
  153.0611  131.3617  165.4287 H   0  0  0  0  0  0  0  0  0  0  0  0
  154.0907  132.1481  166.6883 H   0  0  0  0  0  0  0  0  0  0  0  0
  152.5223  134.0222  166.4548 H   0  0  0  0  0  0  0  0  0  0  0  0
  152.0953  133.5169  164.7747 H   0  0  0  0  0  0  0  0  0  0  0  0
  154.5410  133.7889  162.3487 H   0  0  0  0  0  0  0  0  0  0  0  0
  154.0579  141.5104  162.6922 H   0  0  0  0  0  0  0  0  0  0  0  0
  1  2  1  0  0  0  0
  1 23  1  0  0  0  0
  1 24  1  0  0  0  0
  1 25  1  0  0  0  0
  2 22  1  0  0  0  0
  2  3  2  0  0  0  0
  3  4  1  0  0  0  0
  3 26  1  0  0  0  0
  4  5  2  0  0  0  0
  4 27  1  0  0  0  0
  5  6  1  0  0  0  0
  5  7  1  0  0  0  0
  6 28  1  0  0  0  0
  6 29  1  0  0  0  0
  6 30  1  0  0  0  0
  7  8  1  0  0  0  0
  7 22  2  0  0  0  0
  8  9  1  0  0  0  0
  8 10  1  0  0  0  0
  8 31  1  0  0  0  0
  9 32  1  0  0  0  0
 10 11  1  0  0  0  0
 10 33  1  0  0  0  0
 10 34  1  0  0  0  0
 11 20  1  0  0  0  0
 11 12  1  0  0  0  0
 12 13  2  0  0  0  0
 12 35  1  0  0  0  0
 13 14  1  0  0  0  0
 14 15  1  0  0  0  0
 14 19  2  0  0  0  0
 15 18  1  0  0  0  0
 15 16  1  0  0  0  0
 15 36  1  0  0  0  0
 16 17  1  0  0  0  0
 16 37  1  0  0  0  0
 16 38  1  0  0  0  0
 17 18  1  0  0  0  0
 17 39  1  0  0  0  0
 17 40  1  0  0  0  0
 18 41  1  0  0  0  0
 18 42  1  0  0  0  0
 19 20  1  0  0  0  0
 19 43  1  0  0  0  0
 20 21  2  0  0  0  0
 22 44  1  0  0  0  0
M  END
> <s_m_source_file>
AV-unprocessed.smi

> <i_m_source_file_index>
2530

> <i_lp_mmshare_version>
43012

> <i_f3d_flags>
0

> <s_epik_input>
W0NIM11jMVtjSF1bY0hdYyhbQ0gzXSljKFtjSF0xKVtDQEhdKFtPSF0pW0NIMl1uMltjSF1uYyhbY0hdYzI9TylbQ0hdM1tDSDJdW0NIMl1bQ0gyXTM=

> <s_epik_cmdline>
J2VwaWtfcHl0aG9uJywgJy1waCcsICc3LjAnLCAnLXRuJywgJzgnLCAnLW1hJywgJzIwMCcsICctbWV0YWxfYmluZGluZycsICctaW1hZScsICc8aW5maWxlLm1hZT4nLCAnLW9tYWUnLCAnPG91dGZpbGUubWFlPic=

> <r_lp_tautomer_probability>
1

> <r_epik_Ionization_Penalty>
2.57341e-05

> <r_epik_Ionization_Penalty_Charging>
5.39435e-08

> <r_epik_Ionization_Penalty_Neutral>
2.56801e-05

> <r_epik_State_Penalty>
-0

> <r_epik_Charging_Adjusted_Penalty>
5.39435e-08

> <i_epik_Tot_Q>
0

> <i_epik_Tot_abs_Q>
0

> <r_epik_Metal_State_Penalty>
-0

> <b_epik_Metal_Only>
0

> <s_lp_Force_Field>
OPLS_2005

> <r_lp_Energy>
27.4041

> <b_lp_Chiralities_Consistent>
1

> <s_lp_Variant>
AV-unprocessed.smi:2530-1

> <Gold.Version>
5.8.1

> <Gold.Id.Protein>
6NUR|6NUR_protein|mol2

> <Gold.PLP.Fitness>
48.9284

> <Gold.PLP.PLP>
-47.1576

> <Gold.PLP.part.hbond>
-0.9159

> <Gold.PLP.part.metal>
0.0000

> <Gold.PLP.part.buried>
-4.3578

> <Gold.PLP.part.nonpolar>
-42.4481

> <Gold.PLP.part.repulsive>
0.0783

> <Gold.PLP.ligand.clash>
0.0000

> <Gold.PLP.ligand.torsion>
0.7687

> <Gold.PLP.Chemscore.Hbond>
0.9588

> <Gold.PLP.Chemscore.CHOScore>
0.0000

> <Gold.PLP.Chemscore.Metal>
0.0000

> <Gold.Chemscore.Hbonds>
donor molecule, donor type, donor heavy atom, donor atom, acceptor molecule, acceptor atom, score
      P1  H  6896  6908       L1    21  0.80

> <Gold.PLP.Chemscore.Internal.Correction>
0.4319

> <Gold.Rescore>
     Score         DG    S(hbond)    S(metal)    S(lipo)     H(rot)  DE(clash)    DE(int)     intcor
     18.05     -18.78       0.94        0.00     129.78       1.97       0.12       0.61       ----

> <Gold.Chemscore.Fitness>
18.0474

> <Gold.Chemscore.DG>
-18.7753

> <Gold.Chemscore.ZeroCoef>
-5.4800

> <Gold.Chemscore.Hbond>
0.9431

> <Gold.Chemscore.Metal>
0.0000

> <Gold.Chemscore.Lipo>
129.7809

> <Gold.Chemscore.Internal_Hbond>
0.0000

> <Gold.Chemscore.DEClash>
0.1189

> <Gold.Chemscore.DEInternal>
0.6091

> <Gold.Chemscore.Rot>
1.9684

> <Gold.Chemscore.Internal.Correction>
   9.000000E+99

> <Gold.Chemscore.Hbonds>
donor molecule, donor type, donor heavy atom, donor atom, acceptor molecule, acceptor atom, score
      P1  H  6896  6908       L1    21  0.11

> <Gold.Chemscore.Hbond.Weighted>
-3.1501

> <Gold.Chemscore.Metal.Weighted>
-0.0000

> <Gold.Chemscore.Lipo.Weighted>
-15.1844

> <Gold.Chemscore.Internal_Hbond.Weighted>
0.0000

> <Gold.Chemscore.DEClash.Weighted>
0.1189

> <Gold.Chemscore.DEInternal.Weighted>
0.6091

> <Gold.Chemscore.Rot.Weighted>
5.0391

> <Gold.Chemscore.Internal.Correction.Weighted>
   9.000000E+99

> <Gold.Protein.RotatedTorsions>
[ 6907 6896 6895 6894 ] final  -54.26 input  -60.11 | X-H torsion
[ 7974 7965 7964 7962 ] final  128.52 input  175.53 | X-H torsion
[ 8008 7997 7996 7995 ] final   40.37 input   59.86 | X-H torsion
[ 10167 10162 10161 10158 ] final -110.34 input  -65.29 | X-H torsion
[ 10718 10713 10712 10709 ] final -141.31 input   66.30 | X-H torsion
[ 10763 10752 10751 10750 ] final   94.55 input  -60.55 | X-H torsion
[ 11005 11000 10999 10996 ] final -103.91 input  -57.11 | X-H torsion

> <Gold.Protein.ActiveResidues>
 VAL166  LYS551  ARG553  GLY616  TRP617  ASP618  TYR619  PRO620  LYS621  CYS622 
 ASP623  PHE694  ASN695  SER759  ASP760  ASP761  ALA762  ILE779  LEU786  VAL792 
 PHE793  MET794  SER795  GLU796  ALA797  LYS798  CYS799  TRP800  GLU811  SER814 

> <Gold.Protein.RotatedAtoms>
  150.8354  134.7625  159.6888 H   0  0  0  0  0  0  0  0  0  0  0  0  # atno 6907 bound_to 6896
  152.4451  134.5507  159.9876 H   0  0  0  0  0  0  0  0  0  0  0  0  # atno 6908 bound_to 6896
  151.5659  133.3359  159.3016 H   0  0  0  0  0  0  0  0  0  0  0  0  # atno 6909 bound_to 6896
  145.0387  139.3982  143.5113 H   0  0  0  0  0  0  0  0  0  0  0  0  # atno 7974 bound_to 7965
  155.2520  140.3353  155.4281 H   0  0  0  0  0  0  0  0  0  0  0  0  # atno 8008 bound_to 7997
  156.2212  140.1809  156.7517 H   0  0  0  0  0  0  0  0  0  0  0  0  # atno 8009 bound_to 7997
  154.5828  140.0651  156.9113 H   0  0  0  0  0  0  0  0  0  0  0  0  # atno 8010 bound_to 7997
  140.1455  143.4243  152.1532 H   0  0  0  0  0  0  0  0  0  0  0  0  # atno 10167 bound_to 10162
  156.3325  130.7594  151.1714 H   0  0  0  0  0  0  0  0  0  0  0  0  # atno 10718 bound_to 10713
  153.2430  135.4285  155.0717 H   0  0  0  0  0  0  0  0  0  0  0  0  # atno 10763 bound_to 10752
  154.8349  135.3407  154.6622 H   0  0  0  0  0  0  0  0  0  0  0  0  # atno 10764 bound_to 10752
  153.7045  135.7026  153.5110 H   0  0  0  0  0  0  0  0  0  0  0  0  # atno 10765 bound_to 10752
  141.1124  133.8679  157.1545 H   0  0  0  0  0  0  0  0  0  0  0  0  # atno 11005 bound_to 11000
  146.3507  139.9976  142.8679 LP  0  0  0  0  0  0  0  0  0  0  0  0  # atno 17320 bound_to 7965
  145.1676  140.9705  143.4340 LP  0  0  0  0  0  0  0  0  0  0  0  0  # atno 17321 bound_to 7965
  139.5451  144.7291  151.4609 LP  0  0  0  0  0  0  0  0  0  0  0  0  # atno 17342 bound_to 10162
  140.6734  143.8243  150.7028 LP  0  0  0  0  0  0  0  0  0  0  0  0  # atno 17343 bound_to 10162
  157.7433  131.0477  150.4958 LP  0  0  0  0  0  0  0  0  0  0  0  0  # atno 17370 bound_to 10713
  156.5126  130.4143  149.6293 LP  0  0  0  0  0  0  0  0  0  0  0  0  # atno 17371 bound_to 10713
  140.0026  135.0021  157.0223 LP  0  0  0  0  0  0  0  0  0  0  0  0  # atno 17394 bound_to 11000
  140.4738  134.1359  155.7207 LP  0  0  0  0  0  0  0  0  0  0  0  0  # atno 17395 bound_to 11000

$$$$
