AV-unprocessed.smi:1995|AV-procd|sdf|8082|dock7
  -GOLD-   2272010293D 1   1.00000     0.00000
 Structure written by MMmdl.
 42 43  0  0  0  0  0  0  0  0  3 V2000
  150.8453  133.8035  155.9692 C   0  0  0  0  0  0  0  0  0  0  0  0
  149.9356  134.1106  154.7665 C   0  0  0  0  0  0  0  0  0  0  0  0
  148.4653  134.5115  155.0964 C   0  0  1  0  0  0  0  0  0  0  0  0
  147.8459  133.4538  156.0495 C   0  0  0  0  0  0  0  0  0  0  0  0
  148.4314  135.8761  155.8491 C   0  0  0  0  0  0  0  0  0  0  0  0
  148.9233  135.7631  157.2236 N   0  0  0  0  0  0  0  0  0  0  0  0
  148.1991  135.8681  158.3469 C   0  0  0  0  0  0  0  0  0  0  0  0
  147.0120  136.1943  158.2906 O   0  0  0  0  0  0  0  0  0  0  0  0
  148.8900  135.5577  159.4651 N   0  5  0  0  0  0  0  0  0  0  0  0
  148.2964  135.6543  160.6656 C   0  0  0  0  0  0  0  0  0  0  0  0
  148.1755  136.8113  161.3268 N   0  0  0  0  0  0  0  0  0  0  0  0
  147.5257  136.6821  162.5558 C   0  0  0  0  0  0  0  0  0  0  0  0
  147.1370  135.3983  162.8326 C   0  0  0  0  0  0  0  0  0  0  0  0
  147.5792  134.3064  161.5513 S   0  0  0  0  0  0  0  0  0  0  0  0
  147.6464  134.6320  153.8336 N   0  3  0  0  0  0  0  0  0  0  0  0
  147.4817  133.3756  153.0515 C   0  0  0  0  0  0  0  0  0  0  0  0
  146.9001  133.6916  151.6661 C   0  0  0  0  0  0  0  0  0  0  0  0
  145.6348  134.3177  151.8307 O   0  0  0  0  0  0  0  0  0  0  0  0
  145.7427  135.5504  152.5306 C   0  0  0  0  0  0  0  0  0  0  0  0
  146.3293  135.3196  153.9360 C   0  0  0  0  0  0  0  0  0  0  0  0
  151.8544  133.5698  155.6295 H   0  0  0  0  0  0  0  0  0  0  0  0
  150.4941  132.9434  156.5384 H   0  0  0  0  0  0  0  0  0  0  0  0
  150.9235  134.6528  156.6471 H   0  0  0  0  0  0  0  0  0  0  0  0
  150.4200  134.9062  154.2006 H   0  0  0  0  0  0  0  0  0  0  0  0
  149.9361  133.2369  154.1141 H   0  0  0  0  0  0  0  0  0  0  0  0
  148.2865  133.5006  157.0456 H   0  0  0  0  0  0  0  0  0  0  0  0
  148.0014  132.4368  155.6879 H   0  0  0  0  0  0  0  0  0  0  0  0
  146.7731  133.6035  156.1785 H   0  0  0  0  0  0  0  0  0  0  0  0
  149.0697  136.6031  155.3474 H   0  0  0  0  0  0  0  0  0  0  0  0
  147.4345  136.3169  155.8283 H   0  0  0  0  0  0  0  0  0  0  0  0
  149.8967  135.5178  157.3328 H   0  0  0  0  0  0  0  0  0  0  0  0
  147.3803  137.5588  163.1694 H   0  0  0  0  0  0  0  0  0  0  0  0
  146.6199  135.0298  163.7056 H   0  0  0  0  0  0  0  0  0  0  0  0
  148.4282  132.8526  152.9309 H   0  0  0  0  0  0  0  0  0  0  0  0
  146.8083  132.6930  153.5711 H   0  0  0  0  0  0  0  0  0  0  0  0
  147.5730  134.3315  151.0923 H   0  0  0  0  0  0  0  0  0  0  0  0
  146.7671  132.7727  151.0951 H   0  0  0  0  0  0  0  0  0  0  0  0
  146.3633  136.2464  151.9633 H   0  0  0  0  0  0  0  0  0  0  0  0
  144.7523  135.9994  152.6067 H   0  0  0  0  0  0  0  0  0  0  0  0
  145.6441  134.7246  154.5410 H   0  0  0  0  0  0  0  0  0  0  0  0
  146.4137  136.2964  154.4087 H   0  0  0  0  0  0  0  0  0  0  0  0
  148.2031  135.2378  153.2457 H   0  0  0  0  0  0  0  0  0  0  0  0
  1  2  1  0  0  0  0
  1 21  1  0  0  0  0
  1 22  1  0  0  0  0
  1 23  1  0  0  0  0
  2  3  1  0  0  0  0
  2 24  1  0  0  0  0
  2 25  1  0  0  0  0
  3  4  1  0  0  0  0
  3  5  1  0  0  0  0
  3 15  1  0  0  0  0
  4 26  1  0  0  0  0
  4 27  1  0  0  0  0
  4 28  1  0  0  0  0
  5  6  1  0  0  0  0
  5 29  1  0  0  0  0
  5 30  1  0  0  0  0
  6  7  1  0  0  0  0
  6 31  1  0  0  0  0
  7  8  2  0  0  0  0
  7  9  1  0  0  0  0
  9 10  1  0  0  0  0
 10 14  1  0  0  0  0
 10 11  2  0  0  0  0
 11 12  1  0  0  0  0
 12 13  2  0  0  0  0
 12 32  1  0  0  0  0
 13 14  1  0  0  0  0
 13 33  1  0  0  0  0
 15 20  1  0  0  0  0
 15 16  1  0  0  0  0
 15 42  1  0  0  0  0
 16 17  1  0  0  0  0
 16 34  1  0  0  0  0
 16 35  1  0  0  0  0
 17 18  1  0  0  0  0
 17 36  1  0  0  0  0
 17 37  1  0  0  0  0
 18 19  1  0  0  0  0
 19 20  1  0  0  0  0
 19 38  1  0  0  0  0
 19 39  1  0  0  0  0
 20 40  1  0  0  0  0
 20 41  1  0  0  0  0
M  CHG  1   9  -1
M  CHG  1  15   1
M  END
> <s_m_source_file>
AV-unprocessed.smi

> <i_m_source_file_index>
1995

> <i_lp_mmshare_version>
43012

> <i_f3d_flags>
0

> <s_epik_input>
W0NIMl0xW0NIMl1PW0NIMl1bQ0gyXU4xW0NAQF0oW0NIM10pKFtDSDJdW0NIM10pW0NIMl1bTkhdQyg9TylbTkhdYzJuW2NIXVtjSF1zMg==

> <s_epik_cmdline>
J2VwaWtfcHl0aG9uJywgJy1waCcsICc3LjAnLCAnLXRuJywgJzgnLCAnLW1hJywgJzIwMCcsICctbWV0YWxfYmluZGluZycsICctaW1hZScsICc8aW5maWxlLm1hZT4nLCAnLW9tYWUnLCAnPG91dGZpbGUubWFlPic=

> <r_lp_tautomer_probability>
0.999

> <r_epik_Ionization_Penalty>
8.09417

> <r_epik_Ionization_Penalty_Charging>
6.70334

> <r_epik_Ionization_Penalty_Neutral>
1.39083

> <r_epik_State_Penalty>
6.86521

> <r_epik_Charging_Adjusted_Penalty>
13.5685

> <i_epik_Tot_Q>
0

> <i_epik_Tot_abs_Q>
2

> <r_epik_Metal_State_Penalty>
2.79608

> <b_epik_Metal_Only>
1

> <s_lp_Force_Field>
OPLS_2005

> <r_lp_Energy>
20.9753

> <b_lp_Chiralities_Consistent>
1

> <s_lp_Variant>
AV-unprocessed.smi:1995-7

> <Gold.Version>
5.8.1

> <Gold.Id.Protein>
6NUR|6NUR_protein|mol2

> <Gold.PLP.Fitness>
41.6834

> <Gold.PLP.PLP>
-29.5582

> <Gold.PLP.part.hbond>
-3.0764

> <Gold.PLP.part.metal>
0.0000

> <Gold.PLP.part.buried>
-4.7150

> <Gold.PLP.part.nonpolar>
-21.5179

> <Gold.PLP.part.repulsive>
0.1639

> <Gold.PLP.ligand.clash>
0.0000

> <Gold.PLP.ligand.torsion>
1.1068

> <Gold.PLP.Chemscore.Hbond>
4.7000

> <Gold.PLP.Chemscore.CHOScore>
0.0000

> <Gold.PLP.Chemscore.Metal>
0.0000

> <Gold.Chemscore.Hbonds>
donor molecule, donor type, donor heavy atom, donor atom, acceptor molecule, acceptor atom, score
      L1  H    15    42       P1  7948  2.00
      P1  H  6896  6908       L1     9  1.95
      P1  H  6931  6943       L1    11  0.55

> <Gold.PLP.Chemscore.Internal.Correction>
0.2388

> <Gold.Rescore>
     Score         DG    S(hbond)    S(metal)    S(lipo)     H(rot)  DE(clash)    DE(int)     intcor
     14.59     -16.02       2.33        0.00      61.91       1.75       0.20       1.22       ----

> <Gold.Chemscore.Fitness>
14.5871

> <Gold.Chemscore.DG>
-16.0157

> <Gold.Chemscore.ZeroCoef>
-5.4800

> <Gold.Chemscore.Hbond>
2.3289

> <Gold.Chemscore.Metal>
0.0000

> <Gold.Chemscore.Lipo>
61.9059

> <Gold.Chemscore.Internal_Hbond>
0.0000

> <Gold.Chemscore.DEClash>
0.2041

> <Gold.Chemscore.DEInternal>
1.2245

> <Gold.Chemscore.Rot>
1.7523

> <Gold.Chemscore.Internal.Correction>
   9.000000E+99

> <Gold.Chemscore.Hbonds>
donor molecule, donor type, donor heavy atom, donor atom, acceptor molecule, acceptor atom, score
      L1  H    15    42       P1  7948  0.99
      P1  H  6896  6908       L1     9  0.75
      P1  H  6931  6943       L1    11  0.03

> <Gold.Chemscore.Hbond.Weighted>
-7.7785

> <Gold.Chemscore.Metal.Weighted>
-0.0000

> <Gold.Chemscore.Lipo.Weighted>
-7.2430

> <Gold.Chemscore.Internal_Hbond.Weighted>
0.0000

> <Gold.Chemscore.DEClash.Weighted>
0.2041

> <Gold.Chemscore.DEInternal.Weighted>
1.2245

> <Gold.Chemscore.Rot.Weighted>
4.4858

> <Gold.Chemscore.Internal.Correction.Weighted>
   9.000000E+99

> <Gold.Protein.RotatedTorsions>
[ 6907 6896 6895 6894 ] final  166.42 input  -60.11 | X-H torsion
[ 7974 7965 7964 7962 ] final  179.46 input  175.53 | X-H torsion
[ 8008 7997 7996 7995 ] final   77.21 input   59.86 | X-H torsion
[ 10167 10162 10161 10158 ] final  147.17 input  -65.29 | X-H torsion
[ 10718 10713 10712 10709 ] final  131.07 input   66.30 | X-H torsion
[ 10763 10752 10751 10750 ] final  -28.17 input  -60.55 | X-H torsion
[ 11005 11000 10999 10996 ] final   47.65 input  -57.11 | X-H torsion

> <Gold.Protein.ActiveResidues>
 VAL166  LYS551  ARG553  GLY616  TRP617  ASP618  TYR619  PRO620  LYS621  CYS622 
 ASP623  PHE694  ASN695  SER759  ASP760  ASP761  ALA762  ILE779  LEU786  VAL792 
 PHE793  MET794  SER795  GLU796  ALA797  LYS798  CYS799  TRP800  GLU811  SER814 

> <Gold.Protein.RotatedAtoms>
  151.8792  133.3491  159.3760 H   0  0  0  0  0  0  0  0  0  0  0  0  # atno 6907 bound_to 6896
  150.7132  134.5035  159.5582 H   0  0  0  0  0  0  0  0  0  0  0  0  # atno 6908 bound_to 6896
  152.2584  134.8060  160.0485 H   0  0  0  0  0  0  0  0  0  0  0  0  # atno 6909 bound_to 6896
  144.7145  140.0551  143.6434 H   0  0  0  0  0  0  0  0  0  0  0  0  # atno 7974 bound_to 7965
  155.8384  140.3463  155.5616 H   0  0  0  0  0  0  0  0  0  0  0  0  # atno 8008 bound_to 7997
  155.8167  140.0907  157.1892 H   0  0  0  0  0  0  0  0  0  0  0  0  # atno 8009 bound_to 7997
  154.4004  140.1437  156.3438 H   0  0  0  0  0  0  0  0  0  0  0  0  # atno 8010 bound_to 7997
  139.4894  144.5775  151.6936 H   0  0  0  0  0  0  0  0  0  0  0  0  # atno 10167 bound_to 10162
  157.5002  131.1094  150.9437 H   0  0  0  0  0  0  0  0  0  0  0  0  # atno 10718 bound_to 10713
  153.7440  135.6930  153.4960 H   0  0  0  0  0  0  0  0  0  0  0  0  # atno 10763 bound_to 10752
  153.2049  135.4423  155.0310 H   0  0  0  0  0  0  0  0  0  0  0  0  # atno 10764 bound_to 10752
  154.8211  135.3422  154.6964 H   0  0  0  0  0  0  0  0  0  0  0  0  # atno 10765 bound_to 10752
  140.1260  134.4767  155.8559 H   0  0  0  0  0  0  0  0  0  0  0  0  # atno 11005 bound_to 11000
  145.9911  139.3016  143.0984 LP  0  0  0  0  0  0  0  0  0  0  0  0  # atno 17320 bound_to 7965
  145.8902  140.9309  143.0556 LP  0  0  0  0  0  0  0  0  0  0  0  0  # atno 17321 bound_to 7965
  140.5374  144.0633  150.6075 LP  0  0  0  0  0  0  0  0  0  0  0  0  # atno 17342 bound_to 10162
  140.3644  143.2890  152.0348 LP  0  0  0  0  0  0  0  0  0  0  0  0  # atno 17343 bound_to 10162
  157.0110  130.5637  149.5321 LP  0  0  0  0  0  0  0  0  0  0  0  0  # atno 17370 bound_to 10713
  156.0225  130.5319  150.8315 LP  0  0  0  0  0  0  0  0  0  0  0  0  # atno 17371 bound_to 10713
  141.2161  133.6778  156.6980 LP  0  0  0  0  0  0  0  0  0  0  0  0  # atno 17394 bound_to 11000
  140.2903  134.8246  157.4011 LP  0  0  0  0  0  0  0  0  0  0  0  0  # atno 17395 bound_to 11000

$$$$
