AV-unprocessed.smi:160|AV-procd|sdf|1349|dock6
  -GOLD-   2262019 53D 1   1.00000     0.00000
 Structure written by MMmdl.
 29 30  0  0  0  0  0  0  0  0  1 V2000
  153.4040  139.3997  159.8684 N   0  0  0  0  0  0  0  0  0  0  0  0
  153.7542  139.2655  158.5848 C   0  0  0  0  0  0  0  0  0  0  0  0
  154.9085  139.0185  158.2393 O   0  0  0  0  0  0  0  0  0  0  0  0
  152.6536  139.4387  157.5750 C   0  0  0  0  0  0  0  0  0  0  0  0
  152.8852  139.2649  156.2404 N   0  0  0  0  0  0  0  0  0  0  0  0
  151.6674  139.5254  155.7828 C   0  0  0  0  0  0  0  0  0  0  0  0
  150.7708  139.8103  156.7329 N   0  0  0  0  0  0  0  0  0  0  0  0
  149.3265  140.1969  156.5883 C   0  0  2  0  0  0  0  0  0  0  0  0
  148.6483  139.1386  155.9913 O   0  0  0  0  0  0  0  0  0  0  0  0
  148.7172  139.2643  154.5767 C   0  0  1  0  0  0  0  0  0  0  0  0
  147.5465  138.5064  153.9320 C   0  0  0  0  0  0  0  0  0  0  0  0
  147.6475  138.5601  152.5249 O   0  0  0  0  0  0  0  0  0  0  0  0
  148.6585  140.7855  154.3478 C   0  0  2  0  0  0  0  0  0  0  0  0
  149.5242  141.1444  153.2893 O   0  0  0  0  0  0  0  0  0  0  0  0
  149.1401  141.4098  155.6624 C   0  0  1  0  0  0  0  0  0  0  0  0
  148.1692  142.2977  156.1789 O   0  0  0  0  0  0  0  0  0  0  0  0
  151.4115  139.7707  157.9296 N   0  0  0  0  0  0  0  0  0  0  0  0
  148.9926  140.3614  157.6138 H   0  0  0  0  0  0  0  0  0  0  0  0
  149.6698  138.8634  154.2259 H   0  0  0  0  0  0  0  0  0  0  0  0
  147.6415  141.1041  154.1130 H   0  0  0  0  0  0  0  0  0  0  0  0
  150.0745  141.9643  155.5616 H   0  0  0  0  0  0  0  0  0  0  0  0
  154.0985  139.2968  160.5936 H   0  0  0  0  0  0  0  0  0  0  0  0
  152.4438  139.6058  160.1037 H   0  0  0  0  0  0  0  0  0  0  0  0
  151.4231  139.5105  154.7307 H   0  0  0  0  0  0  0  0  0  0  0  0
  147.5083  137.4710  154.2720 H   0  0  0  0  0  0  0  0  0  0  0  0
  146.6008  138.9737  154.2085 H   0  0  0  0  0  0  0  0  0  0  0  0
  148.0526  137.7619  152.2220 H   0  0  0  0  0  0  0  0  0  0  0  0
  149.4873  140.4668  152.6314 H   0  0  0  0  0  0  0  0  0  0  0  0
  148.3223  143.1556  155.8135 H   0  0  0  0  0  0  0  0  0  0  0  0
  1  2  1  0  0  0  0
  1 22  1  0  0  0  0
  1 23  1  0  0  0  0
  2  3  2  0  0  0  0
  2  4  1  0  0  0  0
  4 17  2  0  0  0  0
  4  5  1  0  0  0  0
  5  6  2  0  0  0  0
  6  7  1  0  0  0  0
  6 24  1  0  0  0  0
  7  8  1  0  0  0  0
  7 17  1  0  0  0  0
  8 18  1  0  0  0  0
  8 15  1  0  0  0  0
  8  9  1  0  0  0  0
  9 10  1  0  0  0  0
 10 19  1  0  0  0  0
 10 11  1  0  0  0  0
 10 13  1  0  0  0  0
 11 12  1  0  0  0  0
 11 25  1  0  0  0  0
 11 26  1  0  0  0  0
 12 27  1  0  0  0  0
 13 20  1  0  0  0  0
 13 14  1  0  0  0  0
 13 15  1  0  0  0  0
 14 28  1  0  0  0  0
 15 21  1  0  0  0  0
 15 16  1  0  0  0  0
 16 29  1  0  0  0  0
M  END
> <s_m_source_file>
AV-unprocessed.smi

> <i_m_source_file_index>
160

> <i_lp_mmshare_version>
43012

> <i_f3d_flags>
0

> <s_epik_input>
W05IMl1DKD1PKWMxbltjSF1uKG4xKVtDQEBIXTJPW0NASF0oW0NIMl1bT0hdKVtDQEBIXShbT0hdKVtDQEhdMltPSF0=

> <s_epik_cmdline>
J2VwaWtfcHl0aG9uJywgJy1waCcsICc3LjAnLCAnLXRuJywgJzgnLCAnLW1hJywgJzIwMCcsICctbWV0YWxfYmluZGluZycsICctaW1hZScsICc8aW5maWxlLm1hZT4nLCAnLW9tYWUnLCAnPG91dGZpbGUubWFlPic=

> <r_lp_tautomer_probability>
1

> <r_epik_Ionization_Penalty>
1.06932e-05

> <r_epik_Ionization_Penalty_Charging>
0

> <r_epik_Ionization_Penalty_Neutral>
1.06932e-05

> <r_epik_State_Penalty>
-0

> <r_epik_Charging_Adjusted_Penalty>
0

> <i_epik_Tot_Q>
0

> <i_epik_Tot_abs_Q>
0

> <r_epik_Metal_State_Penalty>
0.0142097

> <b_epik_Metal_Only>
0

> <s_epik_Chemistry_Notes>
This compound contains an acetal/aminal-like group ( X-CH(R)-Y where X, Y are N, S, or O) that may be acid/base labile, releasing an aldehyde.

> <s_lp_Force_Field>
OPLS_2005

> <r_lp_Energy>
33.3091

> <b_lp_Chiralities_Consistent>
1

> <s_lp_Variant>
AV-unprocessed.smi:160-7

> <Gold.Version>
5.8.1

> <Gold.Id.Protein>
6NUR|6NUR_protein|mol2

> <Gold.PLP.Fitness>
38.8921

> <Gold.PLP.PLP>
-21.7504

> <Gold.PLP.part.hbond>
-7.4380

> <Gold.PLP.part.metal>
0.0000

> <Gold.PLP.part.buried>
-2.0872

> <Gold.PLP.part.nonpolar>
-11.8358

> <Gold.PLP.part.repulsive>
0.0784

> <Gold.PLP.ligand.clash>
0.0000

> <Gold.PLP.ligand.torsion>
0.0454

> <Gold.PLP.Chemscore.Hbond>
5.7332

> <Gold.PLP.Chemscore.CHOScore>
0.0000

> <Gold.PLP.Chemscore.Metal>
0.0000

> <Gold.Chemscore.Hbonds>
donor molecule, donor type, donor heavy atom, donor atom, acceptor molecule, acceptor atom, score
      L1  H    12    27       P1  7948  1.00
      L1  H    14    28       P1  7957  0.98
      L1  H    16    29       P1  8028  1.00
      P1  H  7989  7998       L1    14  0.06
      P1  H  7997  8009       L1     3  0.69
      P1  H  7997  8010       L1     5  0.99
      P1  H  8011  8017       L1    14  0.95

> <Gold.PLP.Chemscore.Internal.Correction>
0.0330

> <Gold.Rescore>
     Score         DG    S(hbond)    S(metal)    S(lipo)     H(rot)  DE(clash)    DE(int)     intcor
     13.39     -13.55       4.74        0.00      22.37       4.06       0.07       0.09       ----

> <Gold.Chemscore.Fitness>
13.3900

> <Gold.Chemscore.DG>
-13.5517

> <Gold.Chemscore.ZeroCoef>
-5.4800

> <Gold.Chemscore.Hbond>
4.7448

> <Gold.Chemscore.Metal>
0.0000

> <Gold.Chemscore.Lipo>
22.3741

> <Gold.Chemscore.Internal_Hbond>
0.0000

> <Gold.Chemscore.DEClash>
0.0677

> <Gold.Chemscore.DEInternal>
0.0939

> <Gold.Chemscore.Rot>
4.0600

> <Gold.Chemscore.Internal.Correction>
   9.000000E+99

> <Gold.Chemscore.Hbonds>
donor molecule, donor type, donor heavy atom, donor atom, acceptor molecule, acceptor atom, score
      L1  H    12    27       P1  7948  1.00
      L1  H    14    28       P1  7957  0.87
      L1  H    16    29       P1  8028  0.90
      P1  H  7997  8009       L1     3  0.58
      P1  H  7997  8010       L1     5  0.28
      P1  H  8011  8017       L1    14  0.21

> <Gold.Chemscore.Hbond.Weighted>
-15.8475

> <Gold.Chemscore.Metal.Weighted>
-0.0000

> <Gold.Chemscore.Lipo.Weighted>
-2.6178

> <Gold.Chemscore.Internal_Hbond.Weighted>
0.0000

> <Gold.Chemscore.DEClash.Weighted>
0.0677

> <Gold.Chemscore.DEInternal.Weighted>
0.0939

> <Gold.Chemscore.Rot.Weighted>
10.3936

> <Gold.Chemscore.Internal.Correction.Weighted>
   9.000000E+99

> <Gold.Protein.RotatedTorsions>
[ 6907 6896 6895 6894 ] final -168.91 input  -60.11 | X-H torsion
[ 7974 7965 7964 7962 ] final  -69.56 input  175.53 | X-H torsion
[ 8008 7997 7996 7995 ] final   96.77 input   59.86 | X-H torsion
[ 10167 10162 10161 10158 ] final  150.96 input  -65.29 | X-H torsion
[ 10718 10713 10712 10709 ] final    1.36 input   66.30 | X-H torsion
[ 10763 10752 10751 10750 ] final  175.86 input  -60.55 | X-H torsion
[ 11005 11000 10999 10996 ] final  114.30 input  -57.11 | X-H torsion

> <Gold.Protein.ActiveResidues>
 VAL166  LYS551  ARG553  GLY616  TRP617  ASP618  TYR619  PRO620  LYS621  CYS622 
 ASP623  PHE694  ASN695  SER759  ASP760  ASP761  ALA762  ILE779  LEU786  VAL792 
 PHE793  MET794  SER795  GLU796  ALA797  LYS798  CYS799  TRP800  GLU811  SER814 

> <Gold.Protein.RotatedAtoms>
  151.4832  133.3541  159.2841 H   0  0  0  0  0  0  0  0  0  0  0  0  # atno 6907 bound_to 6896
  150.8883  134.8286  159.7286 H   0  0  0  0  0  0  0  0  0  0  0  0  # atno 6908 bound_to 6896
  152.4807  134.4738  159.9696 H   0  0  0  0  0  0  0  0  0  0  0  0  # atno 6909 bound_to 6896
  145.7022  140.9112  143.0725 H   0  0  0  0  0  0  0  0  0  0  0  0  # atno 7974 bound_to 7965
  156.0831  140.3268  155.7719 H   0  0  0  0  0  0  0  0  0  0  0  0  # atno 8008 bound_to 7997
  155.5120  140.0578  157.2939 H   0  0  0  0  0  0  0  0  0  0  0  0  # atno 8009 bound_to 7997
  154.4593  140.1959  156.0305 H   0  0  0  0  0  0  0  0  0  0  0  0  # atno 8010 bound_to 7997
  139.4845  144.5480  151.7450 H   0  0  0  0  0  0  0  0  0  0  0  0  # atno 10167 bound_to 10162
  156.8471  130.5541  149.5672 H   0  0  0  0  0  0  0  0  0  0  0  0  # atno 10718 bound_to 10713
  154.4734  135.2772  155.1626 H   0  0  0  0  0  0  0  0  0  0  0  0  # atno 10763 bound_to 10752
  154.3365  135.6179  153.5580 H   0  0  0  0  0  0  0  0  0  0  0  0  # atno 10764 bound_to 10752
  152.9867  135.5778  154.5119 H   0  0  0  0  0  0  0  0  0  0  0  0  # atno 10765 bound_to 10752
  139.8976  134.9565  156.6870 H   0  0  0  0  0  0  0  0  0  0  0  0  # atno 11005 bound_to 11000
  144.6965  139.8962  143.7456 LP  0  0  0  0  0  0  0  0  0  0  0  0  # atno 17320 bound_to 7965
  146.0788  139.3776  143.0477 LP  0  0  0  0  0  0  0  0  0  0  0  0  # atno 17321 bound_to 7965
  140.5029  144.1141  150.5975 LP  0  0  0  0  0  0  0  0  0  0  0  0  # atno 17342 bound_to 10162
  140.4041  143.2689  151.9913 LP  0  0  0  0  0  0  0  0  0  0  0  0  # atno 17343 bound_to 10162
  156.0848  130.5849  150.9629 LP  0  0  0  0  0  0  0  0  0  0  0  0  # atno 17370 bound_to 10713
  157.6324  131.0919  150.8416 LP  0  0  0  0  0  0  0  0  0  0  0  0  # atno 17371 bound_to 10713
  140.7254  133.9104  155.8175 LP  0  0  0  0  0  0  0  0  0  0  0  0  # atno 17394 bound_to 11000
  141.0195  134.0909  157.4136 LP  0  0  0  0  0  0  0  0  0  0  0  0  # atno 17395 bound_to 11000

$$$$
