AV-unprocessed.smi:1464|AV-procd|sdf|5944|dock9
  -GOLD-   22720 6 23D 1   1.00000     0.00000
 Structure written by MMmdl.
 41 42  0  0  0  0  0  0  0  0  1 V2000
  152.6790  144.6969  158.3120 C   0  0  0  0  0  0  0  0  0  0  0  0
  153.0610  143.8646  159.5476 C   0  0  1  0  0  0  0  0  0  0  0  0
  152.1811  144.2124  160.7657 C   0  0  0  0  0  0  0  0  0  0  0  0
  152.6323  143.4514  162.0224 C   0  0  0  0  0  0  0  0  0  0  0  0
  152.6841  141.9359  161.7775 C   0  0  0  0  0  0  0  0  0  0  0  0
  153.5686  141.5965  160.5623 C   0  0  1  0  0  0  0  0  0  0  0  0
  153.6269  140.1477  160.3808 N   0  0  0  0  0  0  0  0  0  0  0  0
  154.5826  139.3407  160.8664 C   0  0  0  0  0  0  0  0  0  0  0  0
  155.5440  139.7496  161.5194 O   0  0  0  0  0  0  0  0  0  0  0  0
  154.4324  137.8483  160.5375 C   0  0  0  0  0  0  0  0  0  0  0  0
  154.4014  136.9887  161.7298 N   0  0  0  0  0  0  0  0  0  0  0  0
  154.3793  137.6837  162.9297 N   0  0  0  0  0  0  0  0  0  0  0  0
  154.3387  137.0395  164.0468 C   0  0  0  0  0  0  0  0  0  0  0  0
  154.3134  137.7667  165.2113 O   0  0  0  0  0  0  0  0  0  0  0  0
  154.3204  135.5935  164.0772 C   0  0  0  0  0  0  0  0  0  0  0  0
  154.3469  134.9252  162.9033 C   0  0  0  0  0  0  0  0  0  0  0  0
  154.3919  135.6246  161.6180 C   0  0  0  0  0  0  0  0  0  0  0  0
  154.4184  135.0418  160.5341 O   0  0  0  0  0  0  0  0  0  0  0  0
  153.0913  142.3357  159.2816 C   0  0  1  0  0  0  0  0  0  0  0  0
  151.7627  141.7802  158.7172 C   0  0  0  0  0  0  0  0  0  0  0  0
  153.5314  137.4890  165.6632 H   0  0  0  0  0  0  0  0  0  0  0  0
  151.6335  144.5581  158.0370 H   0  0  0  0  0  0  0  0  0  0  0  0
  153.2929  144.4295  157.4517 H   0  0  0  0  0  0  0  0  0  0  0  0
  152.8254  145.7607  158.5010 H   0  0  0  0  0  0  0  0  0  0  0  0
  154.0812  144.1573  159.8014 H   0  0  0  0  0  0  0  0  0  0  0  0
  152.2238  145.2847  160.9598 H   0  0  0  0  0  0  0  0  0  0  0  0
  151.1363  143.9846  160.5530 H   0  0  0  0  0  0  0  0  0  0  0  0
  153.6196  143.8034  162.3246 H   0  0  0  0  0  0  0  0  0  0  0  0
  151.9600  143.6717  162.8520 H   0  0  0  0  0  0  0  0  0  0  0  0
  153.0704  141.4392  162.6685 H   0  0  0  0  0  0  0  0  0  0  0  0
  151.6735  141.5537  161.6301 H   0  0  0  0  0  0  0  0  0  0  0  0
  154.5779  141.9417  160.7969 H   0  0  0  0  0  0  0  0  0  0  0  0
  152.8788  139.7270  159.8489 H   0  0  0  0  0  0  0  0  0  0  0  0
  153.5293  137.6930  159.9442 H   0  0  0  0  0  0  0  0  0  0  0  0
  155.2614  137.5623  159.8877 H   0  0  0  0  0  0  0  0  0  0  0  0
  154.2865  135.0699  165.0212 H   0  0  0  0  0  0  0  0  0  0  0  0
  154.3335  133.8451  162.9113 H   0  0  0  0  0  0  0  0  0  0  0  0
  153.8446  142.1637  158.5113 H   0  0  0  0  0  0  0  0  0  0  0  0
  150.9315  141.9248  159.4063 H   0  0  0  0  0  0  0  0  0  0  0  0
  151.8316  140.7131  158.5066 H   0  0  0  0  0  0  0  0  0  0  0  0
  151.4969  142.2599  157.7759 H   0  0  0  0  0  0  0  0  0  0  0  0
  1  2  1  0  0  0  0
  1 22  1  0  0  0  0
  1 23  1  0  0  0  0
  1 24  1  0  0  0  0
  2 19  1  0  0  0  0
  2  3  1  0  0  0  0
  2 25  1  0  0  0  0
  3  4  1  0  0  0  0
  3 26  1  0  0  0  0
  3 27  1  0  0  0  0
  4  5  1  0  0  0  0
  4 28  1  0  0  0  0
  4 29  1  0  0  0  0
  5  6  1  0  0  0  0
  5 30  1  0  0  0  0
  5 31  1  0  0  0  0
  6  7  1  0  0  0  0
  6 19  1  0  0  0  0
  6 32  1  0  0  0  0
  7  8  1  0  0  0  0
  7 33  1  0  0  0  0
  8  9  2  0  0  0  0
  8 10  1  0  0  0  0
 10 34  1  0  0  0  0
 10 35  1  0  0  0  0
 10 11  1  0  0  0  0
 11 12  1  0  0  0  0
 11 17  1  0  0  0  0
 12 13  2  0  0  0  0
 13 14  1  0  0  0  0
 13 15  1  0  0  0  0
 14 21  1  0  0  0  0
 15 36  1  0  0  0  0
 15 16  2  0  0  0  0
 16 37  1  0  0  0  0
 16 17  1  0  0  0  0
 17 18  2  0  0  0  0
 19 20  1  0  0  0  0
 19 38  1  0  0  0  0
 20 39  1  0  0  0  0
 20 40  1  0  0  0  0
 20 41  1  0  0  0  0
M  END
> <s_m_source_file>
AV-unprocessed.smi

> <i_m_source_file_index>
1464

> <i_lp_mmshare_version>
43012

> <i_f3d_flags>
0

> <s_epik_input>
W0NIM11bQ0BASF0xW0NIMl1bQ0gyXVtDSDJdW0NASF0oW0NASF0xW0NIM10pW05IXUMoPU8pW0NIMl1uMltuSF1jKD1PKVtjSF1bY0hdYzI9Tw==

> <s_epik_cmdline>
J2VwaWtfcHl0aG9uJywgJy1waCcsICc3LjAnLCAnLXRuJywgJzgnLCAnLW1hJywgJzIwMCcsICctbWV0YWxfYmluZGluZycsICctaW1hZScsICc8aW5maWxlLm1hZT4nLCAnLW9tYWUnLCAnPG91dGZpbGUubWFlPic=

> <r_lp_tautomer_probability>
0.9996

> <r_epik_Ionization_Penalty>
2.10335

> <r_epik_Ionization_Penalty_Charging>
3.98079e-08

> <r_epik_Ionization_Penalty_Neutral>
2.10335

> <r_epik_State_Penalty>
1.67957

> <r_epik_Charging_Adjusted_Penalty>
1.67957

> <i_epik_Tot_Q>
0

> <i_epik_Tot_abs_Q>
0

> <r_epik_Metal_State_Penalty>
1.67957

> <b_epik_Metal_Only>
0

> <s_lp_Force_Field>
OPLS_2005

> <r_lp_Energy>
25.7359

> <b_lp_Chiralities_Consistent>
1

> <s_lp_Variant>
AV-unprocessed.smi:1464-10

> <Gold.Version>
5.8.1

> <Gold.Id.Protein>
6NUR|6NUR_protein|mol2

> <Gold.PLP.Fitness>
47.4160

> <Gold.PLP.PLP>
-45.1375

> <Gold.PLP.part.hbond>
-1.0000

> <Gold.PLP.part.metal>
0.0000

> <Gold.PLP.part.buried>
-6.2408

> <Gold.PLP.part.nonpolar>
-37.4499

> <Gold.PLP.part.repulsive>
0.0682

> <Gold.PLP.ligand.clash>
0.0000

> <Gold.PLP.ligand.torsion>
0.3681

> <Gold.PLP.Chemscore.Hbond>
1.0000

> <Gold.PLP.Chemscore.CHOScore>
0.0000

> <Gold.PLP.Chemscore.Metal>
0.0000

> <Gold.Chemscore.Hbonds>
donor molecule, donor type, donor heavy atom, donor atom, acceptor molecule, acceptor atom, score
      P1  H  6896  6909       L1    18  1.00

> <Gold.PLP.Chemscore.Internal.Correction>
0.0147

> <Gold.Rescore>
     Score         DG    S(hbond)    S(metal)    S(lipo)     H(rot)  DE(clash)    DE(int)     intcor
     15.04     -16.51       1.00        0.00     114.42       2.22       0.03       1.43       ----

> <Gold.Chemscore.Fitness>
15.0424

> <Gold.Chemscore.DG>
-16.5059

> <Gold.Chemscore.ZeroCoef>
-5.4800

> <Gold.Chemscore.Hbond>
0.9964

> <Gold.Chemscore.Metal>
0.0000

> <Gold.Chemscore.Lipo>
114.4195

> <Gold.Chemscore.Internal_Hbond>
0.0000

> <Gold.Chemscore.DEClash>
0.0311

> <Gold.Chemscore.DEInternal>
1.4324

> <Gold.Chemscore.Rot>
2.2224

> <Gold.Chemscore.Internal.Correction>
   9.000000E+99

> <Gold.Chemscore.Hbonds>
donor molecule, donor type, donor heavy atom, donor atom, acceptor molecule, acceptor atom, score
      P1  H  6896  6909       L1    18  0.77

> <Gold.Chemscore.Hbond.Weighted>
-3.3281

> <Gold.Chemscore.Metal.Weighted>
-0.0000

> <Gold.Chemscore.Lipo.Weighted>
-13.3871

> <Gold.Chemscore.Internal_Hbond.Weighted>
0.0000

> <Gold.Chemscore.DEClash.Weighted>
0.0311

> <Gold.Chemscore.DEInternal.Weighted>
1.4324

> <Gold.Chemscore.Rot.Weighted>
5.6893

> <Gold.Chemscore.Internal.Correction.Weighted>
   9.000000E+99

> <Gold.Protein.RotatedTorsions>
[ 6907 6896 6895 6894 ] final -164.18 input  -60.11 | X-H torsion
[ 7974 7965 7964 7962 ] final  -98.27 input  175.53 | X-H torsion
[ 8008 7997 7996 7995 ] final   79.08 input   59.86 | X-H torsion
[ 10167 10162 10161 10158 ] final   86.02 input  -65.29 | X-H torsion
[ 10718 10713 10712 10709 ] final -139.57 input   66.30 | X-H torsion
[ 10763 10752 10751 10750 ] final  -11.40 input  -60.55 | X-H torsion
[ 11005 11000 10999 10996 ] final   71.58 input  -57.11 | X-H torsion

> <Gold.Protein.ActiveResidues>
 VAL166  LYS551  ARG553  GLY616  TRP617  ASP618  TYR619  PRO620  LYS621  CYS622 
 ASP623  PHE694  ASN695  SER759  ASP760  ASP761  ALA762  ILE779  LEU786  VAL792 
 PHE793  MET794  SER795  GLU796  ALA797  LYS798  CYS799  TRP800  GLU811  SER814 

> <Gold.Protein.RotatedAtoms>
  151.4078  133.3737  159.2739 H   0  0  0  0  0  0  0  0  0  0  0  0  # atno 6907 bound_to 6896
  150.9386  134.8798  159.7608 H   0  0  0  0  0  0  0  0  0  0  0  0  # atno 6908 bound_to 6896
  152.5061  134.4027  159.9474 H   0  0  0  0  0  0  0  0  0  0  0  0  # atno 6909 bound_to 6896
  145.3228  140.9425  143.2706 H   0  0  0  0  0  0  0  0  0  0  0  0  # atno 7974 bound_to 7965
  155.8647  140.3452  155.5780 H   0  0  0  0  0  0  0  0  0  0  0  0  # atno 8008 bound_to 7997
  155.7894  140.0869  157.2036 H   0  0  0  0  0  0  0  0  0  0  0  0  # atno 8009 bound_to 7997
  154.4013  140.1486  156.3132 H   0  0  0  0  0  0  0  0  0  0  0  0  # atno 8010 bound_to 7997
  139.8918  144.6381  150.8730 H   0  0  0  0  0  0  0  0  0  0  0  0  # atno 10167 bound_to 10162
  156.3123  130.7488  151.1567 H   0  0  0  0  0  0  0  0  0  0  0  0  # atno 10718 bound_to 10713
  153.4832  135.7017  153.5926 H   0  0  0  0  0  0  0  0  0  0  0  0  # atno 10763 bound_to 10752
  153.4130  135.3844  155.2062 H   0  0  0  0  0  0  0  0  0  0  0  0  # atno 10764 bound_to 10752
  154.8720  135.3909  154.4284 H   0  0  0  0  0  0  0  0  0  0  0  0  # atno 10765 bound_to 10752
  139.9536  134.7184  156.0805 H   0  0  0  0  0  0  0  0  0  0  0  0  # atno 11005 bound_to 11000
  144.8926  139.4755  143.6671 LP  0  0  0  0  0  0  0  0  0  0  0  0  # atno 17320 bound_to 7965
  146.3076  139.7633  142.9044 LP  0  0  0  0  0  0  0  0  0  0  0  0  # atno 17321 bound_to 7965
  140.7725  143.3504  151.2026 LP  0  0  0  0  0  0  0  0  0  0  0  0  # atno 17342 bound_to 10162
  139.7103  143.9388  152.2944 LP  0  0  0  0  0  0  0  0  0  0  0  0  # atno 17343 bound_to 10162
  157.7394  131.0530  150.5236 LP  0  0  0  0  0  0  0  0  0  0  0  0  # atno 17370 bound_to 10713
  156.5377  130.4200  149.6169 LP  0  0  0  0  0  0  0  0  0  0  0  0  # atno 17371 bound_to 10713
  141.1203  133.6615  156.3198 LP  0  0  0  0  0  0  0  0  0  0  0  0  # atno 17394 bound_to 11000
  140.5662  134.5885  157.5446 LP  0  0  0  0  0  0  0  0  0  0  0  0  # atno 17395 bound_to 11000

$$$$
