AV-unprocessed.smi:2071|AV-procd|sdf|8440|dock3
  -GOLD-   2272011143D 1   1.00000     0.00000
 Structure written by MMmdl.
 45 47  0  0  0  0  0  0  0  0  1 V2000
  151.2748  141.2071  156.7370 O   0  0  0  0  0  0  0  0  0  0  0  0
  150.4711  142.0892  156.4360 C   0  0  0  0  0  0  0  0  0  0  0  0
  149.6629  142.0183  155.3688 N   0  0  0  0  0  0  0  0  0  0  0  0
  149.6227  140.9118  154.4198 C   0  0  0  0  0  0  0  0  0  0  0  0
  148.2292  140.2666  154.3652 C   0  0  0  0  0  0  0  0  0  0  0  0
  148.2879  138.7749  153.9960 C   0  0  0  0  0  0  0  0  0  0  0  0
  147.0511  138.3371  153.3430 N   0  0  0  0  0  0  0  0  0  0  0  0
  146.4802  138.9683  152.3008 C   0  0  0  0  0  0  0  0  0  0  0  0
  146.8849  139.9944  151.7562 O   0  0  0  0  0  0  0  0  0  0  0  0
  145.3849  138.2868  151.9411 N   0  0  0  0  0  0  0  0  0  0  0  0
  145.1692  137.1058  152.7530 C   0  0  0  0  0  0  0  0  0  0  0  0
  145.1644  135.7994  151.9489 C   0  0  0  0  0  0  0  0  0  0  0  0
  144.4133  134.7930  152.8312 C   0  0  0  0  0  0  0  0  0  0  0  0
  143.5431  135.6188  153.7960 C   0  0  0  0  0  0  0  0  0  0  0  0
  143.8207  137.0971  153.4850 C   0  0  0  0  0  0  0  0  0  0  0  0
  146.3678  137.2371  153.6859 C   0  0  0  0  0  0  0  0  0  0  0  0
  146.6391  136.4439  154.5881 O   0  0  0  0  0  0  0  0  0  0  0  0
  150.2698  143.2285  157.1205 N   0  0  0  0  0  0  0  0  0  0  0  0
  150.9168  143.6874  158.3005 C   0  0  0  0  0  0  0  0  0  0  0  0
  152.0897  143.1125  158.8482 C   0  0  0  0  0  0  0  0  0  0  0  0
  152.6401  143.6737  160.0169 C   0  0  0  0  0  0  0  0  0  0  0  0
  152.0044  144.7914  160.5909 C   0  0  0  0  0  0  0  0  0  0  0  0
  150.8942  145.3574  160.0734 N   0  0  0  0  0  0  0  0  0  0  0  0
  150.3721  144.8138  158.9532 C   0  0  0  0  0  0  0  0  0  0  0  0
  149.0294  142.7860  155.1991 H   0  0  0  0  0  0  0  0  0  0  0  0
  149.9256  141.2545  153.4288 H   0  0  0  0  0  0  0  0  0  0  0  0
  150.3613  140.1729  154.7313 H   0  0  0  0  0  0  0  0  0  0  0  0
  147.7380  140.3842  155.3322 H   0  0  0  0  0  0  0  0  0  0  0  0
  147.6100  140.7945  153.6384 H   0  0  0  0  0  0  0  0  0  0  0  0
  149.1406  138.5883  153.3408 H   0  0  0  0  0  0  0  0  0  0  0  0
  148.4676  138.1763  154.8906 H   0  0  0  0  0  0  0  0  0  0  0  0
  144.7734  138.5494  151.1818 H   0  0  0  0  0  0  0  0  0  0  0  0
  144.6213  135.9428  151.0136 H   0  0  0  0  0  0  0  0  0  0  0  0
  146.1651  135.4489  151.6917 H   0  0  0  0  0  0  0  0  0  0  0  0
  143.8168  134.1059  152.2303 H   0  0  0  0  0  0  0  0  0  0  0  0
  145.1231  134.1922  153.4012 H   0  0  0  0  0  0  0  0  0  0  0  0
  142.4835  135.3859  153.6857 H   0  0  0  0  0  0  0  0  0  0  0  0
  143.8191  135.3919  154.8265 H   0  0  0  0  0  0  0  0  0  0  0  0
  143.8174  137.7106  154.3873 H   0  0  0  0  0  0  0  0  0  0  0  0
  143.0405  137.4849  152.8282 H   0  0  0  0  0  0  0  0  0  0  0  0
  149.5258  143.8203  156.7811 H   0  0  0  0  0  0  0  0  0  0  0  0
  152.5847  142.2680  158.3954 H   0  0  0  0  0  0  0  0  0  0  0  0
  153.5329  143.2583  160.4608 H   0  0  0  0  0  0  0  0  0  0  0  0
  152.4014  145.2457  161.4865 H   0  0  0  0  0  0  0  0  0  0  0  0
  149.4846  145.2945  158.5672 H   0  0  0  0  0  0  0  0  0  0  0  0
  1  2  2  0  0  0  0
  2  3  1  0  0  0  0
  2 18  1  0  0  0  0
  3  4  1  0  0  0  0
  3 25  1  0  0  0  0
  4  5  1  0  0  0  0
  4 26  1  0  0  0  0
  4 27  1  0  0  0  0
  5  6  1  0  0  0  0
  5 28  1  0  0  0  0
  5 29  1  0  0  0  0
  6  7  1  0  0  0  0
  6 30  1  0  0  0  0
  6 31  1  0  0  0  0
  7 16  1  0  0  0  0
  7  8  1  0  0  0  0
  8  9  2  0  0  0  0
  8 10  1  0  0  0  0
 10 11  1  0  0  0  0
 10 32  1  0  0  0  0
 11 15  1  0  0  0  0
 11 12  1  0  0  0  0
 11 16  1  0  0  0  0
 12 13  1  0  0  0  0
 12 33  1  0  0  0  0
 12 34  1  0  0  0  0
 13 14  1  0  0  0  0
 13 35  1  0  0  0  0
 13 36  1  0  0  0  0
 14 15  1  0  0  0  0
 14 37  1  0  0  0  0
 14 38  1  0  0  0  0
 15 39  1  0  0  0  0
 15 40  1  0  0  0  0
 16 17  2  0  0  0  0
 18 19  1  0  0  0  0
 18 41  1  0  0  0  0
 19 24  1  0  0  0  0
 19 20  2  0  0  0  0
 20 21  1  0  0  0  0
 20 42  1  0  0  0  0
 21 22  2  0  0  0  0
 21 43  1  0  0  0  0
 22 23  1  0  0  0  0
 22 44  1  0  0  0  0
 23 24  2  0  0  0  0
 24 45  1  0  0  0  0
M  END
> <s_m_source_file>
AV-unprocessed.smi

> <i_m_source_file_index>
2071

> <i_lp_mmshare_version>
43012

> <i_f3d_flags>
0

> <s_epik_input>
W2NIXTFuW2NIXVtjSF1bY0hdYzFbTkhdQyg9TylbTkhdW0NIMl1bQ0gyXVtDSDJdTihDMj1PKUMoPU8pW05IXUMyM1tDSDJdW0NIMl1bQ0gyXVtDSDJdMw==

> <s_epik_cmdline>
J2VwaWtfcHl0aG9uJywgJy1waCcsICc3LjAnLCAnLXRuJywgJzgnLCAnLW1hJywgJzIwMCcsICctbWV0YWxfYmluZGluZycsICctaW1hZScsICc8aW5maWxlLm1hZT4nLCAnLW9tYWUnLCAnPG91dGZpbGUubWFlPic=

> <r_lp_tautomer_probability>
1

> <r_epik_Ionization_Penalty>
0.00482956

> <r_epik_Ionization_Penalty_Charging>
0

> <r_epik_Ionization_Penalty_Neutral>
0.00482956

> <r_epik_State_Penalty>
0.00344413

> <r_epik_Charging_Adjusted_Penalty>
0.00344413

> <i_epik_Tot_Q>
0

> <i_epik_Tot_abs_Q>
0

> <r_epik_Metal_State_Penalty>
0.0123255

> <b_epik_Metal_Only>
0

> <s_lp_Force_Field>
OPLS_2005

> <r_lp_Energy>
39.9018

> <b_lp_Chiralities_Consistent>
1

> <s_lp_Variant>
AV-unprocessed.smi:2071-1

> <Gold.Version>
5.8.1

> <Gold.Id.Protein>
6NUR|6NUR_protein|mol2

> <Gold.PLP.Fitness>
49.5578

> <Gold.PLP.PLP>
-38.8670

> <Gold.PLP.part.hbond>
-3.8756

> <Gold.PLP.part.metal>
0.0000

> <Gold.PLP.part.buried>
-4.4196

> <Gold.PLP.part.nonpolar>
-34.5336

> <Gold.PLP.part.repulsive>
2.7598

> <Gold.PLP.ligand.clash>
0.0000

> <Gold.PLP.ligand.torsion>
0.4700

> <Gold.PLP.Chemscore.Hbond>
2.8720

> <Gold.PLP.Chemscore.CHOScore>
1.0000

> <Gold.PLP.Chemscore.Metal>
0.0000

> <Gold.Chemscore.Hbonds>
donor molecule, donor type, donor heavy atom, donor atom, acceptor molecule, acceptor atom, score
      L1  H     3    25       P1  8028  0.78
      L1  H    10    32       P1 10171  1.00
      L1  H    18    41       P1  8028  1.00
      L1  C    24    45       P1  8029  1.00

> <Gold.PLP.Chemscore.Internal.Correction>
0.0148

> <Gold.Rescore>
     Score         DG    S(hbond)    S(metal)    S(lipo)     H(rot)  DE(clash)    DE(int)     intcor
     16.92     -20.49       2.79        0.00      91.66       1.96       2.12       1.46       ----

> <Gold.Chemscore.Fitness>
16.9217

> <Gold.Chemscore.DG>
-20.4943

> <Gold.Chemscore.ZeroCoef>
-5.4800

> <Gold.Chemscore.Hbond>
2.7893

> <Gold.Chemscore.Metal>
0.0000

> <Gold.Chemscore.Lipo>
91.6612

> <Gold.Chemscore.Internal_Hbond>
0.0000

> <Gold.Chemscore.DEClash>
2.1158

> <Gold.Chemscore.DEInternal>
1.4567

> <Gold.Chemscore.Rot>
1.9634

> <Gold.Chemscore.Internal.Correction>
   9.000000E+99

> <Gold.Chemscore.Hbonds>
donor molecule, donor type, donor heavy atom, donor atom, acceptor molecule, acceptor atom, score
      L1  H     3    25       P1  8028  0.76
      L1  H    10    32       P1 10171  1.00
      L1  H    18    41       P1  8028  0.87

> <Gold.Chemscore.Hbond.Weighted>
-9.3162

> <Gold.Chemscore.Metal.Weighted>
-0.0000

> <Gold.Chemscore.Lipo.Weighted>
-10.7244

> <Gold.Chemscore.Internal_Hbond.Weighted>
0.0000

> <Gold.Chemscore.DEClash.Weighted>
2.1158

> <Gold.Chemscore.DEInternal.Weighted>
1.4567

> <Gold.Chemscore.Rot.Weighted>
5.0263

> <Gold.Chemscore.Internal.Correction.Weighted>
   9.000000E+99

> <Gold.Protein.RotatedTorsions>
[ 6907 6896 6895 6894 ] final  122.70 input  -60.11 | X-H torsion
[ 7974 7965 7964 7962 ] final   32.94 input  175.53 | X-H torsion
[ 8008 7997 7996 7995 ] final -169.71 input   59.86 | X-H torsion
[ 10167 10162 10161 10158 ] final -131.70 input  -65.29 | X-H torsion
[ 10718 10713 10712 10709 ] final   37.80 input   66.30 | X-H torsion
[ 10763 10752 10751 10750 ] final   47.26 input  -60.55 | X-H torsion
[ 11005 11000 10999 10996 ] final -164.42 input  -57.11 | X-H torsion

> <Gold.Protein.ActiveResidues>
 VAL166  LYS551  ARG553  GLY616  TRP617  ASP618  TYR619  PRO620  LYS621  CYS622 
 ASP623  PHE694  ASN695  SER759  ASP760  ASP761  ALA762  ILE779  LEU786  VAL792 
 PHE793  MET794  SER795  GLU796  ALA797  LYS798  CYS799  TRP800  GLU811  SER814 

> <Gold.Protein.RotatedAtoms>
  152.4222  133.7134  159.6491 H   0  0  0  0  0  0  0  0  0  0  0  0  # atno 6907 bound_to 6896
  150.8097  133.8433  159.3194 H   0  0  0  0  0  0  0  0  0  0  0  0  # atno 6908 bound_to 6896
  151.6146  135.1039  160.0140 H   0  0  0  0  0  0  0  0  0  0  0  0  # atno 6909 bound_to 6896
  146.1453  139.6461  142.9135 H   0  0  0  0  0  0  0  0  0  0  0  0  # atno 7974 bound_to 7965
  155.9086  140.1053  157.1296 H   0  0  0  0  0  0  0  0  0  0  0  0  # atno 8008 bound_to 7997
  154.4036  140.1279  156.4592 H   0  0  0  0  0  0  0  0  0  0  0  0  # atno 8009 bound_to 7997
  155.7337  140.3468  155.5074 H   0  0  0  0  0  0  0  0  0  0  0  0  # atno 8010 bound_to 7997
  139.9161  143.6436  152.2564 H   0  0  0  0  0  0  0  0  0  0  0  0  # atno 10167 bound_to 10162
  157.3513  130.7600  149.6980 H   0  0  0  0  0  0  0  0  0  0  0  0  # atno 10718 bound_to 10713
  152.9802  135.5982  154.3733 H   0  0  0  0  0  0  0  0  0  0  0  0  # atno 10763 bound_to 10752
  154.3405  135.2768  155.2427 H   0  0  0  0  0  0  0  0  0  0  0  0  # atno 10764 bound_to 10752
  154.4511  135.5989  153.6247 H   0  0  0  0  0  0  0  0  0  0  0  0  # atno 10765 bound_to 10752
  140.5871  134.5082  157.5187 H   0  0  0  0  0  0  0  0  0  0  0  0  # atno 11005 bound_to 11000
  145.4951  141.0438  143.2571 LP  0  0  0  0  0  0  0  0  0  0  0  0  # atno 17320 bound_to 7965
  144.7840  139.6466  143.7142 LP  0  0  0  0  0  0  0  0  0  0  0  0  # atno 17321 bound_to 7965
  139.6901  144.7647  151.1454 LP  0  0  0  0  0  0  0  0  0  0  0  0  # atno 17342 bound_to 10162
  140.7673  143.5602  150.9108 LP  0  0  0  0  0  0  0  0  0  0  0  0  # atno 17343 bound_to 10162
  155.9722  130.4140  150.4109 LP  0  0  0  0  0  0  0  0  0  0  0  0  # atno 17370 bound_to 10713
  157.2172  131.0474  151.2566 LP  0  0  0  0  0  0  0  0  0  0  0  0  # atno 17371 bound_to 10713
  139.9291  134.7999  156.0983 LP  0  0  0  0  0  0  0  0  0  0  0  0  # atno 17394 bound_to 11000
  141.0959  133.6696  156.2644 LP  0  0  0  0  0  0  0  0  0  0  0  0  # atno 17395 bound_to 11000

$$$$
