AV-unprocessed.smi:2433|AV-procd|sdf|9590|dock1
  -GOLD-   2272013223D 1   1.00000     0.00000
 Structure written by MMmdl.
 38 40  0  0  0  0  0  0  0  0  1 V2000
  151.2638  140.2860  154.9233 O   0  0  0  0  0  0  0  0  0  0  0  0
  150.9282  140.9898  155.8763 C   0  0  0  0  0  0  0  0  0  0  0  0
  151.8922  141.7463  156.6760 C   0  0  0  0  0  0  0  0  0  0  0  0
  151.4847  142.5130  157.7149 C   0  0  0  0  0  0  0  0  0  0  0  0
  152.4910  143.2985  158.5522 C   0  0  0  0  0  0  0  0  0  0  0  0
  152.1992  143.3778  160.0608 C   0  0  0  0  0  0  0  0  0  0  0  0
  151.6658  144.8013  159.8640 C   0  0  0  0  0  0  0  0  0  0  0  0
  152.3225  144.8242  158.4790 C   0  0  0  0  0  0  0  0  0  0  0  0
  150.1278  142.5770  158.0591 N   0  0  0  0  0  0  0  0  0  0  0  0
  149.2544  141.9164  157.3685 C   0  0  0  0  0  0  0  0  0  0  0  0
  149.6270  141.1256  156.2653 N   0  0  0  0  0  0  0  0  0  0  0  0
  148.5351  140.4474  155.5473 C   0  0  0  0  0  0  0  0  0  0  0  0
  148.1423  141.1750  154.2428 C   0  0  1  0  0  0  0  0  0  0  0  0
  147.8424  140.2084  153.2548 O   0  0  0  0  0  0  0  0  0  0  0  0
  146.9675  142.1121  154.4817 C   0  0  0  0  0  0  0  0  0  0  0  0
  146.5059  142.9395  153.4352 C   0  0  0  0  0  0  0  0  0  0  0  0
  145.4283  143.8211  153.6486 C   0  0  0  0  0  0  0  0  0  0  0  0
  144.8081  143.8834  154.9112 C   0  0  0  0  0  0  0  0  0  0  0  0
  143.7730  144.7317  155.1167 F   0  0  0  0  0  0  0  0  0  0  0  0
  145.2667  143.0647  155.9607 C   0  0  0  0  0  0  0  0  0  0  0  0
  146.3443  142.1830  155.7478 C   0  0  0  0  0  0  0  0  0  0  0  0
  152.9410  141.6927  156.4223 H   0  0  0  0  0  0  0  0  0  0  0  0
  153.5168  142.9865  158.3499 H   0  0  0  0  0  0  0  0  0  0  0  0
  151.4635  142.6657  160.4360 H   0  0  0  0  0  0  0  0  0  0  0  0
  153.1095  143.3566  160.6616 H   0  0  0  0  0  0  0  0  0  0  0  0
  150.5768  144.8426  159.8164 H   0  0  0  0  0  0  0  0  0  0  0  0
  152.0660  145.5343  160.5650 H   0  0  0  0  0  0  0  0  0  0  0  0
  153.2776  145.3512  158.4778 H   0  0  0  0  0  0  0  0  0  0  0  0
  151.6710  145.1786  157.6792 H   0  0  0  0  0  0  0  0  0  0  0  0
  148.1875  141.9296  157.5981 H   0  0  0  0  0  0  0  0  0  0  0  0
  148.7590  139.3976  155.3462 H   0  0  0  0  0  0  0  0  0  0  0  0
  147.6697  140.4154  156.2122 H   0  0  0  0  0  0  0  0  0  0  0  0
  148.9797  141.7692  153.8747 H   0  0  0  0  0  0  0  0  0  0  0  0
  148.4896  140.2716  152.5690 H   0  0  0  0  0  0  0  0  0  0  0  0
  146.9792  142.9037  152.4648 H   0  0  0  0  0  0  0  0  0  0  0  0
  145.0793  144.4513  152.8439 H   0  0  0  0  0  0  0  0  0  0  0  0
  144.7938  143.1143  156.9303 H   0  0  0  0  0  0  0  0  0  0  0  0
  146.6920  141.5642  156.5619 H   0  0  0  0  0  0  0  0  0  0  0  0
  1  2  2  0  0  0  0
  2 11  1  0  0  0  0
  2  3  1  0  0  0  0
  3  4  2  0  0  0  0
  3 22  1  0  0  0  0
  4  5  1  0  0  0  0
  4  9  1  0  0  0  0
  5  8  1  0  0  0  0
  5  6  1  0  0  0  0
  5 23  1  0  0  0  0
  6  7  1  0  0  0  0
  6 24  1  0  0  0  0
  6 25  1  0  0  0  0
  7  8  1  0  0  0  0
  7 26  1  0  0  0  0
  7 27  1  0  0  0  0
  8 28  1  0  0  0  0
  8 29  1  0  0  0  0
  9 10  2  0  0  0  0
 10 11  1  0  0  0  0
 10 30  1  0  0  0  0
 11 12  1  0  0  0  0
 12 13  1  0  0  0  0
 12 31  1  0  0  0  0
 12 32  1  0  0  0  0
 13 14  1  0  0  0  0
 13 15  1  0  0  0  0
 13 33  1  0  0  0  0
 14 34  1  0  0  0  0
 15 21  1  0  0  0  0
 15 16  2  0  0  0  0
 16 17  1  0  0  0  0
 16 35  1  0  0  0  0
 17 18  2  0  0  0  0
 17 36  1  0  0  0  0
 18 19  1  0  0  0  0
 18 20  1  0  0  0  0
 20 21  2  0  0  0  0
 20 37  1  0  0  0  0
 21 38  1  0  0  0  0
M  END
> <s_m_source_file>
AV-unprocessed.smi

> <i_m_source_file_index>
2433

> <i_lp_mmshare_version>
43012

> <i_f3d_flags>
0

> <s_epik_input>
W0NIMl0xW0NIMl1bQ0gyXVtDSF0xYyhbY0hdYzI9TyluW2NIXW4yW0NIMl1bQ0BIXShbT0hdKWMzW2NIXVtjSF1jKEYpW2NIXVtjSF0z

> <s_epik_cmdline>
J2VwaWtfcHl0aG9uJywgJy1waCcsICc3LjAnLCAnLXRuJywgJzgnLCAnLW1hJywgJzIwMCcsICctbWV0YWxfYmluZGluZycsICctaW1hZScsICc8aW5maWxlLm1hZT4nLCAnLW9tYWUnLCAnPG91dGZpbGUubWFlPic=

> <r_lp_tautomer_probability>
1

> <r_epik_Ionization_Penalty>
2.57762e-05

> <r_epik_Ionization_Penalty_Charging>
5.39435e-08

> <r_epik_Ionization_Penalty_Neutral>
2.57223e-05

> <r_epik_State_Penalty>
-0

> <r_epik_Charging_Adjusted_Penalty>
5.39435e-08

> <i_epik_Tot_Q>
0

> <i_epik_Tot_abs_Q>
0

> <r_epik_Metal_State_Penalty>
-0

> <b_epik_Metal_Only>
0

> <s_lp_Force_Field>
OPLS_2005

> <r_lp_Energy>
28.3662

> <b_lp_Chiralities_Consistent>
1

> <s_lp_Variant>
AV-unprocessed.smi:2433-2

> <Gold.Version>
5.8.1

> <Gold.Id.Protein>
6NUR|6NUR_protein|mol2

> <Gold.PLP.Fitness>
49.1190

> <Gold.PLP.PLP>
-44.9913

> <Gold.PLP.part.hbond>
-2.0000

> <Gold.PLP.part.metal>
0.0000

> <Gold.PLP.part.buried>
-8.6635

> <Gold.PLP.part.nonpolar>
-33.6225

> <Gold.PLP.part.repulsive>
0.1758

> <Gold.PLP.ligand.clash>
0.0000

> <Gold.PLP.ligand.torsion>
1.1323

> <Gold.PLP.Chemscore.Hbond>
2.0000

> <Gold.PLP.Chemscore.CHOScore>
0.0000

> <Gold.PLP.Chemscore.Metal>
0.0000

> <Gold.Chemscore.Hbonds>
donor molecule, donor type, donor heavy atom, donor atom, acceptor molecule, acceptor atom, score
      L1  H    14    34       P1  7957  1.00
      P1  H  7989  7998       L1     1  1.00

> <Gold.PLP.Chemscore.Internal.Correction>
0.3923

> <Gold.Rescore>
     Score         DG    S(hbond)    S(metal)    S(lipo)     H(rot)  DE(clash)    DE(int)     intcor
     16.39     -19.28       1.96        0.00     108.72       2.14       1.71       1.18       ----

> <Gold.Chemscore.Fitness>
16.3898

> <Gold.Chemscore.DG>
-19.2766

> <Gold.Chemscore.ZeroCoef>
-5.4800

> <Gold.Chemscore.Hbond>
1.9601

> <Gold.Chemscore.Metal>
0.0000

> <Gold.Chemscore.Lipo>
108.7224

> <Gold.Chemscore.Internal_Hbond>
0.0000

> <Gold.Chemscore.DEClash>
1.7085

> <Gold.Chemscore.DEInternal>
1.1783

> <Gold.Chemscore.Rot>
2.1370

> <Gold.Chemscore.Internal.Correction>
   9.000000E+99

> <Gold.Chemscore.Hbonds>
donor molecule, donor type, donor heavy atom, donor atom, acceptor molecule, acceptor atom, score
      L1  H    14    34       P1  7957  1.00
      P1  H  7989  7998       L1     1  0.95

> <Gold.Chemscore.Hbond.Weighted>
-6.5469

> <Gold.Chemscore.Metal.Weighted>
-0.0000

> <Gold.Chemscore.Lipo.Weighted>
-12.7205

> <Gold.Chemscore.Internal_Hbond.Weighted>
0.0000

> <Gold.Chemscore.DEClash.Weighted>
1.7085

> <Gold.Chemscore.DEInternal.Weighted>
1.1783

> <Gold.Chemscore.Rot.Weighted>
5.4707

> <Gold.Chemscore.Internal.Correction.Weighted>
   9.000000E+99

> <Gold.Protein.RotatedTorsions>
[ 6907 6896 6895 6894 ] final  -43.15 input  -60.11 | X-H torsion
[ 7974 7965 7964 7962 ] final -139.48 input  175.53 | X-H torsion
[ 8008 7997 7996 7995 ] final   50.62 input   59.86 | X-H torsion
[ 10167 10162 10161 10158 ] final  133.61 input  -65.29 | X-H torsion
[ 10718 10713 10712 10709 ] final -157.19 input   66.30 | X-H torsion
[ 10763 10752 10751 10750 ] final  -99.17 input  -60.55 | X-H torsion
[ 11005 11000 10999 10996 ] final  172.04 input  -57.11 | X-H torsion

> <Gold.Protein.ActiveResidues>
 VAL166  LYS551  ARG553  GLY616  TRP617  ASP618  TYR619  PRO620  LYS621  CYS622 
 ASP623  PHE694  ASN695  SER759  ASP760  ASP761  ALA762  ILE779  LEU786  VAL792 
 PHE793  MET794  SER795  GLU796  ALA797  LYS798  CYS799  TRP800  GLU811  SER814 

> <Gold.Protein.RotatedAtoms>
  150.9472  134.8876  159.7649 H   0  0  0  0  0  0  0  0  0  0  0  0  # atno 6907 bound_to 6896
  152.5105  134.3858  159.9377 H   0  0  0  0  0  0  0  0  0  0  0  0  # atno 6908 bound_to 6896
  151.3876  133.3760  159.2752 H   0  0  0  0  0  0  0  0  0  0  0  0  # atno 6909 bound_to 6896
  144.8673  140.6313  143.5289 H   0  0  0  0  0  0  0  0  0  0  0  0  # atno 7974 bound_to 7965
  155.4218  140.3447  155.4272 H   0  0  0  0  0  0  0  0  0  0  0  0  # atno 8008 bound_to 7997
  156.1388  140.1536  156.8984 H   0  0  0  0  0  0  0  0  0  0  0  0  # atno 8009 bound_to 7997
  154.4954  140.0829  156.7665 H   0  0  0  0  0  0  0  0  0  0  0  0  # atno 8010 bound_to 7997
  139.5290  144.6608  151.5020 H   0  0  0  0  0  0  0  0  0  0  0  0  # atno 10167 bound_to 10162
  156.5368  130.8545  151.2735 H   0  0  0  0  0  0  0  0  0  0  0  0  # atno 10718 bound_to 10713
  154.7476  135.4982  153.9231 H   0  0  0  0  0  0  0  0  0  0  0  0  # atno 10763 bound_to 10752
  153.1108  135.6709  153.9512 H   0  0  0  0  0  0  0  0  0  0  0  0  # atno 10764 bound_to 10752
  153.9272  135.3082  155.3425 H   0  0  0  0  0  0  0  0  0  0  0  0  # atno 10765 bound_to 10752
  140.3255  134.7402  157.4095 H   0  0  0  0  0  0  0  0  0  0  0  0  # atno 11005 bound_to 11000
  145.4197  139.1566  143.4081 LP  0  0  0  0  0  0  0  0  0  0  0  0  # atno 17320 bound_to 7965
  146.2905  140.4306  142.8741 LP  0  0  0  0  0  0  0  0  0  0  0  0  # atno 17321 bound_to 7965
  140.6455  143.8804  150.6733 LP  0  0  0  0  0  0  0  0  0  0  0  0  # atno 17342 bound_to 10162
  140.2152  143.3852  152.1687 LP  0  0  0  0  0  0  0  0  0  0  0  0  # atno 17343 bound_to 10162
  157.7412  130.9866  150.2431 LP  0  0  0  0  0  0  0  0  0  0  0  0  # atno 17370 bound_to 10713
  156.3008  130.3758  149.7752 LP  0  0  0  0  0  0  0  0  0  0  0  0  # atno 17371 bound_to 10713
  140.0905  134.5607  155.8449 LP  0  0  0  0  0  0  0  0  0  0  0  0  # atno 17394 bound_to 11000
  141.2076  133.6666  156.6318 LP  0  0  0  0  0  0  0  0  0  0  0  0  # atno 17395 bound_to 11000

$$$$
