AV-unprocessed.smi:1401|AV-procd|sdf|5693|dock9
  -GOLD-   22720 5323D 1   1.00000     0.00000
 Structure written by MMmdl.
 48 50  0  0  0  0  0  0  0  0  1 V2000
  144.7804  137.5105  156.5540 C   0  0  0  0  0  0  0  0  0  0  0  0
  146.0728  137.0518  157.1739 C   0  0  0  0  0  0  0  0  0  0  0  0
  146.9253  136.4840  156.3853 N   0  0  0  0  0  0  0  0  0  0  0  0
  148.1396  136.0211  156.8533 N   0  0  0  0  0  0  0  0  0  0  0  0
  148.9661  135.3589  155.8344 C   0  0  0  0  0  0  0  0  0  0  0  0
  148.2272  134.1898  155.1712 C   0  0  0  0  0  0  0  0  0  0  0  0
  147.3922  133.5461  155.8072 O   0  0  0  0  0  0  0  0  0  0  0  0
  148.5530  133.9280  153.8955 N   0  0  0  0  0  0  0  0  0  0  0  0
  148.0292  132.8298  153.0853 C   0  0  1  0  0  0  0  0  0  0  0  0
  148.3909  131.5068  153.7801 C   0  0  0  0  0  0  0  0  0  0  0  0
  146.4987  132.9839  152.8820 C   0  0  2  0  0  0  0  0  0  0  0  0
  145.8973  131.9152  151.9359 C   0  0  0  0  0  0  0  0  0  0  0  0
  145.1521  132.7507  150.8798 C   0  0  1  0  0  0  0  0  0  0  0  0
  143.9149  133.4054  151.5201 C   0  0  0  0  0  0  0  0  0  0  0  0
  144.5359  134.4942  152.4138 C   0  0  0  0  0  0  0  0  0  0  0  0
  146.0474  134.2980  152.1894 C   0  0  2  0  0  0  0  0  0  0  0  0
  146.0908  133.9375  150.7090 C   0  0  0  0  0  0  0  0  0  0  0  0
  148.5674  136.1304  158.1447 C   0  0  0  0  0  0  0  0  0  0  0  0
  149.6684  135.7193  158.5154 O   0  0  0  0  0  0  0  0  0  0  0  0
  147.5956  136.7714  159.0325 C   0  0  0  0  0  0  0  0  0  0  0  0
  147.9986  136.8923  160.3964 C   0  0  0  0  0  0  0  0  0  0  0  0
  148.3096  136.9804  161.5080 N   0  0  0  0  0  0  0  0  0  0  0  0
  146.3932  137.2157  158.5884 C   0  0  0  0  0  0  0  0  0  0  0  0
  145.3492  137.8862  159.4708 C   0  0  0  0  0  0  0  0  0  0  0  0
  144.6208  138.5741  156.7319 H   0  0  0  0  0  0  0  0  0  0  0  0
  143.9356  136.9654  156.9755 H   0  0  0  0  0  0  0  0  0  0  0  0
  144.7685  137.3524  155.4744 H   0  0  0  0  0  0  0  0  0  0  0  0
  149.2503  136.0665  155.0537 H   0  0  0  0  0  0  0  0  0  0  0  0
  149.9043  135.0169  156.2761 H   0  0  0  0  0  0  0  0  0  0  0  0
  149.2502  134.5150  153.4609 H   0  0  0  0  0  0  0  0  0  0  0  0
  148.5161  132.8294  152.1087 H   0  0  0  0  0  0  0  0  0  0  0  0
  148.0737  130.6441  153.1945 H   0  0  0  0  0  0  0  0  0  0  0  0
  147.9200  131.4318  154.7608 H   0  0  0  0  0  0  0  0  0  0  0  0
  149.4688  131.4210  153.9218 H   0  0  0  0  0  0  0  0  0  0  0  0
  146.0229  132.9171  153.8619 H   0  0  0  0  0  0  0  0  0  0  0  0
  146.6757  131.3247  151.4513 H   0  0  0  0  0  0  0  0  0  0  0  0
  145.2372  131.2227  152.4594 H   0  0  0  0  0  0  0  0  0  0  0  0
  144.9325  132.2017  149.9638 H   0  0  0  0  0  0  0  0  0  0  0  0
  143.2732  133.8533  150.7602 H   0  0  0  0  0  0  0  0  0  0  0  0
  143.3161  132.6916  152.0869 H   0  0  0  0  0  0  0  0  0  0  0  0
  144.2227  135.4850  152.0820 H   0  0  0  0  0  0  0  0  0  0  0  0
  144.2509  134.3897  153.4613 H   0  0  0  0  0  0  0  0  0  0  0  0
  146.6206  135.1835  152.4581 H   0  0  0  0  0  0  0  0  0  0  0  0
  147.0856  133.6598  150.3571 H   0  0  0  0  0  0  0  0  0  0  0  0
  145.6882  134.7185  150.0615 H   0  0  0  0  0  0  0  0  0  0  0  0
  145.6317  137.8773  160.5229 H   0  0  0  0  0  0  0  0  0  0  0  0
  144.3892  137.3754  159.3896 H   0  0  0  0  0  0  0  0  0  0  0  0
  145.2120  138.9264  159.1744 H   0  0  0  0  0  0  0  0  0  0  0  0
  1  2  1  0  0  0  0
  1 25  1  0  0  0  0
  1 26  1  0  0  0  0
  1 27  1  0  0  0  0
  2 23  1  0  0  0  0
  2  3  2  0  0  0  0
  3  4  1  0  0  0  0
  4  5  1  0  0  0  0
  4 18  1  0  0  0  0
  5  6  1  0  0  0  0
  5 28  1  0  0  0  0
  5 29  1  0  0  0  0
  6  7  2  0  0  0  0
  6  8  1  0  0  0  0
  8  9  1  0  0  0  0
  8 30  1  0  0  0  0
  9 10  1  0  0  0  0
  9 11  1  0  0  0  0
  9 31  1  0  0  0  0
 10 32  1  0  0  0  0
 10 33  1  0  0  0  0
 10 34  1  0  0  0  0
 11 16  1  0  0  0  0
 11 12  1  0  0  0  0
 11 35  1  0  0  0  0
 12 13  1  0  0  0  0
 12 36  1  0  0  0  0
 12 37  1  0  0  0  0
 13 17  1  0  0  0  0
 13 14  1  0  0  0  0
 13 38  1  0  0  0  0
 14 15  1  0  0  0  0
 14 39  1  0  0  0  0
 14 40  1  0  0  0  0
 15 16  1  0  0  0  0
 15 41  1  0  0  0  0
 15 42  1  0  0  0  0
 16 17  1  0  0  0  0
 16 43  1  0  0  0  0
 17 44  1  0  0  0  0
 17 45  1  0  0  0  0
 18 19  2  0  0  0  0
 18 20  1  0  0  0  0
 20 21  1  0  0  0  0
 20 23  2  0  0  0  0
 21 22  3  0  0  0  0
 23 24  1  0  0  0  0
 24 46  1  0  0  0  0
 24 47  1  0  0  0  0
 24 48  1  0  0  0  0
M  END
> <s_m_source_file>
AV-unprocessed.smi

> <i_m_source_file_index>
1401

> <i_lp_mmshare_version>
43012

> <i_f3d_flags>
0

> <s_epik_input>
TiNDYyhjMVtDSDNdKWMoPU8pbihuYzFbQ0gzXSlbQ0gyXUMoPU8pW05IXVtDQEhdKFtDSDNdKVtDQEhdKFtDSDJdW0NASF0yMylbQ0BIXShbQ0gyXTMpW0NIMl1bQ0gyXTI=

> <s_epik_cmdline>
J2VwaWtfcHl0aG9uJywgJy1waCcsICc3LjAnLCAnLXRuJywgJzgnLCAnLW1hJywgJzIwMCcsICctbWV0YWxfYmluZGluZycsICctaW1hZScsICc8aW5maWxlLm1hZT4nLCAnLW9tYWUnLCAnPG91dGZpbGUubWFlPic=

> <r_lp_tautomer_probability>
1

> <r_epik_Ionization_Penalty>
2.16501e-08

> <r_epik_Ionization_Penalty_Charging>
2.29436e-11

> <r_epik_Ionization_Penalty_Neutral>
2.16271e-08

> <r_epik_State_Penalty>
-0

> <r_epik_Charging_Adjusted_Penalty>
2.29436e-11

> <i_epik_Tot_Q>
0

> <i_epik_Tot_abs_Q>
0

> <r_epik_Metal_State_Penalty>
-0

> <b_epik_Metal_Only>
0

> <s_lp_Force_Field>
OPLS_2005

> <r_lp_Energy>
65.2014

> <b_lp_Chiralities_Consistent>
1

> <s_lp_Variant>
AV-unprocessed.smi:1401-6

> <Gold.Version>
5.8.1

> <Gold.Id.Protein>
6NUR|6NUR_protein|mol2

> <Gold.PLP.Fitness>
36.3971

> <Gold.PLP.PLP>
-28.9685

> <Gold.PLP.part.hbond>
-3.0000

> <Gold.PLP.part.metal>
0.0000

> <Gold.PLP.part.buried>
-4.2318

> <Gold.PLP.part.nonpolar>
-21.0552

> <Gold.PLP.part.repulsive>
0.0031

> <Gold.PLP.ligand.clash>
0.0000

> <Gold.PLP.ligand.torsion>
0.4007

> <Gold.PLP.Chemscore.Hbond>
2.7360

> <Gold.PLP.Chemscore.CHOScore>
0.0000

> <Gold.PLP.Chemscore.Metal>
0.0000

> <Gold.Chemscore.Hbonds>
donor molecule, donor type, donor heavy atom, donor atom, acceptor molecule, acceptor atom, score
      L1  H     8    30       P1  7948  0.10
      P1  H  6896  6908       L1    19  1.00
      P1  H  6931  6943       L1    22  0.96

> <Gold.PLP.Chemscore.Internal.Correction>
0.0219

> <Gold.Rescore>
     Score         DG    S(hbond)    S(metal)    S(lipo)     H(rot)  DE(clash)    DE(int)     intcor
     12.36     -14.94       2.05        0.00      58.05       1.63       0.00       2.58       ----

> <Gold.Chemscore.Fitness>
12.3616

> <Gold.Chemscore.DG>
-14.9372

> <Gold.Chemscore.ZeroCoef>
-5.4800

> <Gold.Chemscore.Hbond>
2.0457

> <Gold.Chemscore.Metal>
0.0000

> <Gold.Chemscore.Lipo>
58.0550

> <Gold.Chemscore.Internal_Hbond>
0.0000

> <Gold.Chemscore.DEClash>
0.0000

> <Gold.Chemscore.DEInternal>
2.5756

> <Gold.Chemscore.Rot>
1.6281

> <Gold.Chemscore.Internal.Correction>
   9.000000E+99

> <Gold.Chemscore.Hbonds>
donor molecule, donor type, donor heavy atom, donor atom, acceptor molecule, acceptor atom, score
      L1  H     8    30       P1  7948  0.01
      P1  H  6896  6908       L1    19  1.00
      P1  H  6931  6943       L1    22  0.85

> <Gold.Chemscore.Hbond.Weighted>
-6.8326

> <Gold.Chemscore.Metal.Weighted>
-0.0000

> <Gold.Chemscore.Lipo.Weighted>
-6.7924

> <Gold.Chemscore.Internal_Hbond.Weighted>
0.0000

> <Gold.Chemscore.DEClash.Weighted>
0.0000

> <Gold.Chemscore.DEInternal.Weighted>
2.5756

> <Gold.Chemscore.Rot.Weighted>
4.1678

> <Gold.Chemscore.Internal.Correction.Weighted>
   9.000000E+99

> <Gold.Protein.RotatedTorsions>
[ 6907 6896 6895 6894 ] final -177.41 input  -60.11 | X-H torsion
[ 7974 7965 7964 7962 ] final  -38.85 input  175.53 | X-H torsion
[ 8008 7997 7996 7995 ] final   -6.28 input   59.86 | X-H torsion
[ 10167 10162 10161 10158 ] final -130.99 input  -65.29 | X-H torsion
[ 10718 10713 10712 10709 ] final   62.70 input   66.30 | X-H torsion
[ 10763 10752 10751 10750 ] final  137.86 input  -60.55 | X-H torsion
[ 11005 11000 10999 10996 ] final -123.77 input  -57.11 | X-H torsion

> <Gold.Protein.ActiveResidues>
 VAL166  LYS551  ARG553  GLY616  TRP617  ASP618  TYR619  PRO620  LYS621  CYS622 
 ASP623  PHE694  ASN695  SER759  ASP760  ASP761  ALA762  ILE779  LEU786  VAL792 
 PHE793  MET794  SER795  GLU796  ALA797  LYS798  CYS799  TRP800  GLU811  SER814 

> <Gold.Protein.RotatedAtoms>
  151.6205  133.3339  159.3086 H   0  0  0  0  0  0  0  0  0  0  0  0  # atno 6907 bound_to 6896
  150.8109  134.7266  159.6698 H   0  0  0  0  0  0  0  0  0  0  0  0  # atno 6908 bound_to 6896
  152.4205  134.5969  160.0041 H   0  0  0  0  0  0  0  0  0  0  0  0  # atno 6909 bound_to 6896
  146.0449  140.6559  142.9069 H   0  0  0  0  0  0  0  0  0  0  0  0  # atno 7974 bound_to 7965
  154.5953  140.2437  155.7865 H   0  0  0  0  0  0  0  0  0  0  0  0  # atno 8008 bound_to 7997
  156.2275  140.2978  156.0057 H   0  0  0  0  0  0  0  0  0  0  0  0  # atno 8009 bound_to 7997
  155.2303  140.0403  157.2951 H   0  0  0  0  0  0  0  0  0  0  0  0  # atno 8010 bound_to 7997
  139.9236  143.6354  152.2547 H   0  0  0  0  0  0  0  0  0  0  0  0  # atno 10167 bound_to 10162
  157.5920  130.9065  149.9622 H   0  0  0  0  0  0  0  0  0  0  0  0  # atno 10718 bound_to 10713
  153.8800  135.3045  155.3445 H   0  0  0  0  0  0  0  0  0  0  0  0  # atno 10763 bound_to 10752
  154.7766  135.4858  153.9759 H   0  0  0  0  0  0  0  0  0  0  0  0  # atno 10764 bound_to 10752
  153.1357  135.6813  153.9204 H   0  0  0  0  0  0  0  0  0  0  0  0  # atno 10765 bound_to 10752
  140.9893  134.0561  157.3673 H   0  0  0  0  0  0  0  0  0  0  0  0  # atno 11005 bound_to 11000
  144.7093  140.3975  143.7093 LP  0  0  0  0  0  0  0  0  0  0  0  0  # atno 17320 bound_to 7965
  145.6822  139.1621  143.2694 LP  0  0  0  0  0  0  0  0  0  0  0  0  # atno 17321 bound_to 7965
  139.6841  144.7653  151.1555 LP  0  0  0  0  0  0  0  0  0  0  0  0  # atno 17342 bound_to 10162
  140.7656  143.5682  150.9024 LP  0  0  0  0  0  0  0  0  0  0  0  0  # atno 17343 bound_to 10162
  156.0976  130.3658  150.0278 LP  0  0  0  0  0  0  0  0  0  0  0  0  # atno 17370 bound_to 10713
  156.8399  130.9422  151.3632 LP  0  0  0  0  0  0  0  0  0  0  0  0  # atno 17371 bound_to 10713
  139.8985  135.0155  156.7151 LP  0  0  0  0  0  0  0  0  0  0  0  0  # atno 17394 bound_to 11000
  140.7065  133.9261  155.8057 LP  0  0  0  0  0  0  0  0  0  0  0  0  # atno 17395 bound_to 11000

$$$$
