AV-unprocessed.smi:1047|AV-procd|sdf|4595|dock6
  -GOLD-   22720 3 83D 1   1.00000     0.00000
 Structure written by MMmdl.
 55 57  0  0  0  0  0  0  0  0  1 V2000
  143.6698  147.3761  155.3284 C   0  0  0  0  0  0  0  0  0  0  0  0
  142.7938  146.1150  155.3204 C   0  0  0  0  0  0  0  0  0  0  0  0
  143.4710  144.8912  155.7458 N   0  0  0  0  0  0  0  0  0  0  0  0
  144.0313  145.0423  157.0840 C   0  0  0  0  0  0  0  0  0  0  0  0
  144.7561  143.7692  157.5511 C   0  0  0  0  0  0  0  0  0  0  0  0
  145.7649  143.4259  156.6073 O   0  0  0  0  0  0  0  0  0  0  0  0
  145.2475  143.2039  155.2973 C   0  0  2  0  0  0  0  0  0  0  0  0
  146.4159  142.8276  154.3755 C   0  0  0  0  0  0  0  0  0  0  0  0
  147.5433  142.3152  155.1468 N   0  0  0  0  0  0  0  0  0  0  0  0
  147.8591  140.9180  154.8676 C   0  0  0  0  0  0  0  0  0  0  0  0
  149.3795  140.6929  154.8058 C   0  0  1  0  0  0  0  0  0  0  0  0
  149.7889  140.7456  153.4524 O   0  0  0  0  0  0  0  0  0  0  0  0
  150.1503  141.7637  155.6015 C   0  0  0  0  0  0  0  0  0  0  0  0
  151.1077  141.1824  156.5256 N   0  0  0  0  0  0  0  0  0  0  0  0
  151.7302  139.9930  156.4148 C   0  0  0  0  0  0  0  0  0  0  0  0
  152.5707  139.6526  157.3877 N   0  0  0  0  0  0  0  0  0  0  0  0
  152.4830  140.7493  158.2282 C   0  0  0  0  0  0  0  0  0  0  0  0
  153.1295  141.0194  159.4542 C   0  0  0  0  0  0  0  0  0  0  0  0
  152.8870  142.2244  160.1517 C   0  0  0  0  0  0  0  0  0  0  0  0
  153.6039  142.4737  161.4669 C   0  0  0  0  0  0  0  0  0  0  0  0
  151.9853  143.1826  159.6225 C   0  0  0  0  0  0  0  0  0  0  0  0
  151.7123  144.4863  160.3515 C   0  0  0  0  0  0  0  0  0  0  0  0
  151.3292  142.9276  158.3999 C   0  0  0  0  0  0  0  0  0  0  0  0
  151.5786  141.7249  157.7159 C   0  0  0  0  0  0  0  0  0  0  0  0
  144.5355  144.4888  154.8287 C   0  0  0  0  0  0  0  0  0  0  0  0
  143.1314  148.2181  154.8930 H   0  0  0  0  0  0  0  0  0  0  0  0
  144.5786  147.2272  154.7445 H   0  0  0  0  0  0  0  0  0  0  0  0
  143.9590  147.6657  156.3384 H   0  0  0  0  0  0  0  0  0  0  0  0
  141.9078  146.2827  155.9347 H   0  0  0  0  0  0  0  0  0  0  0  0
  142.4302  145.9781  154.3011 H   0  0  0  0  0  0  0  0  0  0  0  0
  144.7308  145.8797  157.0993 H   0  0  0  0  0  0  0  0  0  0  0  0
  143.2386  145.2850  157.7926 H   0  0  0  0  0  0  0  0  0  0  0  0
  145.2184  143.9316  158.5248 H   0  0  0  0  0  0  0  0  0  0  0  0
  144.0542  142.9413  157.6629 H   0  0  0  0  0  0  0  0  0  0  0  0
  144.5250  142.3853  155.3224 H   0  0  0  0  0  0  0  0  0  0  0  0
  146.0885  142.0641  153.6687 H   0  0  0  0  0  0  0  0  0  0  0  0
  146.7155  143.6938  153.7843 H   0  0  0  0  0  0  0  0  0  0  0  0
  148.3612  142.8935  154.9809 H   0  0  0  0  0  0  0  0  0  0  0  0
  147.4015  140.2596  155.6072 H   0  0  0  0  0  0  0  0  0  0  0  0
  147.4241  140.6479  153.9043 H   0  0  0  0  0  0  0  0  0  0  0  0
  149.6261  139.7094  155.2091 H   0  0  0  0  0  0  0  0  0  0  0  0
  149.5080  139.9529  153.0221 H   0  0  0  0  0  0  0  0  0  0  0  0
  150.6785  142.4391  154.9265 H   0  0  0  0  0  0  0  0  0  0  0  0
  149.4564  142.3780  156.1768 H   0  0  0  0  0  0  0  0  0  0  0  0
  151.5529  139.3381  155.5741 H   0  0  0  0  0  0  0  0  0  0  0  0
  153.8162  140.2890  159.8564 H   0  0  0  0  0  0  0  0  0  0  0  0
  154.2367  143.3587  161.3947 H   0  0  0  0  0  0  0  0  0  0  0  0
  154.2375  141.6298  161.7417 H   0  0  0  0  0  0  0  0  0  0  0  0
  152.8846  142.6267  162.2718 H   0  0  0  0  0  0  0  0  0  0  0  0
  150.9941  145.1020  159.8096 H   0  0  0  0  0  0  0  0  0  0  0  0
  152.6317  145.0623  160.4608 H   0  0  0  0  0  0  0  0  0  0  0  0
  151.3043  144.2923  161.3437 H   0  0  0  0  0  0  0  0  0  0  0  0
  150.6382  143.6470  157.9859 H   0  0  0  0  0  0  0  0  0  0  0  0
  144.1272  144.3163  153.8333 H   0  0  0  0  0  0  0  0  0  0  0  0
  145.2649  145.2949  154.7325 H   0  0  0  0  0  0  0  0  0  0  0  0
  1  2  1  0  0  0  0
  1 26  1  0  0  0  0
  1 27  1  0  0  0  0
  1 28  1  0  0  0  0
  2  3  1  0  0  0  0
  2 29  1  0  0  0  0
  2 30  1  0  0  0  0
  3 25  1  0  0  0  0
  3  4  1  0  0  0  0
  4  5  1  0  0  0  0
  4 31  1  0  0  0  0
  4 32  1  0  0  0  0
  5  6  1  0  0  0  0
  5 33  1  0  0  0  0
  5 34  1  0  0  0  0
  6  7  1  0  0  0  0
  7  8  1  0  0  0  0
  7 25  1  0  0  0  0
  7 35  1  0  0  0  0
  8  9  1  0  0  0  0
  8 36  1  0  0  0  0
  8 37  1  0  0  0  0
  9 10  1  0  0  0  0
  9 38  1  0  0  0  0
 10 11  1  0  0  0  0
 10 39  1  0  0  0  0
 10 40  1  0  0  0  0
 11 12  1  0  0  0  0
 11 13  1  0  0  0  0
 11 41  1  0  0  0  0
 12 42  1  0  0  0  0
 13 14  1  0  0  0  0
 13 43  1  0  0  0  0
 13 44  1  0  0  0  0
 14 24  1  0  0  0  0
 14 15  1  0  0  0  0
 15 16  2  0  0  0  0
 15 45  1  0  0  0  0
 16 17  1  0  0  0  0
 17 24  2  0  0  0  0
 17 18  1  0  0  0  0
 18 19  2  0  0  0  0
 18 46  1  0  0  0  0
 19 20  1  0  0  0  0
 19 21  1  0  0  0  0
 20 47  1  0  0  0  0
 20 48  1  0  0  0  0
 20 49  1  0  0  0  0
 21 22  1  0  0  0  0
 21 23  2  0  0  0  0
 22 50  1  0  0  0  0
 22 51  1  0  0  0  0
 22 52  1  0  0  0  0
 23 24  1  0  0  0  0
 23 53  1  0  0  0  0
 25 54  1  0  0  0  0
 25 55  1  0  0  0  0
M  END
> <s_m_source_file>
AV-unprocessed.smi

> <i_m_source_file_index>
1047

> <i_lp_mmshare_version>
43012

> <i_f3d_flags>
0

> <s_epik_input>
W0NIM11bQ0gyXU4xW0NIMl1bQ0gyXU9bQ0BIXShbQ0gyXTEpW0NIMl1bTkhdW0NIMl1bQ0BIXShbT0hdKVtDSDJdbihbY0hdbjIpYyhjMjMpW2NIXWMoW0NIM10pYyhbY0hdMylbQ0gzXQ==

> <s_epik_cmdline>
J2VwaWtfcHl0aG9uJywgJy1waCcsICc3LjAnLCAnLXRuJywgJzgnLCAnLW1hJywgJzIwMCcsICctbWV0YWxfYmluZGluZycsICctaW1hZScsICc8aW5maWxlLm1hZT4nLCAnLW9tYWUnLCAnPG91dGZpbGUubWFlPic=

> <r_epik_Ionization_Penalty>
2.74124

> <r_epik_Ionization_Penalty_Charging>
0

> <r_epik_Ionization_Penalty_Neutral>
2.74124

> <r_epik_State_Penalty>
2.37482

> <r_epik_Charging_Adjusted_Penalty>
2.37482

> <i_epik_Tot_Q>
0

> <i_epik_Tot_abs_Q>
0

> <r_epik_Metal_State_Penalty>
2.25944

> <b_epik_Metal_Only>
0

> <s_lp_Force_Field>
OPLS_2005

> <r_lp_Energy>
34.1371

> <b_lp_Chiralities_Consistent>
1

> <s_lp_Variant>
AV-unprocessed.smi:1047-36

> <Gold.Version>
5.8.1

> <Gold.Id.Protein>
6NUR|6NUR_protein|mol2

> <Gold.PLP.Fitness>
55.3154

> <Gold.PLP.PLP>
-52.0111

> <Gold.PLP.part.hbond>
-4.2284

> <Gold.PLP.part.metal>
0.0000

> <Gold.PLP.part.buried>
-4.7808

> <Gold.PLP.part.nonpolar>
-42.2616

> <Gold.PLP.part.repulsive>
0.1855

> <Gold.PLP.ligand.clash>
1.6886

> <Gold.PLP.ligand.torsion>
2.7655

> <Gold.PLP.Chemscore.Hbond>
3.4560

> <Gold.PLP.Chemscore.CHOScore>
0.0000

> <Gold.PLP.Chemscore.Metal>
0.0000

> <Gold.Chemscore.Hbonds>
donor molecule, donor type, donor heavy atom, donor atom, acceptor molecule, acceptor atom, score
      L1  H     9    38       P1  8028  0.64
      L1  H    12    42       P1  7957  0.27
      P1  H  7989  7998       L1    12  0.35
      P1  H  7997  8008       L1    16  0.90
      P1  H  8011  8017       L1    12  1.00

> <Gold.PLP.Chemscore.Internal.Correction>
0.1560

> <Gold.Rescore>
     Score         DG    S(hbond)    S(metal)    S(lipo)     H(rot)  DE(clash)    DE(int)     intcor
     18.62     -21.66       2.15        0.00     132.18       2.52       0.19       2.85       ----

> <Gold.Chemscore.Fitness>
18.6234

> <Gold.Chemscore.DG>
-21.6583

> <Gold.Chemscore.ZeroCoef>
-5.4800

> <Gold.Chemscore.Hbond>
2.1478

> <Gold.Chemscore.Metal>
0.0000

> <Gold.Chemscore.Lipo>
132.1815

> <Gold.Chemscore.Internal_Hbond>
0.0000

> <Gold.Chemscore.DEClash>
0.1858

> <Gold.Chemscore.DEInternal>
2.8491

> <Gold.Chemscore.Rot>
2.5237

> <Gold.Chemscore.Internal.Correction>
   9.000000E+99

> <Gold.Chemscore.Hbonds>
donor molecule, donor type, donor heavy atom, donor atom, acceptor molecule, acceptor atom, score
      L1  H     9    38       P1  8028  0.62
      L1  H    12    42       P1  7957  0.26
      P1  H  7989  7998       L1    12  0.17
      P1  H  7997  8008       L1    16  0.05
      P1  H  8011  8017       L1    12  0.87

> <Gold.Chemscore.Hbond.Weighted>
-7.1737

> <Gold.Chemscore.Metal.Weighted>
-0.0000

> <Gold.Chemscore.Lipo.Weighted>
-15.4652

> <Gold.Chemscore.Internal_Hbond.Weighted>
0.0000

> <Gold.Chemscore.DEClash.Weighted>
0.1858

> <Gold.Chemscore.DEInternal.Weighted>
2.8491

> <Gold.Chemscore.Rot.Weighted>
6.4607

> <Gold.Chemscore.Internal.Correction.Weighted>
   9.000000E+99

> <Gold.Protein.RotatedTorsions>
[ 6907 6896 6895 6894 ] final  158.08 input  -60.11 | X-H torsion
[ 7974 7965 7964 7962 ] final  -49.53 input  175.53 | X-H torsion
[ 8008 7997 7996 7995 ] final  -52.81 input   59.86 | X-H torsion
[ 10167 10162 10161 10158 ] final -139.87 input  -65.29 | X-H torsion
[ 10718 10713 10712 10709 ] final   10.67 input   66.30 | X-H torsion
[ 10763 10752 10751 10750 ] final   92.38 input  -60.55 | X-H torsion
[ 11005 11000 10999 10996 ] final  -96.86 input  -57.11 | X-H torsion

> <Gold.Protein.ActiveResidues>
 VAL166  LYS551  ARG553  GLY616  TRP617  ASP618  TYR619  PRO620  LYS621  CYS622 
 ASP623  PHE694  ASN695  SER759  ASP760  ASP761  ALA762  ILE779  LEU786  VAL792 
 PHE793  MET794  SER795  GLU796  ALA797  LYS798  CYS799  TRP800  GLU811  SER814 

> <Gold.Protein.RotatedAtoms>
  152.0057  133.3842  159.4199 H   0  0  0  0  0  0  0  0  0  0  0  0  # atno 6907 bound_to 6896
  150.6905  134.3785  159.5033 H   0  0  0  0  0  0  0  0  0  0  0  0  # atno 6908 bound_to 6896
  152.1538  134.8966  160.0597 H   0  0  0  0  0  0  0  0  0  0  0  0  # atno 6909 bound_to 6896
  145.9396  140.7675  142.9559 H   0  0  0  0  0  0  0  0  0  0  0  0  # atno 7974 bound_to 7965
  154.4116  140.1215  156.5052 H   0  0  0  0  0  0  0  0  0  0  0  0  # atno 8008 bound_to 7997
  155.6855  140.3496  155.4853 H   0  0  0  0  0  0  0  0  0  0  0  0  # atno 8009 bound_to 7997
  155.9514  140.1105  157.0963 H   0  0  0  0  0  0  0  0  0  0  0  0  # atno 8010 bound_to 7997
  139.8337  143.7413  152.2665 H   0  0  0  0  0  0  0  0  0  0  0  0  # atno 10167 bound_to 10162
  156.9843  130.6018  149.5679 H   0  0  0  0  0  0  0  0  0  0  0  0  # atno 10718 bound_to 10713
  153.2185  135.4363  155.0462 H   0  0  0  0  0  0  0  0  0  0  0  0  # atno 10763 bound_to 10752
  154.8238  135.3350  154.6962 H   0  0  0  0  0  0  0  0  0  0  0  0  # atno 10764 bound_to 10752
  153.7395  135.7005  153.5026 H   0  0  0  0  0  0  0  0  0  0  0  0  # atno 10765 bound_to 10752
  141.1398  133.8128  157.0628 H   0  0  0  0  0  0  0  0  0  0  0  0  # atno 11005 bound_to 11000
  144.6777  140.2258  143.7361 LP  0  0  0  0  0  0  0  0  0  0  0  0  # atno 17320 bound_to 7965
  145.8318  139.2089  143.1878 LP  0  0  0  0  0  0  0  0  0  0  0  0  # atno 17321 bound_to 7965
  139.7628  144.7501  151.0338 LP  0  0  0  0  0  0  0  0  0  0  0  0  # atno 17342 bound_to 10162
  140.7804  143.4731  151.0119 LP  0  0  0  0  0  0  0  0  0  0  0  0  # atno 17343 bound_to 10162
  156.0232  130.5326  150.8333 LP  0  0  0  0  0  0  0  0  0  0  0  0  # atno 17370 bound_to 10713
  157.5504  131.0943  150.9704 LP  0  0  0  0  0  0  0  0  0  0  0  0  # atno 17371 bound_to 10713
  140.0561  134.9780  157.1222 LP  0  0  0  0  0  0  0  0  0  0  0  0  # atno 17394 bound_to 11000
  140.3918  134.2177  155.7166 LP  0  0  0  0  0  0  0  0  0  0  0  0  # atno 17395 bound_to 11000

$$$$
