#       Name:                AV-unprocessed.smi:3335
#       Creating user name   scv26
#       Creation time:       Fri Mar 27 19:24:08 2020


#       File generated by GOLD software.
#

@<TRIPOS>MOLECULE
AV-unprocessed.smi:3335
    50    51     1
SMALL
NO_CHARGES


@<TRIPOS>ATOM
      1 ****        -4.9913  -2.5142   1.8203 C.3            1 S1                 0.0000
      2 ****        -4.2685  -1.3950   1.1282 C.2            1 S1                 0.0000
      3 ****        -4.0613  -0.0664   1.5942 C.2            1 S1                 0.0000
      4 ****        -3.3736   0.6747   0.7421 N.2            1 S1                 0.0000
      5 ****        -3.1233  -0.1455  -0.3038 N.pl3          1 S1                 0.0000
      6 ****        -2.3418   0.3186  -1.4487 C.3            1 S1                 0.0000
      7 ****        -2.8065   1.6990  -1.9541 C.3            1 S1                 0.0000
      8 ****        -0.8081   0.2344  -1.2161 C.3            1 S1                 0.0000
      9 ****        -0.3605  -1.2016  -0.8745 C.3            1 S1                 0.0000
     10 ****        -0.4192   1.1967  -0.1806 N.3            1 S1                 0.0000
     11 ****         1.0167   1.5064  -0.0588 C.3            1 S1                 0.0000
     12 ****         1.1837   2.9242   0.5089 C.3            1 S1                 0.0000
     13 ****         1.7641   0.5034   0.8453 C.2            1 S1                 0.0000
     14 ****         1.2195   0.1230   1.8833 O.2            1 S1                 0.0000
     15 ****         2.9856   0.0580   0.4793 N.am           1 S1                 0.0000
     16 ****         3.7407  -0.9257   1.2536 C.3            1 S1                 0.0000
     17 ****         4.9195  -1.3350   0.3712 C.3            1 S1                 0.0000
     18 ****         5.1363  -0.1340  -0.5375 C.3            1 S1                 0.0000
     19 ****         3.7394   0.4631  -0.7069 C.3            1 S1                 0.0000
     20 ****        -3.6481  -1.4039  -0.0887 C.2            1 S1                 0.0000
     21 ****        -5.3323  -2.2237   2.8142 H              1 S1                 0.0000
     22 ****        -4.3530  -3.3891   1.9432 H              1 S1                 0.0000
     23 ****        -5.8702  -2.8320   1.2595 H              1 S1                 0.0000
     24 ****        -4.3848   0.3780   2.5239 H              1 S1                 0.0000
     25 ****        -2.5671  -0.3756  -2.2598 H              1 S1                 0.0000
     26 ****        -2.2776   1.9778  -2.8659 H              1 S1                 0.0000
     27 ****        -2.6319   2.4854  -1.2195 H              1 S1                 0.0000
     28 ****        -3.8724   1.6920  -2.1830 H              1 S1                 0.0000
     29 ****        -0.3251   0.5258  -2.1498 H              1 S1                 0.0000
     30 ****        -0.7950  -1.9198  -1.5699 H              1 S1                 0.0000
     31 ****        -0.6626  -1.4924   0.1321 H              1 S1                 0.0000
     32 ****         0.7200  -1.3160  -0.9493 H              1 S1                 0.0000
     33 ****        -0.8458   0.9776   0.7091 H              1 S1                 0.0000
     34 ****         1.4379   1.5126  -1.0629 H              1 S1                 0.0000
     35 ****         2.2364   3.1988   0.5876 H              1 S1                 0.0000
     36 ****         0.7411   3.0153   1.5020 H              1 S1                 0.0000
     37 ****         0.7029   3.6612  -0.1351 H              1 S1                 0.0000
     38 ****         4.0939  -0.4584   2.1739 H              1 S1                 0.0000
     39 ****         3.1319  -1.7901   1.5235 H              1 S1                 0.0000
     40 ****         5.8076  -1.5973   0.9467 H              1 S1                 0.0000
     41 ****         4.6422  -2.2016  -0.2303 H              1 S1                 0.0000
     42 ****         5.7845   0.5877  -0.0387 H              1 S1                 0.0000
     43 ****         5.6010  -0.3999  -1.4872 H              1 S1                 0.0000
     44 ****         3.2565   0.0512  -1.5943 H              1 S1                 0.0000
     45 ****         3.7895   1.5475  -0.8137 H              1 S1                 0.0000
     46 ****        -3.5328  -2.1974  -0.8122 H              1 S1                 0.0000
     47 ****        -3.0991   1.6305   0.8476 LP             1 S1                 0.0000
     48 ****        -0.7933   2.0616  -0.5153 LP             1 S1                 0.0000
     49 ****         0.3111   0.4640   2.1252 LP             1 S1                 0.0000
     50 ****         1.6860  -0.5266   2.4836 LP             1 S1                 0.0000
@<TRIPOS>BOND
    1    1    2 1     
    2    1   21 1     
    3    1   22 1     
    4    1   23 1     
    5    2   20 2     
    6    2    3 1     
    7    3    4 2     
    8    3   24 1     
    9    4    5 1     
   10    5    6 1     
   11    5   20 1     
   12    6    7 1     
   13    6    8 1     
   14    6   25 1     
   15    7   26 1     
   16    7   27 1     
   17    7   28 1     
   18    8    9 1     
   19    8   10 1     
   20    8   29 1     
   21    9   30 1     
   22    9   31 1     
   23    9   32 1     
   24   10   11 1     
   25   10   33 1     
   26   11   12 1     
   27   11   13 1     
   28   11   34 1     
   29   12   35 1     
   30   12   36 1     
   31   12   37 1     
   32   13   14 2     
   33   13   15 am    
   34   15   19 1     
   35   15   16 1     
   36   16   17 1     
   37   16   38 1     
   38   16   39 1     
   39   17   18 1     
   40   17   40 1     
   41   17   41 1     
   42   18   19 1     
   43   18   42 1     
   44   18   43 1     
   45   19   44 1     
   46   19   45 1     
   47   20   46 1     
   48    4   47 1     
   49   10   48 1     
   50   14   49 1     
   51   14   50 1     
@<TRIPOS>SUBSTRUCTURE
      1 S1             1
@<TRIPOS>SET
LONE_PAIRS      STATIC     ATOMS    <user>   **** ""
4 47 48 49 50
DONOR_HYDROGENS      STATIC     ATOMS    <user>   **** ""
1 33
ATOM$BLUE        STATIC     ATOMS    COLORGROUP SYSTEM
4 47 48 49 50
ATOM$RED        STATIC     ATOMS    COLORGROUP SYSTEM
1 33
