AV-unprocessed.smi:515|AV-procd|sdf|2780|dock10
  -GOLD-   2262023253D 1   1.00000     0.00000
 Structure written by MMmdl.
 47 49  0  0  0  0  0  0  0  0  1 V2000
  147.0575  139.0716  153.2711 C   0  0  0  0  0  0  0  0  0  0  0  0
  147.3535  140.1753  154.2868 C   0  0  0  0  0  0  0  0  0  0  0  0
  147.0421  139.7094  155.5894 O   0  0  0  0  0  0  0  0  0  0  0  0
  148.1139  138.9836  156.1682 C   0  0  0  0  0  0  0  0  0  0  0  0
  147.8515  138.7304  157.6609 C   0  0  0  0  0  0  0  0  0  0  0  0
  149.0081  138.1693  158.3544 N   0  0  0  0  0  0  0  0  0  0  0  0
  149.0775  137.0282  159.0919 C   0  0  0  0  0  0  0  0  0  0  0  0
  147.9043  136.1248  159.3389 C   0  0  0  0  0  0  0  0  0  0  0  0
  147.9567  135.4060  160.6111 N   0  0  0  0  0  0  0  0  0  0  0  0
  147.3386  136.1667  161.6967 C   0  0  0  0  0  0  0  0  0  0  0  0
  147.3170  135.3867  163.0233 C   0  0  0  0  0  0  0  0  0  0  0  0
  146.6826  134.1263  162.8365 O   0  0  0  0  0  0  0  0  0  0  0  0
  147.3129  133.3403  161.8313 C   0  0  0  0  0  0  0  0  0  0  0  0
  147.2977  134.1099  160.5004 C   0  0  0  0  0  0  0  0  0  0  0  0
  150.2866  136.7828  159.6082 N   0  0  0  0  0  0  0  0  0  0  0  0
  151.0460  137.8561  159.1693 C   0  0  0  0  0  0  0  0  0  0  0  0
  150.2926  138.7078  158.4301 C   0  0  0  0  0  0  0  0  0  0  0  0
  150.8321  139.9528  157.8680 C   0  0  0  0  0  0  0  0  0  0  0  0
  150.1609  140.7494  157.2157 O   0  0  0  0  0  0  0  0  0  0  0  0
  152.1437  140.1395  158.1531 N   0  0  0  0  0  0  0  0  0  0  0  0
  152.9601  139.3215  158.8856 C   0  0  0  0  0  0  0  0  0  0  0  0
  154.1367  139.6329  159.0700 O   0  0  0  0  0  0  0  0  0  0  0  0
  152.4168  138.1696  159.3953 N   0  0  0  0  0  0  0  0  0  0  0  0
  153.2396  137.2592  160.1935 C   0  0  0  0  0  0  0  0  0  0  0  0
  152.5649  140.9821  157.7901 H   0  0  0  0  0  0  0  0  0  0  0  0
  147.2805  139.4046  152.2575 H   0  0  0  0  0  0  0  0  0  0  0  0
  146.0071  138.7825  153.3045 H   0  0  0  0  0  0  0  0  0  0  0  0
  147.6613  138.1865  153.4718 H   0  0  0  0  0  0  0  0  0  0  0  0
  148.4060  140.4569  154.2285 H   0  0  0  0  0  0  0  0  0  0  0  0
  146.7612  141.0613  154.0532 H   0  0  0  0  0  0  0  0  0  0  0  0
  148.2422  138.0399  155.6382 H   0  0  0  0  0  0  0  0  0  0  0  0
  149.0437  139.5427  156.0555 H   0  0  0  0  0  0  0  0  0  0  0  0
  147.5677  139.6594  158.1555 H   0  0  0  0  0  0  0  0  0  0  0  0
  146.9950  138.0679  157.7666 H   0  0  0  0  0  0  0  0  0  0  0  0
  146.9929  136.7229  159.2917 H   0  0  0  0  0  0  0  0  0  0  0  0
  147.8254  135.4207  158.5115 H   0  0  0  0  0  0  0  0  0  0  0  0
  147.8714  137.1053  161.8492 H   0  0  0  0  0  0  0  0  0  0  0  0
  146.3152  136.4298  161.4251 H   0  0  0  0  0  0  0  0  0  0  0  0
  148.3270  135.2368  163.4015 H   0  0  0  0  0  0  0  0  0  0  0  0
  146.7742  135.9490  163.7831 H   0  0  0  0  0  0  0  0  0  0  0  0
  148.3347  133.1010  162.1297 H   0  0  0  0  0  0  0  0  0  0  0  0
  146.7783  132.3958  161.7299 H   0  0  0  0  0  0  0  0  0  0  0  0
  146.2644  134.2458  160.1767 H   0  0  0  0  0  0  0  0  0  0  0  0
  147.7889  133.5105  159.7331 H   0  0  0  0  0  0  0  0  0  0  0  0
  154.1881  137.0489  159.6969 H   0  0  0  0  0  0  0  0  0  0  0  0
  152.7510  136.3001  160.3652 H   0  0  0  0  0  0  0  0  0  0  0  0
  153.4553  137.7021  161.1667 H   0  0  0  0  0  0  0  0  0  0  0  0
  1  2  1  0  0  0  0
  1 26  1  0  0  0  0
  1 27  1  0  0  0  0
  1 28  1  0  0  0  0
  2  3  1  0  0  0  0
  2 29  1  0  0  0  0
  2 30  1  0  0  0  0
  3  4  1  0  0  0  0
  4  5  1  0  0  0  0
  4 31  1  0  0  0  0
  4 32  1  0  0  0  0
  5  6  1  0  0  0  0
  5 33  1  0  0  0  0
  5 34  1  0  0  0  0
  6 17  1  0  0  0  0
  6  7  1  0  0  0  0
  7  8  1  0  0  0  0
  7 15  2  0  0  0  0
  8  9  1  0  0  0  0
  8 35  1  0  0  0  0
  8 36  1  0  0  0  0
  9 14  1  0  0  0  0
  9 10  1  0  0  0  0
 10 11  1  0  0  0  0
 10 37  1  0  0  0  0
 10 38  1  0  0  0  0
 11 12  1  0  0  0  0
 11 39  1  0  0  0  0
 11 40  1  0  0  0  0
 12 13  1  0  0  0  0
 13 14  1  0  0  0  0
 13 41  1  0  0  0  0
 13 42  1  0  0  0  0
 14 43  1  0  0  0  0
 14 44  1  0  0  0  0
 15 16  1  0  0  0  0
 16 23  1  0  0  0  0
 16 17  2  0  0  0  0
 17 18  1  0  0  0  0
 18 19  2  0  0  0  0
 18 20  1  0  0  0  0
 20 25  1  0  0  0  0
 20 21  1  0  0  0  0
 21 22  2  0  0  0  0
 21 23  1  0  0  0  0
 23 24  1  0  0  0  0
 24 45  1  0  0  0  0
 24 46  1  0  0  0  0
 24 47  1  0  0  0  0
M  END
> <s_m_source_file>
AV-unprocessed.smi

> <i_m_source_file_index>
515

> <i_lp_mmshare_version>
43012

> <i_f3d_flags>
0

> <s_epik_input>
W0NIM11uMWMoPU8pW25IXWMoPU8pYyhjMTIpbihbQ0gyXVtDSDJdT1tDSDJdW0NIM10pYyhuMilbQ0gyXU4zW0NIMl1bQ0gyXU9bQ0gyXVtDSDJdMw==

> <s_epik_cmdline>
J2VwaWtfcHl0aG9uJywgJy1waCcsICc3LjAnLCAnLXRuJywgJzgnLCAnLW1hJywgJzIwMCcsICctbWV0YWxfYmluZGluZycsICctaW1hZScsICc8aW5maWxlLm1hZT4nLCAnLW9tYWUnLCAnPG91dGZpbGUubWFlPic=

> <r_epik_Ionization_Penalty>
0.0971954

> <r_epik_Ionization_Penalty_Charging>
0.000195337

> <r_epik_Ionization_Penalty_Neutral>
0.0970001

> <r_epik_State_Penalty>
0.0871068

> <r_epik_Charging_Adjusted_Penalty>
0.0873021

> <i_epik_Tot_Q>
0

> <i_epik_Tot_abs_Q>
0

> <r_epik_Metal_State_Penalty>
0.234549

> <b_epik_Metal_Only>
0

> <s_lp_Force_Field>
OPLS_2005

> <r_lp_Energy>
38.6843

> <b_lp_Chiralities_Consistent>
1

> <s_lp_Variant>
AV-unprocessed.smi:515-1

> <Gold.Version>
5.8.1

> <Gold.Id.Protein>
6NUR|6NUR_protein|mol2

> <Gold.PLP.Fitness>
39.3699

> <Gold.PLP.PLP>
-35.2539

> <Gold.PLP.part.hbond>
-2.5385

> <Gold.PLP.part.metal>
0.0000

> <Gold.PLP.part.buried>
-6.8761

> <Gold.PLP.part.nonpolar>
-26.4699

> <Gold.PLP.part.repulsive>
0.1279

> <Gold.PLP.ligand.clash>
0.0000

> <Gold.PLP.ligand.torsion>
0.9554

> <Gold.PLP.Chemscore.Hbond>
2.0000

> <Gold.PLP.Chemscore.CHOScore>
0.0000

> <Gold.PLP.Chemscore.Metal>
0.0000

> <Gold.Chemscore.Hbonds>
donor molecule, donor type, donor heavy atom, donor atom, acceptor molecule, acceptor atom, score
      P1  H  6896  6909       L1    15  1.00
      P1  H  7997  8008       L1    22  1.00

> <Gold.PLP.Chemscore.Internal.Correction>
0.0268

> <Gold.Rescore>
     Score         DG    S(hbond)    S(metal)    S(lipo)     H(rot)  DE(clash)    DE(int)     intcor
     10.67     -13.20       1.92        0.00      58.07       2.15       0.06       2.47       ----

> <Gold.Chemscore.Fitness>
10.6748

> <Gold.Chemscore.DG>
-13.2013

> <Gold.Chemscore.ZeroCoef>
-5.4800

> <Gold.Chemscore.Hbond>
1.9223

> <Gold.Chemscore.Metal>
0.0000

> <Gold.Chemscore.Lipo>
58.0694

> <Gold.Chemscore.Internal_Hbond>
0.0000

> <Gold.Chemscore.DEClash>
0.0562

> <Gold.Chemscore.DEInternal>
2.4702

> <Gold.Chemscore.Rot>
2.1458

> <Gold.Chemscore.Internal.Correction>
   9.000000E+99

> <Gold.Chemscore.Hbonds>
donor molecule, donor type, donor heavy atom, donor atom, acceptor molecule, acceptor atom, score
      P1  H  6896  6909       L1    15  0.98
      P1  H  7997  8008       L1    22  0.58

> <Gold.Chemscore.Hbond.Weighted>
-6.4203

> <Gold.Chemscore.Metal.Weighted>
-0.0000

> <Gold.Chemscore.Lipo.Weighted>
-6.7941

> <Gold.Chemscore.Internal_Hbond.Weighted>
0.0000

> <Gold.Chemscore.DEClash.Weighted>
0.0562

> <Gold.Chemscore.DEInternal.Weighted>
2.4702

> <Gold.Chemscore.Rot.Weighted>
5.4932

> <Gold.Chemscore.Internal.Correction.Weighted>
   9.000000E+99

> <Gold.Protein.RotatedTorsions>
[ 6907 6896 6895 6894 ] final   86.87 input  -60.11 | X-H torsion
[ 7974 7965 7964 7962 ] final -121.48 input  175.53 | X-H torsion
[ 8008 7997 7996 7995 ] final -109.89 input   59.86 | X-H torsion
[ 10167 10162 10161 10158 ] final  -16.63 input  -65.29 | X-H torsion
[ 10718 10713 10712 10709 ] final   91.17 input   66.30 | X-H torsion
[ 10763 10752 10751 10750 ] final  139.86 input  -60.55 | X-H torsion
[ 11005 11000 10999 10996 ] final  152.82 input  -57.11 | X-H torsion

> <Gold.Protein.ActiveResidues>
 VAL166  LYS551  ARG553  GLY616  TRP617  ASP618  TYR619  PRO620  LYS621  CYS622 
 ASP623  PHE694  ASN695  SER759  ASP760  ASP761  ALA762  ILE779  LEU786  VAL792 
 PHE793  MET794  SER795  GLU796  ALA797  LYS798  CYS799  TRP800  GLU811  SER814 

> <Gold.Protein.RotatedAtoms>
  152.5402  134.2365  159.8844 H   0  0  0  0  0  0  0  0  0  0  0  0  # atno 6907 bound_to 6896
  151.2334  133.4431  159.2612 H   0  0  0  0  0  0  0  0  0  0  0  0  # atno 6908 bound_to 6896
  151.0694  134.9802  159.8357 H   0  0  0  0  0  0  0  0  0  0  0  0  # atno 6909 bound_to 6896
  145.0399  140.8136  143.4273 H   0  0  0  0  0  0  0  0  0  0  0  0  # atno 7974 bound_to 7965
  154.9662  140.0398  157.2213 H   0  0  0  0  0  0  0  0  0  0  0  0  # atno 8008 bound_to 7997
  154.7843  140.2824  155.6017 H   0  0  0  0  0  0  0  0  0  0  0  0  # atno 8009 bound_to 7997
  156.2941  140.2585  156.2676 H   0  0  0  0  0  0  0  0  0  0  0  0  # atno 8010 bound_to 7997
  140.7236  143.5097  150.9765 H   0  0  0  0  0  0  0  0  0  0  0  0  # atno 10167 bound_to 10162
  157.6960  131.0397  150.3689 H   0  0  0  0  0  0  0  0  0  0  0  0  # atno 10718 bound_to 10713
  153.9132  135.3009  155.3448 H   0  0  0  0  0  0  0  0  0  0  0  0  # atno 10763 bound_to 10752
  154.7613  135.4932  153.9473 H   0  0  0  0  0  0  0  0  0  0  0  0  # atno 10764 bound_to 10752
  153.1182  135.6776  153.9484 H   0  0  0  0  0  0  0  0  0  0  0  0  # atno 10765 bound_to 10752
  140.1342  134.8782  157.2244 H   0  0  0  0  0  0  0  0  0  0  0  0  # atno 11005 bound_to 11000
  145.1662  139.2430  143.5366 LP  0  0  0  0  0  0  0  0  0  0  0  0  # atno 17320 bound_to 7965
  146.3508  140.1401  142.8595 LP  0  0  0  0  0  0  0  0  0  0  0  0  # atno 17321 bound_to 7965
  139.8810  143.7072  152.3157 LP  0  0  0  0  0  0  0  0  0  0  0  0  # atno 17342 bound_to 10162
  139.7354  144.7572  151.0736 LP  0  0  0  0  0  0  0  0  0  0  0  0  # atno 17343 bound_to 10162
  156.4116  130.3935  149.6887 LP  0  0  0  0  0  0  0  0  0  0  0  0  # atno 17370 bound_to 10713
  156.4169  130.7750  151.2765 LP  0  0  0  0  0  0  0  0  0  0  0  0  # atno 17371 bound_to 10713
  140.2804  134.3357  155.7345 LP  0  0  0  0  0  0  0  0  0  0  0  0  # atno 17394 bound_to 11000
  141.2175  133.7475  156.9355 LP  0  0  0  0  0  0  0  0  0  0  0  0  # atno 17395 bound_to 11000

$$$$
