AV-unprocessed.smi:2813|AV-procd|sdf|10838|dock2
  -GOLD-   2272015283D 1   1.00000     0.00000
 Structure written by MMmdl.
 41 42  0  0  0  0  0  0  0  0  1 V2000
  152.5076  143.8060  160.3966 C   0  0  0  0  0  0  0  0  0  0  0  0
  152.1840  142.8981  159.2232 C   0  0  0  0  0  0  0  0  0  0  0  0
  151.2648  143.4075  158.3015 N   0  0  0  0  0  0  0  0  0  0  0  0
  150.9284  142.7040  157.2702 C   0  0  0  0  0  0  0  0  0  0  0  0
  151.4680  141.4279  157.0391 N   0  0  0  0  0  0  0  0  0  0  0  0
  151.0034  140.7326  155.8267 C   0  0  0  0  0  0  0  0  0  0  0  0
  149.7522  141.4027  155.2142 C   0  0  1  0  0  0  0  0  0  0  0  0
  149.7009  141.0547  153.8442 O   0  0  0  0  0  0  0  0  0  0  0  0
  148.4524  140.8930  155.8601 C   0  0  0  0  0  0  0  0  0  0  0  0
  147.3450  141.4499  155.1636 O   0  0  0  0  0  0  0  0  0  0  0  0
  146.5125  142.3152  155.8407 C   0  0  0  0  0  0  0  0  0  0  0  0
  146.7250  142.4507  157.2273 C   0  0  0  0  0  0  0  0  0  0  0  0
  145.9202  143.3101  157.9979 C   0  0  0  0  0  0  0  0  0  0  0  0
  144.8922  144.0496  157.3852 C   0  0  0  0  0  0  0  0  0  0  0  0
  144.6659  143.9340  155.9972 C   0  0  0  0  0  0  0  0  0  0  0  0
  143.5512  144.7241  155.3269 C   0  0  0  0  0  0  0  0  0  0  0  0
  143.9529  145.1930  154.1449 F   0  0  0  0  0  0  0  0  0  0  0  0
  142.5010  143.9263  155.1375 F   0  0  0  0  0  0  0  0  0  0  0  0
  143.1730  145.7589  156.0779 F   0  0  0  0  0  0  0  0  0  0  0  0
  145.4720  143.0623  155.2326 C   0  0  0  0  0  0  0  0  0  0  0  0
  152.3635  140.8524  157.8929 C   0  0  0  0  0  0  0  0  0  0  0  0
  152.8195  139.7258  157.6883 O   0  0  0  0  0  0  0  0  0  0  0  0
  152.7380  141.6653  159.0616 C   0  0  0  0  0  0  0  0  0  0  0  0
  153.7424  141.0581  160.0331 C   0  0  0  0  0  0  0  0  0  0  0  0
  153.5734  144.0351  160.4211 H   0  0  0  0  0  0  0  0  0  0  0  0
  152.2310  143.3273  161.3364 H   0  0  0  0  0  0  0  0  0  0  0  0
  151.9653  144.7502  160.3298 H   0  0  0  0  0  0  0  0  0  0  0  0
  150.2103  143.0526  156.5260 H   0  0  0  0  0  0  0  0  0  0  0  0
  151.7935  140.6368  155.0786 H   0  0  0  0  0  0  0  0  0  0  0  0
  150.7703  139.7015  156.0977 H   0  0  0  0  0  0  0  0  0  0  0  0
  149.8092  142.4867  155.3215 H   0  0  0  0  0  0  0  0  0  0  0  0
  149.0712  140.3589  153.7331 H   0  0  0  0  0  0  0  0  0  0  0  0
  148.4225  139.8019  155.8631 H   0  0  0  0  0  0  0  0  0  0  0  0
  148.4028  141.2313  156.8964 H   0  0  0  0  0  0  0  0  0  0  0  0
  147.5127  141.8874  157.7064 H   0  0  0  0  0  0  0  0  0  0  0  0
  146.0919  143.4009  159.0603 H   0  0  0  0  0  0  0  0  0  0  0  0
  144.2786  144.7030  157.9876 H   0  0  0  0  0  0  0  0  0  0  0  0
  145.2721  142.9803  154.1754 H   0  0  0  0  0  0  0  0  0  0  0  0
  153.3516  140.1268  160.4444 H   0  0  0  0  0  0  0  0  0  0  0  0
  153.9800  141.7121  160.8704 H   0  0  0  0  0  0  0  0  0  0  0  0
  154.6768  140.8350  159.5170 H   0  0  0  0  0  0  0  0  0  0  0  0
  1  2  1  0  0  0  0
  1 25  1  0  0  0  0
  1 26  1  0  0  0  0
  1 27  1  0  0  0  0
  2 23  2  0  0  0  0
  2  3  1  0  0  0  0
  3  4  2  0  0  0  0
  4  5  1  0  0  0  0
  4 28  1  0  0  0  0
  5  6  1  0  0  0  0
  5 21  1  0  0  0  0
  6  7  1  0  0  0  0
  6 29  1  0  0  0  0
  6 30  1  0  0  0  0
  7  8  1  0  0  0  0
  7  9  1  0  0  0  0
  7 31  1  0  0  0  0
  8 32  1  0  0  0  0
  9 10  1  0  0  0  0
  9 33  1  0  0  0  0
  9 34  1  0  0  0  0
 10 11  1  0  0  0  0
 11 20  1  0  0  0  0
 11 12  2  0  0  0  0
 12 13  1  0  0  0  0
 12 35  1  0  0  0  0
 13 14  2  0  0  0  0
 13 36  1  0  0  0  0
 14 15  1  0  0  0  0
 14 37  1  0  0  0  0
 15 16  1  0  0  0  0
 15 20  2  0  0  0  0
 16 17  1  0  0  0  0
 16 18  1  0  0  0  0
 16 19  1  0  0  0  0
 20 38  1  0  0  0  0
 21 22  2  0  0  0  0
 21 23  1  0  0  0  0
 23 24  1  0  0  0  0
 24 39  1  0  0  0  0
 24 40  1  0  0  0  0
 24 41  1  0  0  0  0
M  END
> <s_m_source_file>
AV-unprocessed.smi

> <i_m_source_file_index>
2813

> <i_lp_mmshare_version>
43012

> <i_f3d_flags>
0

> <s_epik_input>
W0NIM11jMW5bY0hdbihjKD1PKWMxW0NIM10pW0NIMl1bQ0BIXShbT0hdKVtDSDJdT2MyW2NIXVtjSF1bY0hdYyhDKEYpKEYpRilbY0hdMg==

> <s_epik_cmdline>
J2VwaWtfcHl0aG9uJywgJy1waCcsICc3LjAnLCAnLXRuJywgJzgnLCAnLW1hJywgJzIwMCcsICctbWV0YWxfYmluZGluZycsICctaW1hZScsICc8aW5maWxlLm1hZT4nLCAnLW9tYWUnLCAnPG91dGZpbGUubWFlPic=

> <r_lp_tautomer_probability>
1

> <r_epik_Ionization_Penalty>
3.72236e-05

> <r_epik_Ionization_Penalty_Charging>
8.38864e-08

> <r_epik_Ionization_Penalty_Neutral>
3.71397e-05

> <r_epik_State_Penalty>
-0

> <r_epik_Charging_Adjusted_Penalty>
8.38864e-08

> <i_epik_Tot_Q>
0

> <i_epik_Tot_abs_Q>
0

> <r_epik_Metal_State_Penalty>
-0

> <b_epik_Metal_Only>
0

> <s_lp_Force_Field>
OPLS_2005

> <r_lp_Energy>
24.625

> <b_lp_Chiralities_Consistent>
1

> <s_lp_Variant>
AV-unprocessed.smi:2813-2

> <Gold.Version>
5.8.1

> <Gold.Id.Protein>
6NUR|6NUR_protein|mol2

> <Gold.PLP.Fitness>
48.3737

> <Gold.PLP.PLP>
-44.2611

> <Gold.PLP.part.hbond>
-4.0000

> <Gold.PLP.part.metal>
0.0000

> <Gold.PLP.part.buried>
-4.8368

> <Gold.PLP.part.nonpolar>
-35.3135

> <Gold.PLP.part.repulsive>
0.2000

> <Gold.PLP.ligand.clash>
3.5808

> <Gold.PLP.ligand.torsion>
1.6750

> <Gold.PLP.Chemscore.Hbond>
2.2640

> <Gold.PLP.Chemscore.CHOScore>
1.0000

> <Gold.PLP.Chemscore.Metal>
0.0000

> <Gold.Chemscore.Hbonds>
donor molecule, donor type, donor heavy atom, donor atom, acceptor molecule, acceptor atom, score
      P1  H  7989  7998       L1     8  0.37
      P1  H  7997  8009       L1    22  1.00
      P1  H  8011  8017       L1     8  0.89
      L1  C     4    28       P1  8028  1.00

> <Gold.PLP.Chemscore.Internal.Correction>
1.2514

> <Gold.Rescore>
     Score         DG    S(hbond)    S(metal)    S(lipo)     H(rot)  DE(clash)    DE(int)     intcor
     12.76     -13.91       1.75        0.00      81.83       2.73       0.36       0.80       ----

> <Gold.Chemscore.Fitness>
12.7562

> <Gold.Chemscore.DG>
-13.9144

> <Gold.Chemscore.ZeroCoef>
-5.4800

> <Gold.Chemscore.Hbond>
1.7511

> <Gold.Chemscore.Metal>
0.0000

> <Gold.Chemscore.Lipo>
81.8323

> <Gold.Chemscore.Internal_Hbond>
0.0000

> <Gold.Chemscore.DEClash>
0.3581

> <Gold.Chemscore.DEInternal>
0.8001

> <Gold.Chemscore.Rot>
2.7300

> <Gold.Chemscore.Internal.Correction>
   9.000000E+99

> <Gold.Chemscore.Hbonds>
donor molecule, donor type, donor heavy atom, donor atom, acceptor molecule, acceptor atom, score
      P1  H  7989  7998       L1     8  0.09
      P1  H  7997  8009       L1    22  0.40
      P1  H  8011  8017       L1     8  0.75

> <Gold.Chemscore.Hbond.Weighted>
-5.8488

> <Gold.Chemscore.Metal.Weighted>
-0.0000

> <Gold.Chemscore.Lipo.Weighted>
-9.5744

> <Gold.Chemscore.Internal_Hbond.Weighted>
0.0000

> <Gold.Chemscore.DEClash.Weighted>
0.3581

> <Gold.Chemscore.DEInternal.Weighted>
0.8001

> <Gold.Chemscore.Rot.Weighted>
6.9888

> <Gold.Chemscore.Internal.Correction.Weighted>
   9.000000E+99

> <Gold.Protein.RotatedTorsions>
[ 6907 6896 6895 6894 ] final   95.30 input  -60.11 | X-H torsion
[ 7974 7965 7964 7962 ] final -100.07 input  175.53 | X-H torsion
[ 8008 7997 7996 7995 ] final  167.29 input   59.86 | X-H torsion
[ 10167 10162 10161 10158 ] final  -51.55 input  -65.29 | X-H torsion
[ 10718 10713 10712 10709 ] final  172.28 input   66.30 | X-H torsion
[ 10763 10752 10751 10750 ] final  -81.38 input  -60.55 | X-H torsion
[ 11005 11000 10999 10996 ] final  -16.79 input  -57.11 | X-H torsion

> <Gold.Protein.ActiveResidues>
 VAL166  LYS551  ARG553  GLY616  TRP617  ASP618  TYR619  PRO620  LYS621  CYS622 
 ASP623  PHE694  ASN695  SER759  ASP760  ASP761  ALA762  ILE779  LEU786  VAL792 
 PHE793  MET794  SER795  GLU796  ALA797  LYS798  CYS799  TRP800  GLU811  SER814 

> <Gold.Protein.RotatedAtoms>
  152.5444  134.1061  159.8338 H   0  0  0  0  0  0  0  0  0  0  0  0  # atno 6907 bound_to 6896
  151.1133  133.5150  159.2612 H   0  0  0  0  0  0  0  0  0  0  0  0  # atno 6908 bound_to 6896
  151.1860  135.0391  159.8867 H   0  0  0  0  0  0  0  0  0  0  0  0  # atno 6909 bound_to 6896
  145.2993  140.9373  143.2833 H   0  0  0  0  0  0  0  0  0  0  0  0  # atno 7974 bound_to 7965
  156.1646  140.1621  156.8553 H   0  0  0  0  0  0  0  0  0  0  0  0  # atno 8008 bound_to 7997
  154.5195  140.0781  156.8180 H   0  0  0  0  0  0  0  0  0  0  0  0  # atno 8009 bound_to 7997
  155.3637  140.3396  155.4243 H   0  0  0  0  0  0  0  0  0  0  0  0  # atno 8010 bound_to 7997
  140.6583  143.2615  151.4520 H   0  0  0  0  0  0  0  0  0  0  0  0  # atno 10167 bound_to 10162
  156.9812  131.0119  151.2881 H   0  0  0  0  0  0  0  0  0  0  0  0  # atno 10718 bound_to 10713
  154.5628  135.5628  153.7023 H   0  0  0  0  0  0  0  0  0  0  0  0  # atno 10763 bound_to 10752
  153.0023  135.6278  154.2221 H   0  0  0  0  0  0  0  0  0  0  0  0  # atno 10764 bound_to 10752
  154.2159  135.2871  155.2922 H   0  0  0  0  0  0  0  0  0  0  0  0  # atno 10765 bound_to 10752
  140.8103  133.8145  155.9557 H   0  0  0  0  0  0  0  0  0  0  0  0  # atno 11005 bound_to 11000
  144.9107  139.4532  143.6588 LP  0  0  0  0  0  0  0  0  0  0  0  0  # atno 17320 bound_to 7965
  146.3157  139.7913  142.8985 LP  0  0  0  0  0  0  0  0  0  0  0  0  # atno 17321 bound_to 7965
  139.5810  144.1710  152.1968 LP  0  0  0  0  0  0  0  0  0  0  0  0  # atno 17342 bound_to 10162
  140.1035  144.5519  150.6973 LP  0  0  0  0  0  0  0  0  0  0  0  0  # atno 17343 bound_to 10162
  157.5525  130.8191  149.8162 LP  0  0  0  0  0  0  0  0  0  0  0  0  # atno 17370 bound_to 10713
  156.0244  130.3784  150.1867 LP  0  0  0  0  0  0  0  0  0  0  0  0  # atno 17371 bound_to 10713
  140.9204  134.2148  157.4930 LP  0  0  0  0  0  0  0  0  0  0  0  0  # atno 17394 bound_to 11000
  139.8714  134.9790  156.5018 LP  0  0  0  0  0  0  0  0  0  0  0  0  # atno 17395 bound_to 11000

$$$$
