AV-unprocessed.smi:3321|AV-procd|sdf|12770|dock8
  -GOLD-   2272019113D 1   1.00000     0.00000
 Structure written by MMmdl.
 41 42  0  0  0  0  0  0  0  0  2 V2000
  147.1419  140.7083  153.8256 C   0  0  0  0  0  0  0  0  0  0  0  0
  148.0386  139.4592  153.8417 C   0  0  1  0  0  0  0  0  0  0  0  0
  147.8851  138.7318  152.5595 N   0  3  0  0  0  0  0  0  0  0  0  0
  146.4955  138.3755  152.2010 C   0  0  0  0  0  0  0  0  0  0  0  0
  146.4703  137.2217  151.1885 C   0  0  0  0  0  0  0  0  0  0  0  0
  145.4373  136.2525  151.4986 N   0  0  0  0  0  0  0  0  0  0  0  0
  145.1411  135.0743  150.8459 C   0  0  0  0  0  0  0  0  0  0  0  0
  144.0822  134.5063  151.4940 C   0  0  0  0  0  0  0  0  0  0  0  0
  143.7948  135.4250  152.5421 C   0  0  0  0  0  0  0  0  0  0  0  0
  144.6063  136.4704  152.5407 N   0  0  0  0  0  0  0  0  0  0  0  0
  149.5070  139.8606  154.1004 C   0  0  0  0  0  0  0  0  0  0  0  0
  149.7937  141.0588  154.0635 O   0  0  0  0  0  0  0  0  0  0  0  0
  150.4378  138.9079  154.3603 N   0  0  0  0  0  0  0  0  0  0  0  0
  151.8626  139.1374  154.6379 C   0  0  0  0  0  0  0  0  0  0  0  0
  152.1237  138.8625  156.1295 C   0  0  0  0  0  0  0  0  0  0  0  0
  151.6920  137.4313  156.5031 C   0  0  0  0  0  0  0  0  0  0  0  0
  150.2622  137.1206  156.0193 C   0  0  0  0  0  0  0  0  0  0  0  0
  150.0867  137.4917  154.5345 C   0  0  0  0  0  0  0  0  0  0  0  0
  147.2080  141.2676  154.7593 H   0  0  0  0  0  0  0  0  0  0  0  0
  146.0956  140.4353  153.6860 H   0  0  0  0  0  0  0  0  0  0  0  0
  147.4169  141.3865  153.0165 H   0  0  0  0  0  0  0  0  0  0  0  0
  147.6887  138.7811  154.6198 H   0  0  0  0  0  0  0  0  0  0  0  0
  148.2474  139.3191  151.8223 H   0  0  0  0  0  0  0  0  0  0  0  0
  145.9431  138.0895  153.0968 H   0  0  0  0  0  0  0  0  0  0  0  0
  145.9997  139.2533  151.7843 H   0  0  0  0  0  0  0  0  0  0  0  0
  146.2972  137.5992  150.1798 H   0  0  0  0  0  0  0  0  0  0  0  0
  147.4331  136.7091  151.1752 H   0  0  0  0  0  0  0  0  0  0  0  0
  145.7008  134.7413  149.9839 H   0  0  0  0  0  0  0  0  0  0  0  0
  143.5865  133.5772  151.2549 H   0  0  0  0  0  0  0  0  0  0  0  0
  143.0248  135.3650  153.2969 H   0  0  0  0  0  0  0  0  0  0  0  0
  152.4582  138.4555  154.0288 H   0  0  0  0  0  0  0  0  0  0  0  0
  152.2148  140.1308  154.3687 H   0  0  0  0  0  0  0  0  0  0  0  0
  153.1801  139.0045  156.3590 H   0  0  0  0  0  0  0  0  0  0  0  0
  151.5738  139.5831  156.7365 H   0  0  0  0  0  0  0  0  0  0  0  0
  152.3827  136.7217  156.0461 H   0  0  0  0  0  0  0  0  0  0  0  0
  151.7674  137.2825  157.5809 H   0  0  0  0  0  0  0  0  0  0  0  0
  150.0377  136.0647  156.1722 H   0  0  0  0  0  0  0  0  0  0  0  0
  149.5441  137.6800  156.6207 H   0  0  0  0  0  0  0  0  0  0  0  0
  149.0701  137.2602  154.2139 H   0  0  0  0  0  0  0  0  0  0  0  0
  150.7382  136.8755  153.9131 H   0  0  0  0  0  0  0  0  0  0  0  0
  148.4408  137.8892  152.6041 H   0  0  0  0  0  0  0  0  0  0  0  0
  1  2  1  0  0  0  0
  1 19  1  0  0  0  0
  1 20  1  0  0  0  0
  1 21  1  0  0  0  0
  2  3  1  0  0  0  0
  2 11  1  0  0  0  0
  2 22  1  0  0  0  0
  3  4  1  0  0  0  0
  3 23  1  0  0  0  0
  3 41  1  0  0  0  0
  4  5  1  0  0  0  0
  4 24  1  0  0  0  0
  4 25  1  0  0  0  0
  5  6  1  0  0  0  0
  5 26  1  0  0  0  0
  5 27  1  0  0  0  0
  6 10  1  0  0  0  0
  6  7  1  0  0  0  0
  7  8  2  0  0  0  0
  7 28  1  0  0  0  0
  8  9  1  0  0  0  0
  8 29  1  0  0  0  0
  9 10  2  0  0  0  0
  9 30  1  0  0  0  0
 11 12  2  0  0  0  0
 11 13  1  0  0  0  0
 13 18  1  0  0  0  0
 13 14  1  0  0  0  0
 14 15  1  0  0  0  0
 14 31  1  0  0  0  0
 14 32  1  0  0  0  0
 15 16  1  0  0  0  0
 15 33  1  0  0  0  0
 15 34  1  0  0  0  0
 16 17  1  0  0  0  0
 16 35  1  0  0  0  0
 16 36  1  0  0  0  0
 17 18  1  0  0  0  0
 17 37  1  0  0  0  0
 17 38  1  0  0  0  0
 18 39  1  0  0  0  0
 18 40  1  0  0  0  0
M  CHG  1   3   1
M  END
> <s_m_source_file>
AV-unprocessed.smi

> <i_m_source_file_index>
3321

> <i_lp_mmshare_version>
43012

> <i_f3d_flags>
0

> <s_epik_input>
W0NIMl0xW0NIMl1bQ0gyXVtDSDJdW0NIMl1OMUMoPU8pW0NASF0oW0NIM10pW05IXVtDSDJdW0NIMl1uMltjSF1bY0hdW2NIXW4y

> <s_epik_cmdline>
J2VwaWtfcHl0aG9uJywgJy1waCcsICc3LjAnLCAnLXRuJywgJzgnLCAnLW1hJywgJzIwMCcsICctbWV0YWxfYmluZGluZycsICctaW1hZScsICc8aW5maWxlLm1hZT4nLCAnLW9tYWUnLCAnPG91dGZpbGUubWFlPic=

> <r_lp_tautomer_probability>
1

> <r_epik_Ionization_Penalty>
0.202061

> <r_epik_Ionization_Penalty_Charging>
0.202058

> <r_epik_Ionization_Penalty_Neutral>
2.46932e-06

> <r_epik_State_Penalty>
0.191938

> <r_epik_Charging_Adjusted_Penalty>
0.393996

> <i_epik_Tot_Q>
1

> <i_epik_Tot_abs_Q>
1

> <r_epik_Metal_State_Penalty>
0.192188

> <b_epik_Metal_Only>
0

> <s_lp_Force_Field>
OPLS_2005

> <r_lp_Energy>
26.1916

> <b_lp_Chiralities_Consistent>
1

> <s_lp_Variant>
AV-unprocessed.smi:3321-2

> <Gold.Version>
5.8.1

> <Gold.Id.Protein>
6NUR|6NUR_protein|mol2

> <Gold.PLP.Fitness>
45.1515

> <Gold.PLP.PLP>
-31.7883

> <Gold.PLP.part.hbond>
-3.7807

> <Gold.PLP.part.metal>
0.0000

> <Gold.PLP.part.buried>
5.0172

> <Gold.PLP.part.nonpolar>
-32.3221

> <Gold.PLP.part.repulsive>
0.6054

> <Gold.PLP.ligand.clash>
0.0000

> <Gold.PLP.ligand.torsion>
0.5882

> <Gold.PLP.Chemscore.Hbond>
3.8273

> <Gold.PLP.Chemscore.CHOScore>
1.0000

> <Gold.PLP.Chemscore.Metal>
0.0000

> <Gold.Chemscore.Hbonds>
donor molecule, donor type, donor heavy atom, donor atom, acceptor molecule, acceptor atom, score
      L1  H     3    23       P1  7957  0.94
      L1  H     3    41       P1  7948  1.98
      P1  H  7989  7998       L1    12  0.43
      P1  H  8011  8017       L1    12  0.47
      L1  C     7    28       P1  7921  1.00

> <Gold.PLP.Chemscore.Internal.Correction>
0.0578

> <Gold.Rescore>
     Score         DG    S(hbond)    S(metal)    S(lipo)     H(rot)  DE(clash)    DE(int)     intcor
     14.91     -17.48       2.46        0.00      71.47       1.79       1.92       0.65       ----

> <Gold.Chemscore.Fitness>
14.9092

> <Gold.Chemscore.DG>
-17.4793

> <Gold.Chemscore.ZeroCoef>
-5.4800

> <Gold.Chemscore.Hbond>
2.4630

> <Gold.Chemscore.Metal>
0.0000

> <Gold.Chemscore.Lipo>
71.4738

> <Gold.Chemscore.Internal_Hbond>
0.0000

> <Gold.Chemscore.DEClash>
1.9175

> <Gold.Chemscore.DEInternal>
0.6526

> <Gold.Chemscore.Rot>
1.7928

> <Gold.Chemscore.Internal.Correction>
   9.000000E+99

> <Gold.Chemscore.Hbonds>
donor molecule, donor type, donor heavy atom, donor atom, acceptor molecule, acceptor atom, score
      L1  H     3    23       P1  7957  0.90
      L1  H     3    41       P1  7948  0.93
      P1  H  7989  7998       L1    12  0.09
      P1  H  8011  8017       L1    12  0.46

> <Gold.Chemscore.Hbond.Weighted>
-8.2263

> <Gold.Chemscore.Metal.Weighted>
-0.0000

> <Gold.Chemscore.Lipo.Weighted>
-8.3624

> <Gold.Chemscore.Internal_Hbond.Weighted>
0.0000

> <Gold.Chemscore.DEClash.Weighted>
1.9175

> <Gold.Chemscore.DEInternal.Weighted>
0.6526

> <Gold.Chemscore.Rot.Weighted>
4.5895

> <Gold.Chemscore.Internal.Correction.Weighted>
   9.000000E+99

> <Gold.Protein.RotatedTorsions>
[ 6907 6896 6895 6894 ] final  129.50 input  -60.11 | X-H torsion
[ 7974 7965 7964 7962 ] final   -2.19 input  175.53 | X-H torsion
[ 8008 7997 7996 7995 ] final  149.80 input   59.86 | X-H torsion
[ 10167 10162 10161 10158 ] final  -92.68 input  -65.29 | X-H torsion
[ 10718 10713 10712 10709 ] final -102.14 input   66.30 | X-H torsion
[ 10763 10752 10751 10750 ] final  -82.58 input  -60.55 | X-H torsion
[ 11005 11000 10999 10996 ] final -177.60 input  -57.11 | X-H torsion

> <Gold.Protein.ActiveResidues>
 VAL166  LYS551  ARG553  GLY616  TRP617  ASP618  TYR619  PRO620  LYS621  CYS622 
 ASP623  PHE694  ASN695  SER759  ASP760  ASP761  ALA762  ILE779  LEU786  VAL792 
 PHE793  MET794  SER795  GLU796  ALA797  LYS798  CYS799  TRP800  GLU811  SER814 

> <Gold.Protein.RotatedAtoms>
  152.3618  133.6306  159.6020 H   0  0  0  0  0  0  0  0  0  0  0  0  # atno 6907 bound_to 6896
  150.7606  133.9411  159.3465 H   0  0  0  0  0  0  0  0  0  0  0  0  # atno 6908 bound_to 6896
  151.7248  135.0888  160.0341 H   0  0  0  0  0  0  0  0  0  0  0  0  # atno 6909 bound_to 6896
  146.2408  140.1533  142.8333 H   0  0  0  0  0  0  0  0  0  0  0  0  # atno 7974 bound_to 7965
  156.2741  140.2092  156.5916 H   0  0  0  0  0  0  0  0  0  0  0  0  # atno 8008 bound_to 7997
  154.6977  140.0524  157.0451 H   0  0  0  0  0  0  0  0  0  0  0  0  # atno 8009 bound_to 7997
  155.0777  140.3183  155.4614 H   0  0  0  0  0  0  0  0  0  0  0  0  # atno 8010 bound_to 7997
  140.3324  143.2987  151.9927 H   0  0  0  0  0  0  0  0  0  0  0  0  # atno 10167 bound_to 10162
  156.0218  130.5406  150.7066 H   0  0  0  0  0  0  0  0  0  0  0  0  # atno 10718 bound_to 10713
  154.5774  135.5586  153.7153 H   0  0  0  0  0  0  0  0  0  0  0  0  # atno 10763 bound_to 10752
  153.0069  135.6312  154.2030 H   0  0  0  0  0  0  0  0  0  0  0  0  # atno 10764 bound_to 10752
  154.1970  135.2879  155.2983 H   0  0  0  0  0  0  0  0  0  0  0  0  # atno 10765 bound_to 10752
  140.4391  134.6448  157.4749 H   0  0  0  0  0  0  0  0  0  0  0  0  # atno 11005 bound_to 11000
  145.0149  140.8746  143.5201 LP  0  0  0  0  0  0  0  0  0  0  0  0  # atno 17320 bound_to 7965
  145.1572  139.2479  143.5410 LP  0  0  0  0  0  0  0  0  0  0  0  0  # atno 17321 bound_to 7965
  139.4854  144.6224  151.7229 LP  0  0  0  0  0  0  0  0  0  0  0  0  # atno 17342 bound_to 10162
  140.5385  144.0617  150.6079 LP  0  0  0  0  0  0  0  0  0  0  0  0  # atno 17343 bound_to 10162
  157.4714  131.0893  151.0639 LP  0  0  0  0  0  0  0  0  0  0  0  0  # atno 17370 bound_to 10713
  157.1098  130.6017  149.5479 LP  0  0  0  0  0  0  0  0  0  0  0  0  # atno 17371 bound_to 10713
  140.0082  134.6731  155.9422 LP  0  0  0  0  0  0  0  0  0  0  0  0  # atno 17394 bound_to 11000
  141.1713  133.6537  156.4662 LP  0  0  0  0  0  0  0  0  0  0  0  0  # atno 17395 bound_to 11000

$$$$
