AV-unprocessed.smi:1918|AV-procd|sdf|7769|dock4
  -GOLD-   22720 9513D 1   1.00000     0.00000
 Structure written by MMmdl.
 35 37  0  0  0  0  0  0  0  0  1 V2000
  150.8559  140.1564  156.1416 C   0  0  0  0  0  0  0  0  0  0  0  0
  151.2015  141.3122  157.0259 C   0  0  0  0  0  0  0  0  0  0  0  0
  150.9877  142.5760  156.6587 N   0  0  0  0  0  0  0  0  0  0  0  0
  151.4444  143.2901  157.7498 C   0  0  0  0  0  0  0  0  0  0  0  0
  151.4927  144.6834  157.9821 C   0  0  0  0  0  0  0  0  0  0  0  0
  152.0123  145.1877  159.1925 C   0  0  0  0  0  0  0  0  0  0  0  0
  152.4894  144.3085  160.1863 C   0  0  0  0  0  0  0  0  0  0  0  0
  152.4492  142.9167  159.9758 C   0  0  0  0  0  0  0  0  0  0  0  0
  151.9300  142.4188  158.7658 C   0  0  0  0  0  0  0  0  0  0  0  0
  151.7523  141.1383  158.2527 N   0  0  0  0  0  0  0  0  0  0  0  0
  152.0949  139.8916  158.9232 C   0  0  0  0  0  0  0  0  0  0  0  0
  153.6167  139.6973  159.0727 C   0  0  2  0  0  0  0  0  0  0  0  0
  154.1412  139.0815  157.9112 O   0  0  0  0  0  0  0  0  0  0  0  0
  153.9491  138.9255  160.3428 C   0  0  0  0  0  0  0  0  0  0  0  0
  153.5714  137.5702  160.4762 C   0  0  0  0  0  0  0  0  0  0  0  0
  153.8708  136.8600  161.6547 C   0  0  0  0  0  0  0  0  0  0  0  0
  154.5460  137.5005  162.7106 C   0  0  0  0  0  0  0  0  0  0  0  0
  154.8336  136.8178  163.8441 F   0  0  0  0  0  0  0  0  0  0  0  0
  154.9186  138.8524  162.5882 C   0  0  0  0  0  0  0  0  0  0  0  0
  154.6200  139.5650  161.4104 C   0  0  0  0  0  0  0  0  0  0  0  0
  154.9783  140.8681  161.3139 F   0  0  0  0  0  0  0  0  0  0  0  0
  150.5035  140.5083  155.1715 H   0  0  0  0  0  0  0  0  0  0  0  0
  150.0671  139.5569  156.5964 H   0  0  0  0  0  0  0  0  0  0  0  0
  151.7307  139.5267  155.9797 H   0  0  0  0  0  0  0  0  0  0  0  0
  151.1295  145.3650  157.2272 H   0  0  0  0  0  0  0  0  0  0  0  0
  152.0453  146.2545  159.3590 H   0  0  0  0  0  0  0  0  0  0  0  0
  152.8866  144.7028  161.1102 H   0  0  0  0  0  0  0  0  0  0  0  0
  152.8142  142.2398  160.7340 H   0  0  0  0  0  0  0  0  0  0  0  0
  151.6256  139.9045  159.9077 H   0  0  0  0  0  0  0  0  0  0  0  0
  151.6506  139.0521  158.3884 H   0  0  0  0  0  0  0  0  0  0  0  0
  154.0914  140.6771  159.1321 H   0  0  0  0  0  0  0  0  0  0  0  0
  154.1923  138.1502  158.0629 H   0  0  0  0  0  0  0  0  0  0  0  0
  153.0467  137.0695  159.6757 H   0  0  0  0  0  0  0  0  0  0  0  0
  153.5805  135.8239  161.7493 H   0  0  0  0  0  0  0  0  0  0  0  0
  155.4327  139.3452  163.4002 H   0  0  0  0  0  0  0  0  0  0  0  0
  1  2  1  0  0  0  0
  1 22  1  0  0  0  0
  1 23  1  0  0  0  0
  1 24  1  0  0  0  0
  2 10  1  0  0  0  0
  2  3  2  0  0  0  0
  3  4  1  0  0  0  0
  4  9  2  0  0  0  0
  4  5  1  0  0  0  0
  5  6  2  0  0  0  0
  5 25  1  0  0  0  0
  6  7  1  0  0  0  0
  6 26  1  0  0  0  0
  7  8  2  0  0  0  0
  7 27  1  0  0  0  0
  8  9  1  0  0  0  0
  8 28  1  0  0  0  0
  9 10  1  0  0  0  0
 10 11  1  0  0  0  0
 11 12  1  0  0  0  0
 11 29  1  0  0  0  0
 11 30  1  0  0  0  0
 12 13  1  0  0  0  0
 12 14  1  0  0  0  0
 12 31  1  0  0  0  0
 13 32  1  0  0  0  0
 14 20  1  0  0  0  0
 14 15  2  0  0  0  0
 15 16  1  0  0  0  0
 15 33  1  0  0  0  0
 16 17  2  0  0  0  0
 16 34  1  0  0  0  0
 17 18  1  0  0  0  0
 17 19  1  0  0  0  0
 19 20  2  0  0  0  0
 19 35  1  0  0  0  0
 20 21  1  0  0  0  0
M  END
> <s_m_source_file>
AV-unprocessed.smi

> <i_m_source_file_index>
1918

> <i_lp_mmshare_version>
43012

> <i_f3d_flags>
0

> <s_epik_input>
W2NIXTFbY0hdW2NIXVtjSF1jKGMxMiluKGMobjIpW0NIM10pW0NIMl1bQ0BIXShbT0hdKWMzW2NIXVtjSF1jKEYpW2NIXWMzRg==

> <s_epik_cmdline>
J2VwaWtfcHl0aG9uJywgJy1waCcsICc3LjAnLCAnLXRuJywgJzgnLCAnLW1hJywgJzIwMCcsICctbWV0YWxfYmluZGluZycsICctaW1hZScsICc8aW5maWxlLm1hZT4nLCAnLW9tYWUnLCAnPG91dGZpbGUubWFlPic=

> <r_epik_Ionization_Penalty>
0.129663

> <r_epik_Ionization_Penalty_Charging>
0

> <r_epik_Ionization_Penalty_Neutral>
0.129663

> <r_epik_State_Penalty>
0.119073

> <r_epik_Charging_Adjusted_Penalty>
0.119073

> <i_epik_Tot_Q>
0

> <i_epik_Tot_abs_Q>
0

> <r_epik_Metal_State_Penalty>
0.000131867

> <b_epik_Metal_Only>
0

> <s_lp_Force_Field>
OPLS_2005

> <r_lp_Energy>
11.5863

> <b_lp_Chiralities_Consistent>
1

> <s_lp_Variant>
AV-unprocessed.smi:1918-1

> <Gold.Version>
5.8.1

> <Gold.Id.Protein>
6NUR|6NUR_protein|mol2

> <Gold.PLP.Fitness>
49.4163

> <Gold.PLP.PLP>
-47.4107

> <Gold.PLP.part.hbond>
-0.7893

> <Gold.PLP.part.metal>
0.0000

> <Gold.PLP.part.buried>
-3.7219

> <Gold.PLP.part.nonpolar>
-42.3221

> <Gold.PLP.part.repulsive>
0.1153

> <Gold.PLP.ligand.clash>
0.0000

> <Gold.PLP.ligand.torsion>
0.4984

> <Gold.PLP.Chemscore.Hbond>
0.9920

> <Gold.PLP.Chemscore.CHOScore>
0.0000

> <Gold.PLP.Chemscore.Metal>
0.0000

> <Gold.Chemscore.Hbonds>
donor molecule, donor type, donor heavy atom, donor atom, acceptor molecule, acceptor atom, score
      P1  H  7997  8010       L1    13  0.68

> <Gold.PLP.Chemscore.Internal.Correction>
0.0265

> <Gold.Rescore>
     Score         DG    S(hbond)    S(metal)    S(lipo)     H(rot)  DE(clash)    DE(int)     intcor
     18.51     -18.92       0.97        0.00     128.37       1.88       0.03       0.39       ----

> <Gold.Chemscore.Fitness>
18.5093

> <Gold.Chemscore.DG>
-18.9236

> <Gold.Chemscore.ZeroCoef>
-5.4800

> <Gold.Chemscore.Hbond>
0.9723

> <Gold.Chemscore.Metal>
0.0000

> <Gold.Chemscore.Lipo>
128.3652

> <Gold.Chemscore.Internal_Hbond>
0.0000

> <Gold.Chemscore.DEClash>
0.0274

> <Gold.Chemscore.DEInternal>
0.3869

> <Gold.Chemscore.Rot>
1.8839

> <Gold.Chemscore.Internal.Correction>
   9.000000E+99

> <Gold.Chemscore.Hbonds>
donor molecule, donor type, donor heavy atom, donor atom, acceptor molecule, acceptor atom, score
      P1  H  7997  8010       L1    13  0.41

> <Gold.Chemscore.Hbond.Weighted>
-3.2476

> <Gold.Chemscore.Metal.Weighted>
-0.0000

> <Gold.Chemscore.Lipo.Weighted>
-15.0187

> <Gold.Chemscore.Internal_Hbond.Weighted>
0.0000

> <Gold.Chemscore.DEClash.Weighted>
0.0274

> <Gold.Chemscore.DEInternal.Weighted>
0.3869

> <Gold.Chemscore.Rot.Weighted>
4.8227

> <Gold.Chemscore.Internal.Correction.Weighted>
   9.000000E+99

> <Gold.Protein.RotatedTorsions>
[ 6907 6896 6895 6894 ] final   81.21 input  -60.11 | X-H torsion
[ 7974 7965 7964 7962 ] final -122.71 input  175.53 | X-H torsion
[ 8008 7997 7996 7995 ] final    5.45 input   59.86 | X-H torsion
[ 10167 10162 10161 10158 ] final   33.40 input  -65.29 | X-H torsion
[ 10718 10713 10712 10709 ] final    6.54 input   66.30 | X-H torsion
[ 10763 10752 10751 10750 ] final   52.89 input  -60.55 | X-H torsion
[ 11005 11000 10999 10996 ] final    2.06 input  -57.11 | X-H torsion

> <Gold.Protein.ActiveResidues>
 VAL166  LYS551  ARG553  GLY616  TRP617  ASP618  TYR619  PRO620  LYS621  CYS622 
 ASP623  PHE694  ASN695  SER759  ASP760  ASP761  ALA762  ILE779  LEU786  VAL792 
 PHE793  MET794  SER795  GLU796  ALA797  LYS798  CYS799  TRP800  GLU811  SER814 

> <Gold.Protein.RotatedAtoms>
  152.5261  134.3239  159.9158 H   0  0  0  0  0  0  0  0  0  0  0  0  # atno 6907 bound_to 6896
  151.3188  133.4042  159.2660 H   0  0  0  0  0  0  0  0  0  0  0  0  # atno 6908 bound_to 6896
  150.9976  134.9313  159.7993 H   0  0  0  0  0  0  0  0  0  0  0  0  # atno 6909 bound_to 6896
  145.0265  140.8032  143.4349 H   0  0  0  0  0  0  0  0  0  0  0  0  # atno 7974 bound_to 7965
  154.7286  140.2726  155.6476 H   0  0  0  0  0  0  0  0  0  0  0  0  # atno 8008 bound_to 7997
  156.2843  140.2720  156.1904 H   0  0  0  0  0  0  0  0  0  0  0  0  # atno 8009 bound_to 7997
  155.0412  140.0371  157.2500 H   0  0  0  0  0  0  0  0  0  0  0  0  # atno 8010 bound_to 7997
  140.4411  144.1186  150.6174 H   0  0  0  0  0  0  0  0  0  0  0  0  # atno 10167 bound_to 10162
  156.9237  130.5800  149.5648 H   0  0  0  0  0  0  0  0  0  0  0  0  # atno 10718 bound_to 10713
  152.9791  135.5797  154.4652 H   0  0  0  0  0  0  0  0  0  0  0  0  # atno 10763 bound_to 10752
  154.4223  135.2772  155.1969 H   0  0  0  0  0  0  0  0  0  0  0  0  # atno 10764 bound_to 10752
  154.3713  135.6167  153.5795 H   0  0  0  0  0  0  0  0  0  0  0  0  # atno 10765 bound_to 10752
  140.6086  133.9770  155.8166 H   0  0  0  0  0  0  0  0  0  0  0  0  # atno 11005 bound_to 11000
  145.1826  139.2343  143.5284 LP  0  0  0  0  0  0  0  0  0  0  0  0  # atno 17320 bound_to 7965
  146.3493  140.1604  142.8591 LP  0  0  0  0  0  0  0  0  0  0  0  0  # atno 17321 bound_to 7965
  140.4317  143.2565  151.9586 LP  0  0  0  0  0  0  0  0  0  0  0  0  # atno 17342 bound_to 10162
  139.4789  144.5737  151.8046 LP  0  0  0  0  0  0  0  0  0  0  0  0  # atno 17343 bound_to 10162
  156.0479  130.5553  150.8923 LP  0  0  0  0  0  0  0  0  0  0  0  0  # atno 17370 bound_to 10713
  157.5891  131.0945  150.9147 LP  0  0  0  0  0  0  0  0  0  0  0  0  # atno 17371 bound_to 10713
  141.0824  134.0042  157.3366 LP  0  0  0  0  0  0  0  0  0  0  0  0  # atno 17394 bound_to 11000
  139.9202  135.0200  156.8035 LP  0  0  0  0  0  0  0  0  0  0  0  0  # atno 17395 bound_to 11000

$$$$
