#       Name:                AV-unprocessed.smi:2822
#       Creating user name   scv26
#       Creation time:       Fri Mar 27 15:31:05 2020


#       File generated by GOLD software.
#

@<TRIPOS>MOLECULE
AV-unprocessed.smi:2822
    43    45     1
SMALL
NO_CHARGES


@<TRIPOS>ATOM
      1 ****        -5.1657  -0.3564   1.1332 Cl             1 S1                 0.0000
      2 ****        -4.3430   1.1612   1.2309 C.ar           1 S1                 0.0000
      3 ****        -5.0928   2.3549   1.1976 C.ar           1 S1                 0.0000
      4 ****        -4.4664   3.5484   1.2715 N.pl3          1 S1                 1.0000
      5 ****        -3.1258   3.6623   1.3790 C.ar           1 S1                 0.0000
      6 ****        -2.3216   2.5047   1.4169 C.ar           1 S1                 0.0000
      7 ****        -2.9318   1.2277   1.3409 C.ar           1 S1                 0.0000
      8 ****        -2.1896   0.0371   1.3724 N.pl3          1 S1                 0.0000
      9 ****        -0.7379   0.0429   1.2777 C.3            1 S1                 0.0000
     10 ****        -0.1826  -1.3880   1.1258 C.3            1 S1                 0.0000
     11 ****         1.3565  -1.4530   1.1517 C.3            1 S1                 0.0000
     12 ****         1.9459  -0.9149  -0.0972 N.4            1 S1                 1.0000
     13 ****         3.4307  -0.9475  -0.0732 C.3            1 S1                 0.0000
     14 ****         4.0223  -0.3069  -1.3388 C.3            1 S1                 0.0000
     15 ****         3.4785  -0.9904  -2.5992 C.3            1 S1                 0.0000
     16 ****         1.9446  -0.9631  -2.5889 C.3            1 S1                 0.0000
     17 ****         1.3796  -1.5882  -1.2972 C.3            1 S1                 0.0000
     18 ****        -0.1583  -1.5075  -1.2714 C.3            1 S1                 0.0000
     19 ****        -0.6645  -2.0374  -0.0508 O.3            1 S1                 0.0000
     20 ****        -6.1695   2.3890   1.1146 H              1 S1                 0.0000
     21 ****        -2.7388   4.6697   1.4328 H              1 S1                 0.0000
     22 ****        -1.2514   2.6161   1.5075 H              1 S1                 0.0000
     23 ****        -2.6732  -0.8455   1.2766 H              1 S1                 0.0000
     24 ****        -0.4192   0.6778   0.4513 H              1 S1                 0.0000
     25 ****        -0.3387   0.4893   2.1892 H              1 S1                 0.0000
     26 ****        -0.5470  -1.9704   1.9732 H              1 S1                 0.0000
     27 ****         1.7410  -0.9046   2.0126 H              1 S1                 0.0000
     28 ****         1.6728  -2.4904   1.2737 H              1 S1                 0.0000
     29 ****         3.7930  -0.4155   0.8071 H              1 S1                 0.0000
     30 ****         3.7725  -1.9799   0.0172 H              1 S1                 0.0000
     31 ****         3.7795   0.7563  -1.3616 H              1 S1                 0.0000
     32 ****         5.1102  -0.3762  -1.3177 H              1 S1                 0.0000
     33 ****         3.8588  -0.4930  -3.4920 H              1 S1                 0.0000
     34 ****         3.8301  -2.0222  -2.6421 H              1 S1                 0.0000
     35 ****         1.6007   0.0681  -2.6823 H              1 S1                 0.0000
     36 ****         1.5625  -1.4952  -3.4609 H              1 S1                 0.0000
     37 ****         1.6690  -2.6403  -1.2621 H              1 S1                 0.0000
     38 ****        -0.5030  -0.4837  -1.4173 H              1 S1                 0.0000
     39 ****        -0.5751  -2.0896  -2.0936 H              1 S1                 0.0000
     40 ****         1.6771   0.0569  -0.1549 H              1 S1                 0.0000
     41 ****        -5.0298   4.3992   1.2465 H              1 S1                 0.0000
     42 ****        -1.6611  -1.9565  -0.0654 LP             1 S1                 0.0000
     43 ****        -0.4092  -3.0030  -0.0006 LP             1 S1                 0.0000
@<TRIPOS>BOND
    1    1    2 1     
    2    2    7 ar    
    3    2    3 ar    
    4    3    4 ar    
    5    3   20 1     
    6    4    5 ar    
    7    4   41 1     
    8    5    6 ar    
    9    5   21 1     
   10    6    7 ar    
   11    6   22 1     
   12    7    8 1     
   13    8    9 1     
   14    8   23 1     
   15    9   10 1     
   16    9   24 1     
   17    9   25 1     
   18   10   19 1     
   19   10   11 1     
   20   10   26 1     
   21   11   12 1     
   22   11   27 1     
   23   11   28 1     
   24   12   17 1     
   25   12   13 1     
   26   12   40 1     
   27   13   14 1     
   28   13   29 1     
   29   13   30 1     
   30   14   15 1     
   31   14   31 1     
   32   14   32 1     
   33   15   16 1     
   34   15   33 1     
   35   15   34 1     
   36   16   17 1     
   37   16   35 1     
   38   16   36 1     
   39   17   18 1     
   40   17   37 1     
   41   18   19 1     
   42   18   38 1     
   43   18   39 1     
   44   19   42 1     
   45   19   43 1     
@<TRIPOS>SUBSTRUCTURE
      1 S1             1
@<TRIPOS>SET
LONE_PAIRS      STATIC     ATOMS    <user>   **** ""
2 42 43
DONOR_HYDROGENS      STATIC     ATOMS    <user>   **** ""
3 41 23 40
ATOM$BLUE        STATIC     ATOMS    COLORGROUP SYSTEM
2 42 43
ATOM$RED        STATIC     ATOMS    COLORGROUP SYSTEM
3 41 23 40
