AV-unprocessed.smi:263|AV-procd|sdf|2003|dock6
  -GOLD-   2262021193D 1   1.00000     0.00000
 Structure written by MMmdl.
 57 61  0  0  0  0  0  0  0  0  1 V2000
  149.5486  134.3955  157.7130 O   0  0  0  0  0  0  0  0  0  0  0  0
  150.1170  134.2093  156.4279 C   0  0  0  0  0  0  0  0  0  0  0  0
  151.5432  134.8136  156.4557 C   0  0  0  0  0  0  0  0  0  0  0  0
  151.5692  136.2475  156.7016 N   0  0  0  0  0  0  0  0  0  0  0  0
  151.9310  136.8803  157.8692 C   0  0  0  0  0  0  0  0  0  0  0  0
  151.8746  138.1839  157.8359 N   0  0  0  0  0  0  0  0  0  0  0  0
  151.4415  138.4736  156.5471 C   0  0  0  0  0  0  0  0  0  0  0  0
  151.1670  139.6784  155.8397 C   0  0  0  0  0  0  0  0  0  0  0  0
  151.3331  140.9082  156.3907 N   0  0  0  0  0  0  0  0  0  0  0  0
  150.5525  141.9666  155.7498 C   0  0  0  0  0  0  0  0  0  0  0  0
  151.0482  143.3634  156.1709 C   0  0  0  0  0  0  0  0  0  0  0  0
  151.1122  143.5171  157.7051 C   0  0  2  0  0  0  0  0  0  0  0  0
  149.7820  143.4631  158.1955 O   0  0  0  0  0  0  0  0  0  0  0  0
  151.7085  144.8810  158.1198 C   0  0  0  0  0  0  0  0  0  0  0  0
  151.8812  145.0038  159.6459 C   0  0  0  0  0  0  0  0  0  0  0  0
  152.7038  143.8383  160.2182 C   0  0  0  0  0  0  0  0  0  0  0  0
  152.1027  142.4785  159.8256 C   0  0  0  0  0  0  0  0  0  0  0  0
  151.9577  142.3593  158.2960 C   0  0  1  0  0  0  0  0  0  0  0  0
  151.4187  140.9865  157.8508 C   0  0  0  0  0  0  0  0  0  0  0  0
  150.7267  139.5628  154.5576 N   0  0  0  0  0  0  0  0  0  0  0  0
  150.5734  138.3576  154.0011 C   0  0  0  0  0  0  0  0  0  0  0  0
  150.7973  137.1569  154.5375 N   0  0  0  0  0  0  0  0  0  0  0  0
  151.2329  137.2645  155.8252 C   0  0  0  0  0  0  0  0  0  0  0  0
  150.1147  132.6974  156.1096 C   0  0  0  0  0  0  0  0  0  0  0  0
  148.6926  132.1543  155.8842 C   0  0  0  0  0  0  0  0  0  0  0  0
  148.0406  132.9004  154.8638 O   0  0  0  0  0  0  0  0  0  0  0  0
  147.8676  134.2686  155.2118 C   0  0  0  0  0  0  0  0  0  0  0  0
  149.2386  134.9443  155.3949 C   0  0  0  0  0  0  0  0  0  0  0  0
  148.8759  135.0560  157.6509 H   0  0  0  0  0  0  0  0  0  0  0  0
  152.1362  134.3294  157.2328 H   0  0  0  0  0  0  0  0  0  0  0  0
  152.0611  134.6168  155.5158 H   0  0  0  0  0  0  0  0  0  0  0  0
  152.2447  136.3410  158.7513 H   0  0  0  0  0  0  0  0  0  0  0  0
  150.5949  141.8883  154.6641 H   0  0  0  0  0  0  0  0  0  0  0  0
  149.5047  141.8418  156.0257 H   0  0  0  0  0  0  0  0  0  0  0  0
  152.0412  143.5241  155.7488 H   0  0  0  0  0  0  0  0  0  0  0  0
  150.4060  144.1307  155.7366 H   0  0  0  0  0  0  0  0  0  0  0  0
  149.1994  143.7530  157.5104 H   0  0  0  0  0  0  0  0  0  0  0  0
  152.6831  145.0082  157.6466 H   0  0  0  0  0  0  0  0  0  0  0  0
  151.0849  145.6968  157.7514 H   0  0  0  0  0  0  0  0  0  0  0  0
  152.3640  145.9509  159.8883 H   0  0  0  0  0  0  0  0  0  0  0  0
  150.9030  145.0293  160.1272 H   0  0  0  0  0  0  0  0  0  0  0  0
  153.7290  143.9026  159.8511 H   0  0  0  0  0  0  0  0  0  0  0  0
  152.7593  143.9206  161.3040 H   0  0  0  0  0  0  0  0  0  0  0  0
  152.7391  141.6772  160.2026 H   0  0  0  0  0  0  0  0  0  0  0  0
  151.1322  142.3516  160.3067 H   0  0  0  0  0  0  0  0  0  0  0  0
  152.9635  142.4471  157.8806 H   0  0  0  0  0  0  0  0  0  0  0  0
  150.4343  140.8058  158.2851 H   0  0  0  0  0  0  0  0  0  0  0  0
  152.0813  140.2027  158.2208 H   0  0  0  0  0  0  0  0  0  0  0  0
  150.2236  138.3553  152.9793 H   0  0  0  0  0  0  0  0  0  0  0  0
  150.6996  132.5202  155.2062 H   0  0  0  0  0  0  0  0  0  0  0  0
  150.5991  132.1300  156.9053 H   0  0  0  0  0  0  0  0  0  0  0  0
  148.7386  131.1090  155.5788 H   0  0  0  0  0  0  0  0  0  0  0  0
  148.1086  132.1873  156.8052 H   0  0  0  0  0  0  0  0  0  0  0  0
  147.3125  134.7639  154.4151 H   0  0  0  0  0  0  0  0  0  0  0  0
  147.2626  134.3526  156.1159 H   0  0  0  0  0  0  0  0  0  0  0  0
  149.1063  135.9895  155.6775 H   0  0  0  0  0  0  0  0  0  0  0  0
  149.7475  134.9526  154.4300 H   0  0  0  0  0  0  0  0  0  0  0  0
  1  2  1  0  0  0  0
  1 29  1  0  0  0  0
  2 28  1  0  0  0  0
  2  3  1  0  0  0  0
  2 24  1  0  0  0  0
  3  4  1  0  0  0  0
  3 30  1  0  0  0  0
  3 31  1  0  0  0  0
  4 23  1  0  0  0  0
  4  5  1  0  0  0  0
  5  6  2  0  0  0  0
  5 32  1  0  0  0  0
  6  7  1  0  0  0  0
  7 23  2  0  0  0  0
  7  8  1  0  0  0  0
  8  9  1  0  0  0  0
  8 20  2  0  0  0  0
  9 19  1  0  0  0  0
  9 10  1  0  0  0  0
 10 11  1  0  0  0  0
 10 33  1  0  0  0  0
 10 34  1  0  0  0  0
 11 12  1  0  0  0  0
 11 35  1  0  0  0  0
 11 36  1  0  0  0  0
 12 18  1  0  0  0  0
 12 13  1  0  0  0  0
 12 14  1  0  0  0  0
 13 37  1  0  0  0  0
 14 15  1  0  0  0  0
 14 38  1  0  0  0  0
 14 39  1  0  0  0  0
 15 16  1  0  0  0  0
 15 40  1  0  0  0  0
 15 41  1  0  0  0  0
 16 17  1  0  0  0  0
 16 42  1  0  0  0  0
 16 43  1  0  0  0  0
 17 18  1  0  0  0  0
 17 44  1  0  0  0  0
 17 45  1  0  0  0  0
 18 19  1  0  0  0  0
 18 46  1  0  0  0  0
 19 47  1  0  0  0  0
 19 48  1  0  0  0  0
 20 21  1  0  0  0  0
 21 22  2  0  0  0  0
 21 49  1  0  0  0  0
 22 23  1  0  0  0  0
 24 25  1  0  0  0  0
 24 50  1  0  0  0  0
 24 51  1  0  0  0  0
 25 26  1  0  0  0  0
 25 52  1  0  0  0  0
 25 53  1  0  0  0  0
 26 27  1  0  0  0  0
 27 28  1  0  0  0  0
 27 54  1  0  0  0  0
 27 55  1  0  0  0  0
 28 56  1  0  0  0  0
 28 57  1  0  0  0  0
M  END
> <s_m_source_file>
AV-unprocessed.smi

> <i_m_source_file_index>
263

> <i_lp_mmshare_version>
43012

> <i_f3d_flags>
0

> <s_epik_input>
W0NIMl0xW0NIMl1PW0NIMl1bQ0gyXUMxKFtPSF0pW0NIMl1uKFtjSF1uMiljKGMyMyluW2NIXW5jM04oW0NIMl1bQ0gyXTQpW0NIMl1bQ0BASF0oW0NAXTQ1W09IXSlbQ0gyXVtDSDJdW0NIMl1bQ0gyXTU=

> <s_epik_cmdline>
J2VwaWtfcHl0aG9uJywgJy1waCcsICc3LjAnLCAnLXRuJywgJzgnLCAnLW1hJywgJzIwMCcsICctbWV0YWxfYmluZGluZycsICctaW1hZScsICc8aW5maWxlLm1hZT4nLCAnLW9tYWUnLCAnPG91dGZpbGUubWFlPic=

> <r_lp_tautomer_probability>
1

> <r_epik_Ionization_Penalty>
0.00747493

> <r_epik_Ionization_Penalty_Charging>
0

> <r_epik_Ionization_Penalty_Neutral>
0.00747493

> <r_epik_State_Penalty>
0.00549307

> <r_epik_Charging_Adjusted_Penalty>
0.00549307

> <i_epik_Tot_Q>
0

> <i_epik_Tot_abs_Q>
0

> <r_epik_Metal_State_Penalty>
-0

> <b_epik_Metal_Only>
0

> <s_lp_Force_Field>
OPLS_2005

> <r_lp_Energy>
38.6154

> <b_lp_Chiralities_Consistent>
1

> <s_lp_Variant>
AV-unprocessed.smi:263-1

> <Gold.Version>
5.8.1

> <Gold.Id.Protein>
6NUR|6NUR_protein|mol2

> <Gold.PLP.Fitness>
49.6446

> <Gold.PLP.PLP>
-37.4878

> <Gold.PLP.part.hbond>
-3.3024

> <Gold.PLP.part.metal>
0.0000

> <Gold.PLP.part.buried>
-1.5598

> <Gold.PLP.part.nonpolar>
-32.2530

> <Gold.PLP.part.repulsive>
0.3468

> <Gold.PLP.ligand.clash>
0.0000

> <Gold.PLP.ligand.torsion>
0.7430

> <Gold.PLP.Chemscore.Hbond>
2.8613

> <Gold.PLP.Chemscore.CHOScore>
1.5616

> <Gold.PLP.Chemscore.Metal>
0.0000

> <Gold.Chemscore.Hbonds>
donor molecule, donor type, donor heavy atom, donor atom, acceptor molecule, acceptor atom, score
      L1  H    13    37       P1  8028  0.84
      P1  H  6896  6909       L1     1  1.00
      P1  H  7989  7998       L1    20  1.00
      L1  C    21    49       P1  7948  0.56
      L1  C    21    49       P1  7957  1.00

> <Gold.PLP.Chemscore.Internal.Correction>
0.3743

> <Gold.Rescore>
     Score         DG    S(hbond)    S(metal)    S(lipo)     H(rot)  DE(clash)    DE(int)     intcor
     14.42     -19.38       1.96        0.00     120.15       2.62       1.60       3.36       ----

> <Gold.Chemscore.Fitness>
14.4202

> <Gold.Chemscore.DG>
-19.3791

> <Gold.Chemscore.ZeroCoef>
-5.4800

> <Gold.Chemscore.Hbond>
1.9631

> <Gold.Chemscore.Metal>
0.0000

> <Gold.Chemscore.Lipo>
120.1516

> <Gold.Chemscore.Internal_Hbond>
0.0000

> <Gold.Chemscore.DEClash>
1.6020

> <Gold.Chemscore.DEInternal>
3.3569

> <Gold.Chemscore.Rot>
2.6232

> <Gold.Chemscore.Internal.Correction>
   9.000000E+99

> <Gold.Chemscore.Hbonds>
donor molecule, donor type, donor heavy atom, donor atom, acceptor molecule, acceptor atom, score
      L1  H    13    37       P1  8028  0.20
      P1  H  6896  6909       L1     1  0.83
      P1  H  7989  7998       L1    20  0.65

> <Gold.Chemscore.Hbond.Weighted>
-6.5569

> <Gold.Chemscore.Metal.Weighted>
-0.0000

> <Gold.Chemscore.Lipo.Weighted>
-14.0577

> <Gold.Chemscore.Internal_Hbond.Weighted>
0.0000

> <Gold.Chemscore.DEClash.Weighted>
1.6020

> <Gold.Chemscore.DEInternal.Weighted>
3.3569

> <Gold.Chemscore.Rot.Weighted>
6.7155

> <Gold.Chemscore.Internal.Correction.Weighted>
   9.000000E+99

> <Gold.Protein.RotatedTorsions>
[ 6907 6896 6895 6894 ] final    7.59 input  -60.11 | X-H torsion
[ 7974 7965 7964 7962 ] final  163.82 input  175.53 | X-H torsion
[ 8008 7997 7996 7995 ] final  -32.75 input   59.86 | X-H torsion
[ 10167 10162 10161 10158 ] final  179.60 input  -65.29 | X-H torsion
[ 10718 10713 10712 10709 ] final  -11.82 input   66.30 | X-H torsion
[ 10763 10752 10751 10750 ] final -162.25 input  -60.55 | X-H torsion
[ 11005 11000 10999 10996 ] final  -81.81 input  -57.11 | X-H torsion

> <Gold.Protein.ActiveResidues>
 VAL166  LYS551  ARG553  GLY616  TRP617  ASP618  TYR619  PRO620  LYS621  CYS622 
 ASP623  PHE694  ASN695  SER759  ASP760  ASP761  ALA762  ILE779  LEU786  VAL792 
 PHE793  MET794  SER795  GLU796  ALA797  LYS798  CYS799  TRP800  GLU811  SER814 

> <Gold.Protein.RotatedAtoms>
  151.6923  135.0944  160.0235 H   0  0  0  0  0  0  0  0  0  0  0  0  # atno 6907 bound_to 6896
  152.3771  133.6491  159.6140 H   0  0  0  0  0  0  0  0  0  0  0  0  # atno 6908 bound_to 6896
  150.7717  133.9092  159.3405 H   0  0  0  0  0  0  0  0  0  0  0  0  # atno 6909 bound_to 6896
  144.7572  139.8237  143.6345 H   0  0  0  0  0  0  0  0  0  0  0  0  # atno 7974 bound_to 7965
  154.4170  140.1729  156.1777 H   0  0  0  0  0  0  0  0  0  0  0  0  # atno 8008 bound_to 7997
  155.9708  140.3386  155.6550 H   0  0  0  0  0  0  0  0  0  0  0  0  # atno 8009 bound_to 7997
  155.6627  140.0703  157.2539 H   0  0  0  0  0  0  0  0  0  0  0  0  # atno 8010 bound_to 7997
  139.5343  144.2541  152.0760 H   0  0  0  0  0  0  0  0  0  0  0  0  # atno 10167 bound_to 10162
  156.6535  130.4961  149.6054 H   0  0  0  0  0  0  0  0  0  0  0  0  # atno 10718 bound_to 10713
  154.7231  135.3030  154.9016 H   0  0  0  0  0  0  0  0  0  0  0  0  # atno 10763 bound_to 10752
  153.9881  135.6722  153.4757 H   0  0  0  0  0  0  0  0  0  0  0  0  # atno 10764 bound_to 10752
  153.0851  135.4988  154.8498 H   0  0  0  0  0  0  0  0  0  0  0  0  # atno 10765 bound_to 10752
  141.1665  133.7214  156.8478 H   0  0  0  0  0  0  0  0  0  0  0  0  # atno 11005 bound_to 11000
  146.1596  139.4706  142.9996 LP  0  0  0  0  0  0  0  0  0  0  0  0  # atno 17320 bound_to 7965
  145.6738  141.0209  143.1643 LP  0  0  0  0  0  0  0  0  0  0  0  0  # atno 17321 bound_to 7965
  140.2009  144.4658  150.6432 LP  0  0  0  0  0  0  0  0  0  0  0  0  # atno 17342 bound_to 10162
  140.6541  143.2233  151.6009 LP  0  0  0  0  0  0  0  0  0  0  0  0  # atno 17343 bound_to 10162
  156.2066  130.6653  151.1224 LP  0  0  0  0  0  0  0  0  0  0  0  0  # atno 17370 bound_to 10713
  157.7133  131.0723  150.6421 LP  0  0  0  0  0  0  0  0  0  0  0  0  # atno 17371 bound_to 10713
  140.1937  134.8947  157.3090 LP  0  0  0  0  0  0  0  0  0  0  0  0  # atno 17394 bound_to 11000
  140.2262  134.3964  155.7542 LP  0  0  0  0  0  0  0  0  0  0  0  0  # atno 17395 bound_to 11000

$$$$
