#       Name:                AV-unprocessed.smi:146
#       Creating user name   scv26
#       Creation time:       Thu Mar 26 18:35:56 2020


#       File generated by GOLD software.
#

@<TRIPOS>MOLECULE
AV-unprocessed.smi:146
    67    71     1
SMALL
NO_CHARGES


@<TRIPOS>ATOM
      1 ****        -3.6644  -0.9018  -3.2531 C.3            1 S1                 0.0000
      2 ****        -3.1909  -0.6935  -1.8062 C.3            1 S1                 0.0000
      3 ****        -2.9613  -2.0729  -1.1550 C.3            1 S1                 0.0000
      4 ****        -1.9001   0.1480  -1.8036 C.3            1 S1                 0.0000
      5 ****        -1.5909   0.6073  -0.4564 N.3            1 S1                 0.0000
      6 ****        -0.3085   1.0081  -0.2625 C.ar           1 S1                 0.0000
      7 ****        -0.0461   2.2867   0.1202 N.ar           1 S1                 0.0000
      8 ****         1.2141   2.6948   0.2953 C.ar           1 S1                 0.0000
      9 ****         2.3440   2.0013   0.1462 N.ar           1 S1                 0.0000
     10 ****         2.0892   0.7136  -0.2237 C.ar           1 S1                 0.0000
     11 ****         0.8054   0.1399  -0.4472 C.ar           1 S1                 0.0000
     12 ****         0.9427  -1.1958  -0.8058 N.2            1 S1                 0.0000
     13 ****         2.2322  -1.3944  -0.8119 C.2            1 S1                 0.0000
     14 ****         2.9976  -0.3041  -0.4623 N.pl3          1 S1                 0.0000
     15 ****         4.4511  -0.2357  -0.3937 C.3            1 S1                 0.0000
     16 ****         5.0639  -0.6907   0.9531 C.3            1 S1                 0.0000
     17 ****         6.5674  -0.3834   0.9206 C.3            1 S1                 0.0000
     18 ****         6.8092   1.0086   0.9552 O.3            1 S1                 0.0000
     19 ****         4.3198  -0.3128   2.2462 C.3            1 S1                 0.0000
     20 ****         3.7302  -1.6259   2.3530 O.3            1 S1                 0.0000
     21 ****         4.7012  -2.1153   1.4046 C.3            1 S1                 0.0000
     22 ****        -2.6657   1.4134   0.1088 C.3            1 S1                 0.0000
     23 ****        -4.0011   0.6329   0.1096 C.3            1 S1                 0.0000
     24 ****        -5.1675   1.5720   0.3933 C.3            1 S1                 0.0000
     25 ****        -5.2608   1.5582   1.9108 C.3            1 S1                 0.0000
     26 ****        -5.0406   0.1956   2.2267 O.3            1 S1                 0.0000
     27 ****        -4.1243  -0.3595   1.2869 C.3            1 S1                 0.0000
     28 ****        -4.2522   0.0359  -1.1708 O.3            1 S1                 0.0000
     29 ****        -2.9176  -1.4338  -3.8436 H              1 S1                 0.0000
     30 ****        -3.8574   0.0513  -3.7468 H              1 S1                 0.0000
     31 ****        -4.5877  -1.4810  -3.2869 H              1 S1                 0.0000
     32 ****        -2.2594  -2.6673  -1.7407 H              1 S1                 0.0000
     33 ****        -3.8916  -2.6373  -1.0861 H              1 S1                 0.0000
     34 ****        -2.5404  -1.9945  -0.1537 H              1 S1                 0.0000
     35 ****        -1.0840  -0.4274  -2.2391 H              1 S1                 0.0000
     36 ****        -2.0269   1.0262  -2.4384 H              1 S1                 0.0000
     37 ****         1.3340   3.7251   0.5964 H              1 S1                 0.0000
     38 ****         2.6601  -2.3501  -1.0753 H              1 S1                 0.0000
     39 ****         4.8488  -0.8403  -1.2096 H              1 S1                 0.0000
     40 ****         4.7379   0.7906  -0.6242 H              1 S1                 0.0000
     41 ****         7.0755  -0.8298   1.7759 H              1 S1                 0.0000
     42 ****         7.0355  -0.8022   0.0291 H              1 S1                 0.0000
     43 ****         7.7433   1.1520   0.9468 H              1 S1                 0.0000
     44 ****         4.9818  -0.1011   3.0877 H              1 S1                 0.0000
     45 ****         3.5796   0.4786   2.1380 H              1 S1                 0.0000
     46 ****         4.2627  -2.7411   0.6288 H              1 S1                 0.0000
     47 ****         5.5155  -2.6440   1.9030 H              1 S1                 0.0000
     48 ****        -2.4153   1.7290   1.1225 H              1 S1                 0.0000
     49 ****        -2.7634   2.3189  -0.4922 H              1 S1                 0.0000
     50 ****        -5.0365   2.5733  -0.0180 H              1 S1                 0.0000
     51 ****        -6.0900   1.1634  -0.0224 H              1 S1                 0.0000
     52 ****        -4.4779   2.1717   2.3588 H              1 S1                 0.0000
     53 ****        -6.2260   1.9060   2.2792 H              1 S1                 0.0000
     54 ****        -4.5322  -1.3178   0.9670 H              1 S1                 0.0000
     55 ****        -3.1626  -0.5488   1.7649 H              1 S1                 0.0000
     56 ****        -1.5833  -0.1966   0.1384 LP             1 S1                 0.0000
     57 ****        -0.8008   2.9251   0.2714 LP             1 S1                 0.0000
     58 ****         3.2598   2.3773   0.2875 LP             1 S1                 0.0000
     59 ****         0.2187  -1.8541  -1.0120 LP             1 S1                 0.0000
     60 ****         6.4158   1.3985   1.7878 LP             1 S1                 0.0000
     61 ****         6.3943   1.4428   0.1556 LP             1 S1                 0.0000
     62 ****         2.7832  -1.6785   2.0363 LP             1 S1                 0.0000
     63 ****         3.8008  -2.0357   3.2624 LP             1 S1                 0.0000
     64 ****        -5.9068  -0.3022   2.1838 LP             1 S1                 0.0000
     65 ****        -4.6598   0.1230   3.1485 LP             1 S1                 0.0000
     66 ****        -5.0181  -0.5968  -1.0565 LP             1 S1                 0.0000
     67 ****        -4.5181   0.7723  -1.7929 LP             1 S1                 0.0000
@<TRIPOS>BOND
    1    1    2 1     
    2    1   29 1     
    3    1   30 1     
    4    1   31 1     
    5    2   28 1     
    6    2    3 1     
    7    2    4 1     
    8    3   32 1     
    9    3   33 1     
   10    3   34 1     
   11    4    5 1     
   12    4   35 1     
   13    4   36 1     
   14    5    6 1     
   15    5   22 1     
   16    6   11 ar    
   17    6    7 ar    
   18    7    8 ar    
   19    8    9 ar    
   20    8   37 1     
   21    9   10 ar    
   22   10   14 1     
   23   10   11 ar    
   24   11   12 1     
   25   12   13 2     
   26   13   14 1     
   27   13   38 1     
   28   14   15 1     
   29   15   16 1     
   30   15   39 1     
   31   15   40 1     
   32   16   21 1     
   33   16   17 1     
   34   16   19 1     
   35   17   18 1     
   36   17   41 1     
   37   17   42 1     
   38   18   43 1     
   39   19   20 1     
   40   19   44 1     
   41   19   45 1     
   42   20   21 1     
   43   21   46 1     
   44   21   47 1     
   45   22   23 1     
   46   22   48 1     
   47   22   49 1     
   48   23   27 1     
   49   23   24 1     
   50   23   28 1     
   51   24   25 1     
   52   24   50 1     
   53   24   51 1     
   54   25   26 1     
   55   25   52 1     
   56   25   53 1     
   57   26   27 1     
   58   27   54 1     
   59   27   55 1     
   60    5   56 1     
   61    7   57 1     
   62    9   58 1     
   63   12   59 1     
   64   18   60 1     
   65   18   61 1     
   66   20   62 1     
   67   20   63 1     
   68   26   64 1     
   69   26   65 1     
   70   28   66 1     
   71   28   67 1     
@<TRIPOS>SUBSTRUCTURE
      1 S1             1
@<TRIPOS>SET
LONE_PAIRS      STATIC     ATOMS    <user>   **** ""
12 56 57 58 59 60 61 62 63 64 65 66 67
DONOR_HYDROGENS      STATIC     ATOMS    <user>   **** ""
1 43
ATOM$BLUE        STATIC     ATOMS    COLORGROUP SYSTEM
12 56 57 58 59 60 61 62 63 64 65 66 67
ATOM$RED        STATIC     ATOMS    COLORGROUP SYSTEM
1 43
