AV-unprocessed.smi:2923|AV-procd|sdf|11203|dock9
  -GOLD-   2272016 93D 1   1.00000     0.00000
 Structure written by MMmdl.
 47 49  0  0  0  0  0  0  0  0  2 V2000
  145.9656  137.1777  152.7054 C   0  0  0  0  0  0  0  0  0  0  0  0
  146.5239  138.4412  152.2362 N   0  0  0  0  0  0  0  0  0  0  0  0
  146.4528  138.7985  150.8253 C   0  0  0  0  0  0  0  0  0  0  0  0
  147.1583  139.3098  153.1503 C   0  0  0  0  0  0  0  0  0  0  0  0
  147.7904  138.8620  154.3362 C   0  0  0  0  0  0  0  0  0  0  0  0
  148.4011  139.7941  155.2004 C   0  0  0  0  0  0  0  0  0  0  0  0
  148.3864  141.1670  154.8778 C   0  0  0  0  0  0  0  0  0  0  0  0
  149.0014  142.0676  155.7897 N   0  0  0  0  0  0  0  0  0  0  0  0
  149.5455  141.8067  156.9911 C   0  0  0  0  0  0  0  0  0  0  0  0
  149.5605  140.7074  157.5437 O   0  0  0  0  0  0  0  0  0  0  0  0
  150.0660  142.9128  157.5380 N   0  0  0  0  0  0  0  0  0  0  0  0
  150.7157  142.9563  158.8425 C   0  0  1  0  0  0  0  0  0  0  0  0
  151.9751  142.0921  158.8982 C   0  0  2  0  0  0  0  0  0  0  0  0
  152.3628  140.8568  159.6296 C   0  0  0  0  0  0  0  0  0  0  0  0
  153.7593  141.3285  160.1163 C   0  0  0  0  0  0  0  0  0  0  0  0
  153.8183  142.7491  159.8377 O   0  0  0  0  0  0  0  0  0  0  0  0
  152.4647  143.1529  159.8648 C   0  0  1  0  0  0  0  0  0  0  0  0
  151.6848  144.1845  159.0249 C   0  0  0  0  0  0  0  0  0  0  0  0
  152.3912  144.7912  157.7954 C   0  0  0  0  0  0  0  0  0  0  0  0
  151.1061  145.3616  159.8106 C   0  0  0  0  0  0  0  0  0  0  0  0
  147.7348  141.5656  153.6865 C   0  0  0  0  0  0  0  0  0  0  0  0
  147.1621  140.6395  152.8880 N   0  3  0  0  0  0  0  0  0  0  0  0
  146.7469  136.5503  153.1360 H   0  0  0  0  0  0  0  0  0  0  0  0
  145.5011  136.6212  151.8913 H   0  0  0  0  0  0  0  0  0  0  0  0
  145.2032  137.3539  153.4651 H   0  0  0  0  0  0  0  0  0  0  0  0
  145.8940  139.7254  150.6924 H   0  0  0  0  0  0  0  0  0  0  0  0
  145.9536  138.0226  150.2449 H   0  0  0  0  0  0  0  0  0  0  0  0
  147.4529  138.9309  150.4116 H   0  0  0  0  0  0  0  0  0  0  0  0
  147.8162  137.8155  154.6011 H   0  0  0  0  0  0  0  0  0  0  0  0
  148.8804  139.4509  156.1058 H   0  0  0  0  0  0  0  0  0  0  0  0
  149.0051  143.0363  155.5052 H   0  0  0  0  0  0  0  0  0  0  0  0
  150.0098  143.7800  157.0244 H   0  0  0  0  0  0  0  0  0  0  0  0
  150.0415  142.7852  159.6868 H   0  0  0  0  0  0  0  0  0  0  0  0
  152.4945  142.1160  157.9374 H   0  0  0  0  0  0  0  0  0  0  0  0
  151.6889  140.6457  160.4611 H   0  0  0  0  0  0  0  0  0  0  0  0
  152.4182  139.9805  158.9833 H   0  0  0  0  0  0  0  0  0  0  0  0
  153.8815  141.1442  161.1843 H   0  0  0  0  0  0  0  0  0  0  0  0
  154.5675  140.8201  159.5900 H   0  0  0  0  0  0  0  0  0  0  0  0
  152.0531  143.0545  160.8759 H   0  0  0  0  0  0  0  0  0  0  0  0
  153.1984  145.4588  158.0981 H   0  0  0  0  0  0  0  0  0  0  0  0
  151.6989  145.3770  157.1898 H   0  0  0  0  0  0  0  0  0  0  0  0
  152.8344  144.0503  157.1328 H   0  0  0  0  0  0  0  0  0  0  0  0
  151.8897  146.0398  160.1500 H   0  0  0  0  0  0  0  0  0  0  0  0
  150.5650  145.0253  160.6956 H   0  0  0  0  0  0  0  0  0  0  0  0
  150.4052  145.9404  159.2085 H   0  0  0  0  0  0  0  0  0  0  0  0
  147.6332  142.5826  153.3393 H   0  0  0  0  0  0  0  0  0  0  0  0
  146.7020  140.9629  152.0369 H   0  0  0  0  0  0  0  0  0  0  0  0
  1  2  1  0  0  0  0
  1 23  1  0  0  0  0
  1 24  1  0  0  0  0
  1 25  1  0  0  0  0
  2  3  1  0  0  0  0
  2  4  1  0  0  0  0
  3 26  1  0  0  0  0
  3 27  1  0  0  0  0
  3 28  1  0  0  0  0
  4 22  1  0  0  0  0
  4  5  2  0  0  0  0
  5  6  1  0  0  0  0
  5 29  1  0  0  0  0
  6  7  2  0  0  0  0
  6 30  1  0  0  0  0
  7  8  1  0  0  0  0
  7 21  1  0  0  0  0
  8  9  1  0  0  0  0
  8 31  1  0  0  0  0
  9 10  2  0  0  0  0
  9 11  1  0  0  0  0
 11 12  1  0  0  0  0
 11 32  1  0  0  0  0
 12 18  1  0  0  0  0
 12 13  1  0  0  0  0
 12 33  1  0  0  0  0
 13 17  1  0  0  0  0
 13 14  1  0  0  0  0
 13 34  1  0  0  0  0
 14 15  1  0  0  0  0
 14 35  1  0  0  0  0
 14 36  1  0  0  0  0
 15 16  1  0  0  0  0
 15 37  1  0  0  0  0
 15 38  1  0  0  0  0
 16 17  1  0  0  0  0
 17 18  1  0  0  0  0
 17 39  1  0  0  0  0
 18 19  1  0  0  0  0
 18 20  1  0  0  0  0
 19 40  1  0  0  0  0
 19 41  1  0  0  0  0
 19 42  1  0  0  0  0
 20 43  1  0  0  0  0
 20 44  1  0  0  0  0
 20 45  1  0  0  0  0
 21 22  2  0  0  0  0
 21 46  1  0  0  0  0
 22 47  1  0  0  0  0
M  CHG  1  22   1
M  END
> <s_m_source_file>
AV-unprocessed.smi

> <i_m_source_file_index>
2923

> <i_lp_mmshare_version>
43012

> <i_f3d_flags>
0

> <s_epik_input>
W0NIM11OKFtDSDNdKWMxW2NIXVtjSF1jKFtjSF1uMSlbTkhdQyg9TylbTkhdW0NASF0yQyhbQ0gzXSkoW0NIM10pW0NAQEhdKFtDQEhdMjMpT1tDSDJdW0NIMl0z

> <s_epik_cmdline>
J2VwaWtfcHl0aG9uJywgJy1waCcsICc3LjAnLCAnLXRuJywgJzgnLCAnLW1hJywgJzIwMCcsICctbWV0YWxfYmluZGluZycsICctaW1hZScsICc8aW5maWxlLm1hZT4nLCAnLW9tYWUnLCAnPG91dGZpbGUubWFlPic=

> <r_lp_tautomer_probability>
0.999994

> <r_epik_Ionization_Penalty>
0.252205

> <r_epik_Ionization_Penalty_Charging>
0.252185

> <r_epik_Ionization_Penalty_Neutral>
1.99479e-05

> <r_epik_State_Penalty>
0.243573

> <r_epik_Charging_Adjusted_Penalty>
0.495758

> <i_epik_Tot_Q>
1

> <i_epik_Tot_abs_Q>
1

> <r_epik_Metal_State_Penalty>
0.534372

> <b_epik_Metal_Only>
0

> <s_lp_Force_Field>
OPLS_2005

> <r_lp_Energy>
67.7909

> <b_lp_Chiralities_Consistent>
1

> <s_lp_Variant>
AV-unprocessed.smi:2923-2

> <Gold.Version>
5.8.1

> <Gold.Id.Protein>
6NUR|6NUR_protein|mol2

> <Gold.PLP.Fitness>
48.8318

> <Gold.PLP.PLP>
-44.0632

> <Gold.PLP.part.hbond>
-3.0000

> <Gold.PLP.part.metal>
0.0000

> <Gold.PLP.part.buried>
-0.4717

> <Gold.PLP.part.nonpolar>
-40.7975

> <Gold.PLP.part.repulsive>
0.2157

> <Gold.PLP.ligand.clash>
0.0000

> <Gold.PLP.ligand.torsion>
0.4970

> <Gold.PLP.Chemscore.Hbond>
1.8320

> <Gold.PLP.Chemscore.CHOScore>
0.0000

> <Gold.PLP.Chemscore.Metal>
0.0000

> <Gold.Chemscore.Hbonds>
donor molecule, donor type, donor heavy atom, donor atom, acceptor molecule, acceptor atom, score
      L1  H     8    31       P1  8028  1.00
      L1  H    11    32       P1  8028  0.85

> <Gold.PLP.Chemscore.Internal.Correction>
0.2666

> <Gold.Rescore>
     Score         DG    S(hbond)    S(metal)    S(lipo)     H(rot)  DE(clash)    DE(int)     intcor
     18.76     -22.79       1.89        0.00     115.86       1.00       2.33       1.70       ----

> <Gold.Chemscore.Fitness>
18.7577

> <Gold.Chemscore.DG>
-22.7873

> <Gold.Chemscore.ZeroCoef>
-5.4800

> <Gold.Chemscore.Hbond>
1.8896

> <Gold.Chemscore.Metal>
0.0000

> <Gold.Chemscore.Lipo>
115.8637

> <Gold.Chemscore.Internal_Hbond>
0.0000

> <Gold.Chemscore.DEClash>
2.3279

> <Gold.Chemscore.DEInternal>
1.7017

> <Gold.Chemscore.Rot>
1.0000

> <Gold.Chemscore.Internal.Correction>
   9.000000E+99

> <Gold.Chemscore.Hbonds>
donor molecule, donor type, donor heavy atom, donor atom, acceptor molecule, acceptor atom, score
      L1  H     8    31       P1  8028  0.99
      L1  H    11    32       P1  8028  0.78

> <Gold.Chemscore.Hbond.Weighted>
-6.3113

> <Gold.Chemscore.Metal.Weighted>
-0.0000

> <Gold.Chemscore.Lipo.Weighted>
-13.5560

> <Gold.Chemscore.Internal_Hbond.Weighted>
0.0000

> <Gold.Chemscore.DEClash.Weighted>
2.3279

> <Gold.Chemscore.DEInternal.Weighted>
1.7017

> <Gold.Chemscore.Rot.Weighted>
2.5600

> <Gold.Chemscore.Internal.Correction.Weighted>
   9.000000E+99

> <Gold.Protein.RotatedTorsions>
[ 6907 6896 6895 6894 ] final   65.81 input  -60.11 | X-H torsion
[ 7974 7965 7964 7962 ] final   11.48 input  175.53 | X-H torsion
[ 8008 7997 7996 7995 ] final   81.74 input   59.86 | X-H torsion
[ 10167 10162 10161 10158 ] final   32.53 input  -65.29 | X-H torsion
[ 10718 10713 10712 10709 ] final   36.12 input   66.30 | X-H torsion
[ 10763 10752 10751 10750 ] final   64.16 input  -60.55 | X-H torsion
[ 11005 11000 10999 10996 ] final  142.05 input  -57.11 | X-H torsion

> <Gold.Protein.ActiveResidues>
 VAL166  LYS551  ARG553  GLY616  TRP617  ASP618  TYR619  PRO620  LYS621  CYS622 
 ASP623  PHE694  ASN695  SER759  ASP760  ASP761  ALA762  ILE779  LEU786  VAL792 
 PHE793  MET794  SER795  GLU796  ALA797  LYS798  CYS799  TRP800  GLU811  SER814 

> <Gold.Protein.RotatedAtoms>
  152.4435  134.5543  159.9875 H   0  0  0  0  0  0  0  0  0  0  0  0  # atno 6907 bound_to 6896
  151.5634  133.3394  159.2983 H   0  0  0  0  0  0  0  0  0  0  0  0  # atno 6908 bound_to 6896
  150.8346  134.7646  159.6946 H   0  0  0  0  0  0  0  0  0  0  0  0  # atno 6909 bound_to 6896
  146.2370  139.9479  142.8474 H   0  0  0  0  0  0  0  0  0  0  0  0  # atno 7974 bound_to 7965
  155.9013  140.3433  155.6028 H   0  0  0  0  0  0  0  0  0  0  0  0  # atno 8008 bound_to 7997
  155.7497  140.0818  157.2226 H   0  0  0  0  0  0  0  0  0  0  0  0  # atno 8009 bound_to 7997
  154.4044  140.1555  156.2697 H   0  0  0  0  0  0  0  0  0  0  0  0  # atno 8010 bound_to 7997
  140.4490  144.1077  150.6188 H   0  0  0  0  0  0  0  0  0  0  0  0  # atno 10167 bound_to 10162
  157.3310  130.7498  149.6847 H   0  0  0  0  0  0  0  0  0  0  0  0  # atno 10718 bound_to 10713
  153.0045  135.5403  154.6466 H   0  0  0  0  0  0  0  0  0  0  0  0  # atno 10763 bound_to 10752
  154.5708  135.2841  155.0831 H   0  0  0  0  0  0  0  0  0  0  0  0  # atno 10764 bound_to 10752
  154.1997  135.6486  153.5136 H   0  0  0  0  0  0  0  0  0  0  0  0  # atno 10765 bound_to 10752
  140.0447  134.9287  157.0908 H   0  0  0  0  0  0  0  0  0  0  0  0  # atno 11005 bound_to 11000
  145.1890  140.9802  143.4222 LP  0  0  0  0  0  0  0  0  0  0  0  0  # atno 17320 bound_to 7965
  144.9874  139.3722  143.6231 LP  0  0  0  0  0  0  0  0  0  0  0  0  # atno 17321 bound_to 7965
  140.4230  143.2603  151.9692 LP  0  0  0  0  0  0  0  0  0  0  0  0  # atno 17342 bound_to 10162
  139.4795  144.5814  151.7927 LP  0  0  0  0  0  0  0  0  0  0  0  0  # atno 17343 bound_to 10162
  155.9696  130.4195  150.4378 LP  0  0  0  0  0  0  0  0  0  0  0  0  # atno 17370 bound_to 10713
  157.2410  131.0525  151.2436 LP  0  0  0  0  0  0  0  0  0  0  0  0  # atno 17371 bound_to 10713
  140.4012  134.2080  155.7163 LP  0  0  0  0  0  0  0  0  0  0  0  0  # atno 17394 bound_to 11000
  141.1901  133.8224  157.0931 LP  0  0  0  0  0  0  0  0  0  0  0  0  # atno 17395 bound_to 11000

$$$$
