AV-unprocessed.smi:898|AV-procd|sdf|4085|dock2
  -GOLD-   22720 1573D 1   1.00000     0.00000
 Structure written by MMmdl.
 33 35  0  0  0  0  0  0  0  0  2 V2000
  151.0137  140.6818  157.2638 O   0  0  0  0  0  0  0  0  0  0  0  0
  152.1566  140.5138  157.6955 C   0  0  0  0  0  0  0  0  0  0  0  0
  152.9829  139.4854  157.3965 N   0  5  0  0  0  0  0  0  0  0  0  0
  152.4839  138.2490  157.2338 C   0  0  0  0  0  0  0  0  0  0  0  0
  153.2677  137.1733  157.0754 N   0  0  0  0  0  0  0  0  0  0  0  0
  152.5514  135.9948  156.9255 N   0  0  0  0  0  0  0  0  0  0  0  0
  151.2329  136.1965  156.9807 C   0  0  0  0  0  0  0  0  0  0  0  0
  150.2478  135.0846  156.8414 C   0  0  0  0  0  0  0  0  0  0  0  0
  150.7124  133.6505  156.7314 C   0  0  0  0  0  0  0  0  0  0  0  0
  150.0857  134.3291  155.5403 C   0  0  0  0  0  0  0  0  0  0  0  0
  150.7620  137.8697  157.2328 S   0  0  0  0  0  0  0  0  0  0  0  0
  152.6890  141.4019  158.5475 N   0  0  0  0  0  0  0  0  0  0  0  0
  152.0380  142.6057  159.0583 C   0  0  2  0  0  0  0  0  0  0  0  0
  151.8365  143.6298  157.9216 C   0  0  0  0  0  0  0  0  0  0  0  0
  151.1065  144.8982  158.3919 C   0  0  0  0  0  0  0  0  0  0  0  0
  151.8790  145.6446  159.4883 C   0  0  0  0  0  0  0  0  0  0  0  0
  152.0712  144.6186  160.9708 S   0  0  0  0  0  0  0  0  0  0  0  0
  152.8822  143.1870  160.2055 C   0  0  0  0  0  0  0  0  0  0  0  0
  149.3535  135.2878  157.4270 H   0  0  0  0  0  0  0  0  0  0  0  0
  151.7850  133.4690  156.6998 H   0  0  0  0  0  0  0  0  0  0  0  0
  150.1256  132.8925  157.2462 H   0  0  0  0  0  0  0  0  0  0  0  0
  149.0794  134.0249  155.2602 H   0  0  0  0  0  0  0  0  0  0  0  0
  150.7430  134.5836  154.7111 H   0  0  0  0  0  0  0  0  0  0  0  0
  153.6279  141.2212  158.8714 H   0  0  0  0  0  0  0  0  0  0  0  0
  151.0633  142.3293  159.4651 H   0  0  0  0  0  0  0  0  0  0  0  0
  152.8013  143.9011  157.4908 H   0  0  0  0  0  0  0  0  0  0  0  0
  151.2613  143.1751  157.1142 H   0  0  0  0  0  0  0  0  0  0  0  0
  150.9583  145.5630  157.5406 H   0  0  0  0  0  0  0  0  0  0  0  0
  150.1109  144.6384  158.7536 H   0  0  0  0  0  0  0  0  0  0  0  0
  152.8658  145.9363  159.1272 H   0  0  0  0  0  0  0  0  0  0  0  0
  151.3549  146.5602  159.7628 H   0  0  0  0  0  0  0  0  0  0  0  0
  153.0450  142.4341  160.9775 H   0  0  0  0  0  0  0  0  0  0  0  0
  153.8650  143.4904  159.8428 H   0  0  0  0  0  0  0  0  0  0  0  0
  1  2  2  0  0  0  0
  2  3  1  0  0  0  0
  2 12  1  0  0  0  0
  3  4  1  0  0  0  0
  4 11  1  0  0  0  0
  4  5  2  0  0  0  0
  5  6  1  0  0  0  0
  6  7  2  0  0  0  0
  7  8  1  0  0  0  0
  7 11  1  0  0  0  0
  8 10  1  0  0  0  0
  8  9  1  0  0  0  0
  8 19  1  0  0  0  0
  9 10  1  0  0  0  0
  9 20  1  0  0  0  0
  9 21  1  0  0  0  0
 10 22  1  0  0  0  0
 10 23  1  0  0  0  0
 12 13  1  0  0  0  0
 12 24  1  0  0  0  0
 13 18  1  0  0  0  0
 13 14  1  0  0  0  0
 13 25  1  0  0  0  0
 14 15  1  0  0  0  0
 14 26  1  0  0  0  0
 14 27  1  0  0  0  0
 15 16  1  0  0  0  0
 15 28  1  0  0  0  0
 15 29  1  0  0  0  0
 16 17  1  0  0  0  0
 16 30  1  0  0  0  0
 16 31  1  0  0  0  0
 17 18  1  0  0  0  0
 18 32  1  0  0  0  0
 18 33  1  0  0  0  0
M  CHG  1   3  -1
M  END
> <s_m_source_file>
AV-unprocessed.smi

> <i_m_source_file_index>
898

> <i_lp_mmshare_version>
43012

> <i_f3d_flags>
0

> <s_epik_input>
W0NIMl0xU1tDSDJdW0NIMl1bQ0gyXVtDQEhdMVtOSF1DKD1PKVtOSF1jMm5uYyhzMilbQ0hdM1tDSDJdW0NIMl0z

> <s_epik_cmdline>
J2VwaWtfcHl0aG9uJywgJy1waCcsICc3LjAnLCAnLXRuJywgJzgnLCAnLW1hJywgJzIwMCcsICctbWV0YWxfYmluZGluZycsICctaW1hZScsICc8aW5maWxlLm1hZT4nLCAnLW9tYWUnLCAnPG91dGZpbGUubWFlPic=

> <r_lp_tautomer_probability>
1

> <r_epik_Ionization_Penalty>
4.71411

> <r_epik_Ionization_Penalty_Charging>
4.5615

> <r_epik_Ionization_Penalty_Neutral>
0.152604

> <r_epik_State_Penalty>
4.56123

> <r_epik_Charging_Adjusted_Penalty>
9.12273

> <i_epik_Tot_Q>
-1

> <i_epik_Tot_abs_Q>
1

> <r_epik_Metal_State_Penalty>
0.850765

> <b_epik_Metal_Only>
1

> <s_lp_Force_Field>
OPLS_2005

> <r_lp_Energy>
0.497958

> <b_lp_Chiralities_Consistent>
1

> <s_lp_Variant>
AV-unprocessed.smi:898-3

> <Gold.Version>
5.8.1

> <Gold.Id.Protein>
6NUR|6NUR_protein|mol2

> <Gold.PLP.Fitness>
43.2852

> <Gold.PLP.PLP>
-34.9073

> <Gold.PLP.part.hbond>
-2.8863

> <Gold.PLP.part.metal>
0.0000

> <Gold.PLP.part.buried>
-5.2035

> <Gold.PLP.part.nonpolar>
-27.5989

> <Gold.PLP.part.repulsive>
0.0955

> <Gold.PLP.ligand.clash>
0.0000

> <Gold.PLP.ligand.torsion>
0.4318

> <Gold.PLP.Chemscore.Hbond>
3.0000

> <Gold.PLP.Chemscore.CHOScore>
0.0000

> <Gold.PLP.Chemscore.Metal>
0.0000

> <Gold.Chemscore.Hbonds>
donor molecule, donor type, donor heavy atom, donor atom, acceptor molecule, acceptor atom, score
      P1  H  7997  8010       L1     3  2.00
      P1  H 10752 10764       L1     6  0.85

> <Gold.PLP.Chemscore.Internal.Correction>
0.2414

> <Gold.Rescore>
     Score         DG    S(hbond)    S(metal)    S(lipo)     H(rot)  DE(clash)    DE(int)     intcor
     17.18     -19.00       1.78        0.00      90.78       1.19       0.01       1.81       ----

> <Gold.Chemscore.Fitness>
17.1780

> <Gold.Chemscore.DG>
-18.9960

> <Gold.Chemscore.ZeroCoef>
-5.4800

> <Gold.Chemscore.Hbond>
1.7795

> <Gold.Chemscore.Metal>
0.0000

> <Gold.Chemscore.Lipo>
90.7848

> <Gold.Chemscore.Internal_Hbond>
0.0000

> <Gold.Chemscore.DEClash>
0.0106

> <Gold.Chemscore.DEInternal>
1.8074

> <Gold.Chemscore.Rot>
1.1911

> <Gold.Chemscore.Internal.Correction>
   9.000000E+99

> <Gold.Chemscore.Hbonds>
donor molecule, donor type, donor heavy atom, donor atom, acceptor molecule, acceptor atom, score
      P1  H  7997  8010       L1     3  0.78
      P1  H 10752 10764       L1     6  0.14

> <Gold.Chemscore.Hbond.Weighted>
-5.9434

> <Gold.Chemscore.Metal.Weighted>
-0.0000

> <Gold.Chemscore.Lipo.Weighted>
-10.6218

> <Gold.Chemscore.Internal_Hbond.Weighted>
0.0000

> <Gold.Chemscore.DEClash.Weighted>
0.0106

> <Gold.Chemscore.DEInternal.Weighted>
1.8074

> <Gold.Chemscore.Rot.Weighted>
3.0492

> <Gold.Chemscore.Internal.Correction.Weighted>
   9.000000E+99

> <Gold.Protein.RotatedTorsions>
[ 6907 6896 6895 6894 ] final   84.49 input  -60.11 | X-H torsion
[ 7974 7965 7964 7962 ] final  152.75 input  175.53 | X-H torsion
[ 8008 7997 7996 7995 ] final   31.67 input   59.86 | X-H torsion
[ 10167 10162 10161 10158 ] final   49.69 input  -65.29 | X-H torsion
[ 10718 10713 10712 10709 ] final -156.00 input   66.30 | X-H torsion
[ 10763 10752 10751 10750 ] final  -10.53 input  -60.55 | X-H torsion
[ 11005 11000 10999 10996 ] final   77.60 input  -57.11 | X-H torsion

> <Gold.Protein.ActiveResidues>
 VAL166  LYS551  ARG553  GLY616  TRP617  ASP618  TYR619  PRO620  LYS621  CYS622 
 ASP623  PHE694  ASN695  SER759  ASP760  ASP761  ALA762  ILE779  LEU786  VAL792 
 PHE793  MET794  SER795  GLU796  ALA797  LYS798  CYS799  TRP800  GLU811  SER814 

> <Gold.Protein.RotatedAtoms>
  152.5353  134.2732  159.8979 H   0  0  0  0  0  0  0  0  0  0  0  0  # atno 6907 bound_to 6896
  151.2688  133.4258  159.2628 H   0  0  0  0  0  0  0  0  0  0  0  0  # atno 6908 bound_to 6896
  151.0386  134.9606  159.8206 H   0  0  0  0  0  0  0  0  0  0  0  0  # atno 6909 bound_to 6896
  144.8201  139.6710  143.6104 H   0  0  0  0  0  0  0  0  0  0  0  0  # atno 7974 bound_to 7965
  155.1101  140.3238  155.4524 H   0  0  0  0  0  0  0  0  0  0  0  0  # atno 8008 bound_to 7997
  156.2693  140.2045  156.6173 H   0  0  0  0  0  0  0  0  0  0  0  0  # atno 8009 bound_to 7997
  154.6762  140.0531  157.0205 H   0  0  0  0  0  0  0  0  0  0  0  0  # atno 8010 bound_to 7997
  140.2803  144.3164  150.6266 H   0  0  0  0  0  0  0  0  0  0  0  0  # atno 10167 bound_to 10162
  156.5205  130.8476  151.2680 H   0  0  0  0  0  0  0  0  0  0  0  0  # atno 10718 bound_to 10713
  153.4705  135.7016  153.5996 H   0  0  0  0  0  0  0  0  0  0  0  0  # atno 10763 bound_to 10752
  153.4252  135.3816  155.2136 H   0  0  0  0  0  0  0  0  0  0  0  0  # atno 10764 bound_to 10752
  154.8725  135.3937  154.4142 H   0  0  0  0  0  0  0  0  0  0  0  0  # atno 10765 bound_to 10752
  139.9247  134.7696  156.1543 H   0  0  0  0  0  0  0  0  0  0  0  0  # atno 11005 bound_to 11000
  146.2506  139.6191  142.9430 LP  0  0  0  0  0  0  0  0  0  0  0  0  # atno 17320 bound_to 7965
  145.5125  141.0435  143.2480 LP  0  0  0  0  0  0  0  0  0  0  0  0  # atno 17321 bound_to 7965
  140.5817  143.2172  151.7415 LP  0  0  0  0  0  0  0  0  0  0  0  0  # atno 17342 bound_to 10162
  139.4964  144.4070  152.0121 LP  0  0  0  0  0  0  0  0  0  0  0  0  # atno 17343 bound_to 10162
  157.7437  130.9919  150.2617 LP  0  0  0  0  0  0  0  0  0  0  0  0  # atno 17370 bound_to 10713
  156.3154  130.3778  149.7623 LP  0  0  0  0  0  0  0  0  0  0  0  0  # atno 17371 bound_to 10713
  141.0796  133.6760  156.2309 LP  0  0  0  0  0  0  0  0  0  0  0  0  # atno 17394 bound_to 11000
  140.6370  134.5205  157.5565 LP  0  0  0  0  0  0  0  0  0  0  0  0  # atno 17395 bound_to 11000

$$$$
