AV-unprocessed.smi:665|AV-procd|sdf|3253|dock7
  -GOLD-   22720 0203D 1   1.00000     0.00000
 Structure written by MMmdl.
 43 44  0  0  0  0  0  0  0  0  1 V2000
  146.2998  130.2477  151.9607 C   0  0  0  0  0  0  0  0  0  0  0  0
  145.7480  131.4813  151.3946 N   0  0  0  0  0  0  0  0  0  0  0  0
  144.6549  131.3629  150.5195 C   0  0  0  0  0  0  0  0  0  0  0  0
  144.0847  132.4375  149.9571 C   0  0  0  0  0  0  0  0  0  0  0  0
  144.6182  133.7410  150.2719 C   0  0  0  0  0  0  0  0  0  0  0  0
  145.6669  133.8794  151.1221 C   0  0  0  0  0  0  0  0  0  0  0  0
  146.2487  135.1080  151.4818 N   0  0  0  0  0  0  0  0  0  0  0  0
  145.6563  136.2542  151.8655 C   0  0  0  0  0  0  0  0  0  0  0  0
  144.4446  136.4318  151.9884 O   0  0  0  0  0  0  0  0  0  0  0  0
  146.5723  137.1979  152.1274 N   0  0  0  0  0  0  0  0  0  0  0  0
  146.2976  138.5499  152.6073 C   0  0  0  0  0  0  0  0  0  0  0  0
  147.0787  139.5755  151.7686 C   0  0  0  0  0  0  0  0  0  0  0  0
  146.8736  141.0066  152.2984 C   0  0  0  0  0  0  0  0  0  0  0  0
  147.2246  141.1658  153.7992 C   0  0  0  0  0  0  0  0  0  0  0  0
  148.7490  141.0601  154.0221 C   0  0  0  0  0  0  0  0  0  0  0  0
  146.7726  142.5613  154.2715 C   0  0  0  0  0  0  0  0  0  0  0  0
  146.4710  140.0908  154.6216 C   0  0  0  0  0  0  0  0  0  0  0  0
  146.6769  138.6599  154.0936 C   0  0  0  0  0  0  0  0  0  0  0  0
  146.2963  132.6884  151.7258 C   0  0  0  0  0  0  0  0  0  0  0  0
  147.2618  132.7618  152.4900 O   0  0  0  0  0  0  0  0  0  0  0  0
  145.7746  129.3551  151.6191 H   0  0  0  0  0  0  0  0  0  0  0  0
  146.2356  130.2647  153.0496 H   0  0  0  0  0  0  0  0  0  0  0  0
  147.3487  130.1333  151.6836 H   0  0  0  0  0  0  0  0  0  0  0  0
  144.3123  130.3549  150.3363 H   0  0  0  0  0  0  0  0  0  0  0  0
  143.2441  132.3313  149.2874 H   0  0  0  0  0  0  0  0  0  0  0  0
  144.1557  134.5888  149.7938 H   0  0  0  0  0  0  0  0  0  0  0  0
  147.2583  135.1034  151.4916 H   0  0  0  0  0  0  0  0  0  0  0  0
  147.5442  136.9571  151.9988 H   0  0  0  0  0  0  0  0  0  0  0  0
  145.2341  138.7776  152.5145 H   0  0  0  0  0  0  0  0  0  0  0  0
  148.1406  139.3276  151.7661 H   0  0  0  0  0  0  0  0  0  0  0  0
  146.7547  139.5249  150.7283 H   0  0  0  0  0  0  0  0  0  0  0  0
  147.4583  141.7053  151.6990 H   0  0  0  0  0  0  0  0  0  0  0  0
  145.8293  141.2810  152.1413 H   0  0  0  0  0  0  0  0  0  0  0  0
  149.0026  141.1860  155.0752 H   0  0  0  0  0  0  0  0  0  0  0  0
  149.2831  141.8306  153.4649 H   0  0  0  0  0  0  0  0  0  0  0  0
  149.1520  140.0982  153.7073 H   0  0  0  0  0  0  0  0  0  0  0  0
  146.9949  142.7145  155.3283 H   0  0  0  0  0  0  0  0  0  0  0  0
  145.6987  142.6997  154.1409 H   0  0  0  0  0  0  0  0  0  0  0  0
  147.2737  143.3521  153.7122 H   0  0  0  0  0  0  0  0  0  0  0  0
  146.7702  140.1400  155.6693 H   0  0  0  0  0  0  0  0  0  0  0  0
  145.4020  140.3085  154.6064 H   0  0  0  0  0  0  0  0  0  0  0  0
  146.0726  137.9671  154.6805 H   0  0  0  0  0  0  0  0  0  0  0  0
  147.7135  138.3547  154.2396 H   0  0  0  0  0  0  0  0  0  0  0  0
  1  2  1  0  0  0  0
  1 21  1  0  0  0  0
  1 22  1  0  0  0  0
  1 23  1  0  0  0  0
  2 19  1  0  0  0  0
  2  3  1  0  0  0  0
  3  4  2  0  0  0  0
  3 24  1  0  0  0  0
  4  5  1  0  0  0  0
  4 25  1  0  0  0  0
  5  6  2  0  0  0  0
  5 26  1  0  0  0  0
  6  7  1  0  0  0  0
  6 19  1  0  0  0  0
  7  8  1  0  0  0  0
  7 27  1  0  0  0  0
  8  9  2  0  0  0  0
  8 10  1  0  0  0  0
 10 11  1  0  0  0  0
 10 28  1  0  0  0  0
 11 18  1  0  0  0  0
 11 12  1  0  0  0  0
 11 29  1  0  0  0  0
 12 13  1  0  0  0  0
 12 30  1  0  0  0  0
 12 31  1  0  0  0  0
 13 14  1  0  0  0  0
 13 32  1  0  0  0  0
 13 33  1  0  0  0  0
 14 15  1  0  0  0  0
 14 16  1  0  0  0  0
 14 17  1  0  0  0  0
 15 34  1  0  0  0  0
 15 35  1  0  0  0  0
 15 36  1  0  0  0  0
 16 37  1  0  0  0  0
 16 38  1  0  0  0  0
 16 39  1  0  0  0  0
 17 18  1  0  0  0  0
 17 40  1  0  0  0  0
 17 41  1  0  0  0  0
 18 42  1  0  0  0  0
 18 43  1  0  0  0  0
 19 20  2  0  0  0  0
M  END
> <s_m_source_file>
AV-unprocessed.smi

> <i_m_source_file_index>
665

> <i_lp_mmshare_version>
43012

> <i_f3d_flags>
0

> <s_epik_input>
W0NIM11uMVtjSF1bY0hdW2NIXWMoYzE9TylbTkhdQyg9TylbTkhdW0NIXShbQ0gyXVtDSDJdMilbQ0gyXVtDSDJdQzIoW0NIM10pW0NIM10=

> <s_epik_cmdline>
J2VwaWtfcHl0aG9uJywgJy1waCcsICc3LjAnLCAnLXRuJywgJzgnLCAnLW1hJywgJzIwMCcsICctbWV0YWxfYmluZGluZycsICctaW1hZScsICc8aW5maWxlLm1hZT4nLCAnLW9tYWUnLCAnPG91dGZpbGUubWFlPic=

> <r_lp_tautomer_probability>
1

> <r_epik_Ionization_Penalty>
2.65253e-05

> <r_epik_Ionization_Penalty_Charging>
5.1221e-06

> <r_epik_Ionization_Penalty_Neutral>
2.14032e-05

> <r_epik_State_Penalty>
-0

> <r_epik_Charging_Adjusted_Penalty>
5.1221e-06

> <i_epik_Tot_Q>
0

> <i_epik_Tot_abs_Q>
0

> <r_epik_Metal_State_Penalty>
-0

> <b_epik_Metal_Only>
0

> <s_lp_Force_Field>
OPLS_2005

> <r_lp_Energy>
25.5106

> <b_lp_Chiralities_Consistent>
1

> <s_lp_Variant>
AV-unprocessed.smi:665-1

> <Gold.Version>
5.8.1

> <Gold.Id.Protein>
6NUR|6NUR_protein|mol2

> <Gold.PLP.Fitness>
39.9146

> <Gold.PLP.PLP>
-35.2090

> <Gold.PLP.part.hbond>
-2.0000

> <Gold.PLP.part.metal>
0.0000

> <Gold.PLP.part.buried>
0.4525

> <Gold.PLP.part.nonpolar>
-34.2584

> <Gold.PLP.part.repulsive>
0.4494

> <Gold.PLP.ligand.clash>
0.0000

> <Gold.PLP.ligand.torsion>
0.5404

> <Gold.PLP.Chemscore.Hbond>
1.9280

> <Gold.PLP.Chemscore.CHOScore>
0.0000

> <Gold.PLP.Chemscore.Metal>
0.0000

> <Gold.Chemscore.Hbonds>
donor molecule, donor type, donor heavy atom, donor atom, acceptor molecule, acceptor atom, score
      L1  H     7    27       P1  7948  0.93
      L1  H    10    28       P1  7948  1.00

> <Gold.PLP.Chemscore.Internal.Correction>
0.0024

> <Gold.Rescore>
     Score         DG    S(hbond)    S(metal)    S(lipo)     H(rot)  DE(clash)    DE(int)     intcor
     17.55     -19.34       1.73        0.00      91.03       1.00       1.38       0.41       ----

> <Gold.Chemscore.Fitness>
17.5477

> <Gold.Chemscore.DG>
-19.3407

> <Gold.Chemscore.ZeroCoef>
-5.4800

> <Gold.Chemscore.Hbond>
1.7275

> <Gold.Chemscore.Metal>
0.0000

> <Gold.Chemscore.Lipo>
91.0337

> <Gold.Chemscore.Internal_Hbond>
0.0000

> <Gold.Chemscore.DEClash>
1.3827

> <Gold.Chemscore.DEInternal>
0.4104

> <Gold.Chemscore.Rot>
1.0000

> <Gold.Chemscore.Internal.Correction>
   9.000000E+99

> <Gold.Chemscore.Hbonds>
donor molecule, donor type, donor heavy atom, donor atom, acceptor molecule, acceptor atom, score
      L1  H     7    27       P1  7948  0.69
      L1  H    10    28       P1  7948  0.97

> <Gold.Chemscore.Hbond.Weighted>
-5.7698

> <Gold.Chemscore.Metal.Weighted>
-0.0000

> <Gold.Chemscore.Lipo.Weighted>
-10.6509

> <Gold.Chemscore.Internal_Hbond.Weighted>
0.0000

> <Gold.Chemscore.DEClash.Weighted>
1.3827

> <Gold.Chemscore.DEInternal.Weighted>
0.4104

> <Gold.Chemscore.Rot.Weighted>
2.5600

> <Gold.Chemscore.Internal.Correction.Weighted>
   9.000000E+99

> <Gold.Protein.RotatedTorsions>
[ 6907 6896 6895 6894 ] final  -43.97 input  -60.11 | X-H torsion
[ 7974 7965 7964 7962 ] final  131.36 input  175.53 | X-H torsion
[ 8008 7997 7996 7995 ] final  174.86 input   59.86 | X-H torsion
[ 10167 10162 10161 10158 ] final  -42.94 input  -65.29 | X-H torsion
[ 10718 10713 10712 10709 ] final  -28.28 input   66.30 | X-H torsion
[ 10763 10752 10751 10750 ] final   56.96 input  -60.55 | X-H torsion
[ 11005 11000 10999 10996 ] final   65.14 input  -57.11 | X-H torsion

> <Gold.Protein.ActiveResidues>
 VAL166  LYS551  ARG553  GLY616  TRP617  ASP618  TYR619  PRO620  LYS621  CYS622 
 ASP623  PHE694  ASN695  SER759  ASP760  ASP761  ALA762  ILE779  LEU786  VAL792 
 PHE793  MET794  SER795  GLU796  ALA797  LYS798  CYS799  TRP800  GLU811  SER814 

> <Gold.Protein.RotatedAtoms>
  150.9380  134.8791  159.7593 H   0  0  0  0  0  0  0  0  0  0  0  0  # atno 6907 bound_to 6896
  152.5067  134.3983  159.9417 H   0  0  0  0  0  0  0  0  0  0  0  0  # atno 6908 bound_to 6896
  151.4006  133.3719  159.2766 H   0  0  0  0  0  0  0  0  0  0  0  0  # atno 6909 bound_to 6896
  145.0081  139.4247  143.5258 H   0  0  0  0  0  0  0  0  0  0  0  0  # atno 7974 bound_to 7965
  156.0931  140.1423  156.9567 H   0  0  0  0  0  0  0  0  0  0  0  0  # atno 8008 bound_to 7997
  154.4654  140.0928  156.7052 H   0  0  0  0  0  0  0  0  0  0  0  0  # atno 8009 bound_to 7997
  155.4887  140.3447  155.4353 H   0  0  0  0  0  0  0  0  0  0  0  0  # atno 8010 bound_to 7997
  140.6952  143.3010  151.3280 H   0  0  0  0  0  0  0  0  0  0  0  0  # atno 10167 bound_to 10162
  156.4273  130.4438  149.7142 H   0  0  0  0  0  0  0  0  0  0  0  0  # atno 10718 bound_to 10713
  152.9841  135.5658  154.5313 H   0  0  0  0  0  0  0  0  0  0  0  0  # atno 10763 bound_to 10752
  154.4784  135.2787  155.1591 H   0  0  0  0  0  0  0  0  0  0  0  0  # atno 10764 bound_to 10752
  154.3110  135.6288  153.5519 H   0  0  0  0  0  0  0  0  0  0  0  0  # atno 10765 bound_to 10752
  139.9913  134.6587  156.0086 H   0  0  0  0  0  0  0  0  0  0  0  0  # atno 11005 bound_to 11000
  146.3465  139.9509  142.8729 LP  0  0  0  0  0  0  0  0  0  0  0  0  # atno 17320 bound_to 7965
  145.2061  140.9875  143.4128 LP  0  0  0  0  0  0  0  0  0  0  0  0  # atno 17321 bound_to 7965
  139.6398  144.0561  152.2545 LP  0  0  0  0  0  0  0  0  0  0  0  0  # atno 17342 bound_to 10162
  140.0063  144.6257  150.7686 LP  0  0  0  0  0  0  0  0  0  0  0  0  # atno 17343 bound_to 10162
  156.4059  130.7698  151.2708 LP  0  0  0  0  0  0  0  0  0  0  0  0  # atno 17370 bound_to 10713
  157.7508  131.0226  150.3798 LP  0  0  0  0  0  0  0  0  0  0  0  0  # atno 17371 bound_to 10713
  141.1568  133.6542  156.4188 LP  0  0  0  0  0  0  0  0  0  0  0  0  # atno 17394 bound_to 11000
  140.4902  134.6582  157.5208 LP  0  0  0  0  0  0  0  0  0  0  0  0  # atno 17395 bound_to 11000

$$$$
