AV-unprocessed.smi:1136|AV-procd|sdf|4862|dock8
  -GOLD-   22720 3433D 1   1.00000     0.00000
 Structure written by MMmdl.
 42 43  0  0  0  0  0  0  0  0  1 V2000
  150.7327  145.1852  159.0088 C   0  0  0  0  0  0  0  0  0  0  0  0
  151.5490  144.1841  159.7717 C   0  0  0  0  0  0  0  0  0  0  0  0
  151.7679  144.1095  161.1758 C   0  0  0  0  0  0  0  0  0  0  0  0
  152.5780  143.0205  161.3341 C   0  0  0  0  0  0  0  0  0  0  0  0
  153.1586  142.4236  162.5741 C   0  0  0  0  0  0  0  0  0  0  0  0
  152.8072  142.5036  160.0709 N   0  0  0  0  0  0  0  0  0  0  0  0
  153.6067  141.3509  159.6793 C   0  0  0  0  0  0  0  0  0  0  0  0
  152.8368  140.3975  158.7599 C   0  0  0  0  0  0  0  0  0  0  0  0
  153.3939  139.3947  158.3146 O   0  0  0  0  0  0  0  0  0  0  0  0
  151.5588  140.7110  158.4917 N   0  0  0  0  0  0  0  0  0  0  0  0
  150.6529  139.9330  157.6500 C   0  0  0  0  0  0  0  0  0  0  0  0
  150.5003  140.5000  156.2259 C   0  0  0  0  0  0  0  0  0  0  0  0
  151.3961  140.3033  155.4023 O   0  0  0  0  0  0  0  0  0  0  0  0
  149.3757  141.1904  155.9156 N   0  0  0  0  0  0  0  0  0  0  0  0
  148.2377  141.4185  156.8172 C   0  0  0  0  0  0  0  0  0  0  0  0
  147.0486  140.5673  156.3359 C   0  0  0  0  0  0  0  0  0  0  0  0
  146.6993  140.8904  154.8704 C   0  0  0  0  0  0  0  0  0  0  0  0
  147.9445  140.8438  153.9637 C   0  0  0  0  0  0  0  0  0  0  0  0
  149.0937  141.6785  154.5593 C   0  0  0  0  0  0  0  0  0  0  0  0
  152.1738  143.2200  159.1161 N   0  0  0  0  0  0  0  0  0  0  0  0
  150.2076  145.8619  159.6832 H   0  0  0  0  0  0  0  0  0  0  0  0
  149.9851  144.6916  158.3874 H   0  0  0  0  0  0  0  0  0  0  0  0
  151.3634  145.7895  158.3566 H   0  0  0  0  0  0  0  0  0  0  0  0
  151.3872  144.7590  161.9501 H   0  0  0  0  0  0  0  0  0  0  0  0
  152.8857  143.0090  163.4523 H   0  0  0  0  0  0  0  0  0  0  0  0
  154.2468  142.3922  162.5199 H   0  0  0  0  0  0  0  0  0  0  0  0
  152.7957  141.4065  162.7221 H   0  0  0  0  0  0  0  0  0  0  0  0
  154.5093  141.7048  159.1796 H   0  0  0  0  0  0  0  0  0  0  0  0
  153.9292  140.8093  160.5701 H   0  0  0  0  0  0  0  0  0  0  0  0
  151.1836  141.5510  158.9085 H   0  0  0  0  0  0  0  0  0  0  0  0
  151.0565  138.9221  157.5884 H   0  0  0  0  0  0  0  0  0  0  0  0
  149.6733  139.8598  158.1251 H   0  0  0  0  0  0  0  0  0  0  0  0
  148.4518  141.1995  157.8618 H   0  0  0  0  0  0  0  0  0  0  0  0
  147.9707  142.4760  156.7947 H   0  0  0  0  0  0  0  0  0  0  0  0
  147.2972  139.5091  156.4290 H   0  0  0  0  0  0  0  0  0  0  0  0
  146.1807  140.7397  156.9729 H   0  0  0  0  0  0  0  0  0  0  0  0
  145.9382  140.2017  154.5029 H   0  0  0  0  0  0  0  0  0  0  0  0
  146.2614  141.8882  154.8215 H   0  0  0  0  0  0  0  0  0  0  0  0
  148.2714  139.8097  153.8457 H   0  0  0  0  0  0  0  0  0  0  0  0
  147.6941  141.2053  152.9661 H   0  0  0  0  0  0  0  0  0  0  0  0
  148.8105  142.7311  154.6041 H   0  0  0  0  0  0  0  0  0  0  0  0
  149.9631  141.6343  153.9021 H   0  0  0  0  0  0  0  0  0  0  0  0
  1  2  1  0  0  0  0
  1 21  1  0  0  0  0
  1 22  1  0  0  0  0
  1 23  1  0  0  0  0
  2 20  2  0  0  0  0
  2  3  1  0  0  0  0
  3  4  2  0  0  0  0
  3 24  1  0  0  0  0
  4  5  1  0  0  0  0
  4  6  1  0  0  0  0
  5 25  1  0  0  0  0
  5 26  1  0  0  0  0
  5 27  1  0  0  0  0
  6  7  1  0  0  0  0
  6 20  1  0  0  0  0
  7  8  1  0  0  0  0
  7 28  1  0  0  0  0
  7 29  1  0  0  0  0
  8  9  2  0  0  0  0
  8 10  1  0  0  0  0
 10 11  1  0  0  0  0
 10 30  1  0  0  0  0
 11 12  1  0  0  0  0
 11 31  1  0  0  0  0
 11 32  1  0  0  0  0
 12 13  2  0  0  0  0
 12 14  1  0  0  0  0
 14 19  1  0  0  0  0
 14 15  1  0  0  0  0
 15 16  1  0  0  0  0
 15 33  1  0  0  0  0
 15 34  1  0  0  0  0
 16 17  1  0  0  0  0
 16 35  1  0  0  0  0
 16 36  1  0  0  0  0
 17 18  1  0  0  0  0
 17 37  1  0  0  0  0
 17 38  1  0  0  0  0
 18 19  1  0  0  0  0
 18 39  1  0  0  0  0
 18 40  1  0  0  0  0
 19 41  1  0  0  0  0
 19 42  1  0  0  0  0
M  END
> <s_m_source_file>
AV-unprocessed.smi

> <i_m_source_file_index>
1136

> <i_lp_mmshare_version>
43012

> <i_f3d_flags>
0

> <s_epik_input>
W0NIM11jMVtjSF1jKFtDSDNdKW4objEpW0NIMl1DKD1PKVtOSF1bQ0gyXUMoPU8pTjJbQ0gyXVtDSDJdW0NIMl1bQ0gyXVtDSDJdMg==

> <s_epik_cmdline>
J2VwaWtfcHl0aG9uJywgJy1waCcsICc3LjAnLCAnLXRuJywgJzgnLCAnLW1hJywgJzIwMCcsICctbWV0YWxfYmluZGluZycsICctaW1hZScsICc8aW5maWxlLm1hZT4nLCAnLW9tYWUnLCAnPG91dGZpbGUubWFlPic=

> <r_lp_tautomer_probability>
1

> <r_epik_Ionization_Penalty>
0.000263643

> <r_epik_Ionization_Penalty_Charging>
0

> <r_epik_Ionization_Penalty_Neutral>
0.000263643

> <r_epik_State_Penalty>
-0

> <r_epik_Charging_Adjusted_Penalty>
0

> <i_epik_Tot_Q>
0

> <i_epik_Tot_abs_Q>
0

> <r_epik_Metal_State_Penalty>
-0

> <b_epik_Metal_Only>
0

> <s_lp_Force_Field>
OPLS_2005

> <r_lp_Energy>
19.7074

> <b_lp_Chiralities_Consistent>
1

> <s_lp_Variant>
AV-unprocessed.smi:1136-1

> <Gold.Version>
5.8.1

> <Gold.Id.Protein>
6NUR|6NUR_protein|mol2

> <Gold.PLP.Fitness>
49.9615

> <Gold.PLP.PLP>
-44.8901

> <Gold.PLP.part.hbond>
-2.0000

> <Gold.PLP.part.metal>
0.0000

> <Gold.PLP.part.buried>
-4.2690

> <Gold.PLP.part.nonpolar>
-37.6217

> <Gold.PLP.part.repulsive>
0.1401

> <Gold.PLP.ligand.clash>
0.0000

> <Gold.PLP.ligand.torsion>
0.4628

> <Gold.PLP.Chemscore.Hbond>
1.9920

> <Gold.PLP.Chemscore.CHOScore>
0.0000

> <Gold.PLP.Chemscore.Metal>
0.0000

> <Gold.Chemscore.Hbonds>
donor molecule, donor type, donor heavy atom, donor atom, acceptor molecule, acceptor atom, score
      P1  H  7989  7998       L1    13  0.94
      P1  H  7997  8008       L1     9  1.00

> <Gold.PLP.Chemscore.Internal.Correction>
0.0211

> <Gold.Rescore>
     Score         DG    S(hbond)    S(metal)    S(lipo)     H(rot)  DE(clash)    DE(int)     intcor
     16.41     -18.27       1.79        0.00      93.66       1.61       0.03       1.83       ----

> <Gold.Chemscore.Fitness>
16.4077

> <Gold.Chemscore.DG>
-18.2706

> <Gold.Chemscore.ZeroCoef>
-5.4800

> <Gold.Chemscore.Hbond>
1.7851

> <Gold.Chemscore.Metal>
0.0000

> <Gold.Chemscore.Lipo>
93.6628

> <Gold.Chemscore.Internal_Hbond>
0.0000

> <Gold.Chemscore.DEClash>
0.0321

> <Gold.Chemscore.DEInternal>
1.8308

> <Gold.Chemscore.Rot>
1.6134

> <Gold.Chemscore.Internal.Correction>
   9.000000E+99

> <Gold.Chemscore.Hbonds>
donor molecule, donor type, donor heavy atom, donor atom, acceptor molecule, acceptor atom, score
      P1  H  7989  7998       L1    13  0.89
      P1  H  7997  8008       L1     9  0.50

> <Gold.Chemscore.Hbond.Weighted>
-5.9624

> <Gold.Chemscore.Metal.Weighted>
-0.0000

> <Gold.Chemscore.Lipo.Weighted>
-10.9585

> <Gold.Chemscore.Internal_Hbond.Weighted>
0.0000

> <Gold.Chemscore.DEClash.Weighted>
0.0321

> <Gold.Chemscore.DEInternal.Weighted>
1.8308

> <Gold.Chemscore.Rot.Weighted>
4.1303

> <Gold.Chemscore.Internal.Correction.Weighted>
   9.000000E+99

> <Gold.Protein.RotatedTorsions>
[ 6907 6896 6895 6894 ] final  -18.25 input  -60.11 | X-H torsion
[ 7974 7965 7964 7962 ] final   -6.37 input  175.53 | X-H torsion
[ 8008 7997 7996 7995 ] final  -91.24 input   59.86 | X-H torsion
[ 10167 10162 10161 10158 ] final    8.51 input  -65.29 | X-H torsion
[ 10718 10713 10712 10709 ] final -120.36 input   66.30 | X-H torsion
[ 10763 10752 10751 10750 ] final   15.00 input  -60.55 | X-H torsion
[ 11005 11000 10999 10996 ] final  164.53 input  -57.11 | X-H torsion

> <Gold.Protein.ActiveResidues>
 VAL166  LYS551  ARG553  GLY616  TRP617  ASP618  TYR619  PRO620  LYS621  CYS622 
 ASP623  PHE694  ASN695  SER759  ASP760  ASP761  ALA762  ILE779  LEU786  VAL792 
 PHE793  MET794  SER795  GLU796  ALA797  LYS798  CYS799  TRP800  GLU811  SER814 

> <Gold.Protein.RotatedAtoms>
  151.2810  135.0714  159.9169 H   0  0  0  0  0  0  0  0  0  0  0  0  # atno 6907 bound_to 6896
  152.5334  134.0031  159.7914 H   0  0  0  0  0  0  0  0  0  0  0  0  # atno 6908 bound_to 6896
  151.0285  133.5761  159.2694 H   0  0  0  0  0  0  0  0  0  0  0  0  # atno 6909 bound_to 6896
  146.2332  140.2161  142.8336 H   0  0  0  0  0  0  0  0  0  0  0  0  # atno 7974 bound_to 7965
  154.7084  140.0521  157.0526 H   0  0  0  0  0  0  0  0  0  0  0  0  # atno 8008 bound_to 7997
  155.0589  140.3187  155.4648 H   0  0  0  0  0  0  0  0  0  0  0  0  # atno 8009 bound_to 7997
  156.2782  140.2102  156.5716 H   0  0  0  0  0  0  0  0  0  0  0  0  # atno 8010 bound_to 7997
  140.6310  143.7993  150.7295 H   0  0  0  0  0  0  0  0  0  0  0  0  # atno 10167 bound_to 10162
  156.1252  130.6353  150.9530 H   0  0  0  0  0  0  0  0  0  0  0  0  # atno 10718 bound_to 10713
  153.1567  135.6788  153.8802 H   0  0  0  0  0  0  0  0  0  0  0  0  # atno 10763 bound_to 10752
  153.8211  135.3130  155.3411 H   0  0  0  0  0  0  0  0  0  0  0  0  # atno 10764 bound_to 10752
  154.7903  135.4839  154.0125 H   0  0  0  0  0  0  0  0  0  0  0  0  # atno 10765 bound_to 10752
  140.2469  134.8007  157.3464 H   0  0  0  0  0  0  0  0  0  0  0  0  # atno 11005 bound_to 11000
  144.9669  140.8330  143.5479 LP  0  0  0  0  0  0  0  0  0  0  0  0  # atno 17320 bound_to 7965
  145.2138  139.2192  143.5129 LP  0  0  0  0  0  0  0  0  0  0  0  0  # atno 17321 bound_to 7965
  140.1605  143.4280  152.2070 LP  0  0  0  0  0  0  0  0  0  0  0  0  # atno 17342 bound_to 10162
  139.5524  144.7348  151.4394 LP  0  0  0  0  0  0  0  0  0  0  0  0  # atno 17343 bound_to 10162
  157.6434  131.0907  150.8205 LP  0  0  0  0  0  0  0  0  0  0  0  0  # atno 17370 bound_to 10713
  156.8296  130.5011  149.5333 LP  0  0  0  0  0  0  0  0  0  0  0  0  # atno 17371 bound_to 10713
  140.1597  134.4744  155.7903 LP  0  0  0  0  0  0  0  0  0  0  0  0  # atno 17394 bound_to 11000
  141.2205  133.6896  156.7523 LP  0  0  0  0  0  0  0  0  0  0  0  0  # atno 17395 bound_to 11000

$$$$
