#       Name:                AV-unprocessed.smi:1406
#       Creating user name   scv26
#       Creation time:       Fri Mar 27 05:34:22 2020


#       File generated by GOLD software.
#

@<TRIPOS>MOLECULE
AV-unprocessed.smi:1406
    45    47     1
SMALL
NO_CHARGES


@<TRIPOS>ATOM
      1 ****        -3.4130  -2.3221  -0.9257 C.3            1 S1                 0.0000
      2 ****        -2.8186  -1.4548   0.2026 C.3            1 S1                 0.0000
      3 ****        -1.3012  -1.2578   0.0625 C.2            1 S1                 0.0000
      4 ****        -0.6063  -2.1027  -0.5027 O.2            1 S1                 0.0000
      5 ****        -0.7988  -0.1297   0.5892 N.am           1 S1                 0.0000
      6 ****         0.6117   0.2461   0.5924 C.3            1 S1                 0.0000
      7 ****         0.9895   1.1326   1.7733 C.3            1 S1                 0.0000
      8 ****         2.2942   1.7697   1.2935 C.3            1 S1                 0.0000
      9 ****         2.1454   1.9439  -0.1691 N.4            1 S1                 1.0000
     10 ****         3.4026   1.7931  -0.9419 C.3            1 S1                 0.0000
     11 ****         3.1409   1.9994  -2.4447 C.3            1 S1                 0.0000
     12 ****         1.9831   1.1316  -2.9805 C.3            1 S1                 0.0000
     13 ****         1.3362   0.2696  -1.8850 C.3            1 S1                 0.0000
     14 ****         1.0029   1.1017  -0.6255 C.3            1 S1                 0.0000
     15 ****        -3.1364  -1.9771   1.5258 N.pl3          1 S1                 0.0000
     16 ****        -3.5332  -1.3368   2.6279 C.2            1 S1                 0.0000
     17 ****        -3.6868  -2.1242   3.6830 N.2            1 S1                 0.0000
     18 ****        -3.3347  -3.3215   3.1273 C.2            1 S1                 0.0000
     19 ****        -2.9850  -3.2876   1.8416 N.2            1 S1                 0.0000
     20 ****        -3.2084  -1.8874  -1.9046 H              1 S1                 0.0000
     21 ****        -4.4959  -2.4004  -0.8243 H              1 S1                 0.0000
     22 ****        -3.0084  -3.3350  -0.9234 H              1 S1                 0.0000
     23 ****        -3.2836  -0.4700   0.1280 H              1 S1                 0.0000
     24 ****        -1.4418   0.5092   1.0344 H              1 S1                 0.0000
     25 ****         1.2400  -0.6465   0.6345 H              1 S1                 0.0000
     26 ****         0.2336   1.9037   1.9308 H              1 S1                 0.0000
     27 ****         1.1070   0.5763   2.7039 H              1 S1                 0.0000
     28 ****         2.5035   2.7180   1.7890 H              1 S1                 0.0000
     29 ****         3.1237   1.0927   1.5051 H              1 S1                 0.0000
     30 ****         4.1350   2.5192  -0.5875 H              1 S1                 0.0000
     31 ****         3.8302   0.8045  -0.7664 H              1 S1                 0.0000
     32 ****         2.9107   3.0502  -2.6263 H              1 S1                 0.0000
     33 ****         4.0523   1.7918  -3.0065 H              1 S1                 0.0000
     34 ****         1.2249   1.7802  -3.4209 H              1 S1                 0.0000
     35 ****         2.3373   0.4911  -3.7888 H              1 S1                 0.0000
     36 ****         0.4341  -0.2027  -2.2741 H              1 S1                 0.0000
     37 ****         2.0131  -0.5456  -1.6250 H              1 S1                 0.0000
     38 ****         0.1928   1.7947  -0.8596 H              1 S1                 0.0000
     39 ****        -3.7087  -0.2716   2.6608 H              1 S1                 0.0000
     40 ****        -3.3283  -4.2440   3.6889 H              1 S1                 0.0000
     41 ****         1.8436   2.8973  -0.3114 H              1 S1                 0.0000
     42 ****        -1.0285  -2.9284  -0.8768 LP             1 S1                 0.0000
     43 ****         0.3803  -1.9631  -0.5877 LP             1 S1                 0.0000
     44 ****        -3.9762  -1.9054   4.6148 LP             1 S1                 0.0000
     45 ****        -2.6856  -4.0406   1.2557 LP             1 S1                 0.0000
@<TRIPOS>BOND
    1    1    2 1     
    2    1   20 1     
    3    1   21 1     
    4    1   22 1     
    5    2    3 1     
    6    2   15 1     
    7    2   23 1     
    8    3    4 2     
    9    3    5 am    
   10    5    6 1     
   11    5   24 1     
   12    6   14 1     
   13    6    7 1     
   14    6   25 1     
   15    7    8 1     
   16    7   26 1     
   17    7   27 1     
   18    8    9 1     
   19    8   28 1     
   20    8   29 1     
   21    9   14 1     
   22    9   10 1     
   23    9   41 1     
   24   10   11 1     
   25   10   30 1     
   26   10   31 1     
   27   11   12 1     
   28   11   32 1     
   29   11   33 1     
   30   12   13 1     
   31   12   34 1     
   32   12   35 1     
   33   13   14 1     
   34   13   36 1     
   35   13   37 1     
   36   14   38 1     
   37   15   19 1     
   38   15   16 1     
   39   16   17 2     
   40   16   39 1     
   41   17   18 1     
   42   18   19 2     
   43   18   40 1     
   44    4   42 1     
   45    4   43 1     
   46   17   44 1     
   47   19   45 1     
@<TRIPOS>SUBSTRUCTURE
      1 S1             1
@<TRIPOS>SET
LONE_PAIRS      STATIC     ATOMS    <user>   **** ""
4 42 43 44 45
DONOR_HYDROGENS      STATIC     ATOMS    <user>   **** ""
2 24 41
ATOM$BLUE        STATIC     ATOMS    COLORGROUP SYSTEM
4 42 43 44 45
ATOM$RED        STATIC     ATOMS    COLORGROUP SYSTEM
2 24 41
