AV-unprocessed.smi:2134|AV-procd|sdf|8697|dock9
  -GOLD-   2272011453D 1   1.00000     0.00000
 Structure written by MMmdl.
 35 36  0  0  0  0  0  0  0  0  3 V2000
  153.5420  136.6082  163.6489 C   0  0  0  0  0  0  0  0  0  0  0  0
  154.1359  137.5495  162.7001 N   0  0  0  0  0  0  0  0  0  0  0  0
  153.6000  137.4642  161.4323 N   0  0  0  0  0  0  0  0  0  0  0  0
  153.8210  138.3603  160.5212 C   0  0  0  0  0  0  0  0  0  0  0  0
  153.1780  138.2210  159.1811 C   0  0  0  0  0  0  0  0  0  0  0  0
  152.5937  137.1490  158.9834 O   0  0  0  0  0  0  0  0  0  0  0  0
  153.2913  139.2542  158.2942 N   0  5  0  0  0  0  0  0  0  0  0  0
  152.3993  140.4116  158.2230 C   0  0  0  0  0  0  0  0  0  0  0  0
  152.6290  141.3231  159.4484 C   0  0  0  0  0  0  0  0  0  0  0  0
  152.0465  142.7259  159.3057 C   0  0  0  0  0  0  0  0  0  0  0  0
  152.2775  143.7115  160.2930 C   0  0  0  0  0  0  0  0  0  0  0  0
  151.7171  144.9962  160.1353 C   0  0  0  0  0  0  0  0  0  0  0  0
  150.9386  145.2702  158.9923 C   0  0  0  0  0  0  0  0  0  0  0  0
  150.7426  144.3076  158.0653 N   0  3  0  0  0  0  0  0  0  0  0  0
  151.2647  143.0672  158.1776 C   0  0  0  0  0  0  0  0  0  0  0  0
  154.6907  139.5652  160.8290 C   0  0  0  0  0  0  0  0  0  0  0  0
  155.7169  139.2699  161.9399 C   0  0  0  0  0  0  0  0  0  0  0  0
  155.1311  138.4012  163.0564 C   0  0  0  0  0  0  0  0  0  0  0  0
  155.5887  138.4911  164.1957 O   0  0  0  0  0  0  0  0  0  0  0  0
  153.9999  136.6306  164.6385 H   0  0  0  0  0  0  0  0  0  0  0  0
  153.6325  135.5885  163.2727 H   0  0  0  0  0  0  0  0  0  0  0  0
  152.4806  136.8258  163.7737 H   0  0  0  0  0  0  0  0  0  0  0  0
  152.5578  140.9985  157.3171 H   0  0  0  0  0  0  0  0  0  0  0  0
  151.3531  140.1056  158.2030 H   0  0  0  0  0  0  0  0  0  0  0  0
  152.1897  140.8545  160.3296 H   0  0  0  0  0  0  0  0  0  0  0  0
  153.6970  141.4030  159.6563 H   0  0  0  0  0  0  0  0  0  0  0  0
  152.8711  143.4825  161.1661 H   0  0  0  0  0  0  0  0  0  0  0  0
  151.8786  145.7581  160.8835 H   0  0  0  0  0  0  0  0  0  0  0  0
  150.4688  146.2224  158.7940 H   0  0  0  0  0  0  0  0  0  0  0  0
  151.0287  142.3803  157.3775 H   0  0  0  0  0  0  0  0  0  0  0  0
  155.2354  139.8854  159.9402 H   0  0  0  0  0  0  0  0  0  0  0  0
  154.0553  140.4023  161.1203 H   0  0  0  0  0  0  0  0  0  0  0  0
  156.5679  138.7329  161.5196 H   0  0  0  0  0  0  0  0  0  0  0  0
  156.1060  140.2010  162.3532 H   0  0  0  0  0  0  0  0  0  0  0  0
  150.1731  144.5239  157.2471 H   0  0  0  0  0  0  0  0  0  0  0  0
  1  2  1  0  0  0  0
  1 20  1  0  0  0  0
  1 21  1  0  0  0  0
  1 22  1  0  0  0  0
  2 18  1  0  0  0  0
  2  3  1  0  0  0  0
  3  4  2  0  0  0  0
  4  5  1  0  0  0  0
  4 16  1  0  0  0  0
  5  6  2  0  0  0  0
  5  7  1  0  0  0  0
  7  8  1  0  0  0  0
  8  9  1  0  0  0  0
  8 23  1  0  0  0  0
  8 24  1  0  0  0  0
  9 10  1  0  0  0  0
  9 25  1  0  0  0  0
  9 26  1  0  0  0  0
 10 15  1  0  0  0  0
 10 11  2  0  0  0  0
 11 12  1  0  0  0  0
 11 27  1  0  0  0  0
 12 13  2  0  0  0  0
 12 28  1  0  0  0  0
 13 14  1  0  0  0  0
 13 29  1  0  0  0  0
 14 15  2  0  0  0  0
 14 35  1  0  0  0  0
 15 30  1  0  0  0  0
 16 17  1  0  0  0  0
 16 31  1  0  0  0  0
 16 32  1  0  0  0  0
 17 18  1  0  0  0  0
 17 33  1  0  0  0  0
 17 34  1  0  0  0  0
 18 19  2  0  0  0  0
M  CHG  1   7  -1
M  CHG  1  14   1
M  END
> <s_m_source_file>
AV-unprocessed.smi

> <i_m_source_file_index>
2134

> <i_lp_mmshare_version>
43012

> <i_f3d_flags>
0

> <s_epik_input>
Tz1DMVtDSDJdW0NIMl1DKD1OTjFbQ0gzXSlDKD1PKVtOSF1bQ0gyXVtDSDJdYzJbY0hdW2NIXVtjSF1uW2NIXTI=

> <s_epik_cmdline>
J2VwaWtfcHl0aG9uJywgJy1waCcsICc3LjAnLCAnLXRuJywgJzgnLCAnLW1hJywgJzIwMCcsICctbWV0YWxfYmluZGluZycsICctaW1hZScsICc8aW5maWxlLm1hZT4nLCAnLW9tYWUnLCAnPG91dGZpbGUubWFlPic=

> <r_epik_Ionization_Penalty>
7.05425

> <r_epik_Ionization_Penalty_Charging>
7.05425

> <r_epik_Ionization_Penalty_Neutral>
3.33049e-09

> <r_epik_State_Penalty>
7.67337

> <r_epik_Charging_Adjusted_Penalty>
14.7276

> <i_epik_Tot_Q>
0

> <i_epik_Tot_abs_Q>
2

> <r_epik_Metal_State_Penalty>
3.75463

> <b_epik_Metal_Only>
1

> <s_epik_Chemistry_Notes>
This compound has an imine and may undergo hydrolysis.

> <s_lp_Force_Field>
OPLS_2005

> <r_lp_Energy>
23.3893

> <b_lp_Chiralities_Consistent>
1

> <s_lp_Variant>
AV-unprocessed.smi:2134-4

> <Gold.Version>
5.8.1

> <Gold.Id.Protein>
6NUR|6NUR_protein|mol2

> <Gold.PLP.Fitness>
48.8461

> <Gold.PLP.PLP>
-38.6557

> <Gold.PLP.part.hbond>
-2.0000

> <Gold.PLP.part.metal>
0.0000

> <Gold.PLP.part.buried>
-5.3445

> <Gold.PLP.part.nonpolar>
-30.6979

> <Gold.PLP.part.repulsive>
0.0662

> <Gold.PLP.ligand.clash>
0.0000

> <Gold.PLP.ligand.torsion>
0.9144

> <Gold.PLP.Chemscore.Hbond>
4.0000

> <Gold.PLP.Chemscore.CHOScore>
0.0000

> <Gold.PLP.Chemscore.Metal>
0.0000

> <Gold.Chemscore.Hbonds>
donor molecule, donor type, donor heavy atom, donor atom, acceptor molecule, acceptor atom, score
      L1  H    14    35       P1  8028  2.00
      P1  H  7997  8010       L1     7  1.76

> <Gold.PLP.Chemscore.Internal.Correction>
0.0193

> <Gold.Rescore>
     Score         DG    S(hbond)    S(metal)    S(lipo)     H(rot)  DE(clash)    DE(int)     intcor
     16.57     -17.58       1.34        0.00      97.78       1.49       0.02       0.99       ----

> <Gold.Chemscore.Fitness>
16.5662

> <Gold.Chemscore.DG>
-17.5810

> <Gold.Chemscore.ZeroCoef>
-5.4800

> <Gold.Chemscore.Hbond>
1.3363

> <Gold.Chemscore.Metal>
0.0000

> <Gold.Chemscore.Lipo>
97.7804

> <Gold.Chemscore.Internal_Hbond>
0.0000

> <Gold.Chemscore.DEClash>
0.0215

> <Gold.Chemscore.DEInternal>
0.9934

> <Gold.Chemscore.Rot>
1.4854

> <Gold.Chemscore.Internal.Correction>
   9.000000E+99

> <Gold.Chemscore.Hbonds>
donor molecule, donor type, donor heavy atom, donor atom, acceptor molecule, acceptor atom, score
      L1  H    14    35       P1  8028  0.47
      P1  H  7997  8010       L1     7  0.18

> <Gold.Chemscore.Hbond.Weighted>
-4.4633

> <Gold.Chemscore.Metal.Weighted>
-0.0000

> <Gold.Chemscore.Lipo.Weighted>
-11.4403

> <Gold.Chemscore.Internal_Hbond.Weighted>
0.0000

> <Gold.Chemscore.DEClash.Weighted>
0.0215

> <Gold.Chemscore.DEInternal.Weighted>
0.9934

> <Gold.Chemscore.Rot.Weighted>
3.8026

> <Gold.Chemscore.Internal.Correction.Weighted>
   9.000000E+99

> <Gold.Protein.RotatedTorsions>
[ 6907 6896 6895 6894 ] final  167.11 input  -60.11 | X-H torsion
[ 7974 7965 7964 7962 ] final -157.81 input  175.53 | X-H torsion
[ 8008 7997 7996 7995 ] final   11.16 input   59.86 | X-H torsion
[ 10167 10162 10161 10158 ] final -179.10 input  -65.29 | X-H torsion
[ 10718 10713 10712 10709 ] final  -26.11 input   66.30 | X-H torsion
[ 10763 10752 10751 10750 ] final  -69.92 input  -60.55 | X-H torsion
[ 11005 11000 10999 10996 ] final  101.24 input  -57.11 | X-H torsion

> <Gold.Protein.ActiveResidues>
 VAL166  LYS551  ARG553  GLY616  TRP617  ASP618  TYR619  PRO620  LYS621  CYS622 
 ASP623  PHE694  ASN695  SER759  ASP760  ASP761  ALA762  ILE779  LEU786  VAL792 
 PHE793  MET794  SER795  GLU796  ALA797  LYS798  CYS799  TRP800  GLU811  SER814 

> <Gold.Protein.RotatedAtoms>
  151.8684  133.3471  159.3726 H   0  0  0  0  0  0  0  0  0  0  0  0  # atno 6907 bound_to 6896
  150.7159  134.5137  159.5629 H   0  0  0  0  0  0  0  0  0  0  0  0  # atno 6908 bound_to 6896
  152.2665  134.7979  160.0472 H   0  0  0  0  0  0  0  0  0  0  0  0  # atno 6909 bound_to 6896
  144.7532  140.3917  143.6032 H   0  0  0  0  0  0  0  0  0  0  0  0  # atno 7974 bound_to 7965
  154.8031  140.2855  155.5907 H   0  0  0  0  0  0  0  0  0  0  0  0  # atno 8008 bound_to 7997
  156.2979  140.2582  156.2833 H   0  0  0  0  0  0  0  0  0  0  0  0  # atno 8009 bound_to 7997
  154.9534  140.0379  157.2145 H   0  0  0  0  0  0  0  0  0  0  0  0  # atno 8010 bound_to 7997
  139.5402  144.2385  152.0878 H   0  0  0  0  0  0  0  0  0  0  0  0  # atno 10167 bound_to 10162
  156.4555  130.4493  149.6962 H   0  0  0  0  0  0  0  0  0  0  0  0  # atno 10718 bound_to 10713
  154.4103  135.6010  153.5949 H   0  0  0  0  0  0  0  0  0  0  0  0  # atno 10763 bound_to 10752
  152.9790  135.5928  154.4078 H   0  0  0  0  0  0  0  0  0  0  0  0  # atno 10764 bound_to 10752
  154.3889  135.2842  155.2145 H   0  0  0  0  0  0  0  0  0  0  0  0  # atno 10765 bound_to 10752
  139.8773  134.9175  156.4877 H   0  0  0  0  0  0  0  0  0  0  0  0  # atno 11005 bound_to 11000
  145.6869  139.1630  143.2669 LP  0  0  0  0  0  0  0  0  0  0  0  0  # atno 17320 bound_to 7965
  146.1510  140.6925  142.9322 LP  0  0  0  0  0  0  0  0  0  0  0  0  # atno 17321 bound_to 7965
  140.1862  144.4796  150.6502 LP  0  0  0  0  0  0  0  0  0  0  0  0  # atno 17342 bound_to 10162
  140.6628  143.2257  151.5816 LP  0  0  0  0  0  0  0  0  0  0  0  0  # atno 17343 bound_to 10162
  156.3771  130.7560  151.2549 LP  0  0  0  0  0  0  0  0  0  0  0  0  # atno 17370 bound_to 10713
  157.7500  131.0306  150.4146 LP  0  0  0  0  0  0  0  0  0  0  0  0  # atno 17371 bound_to 10713
  140.8681  133.8009  155.9335 LP  0  0  0  0  0  0  0  0  0  0  0  0  # atno 17394 bound_to 11000
  140.8981  134.2412  157.5057 LP  0  0  0  0  0  0  0  0  0  0  0  0  # atno 17395 bound_to 11000

$$$$
