#       Name:                AV-unprocessed.smi:2731
#       Creating user name   scv26
#       Creation time:       Fri Mar 27 14:57:38 2020


#       File generated by GOLD software.
#

@<TRIPOS>MOLECULE
AV-unprocessed.smi:2731
    50    51     1
SMALL
NO_CHARGES


@<TRIPOS>ATOM
      1 ****        -0.1096   3.4534  -1.7466 C.3            1 S1                 0.0000
      2 ****        -0.5842   2.0405  -1.7959 C.2            1 S1                 0.0000
      3 ****        -1.7488   1.6030  -1.2469 N.pl3          1 S1                 1.0000
      4 ****        -1.8858   0.2833  -1.4392 N.pl3          1 S1                 0.0000
      5 ****        -3.0779  -0.3873  -0.9193 C.3            1 S1                 0.0000
      6 ****        -0.8156  -0.2048  -2.1294 C.2            1 S1                 0.0000
      7 ****        -0.6230  -1.6364  -2.5124 C.3            1 S1                 0.0000
      8 ****         0.0136   0.9028  -2.3495 C.2            1 S1                 0.0000
      9 ****         1.3496   0.8746  -3.0430 C.3            1 S1                 0.0000
     10 ****         2.5526   0.9379  -2.0801 C.3            1 S1                 0.0000
     11 ****         2.5211  -0.1240  -1.0766 N.am           1 S1                 0.0000
     12 ****         1.9973  -0.0134   0.1543 C.2            1 S1                 0.0000
     13 ****         1.5115   1.0332   0.5866 O.2            1 S1                 0.0000
     14 ****         2.0128  -1.2872   1.0093 C.3            1 S1                 0.0000
     15 ****         1.0148  -1.2568   2.0869 N.am           1 S1                 0.0000
     16 ****        -0.3495  -1.6821   1.7495 C.3            1 S1                 0.0000
     17 ****        -1.3786  -0.6582   2.2580 C.3            1 S1                 0.0000
     18 ****        -1.1934  -0.3313   3.7539 C.3            1 S1                 0.0000
     19 ****         0.1520  -0.8050   4.3480 C.3            1 S1                 0.0000
     20 ****         1.2972  -0.7956   3.3273 C.2            1 S1                 0.0000
     21 ****         2.4083  -0.3896   3.6670 O.2            1 S1                 0.0000
     22 ****         0.6750   3.5578  -0.9971 H              1 S1                 0.0000
     23 ****        -0.9288   4.1250  -1.4884 H              1 S1                 0.0000
     24 ****         0.2907   3.7526  -2.7150 H              1 S1                 0.0000
     25 ****        -3.7941  -0.5182  -1.7307 H              1 S1                 0.0000
     26 ****        -3.5276   0.2105  -0.1253 H              1 S1                 0.0000
     27 ****        -2.7977  -1.3614  -0.5179 H              1 S1                 0.0000
     28 ****         0.0919  -2.1093  -1.8392 H              1 S1                 0.0000
     29 ****        -0.2423  -1.7086  -3.5308 H              1 S1                 0.0000
     30 ****        -1.5632  -2.1855  -2.4632 H              1 S1                 0.0000
     31 ****         1.4368  -0.0245  -3.6530 H              1 S1                 0.0000
     32 ****         1.4172   1.7044  -3.7470 H              1 S1                 0.0000
     33 ****         3.4786   0.8428  -2.6475 H              1 S1                 0.0000
     34 ****         2.5961   1.9157  -1.5976 H              1 S1                 0.0000
     35 ****         2.9103  -1.0161  -1.3462 H              1 S1                 0.0000
     36 ****         1.8229  -2.1515   0.3710 H              1 S1                 0.0000
     37 ****         3.0185  -1.4314   1.4073 H              1 S1                 0.0000
     38 ****        -0.4635  -1.8067   0.6722 H              1 S1                 0.0000
     39 ****        -0.5358  -2.6598   2.1961 H              1 S1                 0.0000
     40 ****        -1.2650   0.2601   1.6798 H              1 S1                 0.0000
     41 ****        -2.3930  -1.0103   2.0696 H              1 S1                 0.0000
     42 ****        -1.3026   0.7437   3.9017 H              1 S1                 0.0000
     43 ****        -2.0019  -0.7902   4.3237 H              1 S1                 0.0000
     44 ****         0.4146  -0.2007   5.2171 H              1 S1                 0.0000
     45 ****         0.0492  -1.8301   4.7061 H              1 S1                 0.0000
     46 ****        -2.4508   2.1351  -0.7484 H              1 S1                 0.0000
     47 ****         1.4953   1.8516   0.0122 LP             1 S1                 0.0000
     48 ****         1.1334   1.0642   1.5119 LP             1 S1                 0.0000
     49 ****         3.1627  -0.3891   3.0106 LP             1 S1                 0.0000
     50 ****         2.5567  -0.0602   4.5995 LP             1 S1                 0.0000
@<TRIPOS>BOND
    1    1    2 1     
    2    1   22 1     
    3    1   23 1     
    4    1   24 1     
    5    2    8 1     
    6    2    3 2     
    7    3    4 1     
    8    3   46 1     
    9    4    5 1     
   10    4    6 1     
   11    5   25 1     
   12    5   26 1     
   13    5   27 1     
   14    6    7 1     
   15    6    8 2     
   16    7   28 1     
   17    7   29 1     
   18    7   30 1     
   19    8    9 1     
   20    9   10 1     
   21    9   31 1     
   22    9   32 1     
   23   10   11 1     
   24   10   33 1     
   25   10   34 1     
   26   11   12 am    
   27   11   35 1     
   28   12   13 2     
   29   12   14 1     
   30   14   15 1     
   31   14   36 1     
   32   14   37 1     
   33   15   20 am    
   34   15   16 1     
   35   16   17 1     
   36   16   38 1     
   37   16   39 1     
   38   17   18 1     
   39   17   40 1     
   40   17   41 1     
   41   18   19 1     
   42   18   42 1     
   43   18   43 1     
   44   19   20 1     
   45   19   44 1     
   46   19   45 1     
   47   20   21 2     
   48   13   47 1     
   49   13   48 1     
   50   21   49 1     
   51   21   50 1     
@<TRIPOS>SUBSTRUCTURE
      1 S1             1
@<TRIPOS>SET
LONE_PAIRS      STATIC     ATOMS    <user>   **** ""
4 47 48 49 50
DONOR_HYDROGENS      STATIC     ATOMS    <user>   **** ""
2 46 35
ATOM$BLUE        STATIC     ATOMS    COLORGROUP SYSTEM
4 47 48 49 50
ATOM$RED        STATIC     ATOMS    COLORGROUP SYSTEM
2 46 35
