AV-unprocessed.smi:496|AV-procd|sdf|2716|dock7
  -GOLD-   2262023163D 1   1.00000     0.00000
 Structure written by MMmdl.
 42 44  0  0  0  0  0  0  0  0  1 V2000
  154.2428  136.1835  161.5743 C   0  0  0  0  0  0  0  0  0  0  0  0
  153.4080  136.4735  160.4669 O   0  0  0  0  0  0  0  0  0  0  0  0
  153.1542  137.8605  160.3278 C   0  0  0  0  0  0  0  0  0  0  0  0
  152.7151  138.1415  158.8854 C   0  0  0  0  0  0  0  0  0  0  0  0
  151.8982  139.3426  158.7942 N   0  0  0  0  0  0  0  0  0  0  0  0
  150.6016  139.4621  158.4039 C   0  0  0  0  0  0  0  0  0  0  0  0
  149.7645  138.2834  157.9724 C   0  0  2  0  0  0  0  0  0  0  0  0
  148.7710  138.6548  156.8629 C   0  0  0  0  0  0  0  0  0  0  0  0
  149.0513  137.7711  159.1398 N   0  0  0  0  0  0  0  0  0  0  0  0
  148.8452  136.4730  159.4140 C   0  0  0  0  0  0  0  0  0  0  0  0
  149.2233  135.5568  158.6838 O   0  0  0  0  0  0  0  0  0  0  0  0
  148.1066  136.1906  160.6590 C   0  0  0  0  0  0  0  0  0  0  0  0
  147.7254  135.0081  161.2377 C   0  0  0  0  0  0  0  0  0  0  0  0
  147.0202  135.3451  162.4260 C   0  0  0  0  0  0  0  0  0  0  0  0
  147.0151  136.7092  162.4855 C   0  0  0  0  0  0  0  0  0  0  0  0
  147.6669  137.2388  161.4148 O   0  0  0  0  0  0  0  0  0  0  0  0
  150.1051  140.7021  158.4334 N   0  0  0  0  0  0  0  0  0  0  0  0
  151.1781  141.4541  158.8659 C   0  0  0  0  0  0  0  0  0  0  0  0
  151.2918  142.8444  159.0930 C   0  0  0  0  0  0  0  0  0  0  0  0
  152.5110  143.3977  159.5360 C   0  0  0  0  0  0  0  0  0  0  0  0
  153.6307  142.5704  159.7583 C   0  0  0  0  0  0  0  0  0  0  0  0
  153.5375  141.1823  159.5398 C   0  0  0  0  0  0  0  0  0  0  0  0
  152.3180  140.6345  159.0976 C   0  0  0  0  0  0  0  0  0  0  0  0
  154.4077  135.1079  161.6370 H   0  0  0  0  0  0  0  0  0  0  0  0
  153.7852  136.5090  162.5095 H   0  0  0  0  0  0  0  0  0  0  0  0
  155.2151  136.6677  161.4728 H   0  0  0  0  0  0  0  0  0  0  0  0
  152.3710  138.1682  161.0227 H   0  0  0  0  0  0  0  0  0  0  0  0
  154.0528  138.4293  160.5708 H   0  0  0  0  0  0  0  0  0  0  0  0
  153.5743  138.2336  158.2215 H   0  0  0  0  0  0  0  0  0  0  0  0
  152.1384  137.2977  158.5061 H   0  0  0  0  0  0  0  0  0  0  0  0
  150.3965  137.4883  157.5796 H   0  0  0  0  0  0  0  0  0  0  0  0
  149.2925  139.0308  155.9824 H   0  0  0  0  0  0  0  0  0  0  0  0
  148.0747  139.4274  157.1910 H   0  0  0  0  0  0  0  0  0  0  0  0
  148.1854  137.7883  156.5547 H   0  0  0  0  0  0  0  0  0  0  0  0
  148.7060  138.4543  159.7976 H   0  0  0  0  0  0  0  0  0  0  0  0
  147.9278  134.0189  160.8537 H   0  0  0  0  0  0  0  0  0  0  0  0
  146.5716  134.6750  163.1445 H   0  0  0  0  0  0  0  0  0  0  0  0
  146.6119  137.4289  163.1829 H   0  0  0  0  0  0  0  0  0  0  0  0
  150.4399  143.4864  158.9246 H   0  0  0  0  0  0  0  0  0  0  0  0
  152.5876  144.4617  159.7053 H   0  0  0  0  0  0  0  0  0  0  0  0
  154.5614  143.0019  160.0970 H   0  0  0  0  0  0  0  0  0  0  0  0
  154.3947  140.5480  159.7090 H   0  0  0  0  0  0  0  0  0  0  0  0
  1  2  1  0  0  0  0
  1 24  1  0  0  0  0
  1 25  1  0  0  0  0
  1 26  1  0  0  0  0
  2  3  1  0  0  0  0
  3  4  1  0  0  0  0
  3 27  1  0  0  0  0
  3 28  1  0  0  0  0
  4  5  1  0  0  0  0
  4 29  1  0  0  0  0
  4 30  1  0  0  0  0
  5 23  1  0  0  0  0
  5  6  1  0  0  0  0
  6  7  1  0  0  0  0
  6 17  2  0  0  0  0
  7  8  1  0  0  0  0
  7  9  1  0  0  0  0
  7 31  1  0  0  0  0
  8 32  1  0  0  0  0
  8 33  1  0  0  0  0
  8 34  1  0  0  0  0
  9 10  1  0  0  0  0
  9 35  1  0  0  0  0
 10 11  2  0  0  0  0
 10 12  1  0  0  0  0
 12 16  1  0  0  0  0
 12 13  2  0  0  0  0
 13 14  1  0  0  0  0
 13 36  1  0  0  0  0
 14 15  2  0  0  0  0
 14 37  1  0  0  0  0
 15 16  1  0  0  0  0
 15 38  1  0  0  0  0
 17 18  1  0  0  0  0
 18 23  2  0  0  0  0
 18 19  1  0  0  0  0
 19 20  2  0  0  0  0
 19 39  1  0  0  0  0
 20 21  1  0  0  0  0
 20 40  1  0  0  0  0
 21 22  2  0  0  0  0
 21 41  1  0  0  0  0
 22 23  1  0  0  0  0
 22 42  1  0  0  0  0
M  END
> <s_m_source_file>
AV-unprocessed.smi

> <i_m_source_file_index>
496

> <i_lp_mmshare_version>
43012

> <i_f3d_flags>
0

> <s_epik_input>
W2NIXTFbY0hdW2NIXVtjSF1jKGMxMiluKFtDSDJdW0NIMl1PW0NIM10pYyhuMilbQ0BIXShbQ0gzXSlbTkhdQyg9TyljM1tjSF1bY0hdW2NIXW8z

> <s_epik_cmdline>
J2VwaWtfcHl0aG9uJywgJy1waCcsICc3LjAnLCAnLXRuJywgJzgnLCAnLW1hJywgJzIwMCcsICctbWV0YWxfYmluZGluZycsICctaW1hZScsICc8aW5maWxlLm1hZT4nLCAnLW9tYWUnLCAnPG91dGZpbGUubWFlPic=

> <r_epik_Ionization_Penalty>
0.116528

> <r_epik_Ionization_Penalty_Charging>
0

> <r_epik_Ionization_Penalty_Neutral>
0.116528

> <r_epik_State_Penalty>
0.106132

> <r_epik_Charging_Adjusted_Penalty>
0.106132

> <i_epik_Tot_Q>
0

> <i_epik_Tot_abs_Q>
0

> <r_epik_Metal_State_Penalty>
0.0963468

> <b_epik_Metal_Only>
0

> <s_lp_Force_Field>
OPLS_2005

> <r_lp_Energy>
7.66614

> <b_lp_Chiralities_Consistent>
1

> <s_lp_Variant>
AV-unprocessed.smi:496-1

> <Gold.Version>
5.8.1

> <Gold.Id.Protein>
6NUR|6NUR_protein|mol2

> <Gold.PLP.Fitness>
51.6753

> <Gold.PLP.PLP>
-42.8552

> <Gold.PLP.part.hbond>
-4.0000

> <Gold.PLP.part.metal>
0.0000

> <Gold.PLP.part.buried>
-5.8170

> <Gold.PLP.part.nonpolar>
-33.5745

> <Gold.PLP.part.repulsive>
0.2368

> <Gold.PLP.ligand.clash>
0.0000

> <Gold.PLP.ligand.torsion>
1.2910

> <Gold.PLP.Chemscore.Hbond>
3.7840

> <Gold.PLP.Chemscore.CHOScore>
0.0000

> <Gold.PLP.Chemscore.Metal>
0.0000

> <Gold.Chemscore.Hbonds>
donor molecule, donor type, donor heavy atom, donor atom, acceptor molecule, acceptor atom, score
      P1  H  6896  6908       L1    11  1.00
      P1  H  6896  6909       L1     2  1.00
      P1  H  6931  6943       L1    16  0.96
      P1  H  6934  6947       L1    16  0.80

> <Gold.PLP.Chemscore.Internal.Correction>
0.0501

> <Gold.Rescore>
     Score         DG    S(hbond)    S(metal)    S(lipo)     H(rot)  DE(clash)    DE(int)     intcor
     23.13     -24.62       3.33        0.00     108.88       1.85       0.15       1.34       ----

> <Gold.Chemscore.Fitness>
23.1297

> <Gold.Chemscore.DG>
-24.6172

> <Gold.Chemscore.ZeroCoef>
-5.4800

> <Gold.Chemscore.Hbond>
3.3321

> <Gold.Chemscore.Metal>
0.0000

> <Gold.Chemscore.Lipo>
108.8778

> <Gold.Chemscore.Internal_Hbond>
0.0000

> <Gold.Chemscore.DEClash>
0.1492

> <Gold.Chemscore.DEInternal>
1.3383

> <Gold.Chemscore.Rot>
1.8480

> <Gold.Chemscore.Internal.Correction>
   9.000000E+99

> <Gold.Chemscore.Hbonds>
donor molecule, donor type, donor heavy atom, donor atom, acceptor molecule, acceptor atom, score
      P1  H  6896  6908       L1    11  0.87
      P1  H  6896  6909       L1     2  0.79
      P1  H  6931  6943       L1    16  0.59
      P1  H  6934  6947       L1    16  0.74

> <Gold.Chemscore.Hbond.Weighted>
-11.1293

> <Gold.Chemscore.Metal.Weighted>
-0.0000

> <Gold.Chemscore.Lipo.Weighted>
-12.7387

> <Gold.Chemscore.Internal_Hbond.Weighted>
0.0000

> <Gold.Chemscore.DEClash.Weighted>
0.1492

> <Gold.Chemscore.DEInternal.Weighted>
1.3383

> <Gold.Chemscore.Rot.Weighted>
4.7308

> <Gold.Chemscore.Internal.Correction.Weighted>
   9.000000E+99

> <Gold.Protein.RotatedTorsions>
[ 6907 6896 6895 6894 ] final  153.34 input  -60.11 | X-H torsion
[ 7974 7965 7964 7962 ] final   89.16 input  175.53 | X-H torsion
[ 8008 7997 7996 7995 ] final    8.15 input   59.86 | X-H torsion
[ 10167 10162 10161 10158 ] final  -45.67 input  -65.29 | X-H torsion
[ 10718 10713 10712 10709 ] final   56.33 input   66.30 | X-H torsion
[ 10763 10752 10751 10750 ] final   82.78 input  -60.55 | X-H torsion
[ 11005 11000 10999 10996 ] final   22.55 input  -57.11 | X-H torsion

> <Gold.Protein.ActiveResidues>
 VAL166  LYS551  ARG553  GLY616  TRP617  ASP618  TYR619  PRO620  LYS621  CYS622 
 ASP623  PHE694  ASN695  SER759  ASP760  ASP761  ALA762  ILE779  LEU786  VAL792 
 PHE793  MET794  SER795  GLU796  ALA797  LYS798  CYS799  TRP800  GLU811  SER814 

> <Gold.Protein.RotatedAtoms>
  152.0741  133.4121  159.4471 H   0  0  0  0  0  0  0  0  0  0  0  0  # atno 6907 bound_to 6896
  150.6863  134.3058  159.4734 H   0  0  0  0  0  0  0  0  0  0  0  0  # atno 6908 bound_to 6896
  152.0893  134.9418  160.0623 H   0  0  0  0  0  0  0  0  0  0  0  0  # atno 6909 bound_to 6896
  145.5360  139.2286  143.2592 H   0  0  0  0  0  0  0  0  0  0  0  0  # atno 7974 bound_to 7965
  154.7632  140.2788  155.6198 H   0  0  0  0  0  0  0  0  0  0  0  0  # atno 8008 bound_to 7997
  156.2919  140.2656  156.2342 H   0  0  0  0  0  0  0  0  0  0  0  0  # atno 8009 bound_to 7997
  154.9992  140.0373  157.2342 H   0  0  0  0  0  0  0  0  0  0  0  0  # atno 8010 bound_to 7997
  140.6849  143.2868  151.3672 H   0  0  0  0  0  0  0  0  0  0  0  0  # atno 10167 bound_to 10162
  157.5422  130.8705  149.8838 H   0  0  0  0  0  0  0  0  0  0  0  0  # atno 10718 bound_to 10713
  153.1233  135.4715  154.9230 H   0  0  0  0  0  0  0  0  0  0  0  0  # atno 10763 bound_to 10752
  154.7596  135.3128  154.8406 H   0  0  0  0  0  0  0  0  0  0  0  0  # atno 10764 bound_to 10752
  153.8966  135.6879  153.4811 H   0  0  0  0  0  0  0  0  0  0  0  0  # atno 10765 bound_to 10752
  140.3793  134.1938  155.7664 H   0  0  0  0  0  0  0  0  0  0  0  0  # atno 11005 bound_to 11000
  146.2013  140.6178  142.9101 LP  0  0  0  0  0  0  0  0  0  0  0  0  # atno 17320 bound_to 7965
  144.7601  140.5402  143.6741 LP  0  0  0  0  0  0  0  0  0  0  0  0  # atno 17321 bound_to 7965
  139.6199  144.0928  152.2381 LP  0  0  0  0  0  0  0  0  0  0  0  0  # atno 17342 bound_to 10162
  140.0369  144.6037  150.7442 LP  0  0  0  0  0  0  0  0  0  0  0  0  # atno 17343 bound_to 10162
  156.0506  130.3718  150.1211 LP  0  0  0  0  0  0  0  0  0  0  0  0  # atno 17370 bound_to 10713
  156.9390  130.9738  151.3519 LP  0  0  0  0  0  0  0  0  0  0  0  0  # atno 17371 bound_to 10713
  141.1929  133.8163  157.0822 LP  0  0  0  0  0  0  0  0  0  0  0  0  # atno 17394 bound_to 11000
  140.0491  134.9815  157.1103 LP  0  0  0  0  0  0  0  0  0  0  0  0  # atno 17395 bound_to 11000

$$$$
