AV-unprocessed.smi:1276|AV-procd|sdf|5344|dock3
  -GOLD-   22720 4473D 1   1.00000     0.00000
 Structure written by MMmdl.
 44 45  0  0  0  0  0  0  0  0  1 V2000
  146.2681  137.9955  155.6605 C   0  0  0  0  0  0  0  0  0  0  0  0
  147.6672  137.4418  155.6840 C   0  0  0  0  0  0  0  0  0  0  0  0
  148.5777  138.1402  155.0892 N   0  0  0  0  0  0  0  0  0  0  0  0
  149.8932  137.7203  155.0466 N   0  0  0  0  0  0  0  0  0  0  0  0
  150.7881  138.6239  154.3086 C   0  0  0  0  0  0  0  0  0  0  0  0
  151.6628  139.4928  155.2243 C   0  0  0  0  0  0  0  0  0  0  0  0
  152.8845  139.5372  155.0724 O   0  0  0  0  0  0  0  0  0  0  0  0
  151.0116  140.1997  156.1613 N   0  0  0  0  0  0  0  0  0  0  0  0
  151.6331  141.0901  157.1398 C   0  0  0  0  0  0  0  0  0  0  0  0
  151.8122  140.3030  158.4557 C   0  0  0  0  0  0  0  0  0  0  0  0
  152.1237  141.1159  159.7258 C   0  0  0  0  0  0  0  0  0  0  0  0
  152.9995  142.3629  159.5283 C   0  0  0  0  0  0  0  0  0  0  0  0
  152.1816  143.6026  159.1292 C   0  0  0  0  0  0  0  0  0  0  0  0
  151.6812  143.6034  157.6775 C   0  0  0  0  0  0  0  0  0  0  0  0
  150.8167  142.3939  157.2792 C   0  0  0  0  0  0  0  0  0  0  0  0
  150.3605  136.5717  155.6154 C   0  0  0  0  0  0  0  0  0  0  0  0
  151.5455  136.2390  155.5584 O   0  0  0  0  0  0  0  0  0  0  0  0
  149.3238  135.7863  156.2887 C   0  0  0  0  0  0  0  0  0  0  0  0
  149.7700  134.5731  156.8942 C   0  0  0  0  0  0  0  0  0  0  0  0
  150.1173  133.5911  157.3991 N   0  0  0  0  0  0  0  0  0  0  0  0
  148.0278  136.1851  156.3324 C   0  0  0  0  0  0  0  0  0  0  0  0
  146.9136  135.4053  157.0168 C   0  0  0  0  0  0  0  0  0  0  0  0
  145.9157  138.1982  156.6718 H   0  0  0  0  0  0  0  0  0  0  0  0
  145.5797  137.2890  155.1964 H   0  0  0  0  0  0  0  0  0  0  0  0
  146.2090  138.9287  155.0981 H   0  0  0  0  0  0  0  0  0  0  0  0
  151.4498  138.0501  153.6572 H   0  0  0  0  0  0  0  0  0  0  0  0
  150.2058  139.2633  153.6423 H   0  0  0  0  0  0  0  0  0  0  0  0
  150.0075  140.1062  156.2084 H   0  0  0  0  0  0  0  0  0  0  0  0
  152.6287  141.3446  156.7712 H   0  0  0  0  0  0  0  0  0  0  0  0
  150.9184  139.7101  158.6564 H   0  0  0  0  0  0  0  0  0  0  0  0
  152.6118  139.5767  158.3030 H   0  0  0  0  0  0  0  0  0  0  0  0
  151.1889  141.4070  160.2068 H   0  0  0  0  0  0  0  0  0  0  0  0
  152.6127  140.4496  160.4375 H   0  0  0  0  0  0  0  0  0  0  0  0
  153.4867  142.5828  160.4789 H   0  0  0  0  0  0  0  0  0  0  0  0
  153.8052  142.1726  158.8184 H   0  0  0  0  0  0  0  0  0  0  0  0
  151.3373  143.7232  159.8088 H   0  0  0  0  0  0  0  0  0  0  0  0
  152.8017  144.4879  159.2734 H   0  0  0  0  0  0  0  0  0  0  0  0
  151.0973  144.5114  157.5225 H   0  0  0  0  0  0  0  0  0  0  0  0
  152.5306  143.6841  156.9981 H   0  0  0  0  0  0  0  0  0  0  0  0
  150.3602  142.6369  156.3185 H   0  0  0  0  0  0  0  0  0  0  0  0
  149.9864  142.2612  157.9738 H   0  0  0  0  0  0  0  0  0  0  0  0
  147.2801  134.5010  157.5014 H   0  0  0  0  0  0  0  0  0  0  0  0
  146.1568  135.1049  156.2917 H   0  0  0  0  0  0  0  0  0  0  0  0
  146.4336  136.0138  157.7835 H   0  0  0  0  0  0  0  0  0  0  0  0
  1  2  1  0  0  0  0
  1 23  1  0  0  0  0
  1 24  1  0  0  0  0
  1 25  1  0  0  0  0
  2 21  1  0  0  0  0
  2  3  2  0  0  0  0
  3  4  1  0  0  0  0
  4  5  1  0  0  0  0
  4 16  1  0  0  0  0
  5  6  1  0  0  0  0
  5 26  1  0  0  0  0
  5 27  1  0  0  0  0
  6  7  2  0  0  0  0
  6  8  1  0  0  0  0
  8  9  1  0  0  0  0
  8 28  1  0  0  0  0
  9 15  1  0  0  0  0
  9 10  1  0  0  0  0
  9 29  1  0  0  0  0
 10 11  1  0  0  0  0
 10 30  1  0  0  0  0
 10 31  1  0  0  0  0
 11 12  1  0  0  0  0
 11 32  1  0  0  0  0
 11 33  1  0  0  0  0
 12 13  1  0  0  0  0
 12 34  1  0  0  0  0
 12 35  1  0  0  0  0
 13 14  1  0  0  0  0
 13 36  1  0  0  0  0
 13 37  1  0  0  0  0
 14 15  1  0  0  0  0
 14 38  1  0  0  0  0
 14 39  1  0  0  0  0
 15 40  1  0  0  0  0
 15 41  1  0  0  0  0
 16 17  2  0  0  0  0
 16 18  1  0  0  0  0
 18 19  1  0  0  0  0
 18 21  2  0  0  0  0
 19 20  3  0  0  0  0
 21 22  1  0  0  0  0
 22 42  1  0  0  0  0
 22 43  1  0  0  0  0
 22 44  1  0  0  0  0
M  END
> <s_m_source_file>
AV-unprocessed.smi

> <i_m_source_file_index>
1276

> <i_lp_mmshare_version>
43012

> <i_f3d_flags>
0

> <s_epik_input>
TiNDYyhjMVtDSDNdKWMoPU8pbihuYzFbQ0gzXSlbQ0gyXUMoPU8pW05IXVtDSF0yW0NIMl1bQ0gyXVtDSDJdW0NIMl1bQ0gyXVtDSDJdMg==

> <s_epik_cmdline>
J2VwaWtfcHl0aG9uJywgJy1waCcsICc3LjAnLCAnLXRuJywgJzgnLCAnLW1hJywgJzIwMCcsICctbWV0YWxfYmluZGluZycsICctaW1hZScsICc8aW5maWxlLm1hZT4nLCAnLW9tYWUnLCAnPG91dGZpbGUubWFlPic=

> <r_lp_tautomer_probability>
1

> <r_epik_Ionization_Penalty>
2.02378e-08

> <r_epik_Ionization_Penalty_Charging>
2.27609e-11

> <r_epik_Ionization_Penalty_Neutral>
2.0215e-08

> <r_epik_State_Penalty>
-0

> <r_epik_Charging_Adjusted_Penalty>
2.27609e-11

> <i_epik_Tot_Q>
0

> <i_epik_Tot_abs_Q>
0

> <r_epik_Metal_State_Penalty>
-0

> <b_epik_Metal_Only>
0

> <s_lp_Force_Field>
OPLS_2005

> <r_lp_Energy>
30.1422

> <b_lp_Chiralities_Consistent>
1

> <s_lp_Variant>
AV-unprocessed.smi:1276-1

> <Gold.Version>
5.8.1

> <Gold.Id.Protein>
6NUR|6NUR_protein|mol2

> <Gold.PLP.Fitness>
42.1446

> <Gold.PLP.PLP>
-34.5114

> <Gold.PLP.part.hbond>
-4.0000

> <Gold.PLP.part.metal>
0.0000

> <Gold.PLP.part.buried>
-5.0243

> <Gold.PLP.part.nonpolar>
-26.4601

> <Gold.PLP.part.repulsive>
0.3006

> <Gold.PLP.ligand.clash>
0.0000

> <Gold.PLP.ligand.torsion>
0.5634

> <Gold.PLP.Chemscore.Hbond>
2.9120

> <Gold.PLP.Chemscore.CHOScore>
0.0000

> <Gold.PLP.Chemscore.Metal>
0.0000

> <Gold.Chemscore.Hbonds>
donor molecule, donor type, donor heavy atom, donor atom, acceptor molecule, acceptor atom, score
      P1  H  6896  6907       L1    20  0.99
      P1  H  7997  8009       L1     7  1.00
      P1  H 10752 10763       L1    17  1.00

> <Gold.PLP.Chemscore.Internal.Correction>
0.0240

> <Gold.Rescore>
     Score         DG    S(hbond)    S(metal)    S(lipo)     H(rot)  DE(clash)    DE(int)     intcor
     19.89     -20.57       2.93        0.00      77.41       1.46       0.02       0.67       ----

> <Gold.Chemscore.Fitness>
19.8895

> <Gold.Chemscore.DG>
-20.5727

> <Gold.Chemscore.ZeroCoef>
-5.4800

> <Gold.Chemscore.Hbond>
2.9273

> <Gold.Chemscore.Metal>
0.0000

> <Gold.Chemscore.Lipo>
77.4095

> <Gold.Chemscore.Internal_Hbond>
0.0000

> <Gold.Chemscore.DEClash>
0.0178

> <Gold.Chemscore.DEInternal>
0.6653

> <Gold.Chemscore.Rot>
1.4615

> <Gold.Chemscore.Internal.Correction>
   9.000000E+99

> <Gold.Chemscore.Hbonds>
donor molecule, donor type, donor heavy atom, donor atom, acceptor molecule, acceptor atom, score
      P1  H  6896  6907       L1    20  0.89
      P1  H  7997  8009       L1     7  0.96
      P1  H 10752 10763       L1    17  1.00

> <Gold.Chemscore.Hbond.Weighted>
-9.7771

> <Gold.Chemscore.Metal.Weighted>
-0.0000

> <Gold.Chemscore.Lipo.Weighted>
-9.0569

> <Gold.Chemscore.Internal_Hbond.Weighted>
0.0000

> <Gold.Chemscore.DEClash.Weighted>
0.0178

> <Gold.Chemscore.DEInternal.Weighted>
0.6653

> <Gold.Chemscore.Rot.Weighted>
3.7414

> <Gold.Chemscore.Internal.Correction.Weighted>
   9.000000E+99

> <Gold.Protein.RotatedTorsions>
[ 6907 6896 6895 6894 ] final -133.60 input  -60.11 | X-H torsion
[ 7974 7965 7964 7962 ] final -146.97 input  175.53 | X-H torsion
[ 8008 7997 7996 7995 ] final -118.95 input   59.86 | X-H torsion
[ 10167 10162 10161 10158 ] final  -25.90 input  -65.29 | X-H torsion
[ 10718 10713 10712 10709 ] final   95.73 input   66.30 | X-H torsion
[ 10763 10752 10751 10750 ] final   63.81 input  -60.55 | X-H torsion
[ 11005 11000 10999 10996 ] final  155.78 input  -57.11 | X-H torsion

> <Gold.Protein.ActiveResidues>
 VAL166  LYS551  ARG553  GLY616  TRP617  ASP618  TYR619  PRO620  LYS621  CYS622 
 ASP623  PHE694  ASN695  SER759  ASP760  ASP761  ALA762  ILE779  LEU786  VAL792 
 PHE793  MET794  SER795  GLU796  ALA797  LYS798  CYS799  TRP800  GLU811  SER814 

> <Gold.Protein.RotatedAtoms>
  150.9760  133.6294  159.2729 H   0  0  0  0  0  0  0  0  0  0  0  0  # atno 6907 bound_to 6896
  151.3566  135.0894  159.9430 H   0  0  0  0  0  0  0  0  0  0  0  0  # atno 6908 bound_to 6896
  152.5199  133.9342  159.7649 H   0  0  0  0  0  0  0  0  0  0  0  0  # atno 6909 bound_to 6896
  144.8124  140.5388  143.5633 H   0  0  0  0  0  0  0  0  0  0  0  0  # atno 7974 bound_to 7965
  155.1079  140.0397  157.2715 H   0  0  0  0  0  0  0  0  0  0  0  0  # atno 8008 bound_to 7997
  154.6708  140.2612  155.6984 H   0  0  0  0  0  0  0  0  0  0  0  0  # atno 8009 bound_to 7997
  156.2657  140.2798  156.1216 H   0  0  0  0  0  0  0  0  0  0  0  0  # atno 8010 bound_to 7997
  140.7285  143.4224  151.0930 H   0  0  0  0  0  0  0  0  0  0  0  0  # atno 10167 bound_to 10162
  157.6935  131.0555  150.4383 H   0  0  0  0  0  0  0  0  0  0  0  0  # atno 10718 bound_to 10713
  153.0032  135.5415  154.6411 H   0  0  0  0  0  0  0  0  0  0  0  0  # atno 10763 bound_to 10752
  154.5666  135.2838  155.0870 H   0  0  0  0  0  0  0  0  0  0  0  0  # atno 10764 bound_to 10752
  154.2052  135.6477  153.5151 H   0  0  0  0  0  0  0  0  0  0  0  0  # atno 10765 bound_to 10752
  140.1613  134.8607  157.2578 H   0  0  0  0  0  0  0  0  0  0  0  0  # atno 11005 bound_to 11000
  145.5293  139.1475  143.3509 LP  0  0  0  0  0  0  0  0  0  0  0  0  # atno 17320 bound_to 7965
  146.2424  140.5433  142.8928 LP  0  0  0  0  0  0  0  0  0  0  0  0  # atno 17321 bound_to 7965
  139.7872  143.8271  152.3146 LP  0  0  0  0  0  0  0  0  0  0  0  0  # atno 17342 bound_to 10162
  139.8242  144.7282  150.9533 LP  0  0  0  0  0  0  0  0  0  0  0  0  # atno 17343 bound_to 10162
  156.4744  130.4060  149.6499 LP  0  0  0  0  0  0  0  0  0  0  0  0  # atno 17370 bound_to 10713
  156.3567  130.7460  151.2427 LP  0  0  0  0  0  0  0  0  0  0  0  0  # atno 17371 bound_to 10713
  140.2486  134.3710  155.7451 LP  0  0  0  0  0  0  0  0  0  0  0  0  # atno 17394 bound_to 11000
  141.2209  133.7304  156.8900 LP  0  0  0  0  0  0  0  0  0  0  0  0  # atno 17395 bound_to 11000

$$$$
