AV-unprocessed.smi:148|AV-procd|sdf|1202|dock5
  -GOLD-   2262018363D 1   1.00000     0.00000
 Structure written by MMmdl.
 63 67  0  0  0  0  0  0  0  0  1 V2000
  146.4242  136.4326  152.5098 O   0  0  0  0  0  0  0  0  0  0  0  0
  145.3577  135.7549  153.1404 C   0  0  0  0  0  0  0  0  0  0  0  0
  145.5629  134.2221  153.0965 C   0  0  2  0  0  0  0  0  0  0  0  0
  146.8154  133.7915  153.9035 C   0  0  0  0  0  0  0  0  0  0  0  0
  146.6842  134.0651  155.3237 N   0  0  0  0  0  0  0  0  0  0  0  0
  145.6294  134.6954  155.9435 C   0  0  0  0  0  0  0  0  0  0  0  0
  145.7460  134.8330  157.2360 N   0  0  0  0  0  0  0  0  0  0  0  0
  146.9739  134.2515  157.5289 C   0  0  0  0  0  0  0  0  0  0  0  0
  147.7280  134.0634  158.7218 C   0  0  0  0  0  0  0  0  0  0  0  0
  147.3461  134.4793  159.9507 N   0  0  0  0  0  0  0  0  0  0  0  0
  147.9298  135.7896  160.2365 C   0  0  0  0  0  0  0  0  0  0  0  0
  147.3309  136.4041  161.5077 C   0  0  0  0  0  0  0  0  0  0  0  0
  147.4908  135.4406  162.6875 C   0  0  0  0  0  0  0  0  0  0  0  0
  146.8536  134.0864  162.3480 C   0  0  0  0  0  0  0  0  0  0  0  0
  147.4337  133.4878  161.0394 C   0  0  1  0  0  0  0  0  0  0  0  0
  146.8071  132.1092  160.6576 C   0  0  2  0  0  0  0  0  0  0  0  0
  145.2728  132.0751  160.5126 C   0  0  0  0  0  0  0  0  0  0  0  0
  144.8312  130.6551  160.9034 C   0  0  0  0  0  0  0  0  0  0  0  0
  146.1152  129.8685  161.1832 C   0  0  0  0  0  0  0  0  0  0  0  0
  147.1280  130.9357  161.5952 C   0  0  1  0  0  0  0  0  0  0  0  0
  148.4548  130.4762  161.4403 O   0  0  0  0  0  0  0  0  0  0  0  0
  148.9171  133.4190  158.6288 N   0  0  0  0  0  0  0  0  0  0  0  0
  149.3580  133.0000  157.4388 C   0  0  0  0  0  0  0  0  0  0  0  0
  148.7754  133.1177  156.2434 N   0  0  0  0  0  0  0  0  0  0  0  0
  147.5721  133.7533  156.3381 C   0  0  0  0  0  0  0  0  0  0  0  0
  145.5500  133.6774  151.6413 C   0  0  2  0  0  0  0  0  0  0  0  0
  144.3390  134.0786  150.7962 C   0  0  0  0  0  0  0  0  0  0  0  0
  143.8266  132.7570  150.2255 C   0  0  0  0  0  0  0  0  0  0  0  0
  144.9637  131.9100  150.2525 O   0  0  0  0  0  0  0  0  0  0  0  0
  145.6173  132.1511  151.4875 C   0  0  0  0  0  0  0  0  0  0  0  0
  147.1618  135.8446  152.4534 H   0  0  0  0  0  0  0  0  0  0  0  0
  145.2604  136.1066  154.1676 H   0  0  0  0  0  0  0  0  0  0  0  0
  144.4457  136.0456  152.6197 H   0  0  0  0  0  0  0  0  0  0  0  0
  144.7015  133.7762  153.5966 H   0  0  0  0  0  0  0  0  0  0  0  0
  147.0111  132.7258  153.7946 H   0  0  0  0  0  0  0  0  0  0  0  0
  147.7059  134.3032  153.5404 H   0  0  0  0  0  0  0  0  0  0  0  0
  144.7681  135.0580  155.4011 H   0  0  0  0  0  0  0  0  0  0  0  0
  149.0099  135.6868  160.3518 H   0  0  0  0  0  0  0  0  0  0  0  0
  147.7637  136.4646  159.3954 H   0  0  0  0  0  0  0  0  0  0  0  0
  147.8179  137.3539  161.7292 H   0  0  0  0  0  0  0  0  0  0  0  0
  146.2741  136.6232  161.3491 H   0  0  0  0  0  0  0  0  0  0  0  0
  148.5491  135.3049  162.9136 H   0  0  0  0  0  0  0  0  0  0  0  0
  147.0299  135.8602  163.5822 H   0  0  0  0  0  0  0  0  0  0  0  0
  147.0183  133.4150  163.1891 H   0  0  0  0  0  0  0  0  0  0  0  0
  145.7757  134.2204  162.2645 H   0  0  0  0  0  0  0  0  0  0  0  0
  148.4941  133.3164  161.2255 H   0  0  0  0  0  0  0  0  0  0  0  0
  147.2060  131.8092  159.6873 H   0  0  0  0  0  0  0  0  0  0  0  0
  144.7810  132.8001  161.1593 H   0  0  0  0  0  0  0  0  0  0  0  0
  144.9774  132.3135  159.4905 H   0  0  0  0  0  0  0  0  0  0  0  0
  144.2208  130.6991  161.8061 H   0  0  0  0  0  0  0  0  0  0  0  0
  144.2301  130.1820  160.1260 H   0  0  0  0  0  0  0  0  0  0  0  0
  145.9798  129.0993  161.9440 H   0  0  0  0  0  0  0  0  0  0  0  0
  146.4429  129.3745  160.2668 H   0  0  0  0  0  0  0  0  0  0  0  0
  146.9527  131.1942  162.6384 H   0  0  0  0  0  0  0  0  0  0  0  0
  148.8435  130.9231  160.7038 H   0  0  0  0  0  0  0  0  0  0  0  0
  150.3166  132.5026  157.4450 H   0  0  0  0  0  0  0  0  0  0  0  0
  146.4178  134.0838  151.1202 H   0  0  0  0  0  0  0  0  0  0  0  0
  143.5628  134.6073  151.3485 H   0  0  0  0  0  0  0  0  0  0  0  0
  144.6584  134.7370  149.9874 H   0  0  0  0  0  0  0  0  0  0  0  0
  143.0476  132.3368  150.8639 H   0  0  0  0  0  0  0  0  0  0  0  0
  143.4251  132.8609  149.2173 H   0  0  0  0  0  0  0  0  0  0  0  0
  146.6417  131.7778  151.4742 H   0  0  0  0  0  0  0  0  0  0  0  0
  145.0773  131.6245  152.2735 H   0  0  0  0  0  0  0  0  0  0  0  0
  1  2  1  0  0  0  0
  1 31  1  0  0  0  0
  2  3  1  0  0  0  0
  2 32  1  0  0  0  0
  2 33  1  0  0  0  0
  3  4  1  0  0  0  0
  3 26  1  0  0  0  0
  3 34  1  0  0  0  0
  4  5  1  0  0  0  0
  4 35  1  0  0  0  0
  4 36  1  0  0  0  0
  5 25  1  0  0  0  0
  5  6  1  0  0  0  0
  6  7  2  0  0  0  0
  6 37  1  0  0  0  0
  7  8  1  0  0  0  0
  8 25  2  0  0  0  0
  8  9  1  0  0  0  0
  9 10  1  0  0  0  0
  9 22  2  0  0  0  0
 10 15  1  0  0  0  0
 10 11  1  0  0  0  0
 11 12  1  0  0  0  0
 11 38  1  0  0  0  0
 11 39  1  0  0  0  0
 12 13  1  0  0  0  0
 12 40  1  0  0  0  0
 12 41  1  0  0  0  0
 13 14  1  0  0  0  0
 13 42  1  0  0  0  0
 13 43  1  0  0  0  0
 14 15  1  0  0  0  0
 14 44  1  0  0  0  0
 14 45  1  0  0  0  0
 15 16  1  0  0  0  0
 15 46  1  0  0  0  0
 16 20  1  0  0  0  0
 16 17  1  0  0  0  0
 16 47  1  0  0  0  0
 17 18  1  0  0  0  0
 17 48  1  0  0  0  0
 17 49  1  0  0  0  0
 18 19  1  0  0  0  0
 18 50  1  0  0  0  0
 18 51  1  0  0  0  0
 19 20  1  0  0  0  0
 19 52  1  0  0  0  0
 19 53  1  0  0  0  0
 20 21  1  0  0  0  0
 20 54  1  0  0  0  0
 21 55  1  0  0  0  0
 22 23  1  0  0  0  0
 23 24  2  0  0  0  0
 23 56  1  0  0  0  0
 24 25  1  0  0  0  0
 26 30  1  0  0  0  0
 26 27  1  0  0  0  0
 26 57  1  0  0  0  0
 27 28  1  0  0  0  0
 27 58  1  0  0  0  0
 27 59  1  0  0  0  0
 28 29  1  0  0  0  0
 28 60  1  0  0  0  0
 28 61  1  0  0  0  0
 29 30  1  0  0  0  0
 30 62  1  0  0  0  0
 30 63  1  0  0  0  0
M  END
> <s_m_source_file>
AV-unprocessed.smi

> <i_m_source_file_index>
148

> <i_lp_mmshare_version>
43012

> <i_f3d_flags>
0

> <s_epik_input>
W0NIMl0xT1tDSDJdW0NIMl1bQ0BIXTFbQ0BIXShbQ0gyXVtPSF0pW0NIMl1uKFtjSF1uMiljKGMyMyluW2NIXW5jM040W0NIMl1bQ0gyXVtDSDJdW0NIMl1bQ0BIXTRbQ0BASF01W0NIMl1bQ0gyXVtDSDJdW0NASF01W09IXQ==

> <s_epik_cmdline>
J2VwaWtfcHl0aG9uJywgJy1waCcsICc3LjAnLCAnLXRuJywgJzgnLCAnLW1hJywgJzIwMCcsICctbWV0YWxfYmluZGluZycsICctaW1hZScsICc8aW5maWxlLm1hZT4nLCAnLW9tYWUnLCAnPG91dGZpbGUubWFlPic=

> <r_lp_tautomer_probability>
1

> <r_epik_Ionization_Penalty>
0.00556303

> <r_epik_Ionization_Penalty_Charging>
0

> <r_epik_Ionization_Penalty_Neutral>
0.00556303

> <r_epik_State_Penalty>
0.00401767

> <r_epik_Charging_Adjusted_Penalty>
0.00401767

> <i_epik_Tot_Q>
0

> <i_epik_Tot_abs_Q>
0

> <r_epik_Metal_State_Penalty>
-0

> <b_epik_Metal_Only>
0

> <s_lp_Force_Field>
OPLS_2005

> <r_lp_Energy>
68.457

> <b_lp_Chiralities_Consistent>
1

> <s_lp_Variant>
AV-unprocessed.smi:148-1

> <Gold.Version>
5.8.1

> <Gold.Id.Protein>
6NUR|6NUR_protein|mol2

> <Gold.PLP.Fitness>
42.1158

> <Gold.PLP.PLP>
-37.7381

> <Gold.PLP.part.hbond>
-2.0000

> <Gold.PLP.part.metal>
0.0000

> <Gold.PLP.part.buried>
-6.5976

> <Gold.PLP.part.nonpolar>
-29.5682

> <Gold.PLP.part.repulsive>
0.1213

> <Gold.PLP.ligand.clash>
0.0000

> <Gold.PLP.ligand.torsion>
0.6387

> <Gold.PLP.Chemscore.Hbond>
1.7520

> <Gold.PLP.Chemscore.CHOScore>
0.0000

> <Gold.PLP.Chemscore.Metal>
0.0000

> <Gold.Chemscore.Hbonds>
donor molecule, donor type, donor heavy atom, donor atom, acceptor molecule, acceptor atom, score
      L1  H     1    31       P1  7948  0.58
      P1  H  6896  6909       L1    22  1.00

> <Gold.PLP.Chemscore.Internal.Correction>
0.3991

> <Gold.Rescore>
     Score         DG    S(hbond)    S(metal)    S(lipo)     H(rot)  DE(clash)    DE(int)     intcor
     11.95     -12.44       1.51        0.00      89.15       3.32       0.05       0.44       ----

> <Gold.Chemscore.Fitness>
11.9527

> <Gold.Chemscore.DG>
-12.4379

> <Gold.Chemscore.ZeroCoef>
-5.4800

> <Gold.Chemscore.Hbond>
1.5053

> <Gold.Chemscore.Metal>
0.0000

> <Gold.Chemscore.Lipo>
89.1458

> <Gold.Chemscore.Internal_Hbond>
0.0000

> <Gold.Chemscore.DEClash>
0.0456

> <Gold.Chemscore.DEInternal>
0.4396

> <Gold.Chemscore.Rot>
3.3203

> <Gold.Chemscore.Internal.Correction>
   9.000000E+99

> <Gold.Chemscore.Hbonds>
donor molecule, donor type, donor heavy atom, donor atom, acceptor molecule, acceptor atom, score
      L1  H     1    31       P1  7948  0.58
      P1  H  6896  6909       L1    22  0.23

> <Gold.Chemscore.Hbond.Weighted>
-5.0278

> <Gold.Chemscore.Metal.Weighted>
-0.0000

> <Gold.Chemscore.Lipo.Weighted>
-10.4301

> <Gold.Chemscore.Internal_Hbond.Weighted>
0.0000

> <Gold.Chemscore.DEClash.Weighted>
0.0456

> <Gold.Chemscore.DEInternal.Weighted>
0.4396

> <Gold.Chemscore.Rot.Weighted>
8.5000

> <Gold.Chemscore.Internal.Correction.Weighted>
   9.000000E+99

> <Gold.Protein.RotatedTorsions>
[ 6907 6896 6895 6894 ] final   25.72 input  -60.11 | X-H torsion
[ 7974 7965 7964 7962 ] final -123.33 input  175.53 | X-H torsion
[ 8008 7997 7996 7995 ] final  -42.37 input   59.86 | X-H torsion
[ 10167 10162 10161 10158 ] final  127.02 input  -65.29 | X-H torsion
[ 10718 10713 10712 10709 ] final -143.51 input   66.30 | X-H torsion
[ 10763 10752 10751 10750 ] final  117.22 input  -60.55 | X-H torsion
[ 11005 11000 10999 10996 ] final -162.31 input  -57.11 | X-H torsion

> <Gold.Protein.ActiveResidues>
 VAL166  LYS551  ARG553  GLY616  TRP617  ASP618  TYR619  PRO620  LYS621  CYS622 
 ASP623  PHE694  ASN695  SER759  ASP760  ASP761  ALA762  ILE779  LEU786  VAL792 
 PHE793  MET794  SER795  GLU796  ALA797  LYS798  CYS799  TRP800  GLU811  SER814 

> <Gold.Protein.RotatedAtoms>
  151.9768  135.0049  160.0555 H   0  0  0  0  0  0  0  0  0  0  0  0  # atno 6907 bound_to 6896
  152.1733  133.4653  159.4928 H   0  0  0  0  0  0  0  0  0  0  0  0  # atno 6908 bound_to 6896
  150.6905  134.1843  159.4304 H   0  0  0  0  0  0  0  0  0  0  0  0  # atno 6909 bound_to 6896
  145.0198  140.7978  143.4388 H   0  0  0  0  0  0  0  0  0  0  0  0  # atno 7974 bound_to 7965
  154.3999  140.1475  156.3344 H   0  0  0  0  0  0  0  0  0  0  0  0  # atno 8008 bound_to 7997
  155.8414  140.3462  155.5613 H   0  0  0  0  0  0  0  0  0  0  0  0  # atno 8009 bound_to 7997
  155.8083  140.0880  157.1909 H   0  0  0  0  0  0  0  0  0  0  0  0  # atno 8010 bound_to 7997
  139.5600  144.6875  151.4071 H   0  0  0  0  0  0  0  0  0  0  0  0  # atno 10167 bound_to 10162
  156.3588  130.7727  151.1891 H   0  0  0  0  0  0  0  0  0  0  0  0  # atno 10718 bound_to 10713
  153.5491  135.3543  155.2751 H   0  0  0  0  0  0  0  0  0  0  0  0  # atno 10763 bound_to 10752
  154.8709  135.4109  154.2957 H   0  0  0  0  0  0  0  0  0  0  0  0  # atno 10764 bound_to 10752
  153.3680  135.7063  153.6728 H   0  0  0  0  0  0  0  0  0  0  0  0  # atno 10765 bound_to 10752
  140.6107  134.4852  157.5215 H   0  0  0  0  0  0  0  0  0  0  0  0  # atno 11005 bound_to 11000
  145.1911  139.2301  143.5242 LP  0  0  0  0  0  0  0  0  0  0  0  0  # atno 17320 bound_to 7965
  146.3483  140.1707  142.8589 LP  0  0  0  0  0  0  0  0  0  0  0  0  # atno 17321 bound_to 7965
  140.6878  143.7932  150.7212 LP  0  0  0  0  0  0  0  0  0  0  0  0  # atno 17342 bound_to 10162
  140.1405  143.4445  152.2196 LP  0  0  0  0  0  0  0  0  0  0  0  0  # atno 17343 bound_to 10162
  157.7471  131.0406  150.4606 LP  0  0  0  0  0  0  0  0  0  0  0  0  # atno 17370 bound_to 10713
  156.4813  130.4074  149.6460 LP  0  0  0  0  0  0  0  0  0  0  0  0  # atno 17371 bound_to 10713
  139.9193  134.8181  156.1262 LP  0  0  0  0  0  0  0  0  0  0  0  0  # atno 17394 bound_to 11000
  141.0810  133.6754  156.2335 LP  0  0  0  0  0  0  0  0  0  0  0  0  # atno 17395 bound_to 11000

$$$$
