AV-unprocessed.smi:1535|AV-procd|sdf|6172|dock5
  -GOLD-   22720 6323D 1   1.00000     0.00000
 Structure written by MMmdl.
 46 47  0  0  0  0  0  0  0  0  1 V2000
  152.7335  143.4544  162.1309 C   0  0  0  0  0  0  0  0  0  0  0  0
  152.2491  142.9672  160.7767 C   0  0  0  0  0  0  0  0  0  0  0  0
  152.4022  141.6026  160.4428 C   0  0  0  0  0  0  0  0  0  0  0  0
  151.9640  141.1087  159.1945 C   0  0  0  0  0  0  0  0  0  0  0  0
  152.0121  139.8298  158.6678 N   0  0  0  0  0  0  0  0  0  0  0  0
  151.4523  140.0104  157.4752 C   0  0  0  0  0  0  0  0  0  0  0  0
  151.0495  141.2579  157.1647 N   0  0  0  0  0  0  0  0  0  0  0  0
  150.4203  141.6934  155.9280 C   0  0  0  0  0  0  0  0  0  0  0  0
  149.7582  140.5474  155.1329 C   0  0  2  0  0  0  0  0  0  0  0  0
  150.7357  139.9323  154.3170 O   0  0  0  0  0  0  0  0  0  0  0  0
  148.6020  141.0239  154.2248 C   0  0  0  0  0  0  0  0  0  0  0  0
  147.5092  141.7260  154.9035 N   0  0  0  0  0  0  0  0  0  0  0  0
  146.7464  142.5579  153.9741 C   0  0  0  0  0  0  0  0  0  0  0  0
  146.6378  140.7672  155.5865 C   0  0  0  0  0  0  0  0  0  0  0  0
  145.5445  141.3853  156.4790 C   0  0  1  0  0  0  0  0  0  0  0  0
  144.2918  140.5013  156.5128 C   0  0  0  0  0  0  0  0  0  0  0  0
  146.0401  141.6349  157.8431 C   0  0  0  0  0  0  0  0  0  0  0  0
  146.4295  141.8307  158.9150 N   0  0  0  0  0  0  0  0  0  0  0  0
  151.3649  142.0249  158.2814 C   0  0  0  0  0  0  0  0  0  0  0  0
  151.2077  143.3851  158.6023 C   0  0  0  0  0  0  0  0  0  0  0  0
  151.6509  143.8619  159.8536 C   0  0  0  0  0  0  0  0  0  0  0  0
  151.4747  145.3318  160.1907 C   0  0  0  0  0  0  0  0  0  0  0  0
  153.1058  142.6305  162.7399 H   0  0  0  0  0  0  0  0  0  0  0  0
  151.9226  143.9340  162.6792 H   0  0  0  0  0  0  0  0  0  0  0  0
  153.5432  144.1741  162.0086 H   0  0  0  0  0  0  0  0  0  0  0  0
  152.8584  140.9210  161.1453 H   0  0  0  0  0  0  0  0  0  0  0  0
  151.3317  139.1898  156.7829 H   0  0  0  0  0  0  0  0  0  0  0  0
  149.6848  142.4633  156.1662 H   0  0  0  0  0  0  0  0  0  0  0  0
  151.1780  142.1783  155.3117 H   0  0  0  0  0  0  0  0  0  0  0  0
  149.4115  139.8083  155.8530 H   0  0  0  0  0  0  0  0  0  0  0  0
  151.1132  139.2116  154.7985 H   0  0  0  0  0  0  0  0  0  0  0  0
  149.0029  141.6676  153.4407 H   0  0  0  0  0  0  0  0  0  0  0  0
  148.2019  140.1492  153.7096 H   0  0  0  0  0  0  0  0  0  0  0  0
  145.9660  143.1148  154.4902 H   0  0  0  0  0  0  0  0  0  0  0  0
  146.2749  141.9523  153.1988 H   0  0  0  0  0  0  0  0  0  0  0  0
  147.3769  143.2996  153.4871 H   0  0  0  0  0  0  0  0  0  0  0  0
  146.1777  140.1058  154.8505 H   0  0  0  0  0  0  0  0  0  0  0  0
  147.2466  140.1237  156.2236 H   0  0  0  0  0  0  0  0  0  0  0  0
  145.2454  142.3540  156.0808 H   0  0  0  0  0  0  0  0  0  0  0  0
  143.5162  140.9475  157.1357 H   0  0  0  0  0  0  0  0  0  0  0  0
  144.5156  139.5133  156.9164 H   0  0  0  0  0  0  0  0  0  0  0  0
  143.8777  140.3693  155.5130 H   0  0  0  0  0  0  0  0  0  0  0  0
  150.7502  144.0563  157.8909 H   0  0  0  0  0  0  0  0  0  0  0  0
  151.0597  145.8861  159.3484 H   0  0  0  0  0  0  0  0  0  0  0  0
  152.4323  145.7843  160.4485 H   0  0  0  0  0  0  0  0  0  0  0  0
  150.7966  145.4488  161.0362 H   0  0  0  0  0  0  0  0  0  0  0  0
  1  2  1  0  0  0  0
  1 23  1  0  0  0  0
  1 24  1  0  0  0  0
  1 25  1  0  0  0  0
  2 21  1  0  0  0  0
  2  3  2  0  0  0  0
  3  4  1  0  0  0  0
  3 26  1  0  0  0  0
  4 19  2  0  0  0  0
  4  5  1  0  0  0  0
  5  6  2  0  0  0  0
  6  7  1  0  0  0  0
  6 27  1  0  0  0  0
  7  8  1  0  0  0  0
  7 19  1  0  0  0  0
  8  9  1  0  0  0  0
  8 28  1  0  0  0  0
  8 29  1  0  0  0  0
  9 10  1  0  0  0  0
  9 11  1  0  0  0  0
  9 30  1  0  0  0  0
 10 31  1  0  0  0  0
 11 12  1  0  0  0  0
 11 32  1  0  0  0  0
 11 33  1  0  0  0  0
 12 13  1  0  0  0  0
 12 14  1  0  0  0  0
 13 34  1  0  0  0  0
 13 35  1  0  0  0  0
 13 36  1  0  0  0  0
 14 15  1  0  0  0  0
 14 37  1  0  0  0  0
 14 38  1  0  0  0  0
 15 16  1  0  0  0  0
 15 17  1  0  0  0  0
 15 39  1  0  0  0  0
 16 40  1  0  0  0  0
 16 41  1  0  0  0  0
 16 42  1  0  0  0  0
 17 18  3  0  0  0  0
 19 20  1  0  0  0  0
 20 21  2  0  0  0  0
 20 43  1  0  0  0  0
 21 22  1  0  0  0  0
 22 44  1  0  0  0  0
 22 45  1  0  0  0  0
 22 46  1  0  0  0  0
M  END
> <s_m_source_file>
AV-unprocessed.smi

> <i_m_source_file_index>
1535

> <i_lp_mmshare_version>
43012

> <i_f3d_flags>
0

> <s_epik_input>
W0NIM11jKFtjSF0xKWMoW0NIM10pW2NIXWMoYzEyKW4oW2NIXW4yKVtDSDJdW0NASF0oW09IXSlbQ0gyXU4oW0NIM10pW0NIMl1bQ0BIXShbQ0gzXSlDI04=

> <s_epik_cmdline>
J2VwaWtfcHl0aG9uJywgJy1waCcsICc3LjAnLCAnLXRuJywgJzgnLCAnLW1hJywgJzIwMCcsICctbWV0YWxfYmluZGluZycsICctaW1hZScsICc8aW5maWxlLm1hZT4nLCAnLW9tYWUnLCAnPG91dGZpbGUubWFlPic=

> <r_epik_Ionization_Penalty>
0.098511

> <r_epik_Ionization_Penalty_Charging>
0

> <r_epik_Ionization_Penalty_Neutral>
0.098511

> <r_epik_State_Penalty>
0.0881608

> <r_epik_Charging_Adjusted_Penalty>
0.0881608

> <i_epik_Tot_Q>
0

> <i_epik_Tot_abs_Q>
0

> <r_epik_Metal_State_Penalty>
0.0128087

> <b_epik_Metal_Only>
0

> <s_lp_Force_Field>
OPLS_2005

> <r_lp_Energy>
20.9194

> <b_lp_Chiralities_Consistent>
1

> <s_lp_Variant>
AV-unprocessed.smi:1535-3

> <Gold.Version>
5.8.1

> <Gold.Id.Protein>
6NUR|6NUR_protein|mol2

> <Gold.PLP.Fitness>
48.5187

> <Gold.PLP.PLP>
-45.2398

> <Gold.PLP.part.hbond>
-1.9961

> <Gold.PLP.part.metal>
0.0000

> <Gold.PLP.part.buried>
-8.0457

> <Gold.PLP.part.nonpolar>
-36.2185

> <Gold.PLP.part.repulsive>
0.1470

> <Gold.PLP.ligand.clash>
0.0000

> <Gold.PLP.ligand.torsion>
1.1551

> <Gold.PLP.Chemscore.Hbond>
1.8000

> <Gold.PLP.Chemscore.CHOScore>
0.0000

> <Gold.PLP.Chemscore.Metal>
0.0000

> <Gold.Chemscore.Hbonds>
donor molecule, donor type, donor heavy atom, donor atom, acceptor molecule, acceptor atom, score
      P1  H  6934  6946       L1    18  0.69
      P1  H  7989  7998       L1    10  1.00

> <Gold.PLP.Chemscore.Internal.Correction>
0.1891

> <Gold.Rescore>
     Score         DG    S(hbond)    S(metal)    S(lipo)     H(rot)  DE(clash)    DE(int)     intcor
     17.32     -18.64       1.89        0.00     113.48       2.51       0.16       1.16       ----

> <Gold.Chemscore.Fitness>
17.3212

> <Gold.Chemscore.DG>
-18.6428

> <Gold.Chemscore.ZeroCoef>
-5.4800

> <Gold.Chemscore.Hbond>
1.8906

> <Gold.Chemscore.Metal>
0.0000

> <Gold.Chemscore.Lipo>
113.4798

> <Gold.Chemscore.Internal_Hbond>
0.0000

> <Gold.Chemscore.DEClash>
0.1605

> <Gold.Chemscore.DEInternal>
1.1611

> <Gold.Chemscore.Rot>
2.5113

> <Gold.Chemscore.Internal.Correction>
   9.000000E+99

> <Gold.Chemscore.Hbonds>
donor molecule, donor type, donor heavy atom, donor atom, acceptor molecule, acceptor atom, score
      P1  H  6934  6946       L1    18  0.67
      P1  H  7989  7998       L1    10  0.87

> <Gold.Chemscore.Hbond.Weighted>
-6.3146

> <Gold.Chemscore.Metal.Weighted>
-0.0000

> <Gold.Chemscore.Lipo.Weighted>
-13.2771

> <Gold.Chemscore.Internal_Hbond.Weighted>
0.0000

> <Gold.Chemscore.DEClash.Weighted>
0.1605

> <Gold.Chemscore.DEInternal.Weighted>
1.1611

> <Gold.Chemscore.Rot.Weighted>
6.4289

> <Gold.Chemscore.Internal.Correction.Weighted>
   9.000000E+99

> <Gold.Protein.RotatedTorsions>
[ 6907 6896 6895 6894 ] final  -40.45 input  -60.11 | X-H torsion
[ 7974 7965 7964 7962 ] final  -29.58 input  175.53 | X-H torsion
[ 8008 7997 7996 7995 ] final   64.64 input   59.86 | X-H torsion
[ 10167 10162 10161 10158 ] final  138.07 input  -65.29 | X-H torsion
[ 10718 10713 10712 10709 ] final   37.78 input   66.30 | X-H torsion
[ 10763 10752 10751 10750 ] final -175.06 input  -60.55 | X-H torsion
[ 11005 11000 10999 10996 ] final -131.65 input  -57.11 | X-H torsion

> <Gold.Protein.ActiveResidues>
 VAL166  LYS551  ARG553  GLY616  TRP617  ASP618  TYR619  PRO620  LYS621  CYS622 
 ASP623  PHE694  ASN695  SER759  ASP760  ASP761  ALA762  ILE779  LEU786  VAL792 
 PHE793  MET794  SER795  GLU796  ALA797  LYS798  CYS799  TRP800  GLU811  SER814 

> <Gold.Protein.RotatedAtoms>
  150.9783  134.9143  159.7828 H   0  0  0  0  0  0  0  0  0  0  0  0  # atno 6907 bound_to 6896
  152.5213  134.3445  159.9239 H   0  0  0  0  0  0  0  0  0  0  0  0  # atno 6908 bound_to 6896
  151.3453  133.3905  159.2709 H   0  0  0  0  0  0  0  0  0  0  0  0  # atno 6909 bound_to 6896
  146.1206  140.5431  142.8737 H   0  0  0  0  0  0  0  0  0  0  0  0  # atno 7974 bound_to 7965
  155.6492  140.3497  155.4742 H   0  0  0  0  0  0  0  0  0  0  0  0  # atno 8008 bound_to 7997
  155.9862  140.1184  157.0704 H   0  0  0  0  0  0  0  0  0  0  0  0  # atno 8009 bound_to 7997
  154.4205  140.1128  156.5489 H   0  0  0  0  0  0  0  0  0  0  0  0  # atno 8010 bound_to 7997
  139.5123  144.6374  151.5660 H   0  0  0  0  0  0  0  0  0  0  0  0  # atno 10167 bound_to 10162
  157.3510  130.7598  149.6979 H   0  0  0  0  0  0  0  0  0  0  0  0  # atno 10718 bound_to 10713
  154.5889  135.2843  155.0656 H   0  0  0  0  0  0  0  0  0  0  0  0  # atno 10763 bound_to 10752
  154.1964  135.6432  153.5078 H   0  0  0  0  0  0  0  0  0  0  0  0  # atno 10764 bound_to 10752
  153.0114  135.5458  154.6568 H   0  0  0  0  0  0  0  0  0  0  0  0  # atno 10765 bound_to 10752
  140.9239  134.1408  157.4291 H   0  0  0  0  0  0  0  0  0  0  0  0  # atno 11005 bound_to 11000
  144.7593  140.5384  143.6746 LP  0  0  0  0  0  0  0  0  0  0  0  0  # atno 17320 bound_to 7965
  145.5474  139.1476  143.3413 LP  0  0  0  0  0  0  0  0  0  0  0  0  # atno 17321 bound_to 7965
  140.6128  143.9404  150.6466 LP  0  0  0  0  0  0  0  0  0  0  0  0  # atno 17342 bound_to 10162
  140.2652  143.3495  152.1287 LP  0  0  0  0  0  0  0  0  0  0  0  0  # atno 17343 bound_to 10162
  155.9721  130.4140  150.4112 LP  0  0  0  0  0  0  0  0  0  0  0  0  # atno 17370 bound_to 10713
  157.2175  131.0475  151.2565 LP  0  0  0  0  0  0  0  0  0  0  0  0  # atno 17371 bound_to 10713
  139.8781  134.9981  156.5884 LP  0  0  0  0  0  0  0  0  0  0  0  0  # atno 17394 bound_to 11000
  140.7951  133.8550  155.8679 LP  0  0  0  0  0  0  0  0  0  0  0  0  # atno 17395 bound_to 11000

$$$$
