AV-unprocessed.smi:1856|AV-procd|sdf|7533|dock10
  -GOLD-   22720 9243D 1   1.00000     0.00000
 Structure written by MMmdl.
 44 45  0  0  0  0  0  0  0  0  1 V2000
  146.7043  134.9860  161.8348 C   0  0  0  0  0  0  0  0  0  0  0  0
  147.4398  135.3130  160.5253 C   0  0  0  0  0  0  0  0  0  0  0  0
  148.7017  136.1775  160.7152 C   0  0  0  0  0  0  0  0  0  0  0  0
  149.4472  136.4407  159.4044 C   0  0  0  0  0  0  0  0  0  0  0  0
  149.5343  135.5544  158.5546 O   0  0  0  0  0  0  0  0  0  0  0  0
  149.9572  137.6719  159.2444 N   0  0  0  0  0  0  0  0  0  0  0  0
  150.5787  138.1724  158.0214 C   0  0  2  0  0  0  0  0  0  0  0  0
  151.7196  137.2422  157.5844 C   0  0  0  0  0  0  0  0  0  0  0  0
  151.0535  139.5801  158.2900 C   0  0  0  0  0  0  0  0  0  0  0  0
  151.9820  139.8334  159.2172 N   0  0  0  0  0  0  0  0  0  0  0  0
  152.1015  141.2067  159.1702 C   0  0  0  0  0  0  0  0  0  0  0  0
  152.9293  142.0819  159.9089 C   0  0  0  0  0  0  0  0  0  0  0  0
  152.8750  143.4733  159.6858 C   0  0  0  0  0  0  0  0  0  0  0  0
  151.9944  144.0074  158.7231 C   0  0  0  0  0  0  0  0  0  0  0  0
  151.1610  143.1519  157.9772 C   0  0  0  0  0  0  0  0  0  0  0  0
  151.2186  141.7635  158.2040 C   0  0  0  0  0  0  0  0  0  0  0  0
  150.5456  140.6739  157.6594 N   0  0  0  0  0  0  0  0  0  0  0  0
  149.5132  140.7559  156.6328 C   0  0  0  0  0  0  0  0  0  0  0  0
  150.0879  141.0465  155.2339 C   0  0  2  0  0  0  0  0  0  0  0  0
  148.9858  141.1890  154.1771 C   0  0  0  0  0  0  0  0  0  0  0  0
  150.9620  140.0112  154.8326 O   0  0  0  0  0  0  0  0  0  0  0  0
  145.8578  134.3253  161.6477 H   0  0  0  0  0  0  0  0  0  0  0  0
  146.3169  135.8851  162.3158 H   0  0  0  0  0  0  0  0  0  0  0  0
  147.3654  134.4863  162.5432 H   0  0  0  0  0  0  0  0  0  0  0  0
  147.7270  134.3786  160.0423 H   0  0  0  0  0  0  0  0  0  0  0  0
  146.7516  135.8041  159.8359 H   0  0  0  0  0  0  0  0  0  0  0  0
  148.4323  137.1224  161.1898 H   0  0  0  0  0  0  0  0  0  0  0  0
  149.3876  135.6755  161.3981 H   0  0  0  0  0  0  0  0  0  0  0  0
  149.8373  138.3356  159.9957 H   0  0  0  0  0  0  0  0  0  0  0  0
  149.8411  138.1584  157.2215 H   0  0  0  0  0  0  0  0  0  0  0  0
  152.1952  137.6085  156.6743 H   0  0  0  0  0  0  0  0  0  0  0  0
  151.3483  136.2374  157.3810 H   0  0  0  0  0  0  0  0  0  0  0  0
  152.4898  137.1622  158.3522 H   0  0  0  0  0  0  0  0  0  0  0  0
  153.6064  141.6819  160.6488 H   0  0  0  0  0  0  0  0  0  0  0  0
  153.5114  144.1339  160.2563 H   0  0  0  0  0  0  0  0  0  0  0  0
  151.9579  145.0744  158.5586 H   0  0  0  0  0  0  0  0  0  0  0  0
  150.4849  143.5585  157.2399 H   0  0  0  0  0  0  0  0  0  0  0  0
  148.9088  139.8505  156.6326 H   0  0  0  0  0  0  0  0  0  0  0  0
  148.8262  141.5547  156.9142 H   0  0  0  0  0  0  0  0  0  0  0  0
  150.6640  141.9720  155.2686 H   0  0  0  0  0  0  0  0  0  0  0  0
  148.3052  142.0021  154.4306 H   0  0  0  0  0  0  0  0  0  0  0  0
  148.3956  140.2754  154.0934 H   0  0  0  0  0  0  0  0  0  0  0  0
  149.4064  141.4063  153.1948 H   0  0  0  0  0  0  0  0  0  0  0  0
  151.7000  139.9965  155.4226 H   0  0  0  0  0  0  0  0  0  0  0  0
  1  2  1  0  0  0  0
  1 22  1  0  0  0  0
  1 23  1  0  0  0  0
  1 24  1  0  0  0  0
  2  3  1  0  0  0  0
  2 25  1  0  0  0  0
  2 26  1  0  0  0  0
  3  4  1  0  0  0  0
  3 27  1  0  0  0  0
  3 28  1  0  0  0  0
  4  5  2  0  0  0  0
  4  6  1  0  0  0  0
  6  7  1  0  0  0  0
  6 29  1  0  0  0  0
  7  8  1  0  0  0  0
  7  9  1  0  0  0  0
  7 30  1  0  0  0  0
  8 31  1  0  0  0  0
  8 32  1  0  0  0  0
  8 33  1  0  0  0  0
  9 17  1  0  0  0  0
  9 10  2  0  0  0  0
 10 11  1  0  0  0  0
 11 16  2  0  0  0  0
 11 12  1  0  0  0  0
 12 13  2  0  0  0  0
 12 34  1  0  0  0  0
 13 14  1  0  0  0  0
 13 35  1  0  0  0  0
 14 15  2  0  0  0  0
 14 36  1  0  0  0  0
 15 16  1  0  0  0  0
 15 37  1  0  0  0  0
 16 17  1  0  0  0  0
 17 18  1  0  0  0  0
 18 19  1  0  0  0  0
 18 38  1  0  0  0  0
 18 39  1  0  0  0  0
 19 20  1  0  0  0  0
 19 21  1  0  0  0  0
 19 40  1  0  0  0  0
 20 41  1  0  0  0  0
 20 42  1  0  0  0  0
 20 43  1  0  0  0  0
 21 44  1  0  0  0  0
M  END
> <s_m_source_file>
AV-unprocessed.smi

> <i_m_source_file_index>
1856

> <i_lp_mmshare_version>
43012

> <i_f3d_flags>
0

> <s_epik_input>
W0NIM11bQ0gyXVtDSDJdQyg9TylbTkhdW0NASF0oW0NIM10pYyhuMSluKFtDSDJdW0NASF0oW0NIM10pW09IXSljKGMxMilbY0hdW2NIXVtjSF1bY0hdMg==

> <s_epik_cmdline>
J2VwaWtfcHl0aG9uJywgJy1waCcsICc3LjAnLCAnLXRuJywgJzgnLCAnLW1hJywgJzIwMCcsICctbWV0YWxfYmluZGluZycsICctaW1hZScsICc8aW5maWxlLm1hZT4nLCAnLW9tYWUnLCAnPG91dGZpbGUubWFlPic=

> <r_epik_Ionization_Penalty>
0.134222

> <r_epik_Ionization_Penalty_Charging>
0

> <r_epik_Ionization_Penalty_Neutral>
0.134222

> <r_epik_State_Penalty>
0.123585

> <r_epik_Charging_Adjusted_Penalty>
0.123585

> <i_epik_Tot_Q>
0

> <i_epik_Tot_abs_Q>
0

> <r_epik_Metal_State_Penalty>
0.100548

> <b_epik_Metal_Only>
0

> <s_lp_Force_Field>
OPLS_2005

> <r_lp_Energy>
0.748352

> <b_lp_Chiralities_Consistent>
1

> <s_lp_Variant>
AV-unprocessed.smi:1856-1

> <Gold.Version>
5.8.1

> <Gold.Id.Protein>
6NUR|6NUR_protein|mol2

> <Gold.PLP.Fitness>
44.6197

> <Gold.PLP.PLP>
-39.6107

> <Gold.PLP.part.hbond>
-2.0000

> <Gold.PLP.part.metal>
0.0000

> <Gold.PLP.part.buried>
-4.0244

> <Gold.PLP.part.nonpolar>
-34.0996

> <Gold.PLP.part.repulsive>
0.5729

> <Gold.PLP.ligand.clash>
0.0000

> <Gold.PLP.ligand.torsion>
0.5262

> <Gold.PLP.Chemscore.Hbond>
2.0000

> <Gold.PLP.Chemscore.CHOScore>
0.0000

> <Gold.PLP.Chemscore.Metal>
0.0000

> <Gold.Chemscore.Hbonds>
donor molecule, donor type, donor heavy atom, donor atom, acceptor molecule, acceptor atom, score
      P1  H  6896  6908       L1     5  1.00
      P1  H  7989  7998       L1    21  0.80

> <Gold.PLP.Chemscore.Internal.Correction>
0.0614

> <Gold.Rescore>
     Score         DG    S(hbond)    S(metal)    S(lipo)     H(rot)  DE(clash)    DE(int)     intcor
     13.59     -16.54       1.42        0.00     107.60       2.45       1.18       1.77       ----

> <Gold.Chemscore.Fitness>
13.5863

> <Gold.Chemscore.DG>
-16.5369

> <Gold.Chemscore.ZeroCoef>
-5.4800

> <Gold.Chemscore.Hbond>
1.4160

> <Gold.Chemscore.Metal>
0.0000

> <Gold.Chemscore.Lipo>
107.5977

> <Gold.Chemscore.Internal_Hbond>
0.0000

> <Gold.Chemscore.DEClash>
1.1835

> <Gold.Chemscore.DEInternal>
1.7671

> <Gold.Chemscore.Rot>
2.4459

> <Gold.Chemscore.Internal.Correction>
   9.000000E+99

> <Gold.Chemscore.Hbonds>
donor molecule, donor type, donor heavy atom, donor atom, acceptor molecule, acceptor atom, score
      P1  H  6896  6908       L1     5  0.25
      P1  H  7989  7998       L1    21  0.04

> <Gold.Chemscore.Hbond.Weighted>
-4.7294

> <Gold.Chemscore.Metal.Weighted>
-0.0000

> <Gold.Chemscore.Lipo.Weighted>
-12.5889

> <Gold.Chemscore.Internal_Hbond.Weighted>
0.0000

> <Gold.Chemscore.DEClash.Weighted>
1.1835

> <Gold.Chemscore.DEInternal.Weighted>
1.7671

> <Gold.Chemscore.Rot.Weighted>
6.2614

> <Gold.Chemscore.Internal.Correction.Weighted>
   9.000000E+99

> <Gold.Protein.RotatedTorsions>
[ 6907 6896 6895 6894 ] final  155.15 input  -60.11 | X-H torsion
[ 7974 7965 7964 7962 ] final  112.38 input  175.53 | X-H torsion
[ 8008 7997 7996 7995 ] final -110.20 input   59.86 | X-H torsion
[ 10167 10162 10161 10158 ] final  167.48 input  -65.29 | X-H torsion
[ 10718 10713 10712 10709 ] final -123.54 input   66.30 | X-H torsion
[ 10763 10752 10751 10750 ] final  -35.50 input  -60.55 | X-H torsion
[ 11005 11000 10999 10996 ] final -107.13 input  -57.11 | X-H torsion

> <Gold.Protein.ActiveResidues>
 VAL166  LYS551  ARG553  GLY616  TRP617  ASP618  TYR619  PRO620  LYS621  CYS622 
 ASP623  PHE694  ASN695  SER759  ASP760  ASP761  ALA762  ILE779  LEU786  VAL792 
 PHE793  MET794  SER795  GLU796  ALA797  LYS798  CYS799  TRP800  GLU811  SER814 

> <Gold.Protein.RotatedAtoms>
  152.0482  133.4007  159.4365 H   0  0  0  0  0  0  0  0  0  0  0  0  # atno 6907 bound_to 6896
  150.6871  134.3337  159.4847 H   0  0  0  0  0  0  0  0  0  0  0  0  # atno 6908 bound_to 6896
  152.1144  134.9250  160.0616 H   0  0  0  0  0  0  0  0  0  0  0  0  # atno 6909 bound_to 6896
  145.2303  139.2822  143.4171 H   0  0  0  0  0  0  0  0  0  0  0  0  # atno 7974 bound_to 7965
  154.9709  140.0397  157.2234 H   0  0  0  0  0  0  0  0  0  0  0  0  # atno 8008 bound_to 7997
  154.7802  140.2817  155.6047 H   0  0  0  0  0  0  0  0  0  0  0  0  # atno 8009 bound_to 7997
  156.2935  140.2593  156.2626 H   0  0  0  0  0  0  0  0  0  0  0  0  # atno 8010 bound_to 7997
  139.4946  144.3917  151.9510 H   0  0  0  0  0  0  0  0  0  0  0  0  # atno 10167 bound_to 10162
  156.1510  130.6535  150.9914 H   0  0  0  0  0  0  0  0  0  0  0  0  # atno 10718 bound_to 10713
  153.8642  135.6837  153.4780 H   0  0  0  0  0  0  0  0  0  0  0  0  # atno 10763 bound_to 10752
  153.1324  135.4692  154.9368 H   0  0  0  0  0  0  0  0  0  0  0  0  # atno 10764 bound_to 10752
  154.7744  135.3249  154.8072 H   0  0  0  0  0  0  0  0  0  0  0  0  # atno 10765 bound_to 10752
  141.0970  133.8954  157.1939 H   0  0  0  0  0  0  0  0  0  0  0  0  # atno 11005 bound_to 11000
  146.3354  140.2636  142.8603 LP  0  0  0  0  0  0  0  0  0  0  0  0  # atno 17320 bound_to 7965
  144.9683  140.8343  143.5471 LP  0  0  0  0  0  0  0  0  0  0  0  0  # atno 17321 bound_to 7965
  140.3354  144.3266  150.5978 LP  0  0  0  0  0  0  0  0  0  0  0  0  # atno 17342 bound_to 10162
  140.5610  143.2192  151.7765 LP  0  0  0  0  0  0  0  0  0  0  0  0  # atno 17343 bound_to 10162
  157.6657  131.0872  150.7734 LP  0  0  0  0  0  0  0  0  0  0  0  0  # atno 17370 bound_to 10713
  156.7802  130.4857  149.5402 LP  0  0  0  0  0  0  0  0  0  0  0  0  # atno 17371 bound_to 10713
  139.9809  135.0098  156.9747 LP  0  0  0  0  0  0  0  0  0  0  0  0  # atno 17394 bound_to 11000
  140.5117  134.0996  155.7272 LP  0  0  0  0  0  0  0  0  0  0  0  0  # atno 17395 bound_to 11000

$$$$
