AV-unprocessed.smi:1762|AV-procd|sdf|7104|dock7
  -GOLD-   22720 8323D 1   1.00000     0.00000
 Structure written by MMmdl.
 52 53  0  0  0  0  0  0  0  0  1 V2000
  150.2619  136.7780  157.6575 C   0  0  0  0  0  0  0  0  0  0  0  0
  150.5021  136.4823  156.1665 C   0  0  1  0  0  0  0  0  0  0  0  0
  149.3972  137.0414  155.2486 C   0  0  0  0  0  0  0  0  0  0  0  0
  149.4572  138.5049  155.0842 N   0  0  0  0  0  0  0  0  0  0  0  0
  148.3853  139.0671  154.2153 C   0  0  1  0  0  0  0  0  0  0  0  0
  147.1007  138.2046  154.1979 C   0  0  0  0  0  0  0  0  0  0  0  0
  146.2006  138.4095  155.0135 O   0  0  0  0  0  0  0  0  0  0  0  0
  147.0399  137.2345  153.2718 N   0  0  0  0  0  0  0  0  0  0  0  0
  145.9187  136.3214  153.0880 C   0  0  0  0  0  0  0  0  0  0  0  0
  145.6724  136.0220  151.5997 C   0  0  0  0  0  0  0  0  0  0  0  0
  145.4494  134.5441  151.3407 C   0  0  0  0  0  0  0  0  0  0  0  0
  144.2256  134.0825  150.8106 C   0  0  0  0  0  0  0  0  0  0  0  0
  144.0659  132.6999  150.5967 C   0  0  0  0  0  0  0  0  0  0  0  0
  145.1302  131.8363  150.9205 C   0  0  0  0  0  0  0  0  0  0  0  0
  146.3117  132.3962  151.4462 C   0  0  0  0  0  0  0  0  0  0  0  0
  146.4748  133.7206  151.6560 N   0  0  0  0  0  0  0  0  0  0  0  0
  148.0333  140.5694  154.4839 C   0  0  0  0  0  0  0  0  0  0  0  0
  147.1138  141.1945  153.4163 C   0  0  0  0  0  0  0  0  0  0  0  0
  149.2705  141.4615  154.7132 C   0  0  0  0  0  0  0  0  0  0  0  0
  150.8082  138.8645  154.6399 C   0  0  0  0  0  0  0  0  0  0  0  0
  151.9036  138.3433  155.5884 C   0  0  2  0  0  0  0  0  0  0  0  0
  153.3132  138.6455  155.0680 C   0  0  0  0  0  0  0  0  0  0  0  0
  151.7830  136.9322  155.7320 O   0  0  0  0  0  0  0  0  0  0  0  0
  149.3351  136.3162  157.9988 H   0  0  0  0  0  0  0  0  0  0  0  0
  150.1826  137.8464  157.8574 H   0  0  0  0  0  0  0  0  0  0  0  0
  151.0725  136.3812  158.2688 H   0  0  0  0  0  0  0  0  0  0  0  0
  150.5096  135.3974  156.0577 H   0  0  0  0  0  0  0  0  0  0  0  0
  149.4790  136.5662  154.2695 H   0  0  0  0  0  0  0  0  0  0  0  0
  148.4442  136.7173  155.6651 H   0  0  0  0  0  0  0  0  0  0  0  0
  148.7697  139.0358  153.1934 H   0  0  0  0  0  0  0  0  0  0  0  0
  147.8243  137.1276  152.6451 H   0  0  0  0  0  0  0  0  0  0  0  0
  146.1457  135.3984  153.6217 H   0  0  0  0  0  0  0  0  0  0  0  0
  145.0197  136.7341  153.5489 H   0  0  0  0  0  0  0  0  0  0  0  0
  144.8061  136.5794  151.2408 H   0  0  0  0  0  0  0  0  0  0  0  0
  146.5214  136.3622  151.0049 H   0  0  0  0  0  0  0  0  0  0  0  0
  143.4263  134.7699  150.5750 H   0  0  0  0  0  0  0  0  0  0  0  0
  143.1439  132.3092  150.1923 H   0  0  0  0  0  0  0  0  0  0  0  0
  145.0434  130.7705  150.7695 H   0  0  0  0  0  0  0  0  0  0  0  0
  147.1478  131.7638  151.7054 H   0  0  0  0  0  0  0  0  0  0  0  0
  147.4994  140.6206  155.4312 H   0  0  0  0  0  0  0  0  0  0  0  0
  147.6078  141.2723  152.4482 H   0  0  0  0  0  0  0  0  0  0  0  0
  146.8107  142.2005  153.7075 H   0  0  0  0  0  0  0  0  0  0  0  0
  146.2032  140.6112  153.2795 H   0  0  0  0  0  0  0  0  0  0  0  0
  149.8517  141.6029  153.8016 H   0  0  0  0  0  0  0  0  0  0  0  0
  149.9299  141.0339  155.4691 H   0  0  0  0  0  0  0  0  0  0  0  0
  148.9745  142.4513  155.0619 H   0  0  0  0  0  0  0  0  0  0  0  0
  150.9808  138.4854  153.6310 H   0  0  0  0  0  0  0  0  0  0  0  0
  150.9268  139.9448  154.5937 H   0  0  0  0  0  0  0  0  0  0  0  0
  151.7932  138.8181  156.5638 H   0  0  0  0  0  0  0  0  0  0  0  0
  153.4676  139.7185  154.9519 H   0  0  0  0  0  0  0  0  0  0  0  0
  153.4862  138.1749  154.0997 H   0  0  0  0  0  0  0  0  0  0  0  0
  154.0702  138.2738  155.7590 H   0  0  0  0  0  0  0  0  0  0  0  0
  1  2  1  0  0  0  0
  1 24  1  0  0  0  0
  1 25  1  0  0  0  0
  1 26  1  0  0  0  0
  2 23  1  0  0  0  0
  2  3  1  0  0  0  0
  2 27  1  0  0  0  0
  3  4  1  0  0  0  0
  3 28  1  0  0  0  0
  3 29  1  0  0  0  0
  4  5  1  0  0  0  0
  4 20  1  0  0  0  0
  5  6  1  0  0  0  0
  5 17  1  0  0  0  0
  5 30  1  0  0  0  0
  6  7  2  0  0  0  0
  6  8  1  0  0  0  0
  8  9  1  0  0  0  0
  8 31  1  0  0  0  0
  9 10  1  0  0  0  0
  9 32  1  0  0  0  0
  9 33  1  0  0  0  0
 10 11  1  0  0  0  0
 10 34  1  0  0  0  0
 10 35  1  0  0  0  0
 11 16  1  0  0  0  0
 11 12  2  0  0  0  0
 12 13  1  0  0  0  0
 12 36  1  0  0  0  0
 13 14  2  0  0  0  0
 13 37  1  0  0  0  0
 14 15  1  0  0  0  0
 14 38  1  0  0  0  0
 15 16  2  0  0  0  0
 15 39  1  0  0  0  0
 17 18  1  0  0  0  0
 17 19  1  0  0  0  0
 17 40  1  0  0  0  0
 18 41  1  0  0  0  0
 18 42  1  0  0  0  0
 18 43  1  0  0  0  0
 19 44  1  0  0  0  0
 19 45  1  0  0  0  0
 19 46  1  0  0  0  0
 20 21  1  0  0  0  0
 20 47  1  0  0  0  0
 20 48  1  0  0  0  0
 21 22  1  0  0  0  0
 21 23  1  0  0  0  0
 21 49  1  0  0  0  0
 22 50  1  0  0  0  0
 22 51  1  0  0  0  0
 22 52  1  0  0  0  0
M  END
> <s_m_source_file>
AV-unprocessed.smi

> <i_m_source_file_index>
1762

> <i_lp_mmshare_version>
43012

> <i_f3d_flags>
0

> <s_epik_input>
W0NIM11bQ0BASF0xW0NIMl1OKFtDSDJdW0NASF0oTzEpW0NIM10pW0NAQEhdKFtDSF0oW0NIM10pW0NIM10pQyg9TylbTkhdW0NIMl1bQ0gyXWMyW2NIXVtjSF1bY0hdW2NIXW4y

> <s_epik_cmdline>
J2VwaWtfcHl0aG9uJywgJy1waCcsICc3LjAnLCAnLXRuJywgJzgnLCAnLW1hJywgJzIwMCcsICctbWV0YWxfYmluZGluZycsICctaW1hZScsICc8aW5maWxlLm1hZT4nLCAnLW9tYWUnLCAnPG91dGZpbGUubWFlPic=

> <r_epik_Ionization_Penalty>
0.0399736

> <r_epik_Ionization_Penalty_Charging>
0

> <r_epik_Ionization_Penalty_Neutral>
0.0399736

> <r_epik_State_Penalty>
0.0317634

> <r_epik_Charging_Adjusted_Penalty>
0.0317634

> <i_epik_Tot_Q>
0

> <i_epik_Tot_abs_Q>
0

> <r_epik_Metal_State_Penalty>
0.0307795

> <b_epik_Metal_Only>
0

> <s_lp_Force_Field>
OPLS_2005

> <r_lp_Energy>
30.2117

> <b_lp_Chiralities_Consistent>
1

> <s_lp_Variant>
AV-unprocessed.smi:1762-6

> <Gold.Version>
5.8.1

> <Gold.Id.Protein>
6NUR|6NUR_protein|mol2

> <Gold.PLP.Fitness>
45.4045

> <Gold.PLP.PLP>
-39.9394

> <Gold.PLP.part.hbond>
-1.9573

> <Gold.PLP.part.metal>
0.0000

> <Gold.PLP.part.buried>
-6.0235

> <Gold.PLP.part.nonpolar>
-33.6451

> <Gold.PLP.part.repulsive>
0.4780

> <Gold.PLP.ligand.clash>
0.0000

> <Gold.PLP.ligand.torsion>
1.8776

> <Gold.PLP.Chemscore.Hbond>
1.9600

> <Gold.PLP.Chemscore.CHOScore>
1.0000

> <Gold.PLP.Chemscore.Metal>
0.0000

> <Gold.Chemscore.Hbonds>
donor molecule, donor type, donor heavy atom, donor atom, acceptor molecule, acceptor atom, score
      L1  H     8    31       P1  7948  1.00
      P1  H 10752 10763       L1    23  0.76
      L1  C    15    39       P1 10747  1.00

> <Gold.PLP.Chemscore.Internal.Correction>
0.3403

> <Gold.Rescore>
     Score         DG    S(hbond)    S(metal)    S(lipo)     H(rot)  DE(clash)    DE(int)     intcor
     17.81     -19.65       1.66        0.00     108.65       1.60       0.06       1.78       ----

> <Gold.Chemscore.Fitness>
17.8093

> <Gold.Chemscore.DG>
-19.6475

> <Gold.Chemscore.ZeroCoef>
-5.4800

> <Gold.Chemscore.Hbond>
1.6615

> <Gold.Chemscore.Metal>
0.0000

> <Gold.Chemscore.Lipo>
108.6512

> <Gold.Chemscore.Internal_Hbond>
0.0000

> <Gold.Chemscore.DEClash>
0.0625

> <Gold.Chemscore.DEInternal>
1.7757

> <Gold.Chemscore.Rot>
1.5993

> <Gold.Chemscore.Internal.Correction>
   9.000000E+99

> <Gold.Chemscore.Hbonds>
donor molecule, donor type, donor heavy atom, donor atom, acceptor molecule, acceptor atom, score
      L1  H     8    31       P1  7948  0.97
      P1  H 10752 10763       L1    23  0.68

> <Gold.Chemscore.Hbond.Weighted>
-5.5494

> <Gold.Chemscore.Metal.Weighted>
-0.0000

> <Gold.Chemscore.Lipo.Weighted>
-12.7122

> <Gold.Chemscore.Internal_Hbond.Weighted>
0.0000

> <Gold.Chemscore.DEClash.Weighted>
0.0625

> <Gold.Chemscore.DEInternal.Weighted>
1.7757

> <Gold.Chemscore.Rot.Weighted>
4.0941

> <Gold.Chemscore.Internal.Correction.Weighted>
   9.000000E+99

> <Gold.Protein.RotatedTorsions>
[ 6907 6896 6895 6894 ] final  159.82 input  -60.11 | X-H torsion
[ 7974 7965 7964 7962 ] final   16.27 input  175.53 | X-H torsion
[ 8008 7997 7996 7995 ] final   60.07 input   59.86 | X-H torsion
[ 10167 10162 10161 10158 ] final  106.80 input  -65.29 | X-H torsion
[ 10718 10713 10712 10709 ] final   85.30 input   66.30 | X-H torsion
[ 10763 10752 10751 10750 ] final   57.12 input  -60.55 | X-H torsion
[ 11005 11000 10999 10996 ] final  -71.86 input  -57.11 | X-H torsion

> <Gold.Protein.ActiveResidues>
 VAL166  LYS551  ARG553  GLY616  TRP617  ASP618  TYR619  PRO620  LYS621  CYS622 
 ASP623  PHE694  ASN695  SER759  ASP760  ASP761  ALA762  ILE779  LEU786  VAL792 
 PHE793  MET794  SER795  GLU796  ALA797  LYS798  CYS799  TRP800  GLU811  SER814 

> <Gold.Protein.RotatedAtoms>
  151.9799  133.3754  159.4103 H   0  0  0  0  0  0  0  0  0  0  0  0  # atno 6907 bound_to 6896
  150.6936  134.4050  159.5145 H   0  0  0  0  0  0  0  0  0  0  0  0  # atno 6908 bound_to 6896
  152.1767  134.8788  160.0580 H   0  0  0  0  0  0  0  0  0  0  0  0  # atno 6909 bound_to 6896
  146.2254  139.8772  142.8577 H   0  0  0  0  0  0  0  0  0  0  0  0  # atno 7974 bound_to 7965
  155.5764  140.3491  155.4529 H   0  0  0  0  0  0  0  0  0  0  0  0  # atno 8008 bound_to 7997
  156.0406  140.1295  157.0185 H   0  0  0  0  0  0  0  0  0  0  0  0  # atno 8009 bound_to 7997
  154.4390  140.1025  156.6216 H   0  0  0  0  0  0  0  0  0  0  0  0  # atno 8010 bound_to 7997
  139.6979  144.7098  151.1235 H   0  0  0  0  0  0  0  0  0  0  0  0  # atno 10167 bound_to 10162
  157.6912  131.0169  150.2802 H   0  0  0  0  0  0  0  0  0  0  0  0  # atno 10718 bound_to 10713
  152.9844  135.5652  154.5340 H   0  0  0  0  0  0  0  0  0  0  0  0  # atno 10763 bound_to 10752
  154.4806  135.2788  155.1575 H   0  0  0  0  0  0  0  0  0  0  0  0  # atno 10764 bound_to 10752
  154.3085  135.6293  153.5508 H   0  0  0  0  0  0  0  0  0  0  0  0  # atno 10765 bound_to 10752
  141.1599  133.6829  156.6970 H   0  0  0  0  0  0  0  0  0  0  0  0  # atno 11005 bound_to 11000
  145.2548  141.0057  143.3860 LP  0  0  0  0  0  0  0  0  0  0  0  0  # atno 17320 bound_to 7965
  144.9345  139.4260  143.6479 LP  0  0  0  0  0  0  0  0  0  0  0  0  # atno 17321 bound_to 7965
  140.7701  143.5465  150.9253 LP  0  0  0  0  0  0  0  0  0  0  0  0  # atno 17342 bound_to 10162
  139.9145  143.6680  152.3109 LP  0  0  0  0  0  0  0  0  0  0  0  0  # atno 17343 bound_to 10162
  156.3349  130.3806  149.7458 LP  0  0  0  0  0  0  0  0  0  0  0  0  # atno 17370 bound_to 10713
  156.4986  130.8118  151.3123 LP  0  0  0  0  0  0  0  0  0  0  0  0  # atno 17371 bound_to 10713
  140.2987  134.8181  157.4079 LP  0  0  0  0  0  0  0  0  0  0  0  0  # atno 17394 bound_to 11000
  140.1281  134.5131  155.8128 LP  0  0  0  0  0  0  0  0  0  0  0  0  # atno 17395 bound_to 11000

$$$$
