#       Name:                AV-unprocessed.smi:334
#       Creating user name   scv26
#       Creation time:       Thu Mar 26 22:28:41 2020


#       File generated by GOLD software.
#

@<TRIPOS>MOLECULE
AV-unprocessed.smi:334
    50    52     1
SMALL
NO_CHARGES


@<TRIPOS>ATOM
      1 ****        -2.0315  -1.9125   2.3853 C.3            1 S1                 0.0000
      2 ****        -1.5344  -1.0582   1.2077 C.3            1 S1                 0.0000
      3 ****        -0.0737  -1.0166   1.2527 N.am           1 S1                 0.0000
      4 ****         0.6819   0.0885   1.3504 C.2            1 S1                 0.0000
      5 ****         0.2167   1.2239   1.4556 O.2            1 S1                 0.0000
      6 ****         2.2006  -0.1327   1.3327 C.3            1 S1                 0.0000
      7 ****         2.9381   0.9946   0.7373 N.am           1 S1                 0.0000
      8 ****         3.5630   1.8949   1.6232 C.2            1 S1                 0.0000
      9 ****         4.2598   2.9622   1.1858 C.2            1 S1                 0.0000
     10 ****         4.8934   3.8778   2.1093 N.pl3          1 S1                 1.0000
     11 ****         5.5250   4.8271   1.6563 O.2            1 S1                 0.0000
     12 ****         4.7823   3.6793   3.3156 O.2            1 S1                -1.0000
     13 ****         4.3520   3.1662  -0.2469 C.2            1 S1                 0.0000
     14 ****         3.7548   2.3104  -1.0993 C.2            1 S1                 0.0000
     15 ****         2.9977   1.1491  -0.6214 C.2            1 S1                 0.0000
     16 ****         2.4505   0.3631  -1.3953 O.2            1 S1                 0.0000
     17 ****        -2.0117  -1.6084  -0.1600 C.3            1 S1                 0.0000
     18 ****        -3.5474  -1.5415  -0.3481 C.3            1 S1                 0.0000
     19 ****        -3.7107  -0.7817  -1.6763 C.3            1 S1                 0.0000
     20 ****        -3.2382  -1.6721  -2.8395 C.3            1 S1                 0.0000
     21 ****        -1.7091  -1.6775  -2.6589 C.3            1 S1                 0.0000
     22 ****        -1.5117  -0.8158  -1.3968 C.3            1 S1                 0.0000
     23 ****        -2.5902   0.2455  -1.5831 C.3            1 S1                 0.0000
     24 ****        -3.1199  -1.9334   2.4360 H              1 S1                 0.0000
     25 ****        -1.6715  -1.5158   3.3351 H              1 S1                 0.0000
     26 ****        -1.6841  -2.9430   2.3026 H              1 S1                 0.0000
     27 ****        -1.9390  -0.0534   1.3379 H              1 S1                 0.0000
     28 ****         0.4030  -1.9033   1.1748 H              1 S1                 0.0000
     29 ****         2.5272  -0.3146   2.3575 H              1 S1                 0.0000
     30 ****         2.4331  -1.0522   0.7917 H              1 S1                 0.0000
     31 ****         3.4306   1.6601   2.6695 H              1 S1                 0.0000
     32 ****         4.8988   4.0075  -0.6469 H              1 S1                 0.0000
     33 ****         3.8343   2.4830  -2.1627 H              1 S1                 0.0000
     34 ****        -1.6762  -2.6439  -0.2403 H              1 S1                 0.0000
     35 ****        -4.0048  -2.5309  -0.3768 H              1 S1                 0.0000
     36 ****        -4.0263  -0.9811   0.4557 H              1 S1                 0.0000
     37 ****        -4.7075  -0.3643  -1.8214 H              1 S1                 0.0000
     38 ****        -3.6673  -2.6737  -2.7927 H              1 S1                 0.0000
     39 ****        -3.5096  -1.2347  -3.8012 H              1 S1                 0.0000
     40 ****        -1.3049  -2.6842  -2.5464 H              1 S1                 0.0000
     41 ****        -1.2215  -1.2185  -3.5199 H              1 S1                 0.0000
     42 ****        -0.4982  -0.4243  -1.3137 H              1 S1                 0.0000
     43 ****        -2.4656   0.8336  -2.4941 H              1 S1                 0.0000
     44 ****        -2.6891   0.9220  -0.7328 H              1 S1                 0.0000
     45 ****        -0.7740   1.3588   1.4718 LP             1 S1                 0.0000
     46 ****         0.8297   2.0109   1.5249 LP             1 S1                 0.0000
     47 ****         5.5938   4.9555   0.6670 LP             1 S1                 0.0000
     48 ****         5.9711   5.4725   2.2765 LP             1 S1                 0.0000
     49 ****         1.9417  -0.4193  -1.0363 LP             1 S1                 0.0000
     50 ****         2.5150   0.5072  -2.3827 LP             1 S1                 0.0000
@<TRIPOS>BOND
    1    1    2 1     
    2    1   24 1     
    3    1   25 1     
    4    1   26 1     
    5    2    3 1     
    6    2   17 1     
    7    2   27 1     
    8    3    4 am    
    9    3   28 1     
   10    4    5 2     
   11    4    6 1     
   12    6    7 1     
   13    6   29 1     
   14    6   30 1     
   15    7   15 am    
   16    7    8 1     
   17    8    9 2     
   18    8   31 1     
   19    9   10 1     
   20    9   13 1     
   21   10   11 2     
   22   10   12 1     
   23   13   14 2     
   24   13   32 1     
   25   14   15 1     
   26   14   33 1     
   27   15   16 2     
   28   17   22 1     
   29   17   18 1     
   30   17   34 1     
   31   18   19 1     
   32   18   35 1     
   33   18   36 1     
   34   19   23 1     
   35   19   20 1     
   36   19   37 1     
   37   20   21 1     
   38   20   38 1     
   39   20   39 1     
   40   21   22 1     
   41   21   40 1     
   42   21   41 1     
   43   22   23 1     
   44   22   42 1     
   45   23   43 1     
   46   23   44 1     
   47    5   45 1     
   48    5   46 1     
   49   11   47 1     
   50   11   48 1     
   51   16   49 1     
   52   16   50 1     
@<TRIPOS>SUBSTRUCTURE
      1 S1             1
@<TRIPOS>SET
LONE_PAIRS      STATIC     ATOMS    <user>   **** ""
7 45 46 47 48 12 49 50
DONOR_HYDROGENS      STATIC     ATOMS    <user>   **** ""
1 28
ATOM$BLUE        STATIC     ATOMS    COLORGROUP SYSTEM
7 45 46 47 48 12 49 50
ATOM$RED        STATIC     ATOMS    COLORGROUP SYSTEM
1 28
