AV-unprocessed.smi:2790|AV-procd|sdf|10769|dock5
  -GOLD-   2272015203D 1   1.00000     0.00000
 Structure written by MMmdl.
 45 46  0  0  0  0  0  0  0  0  3 V2000
  143.0932  136.5446  152.5095 C   0  0  0  0  0  0  0  0  0  0  0  0
  144.3286  137.0067  151.8425 N   0  3  0  0  0  0  0  0  0  0  0  0
  145.0658  135.8899  151.2066 C   0  0  0  0  0  0  0  0  0  0  0  0
  145.1760  137.8402  152.7332 C   0  0  0  0  0  0  0  0  0  0  0  0
  146.2739  138.5389  151.9242 C   0  0  0  0  0  0  0  0  0  0  0  0
  146.3951  138.2525  150.7294 O   0  0  0  0  0  0  0  0  0  0  0  0
  146.9594  139.4225  152.7005 N   0  5  0  0  0  0  0  0  0  0  0  0
  147.1631  139.2583  154.1420 C   0  0  0  0  0  0  0  0  0  0  0  0
  148.1877  140.3190  154.7094 C   0  0  0  0  0  0  0  0  0  0  0  0
  149.6077  139.6815  154.7663 C   0  0  0  0  0  0  0  0  0  0  0  0
  149.8967  138.4568  154.1076 C   0  0  0  0  0  0  0  0  0  0  0  0
  151.1975  137.9212  154.1728 C   0  0  0  0  0  0  0  0  0  0  0  0
  152.2103  138.5098  154.8400 N   0  0  0  0  0  0  0  0  0  0  0  0
  151.9473  139.6699  155.4729 C   0  0  0  0  0  0  0  0  0  0  0  0
  150.6842  140.2926  155.4630 C   0  0  0  0  0  0  0  0  0  0  0  0
  148.2089  141.6344  153.8449 C   0  0  0  0  0  0  0  0  0  0  0  0
  146.9787  142.5588  153.9754 C   0  0  0  0  0  0  0  0  0  0  0  0
  146.7271  142.9449  155.4349 C   0  0  0  0  0  0  0  0  0  0  0  0
  146.5737  141.6912  156.2994 C   0  0  0  0  0  0  0  0  0  0  0  0
  147.7972  140.7562  156.1673 C   0  0  0  0  0  0  0  0  0  0  0  0
  143.3244  135.8969  153.3562 H   0  0  0  0  0  0  0  0  0  0  0  0
  142.4644  135.9892  151.8130 H   0  0  0  0  0  0  0  0  0  0  0  0
  142.5121  137.3931  152.8726 H   0  0  0  0  0  0  0  0  0  0  0  0
  145.4482  135.1960  151.9559 H   0  0  0  0  0  0  0  0  0  0  0  0
  145.9068  136.2567  150.6173 H   0  0  0  0  0  0  0  0  0  0  0  0
  144.4135  135.3359  150.5313 H   0  0  0  0  0  0  0  0  0  0  0  0
  144.5735  138.6077  153.2227 H   0  0  0  0  0  0  0  0  0  0  0  0
  145.6085  137.2304  153.5281 H   0  0  0  0  0  0  0  0  0  0  0  0
  146.2174  139.3491  154.6757 H   0  0  0  0  0  0  0  0  0  0  0  0
  147.5293  138.2615  154.3929 H   0  0  0  0  0  0  0  0  0  0  0  0
  149.1450  137.9320  153.5384 H   0  0  0  0  0  0  0  0  0  0  0  0
  151.4312  136.9948  153.6694 H   0  0  0  0  0  0  0  0  0  0  0  0
  152.7748  140.1267  155.9951 H   0  0  0  0  0  0  0  0  0  0  0  0
  150.5725  141.2313  155.9819 H   0  0  0  0  0  0  0  0  0  0  0  0
  149.0663  142.2328  154.1569 H   0  0  0  0  0  0  0  0  0  0  0  0
  148.3745  141.4275  152.7859 H   0  0  0  0  0  0  0  0  0  0  0  0
  147.1371  143.4606  153.3833 H   0  0  0  0  0  0  0  0  0  0  0  0
  146.0917  142.0807  153.5589 H   0  0  0  0  0  0  0  0  0  0  0  0
  147.5574  143.5479  155.8049 H   0  0  0  0  0  0  0  0  0  0  0  0
  145.8333  143.5646  155.5106 H   0  0  0  0  0  0  0  0  0  0  0  0
  146.4499  141.9826  157.3428 H   0  0  0  0  0  0  0  0  0  0  0  0
  145.6587  141.1646  156.0265 H   0  0  0  0  0  0  0  0  0  0  0  0
  147.6429  139.9005  156.8268 H   0  0  0  0  0  0  0  0  0  0  0  0
  148.6453  141.2925  156.5963 H   0  0  0  0  0  0  0  0  0  0  0  0
  144.0359  137.6255  151.0987 H   0  0  0  0  0  0  0  0  0  0  0  0
  1  2  1  0  0  0  0
  1 21  1  0  0  0  0
  1 22  1  0  0  0  0
  1 23  1  0  0  0  0
  2  3  1  0  0  0  0
  2  4  1  0  0  0  0
  2 45  1  0  0  0  0
  3 24  1  0  0  0  0
  3 25  1  0  0  0  0
  3 26  1  0  0  0  0
  4  5  1  0  0  0  0
  4 27  1  0  0  0  0
  4 28  1  0  0  0  0
  5  6  2  0  0  0  0
  5  7  1  0  0  0  0
  7  8  1  0  0  0  0
  8  9  1  0  0  0  0
  8 29  1  0  0  0  0
  8 30  1  0  0  0  0
  9 20  1  0  0  0  0
  9 10  1  0  0  0  0
  9 16  1  0  0  0  0
 10 15  1  0  0  0  0
 10 11  2  0  0  0  0
 11 12  1  0  0  0  0
 11 31  1  0  0  0  0
 12 13  2  0  0  0  0
 12 32  1  0  0  0  0
 13 14  1  0  0  0  0
 14 15  2  0  0  0  0
 14 33  1  0  0  0  0
 15 34  1  0  0  0  0
 16 17  1  0  0  0  0
 16 35  1  0  0  0  0
 16 36  1  0  0  0  0
 17 18  1  0  0  0  0
 17 37  1  0  0  0  0
 17 38  1  0  0  0  0
 18 19  1  0  0  0  0
 18 39  1  0  0  0  0
 18 40  1  0  0  0  0
 19 20  1  0  0  0  0
 19 41  1  0  0  0  0
 19 42  1  0  0  0  0
 20 43  1  0  0  0  0
 20 44  1  0  0  0  0
M  CHG  1   2   1
M  CHG  1   7  -1
M  END
> <s_m_source_file>
AV-unprocessed.smi

> <i_m_source_file_index>
2790

> <i_lp_mmshare_version>
43012

> <i_f3d_flags>
0

> <s_epik_input>
W0NIM11OKFtDSDNdKVtDSDJdQyg9TylbTkhdW0NIMl1DMShbQ0gyXVtDSDJdW0NIMl1bQ0gyXVtDSDJdMSljMltjSF1bY0hdbltjSF1bY0hdMg==

> <s_epik_cmdline>
J2VwaWtfcHl0aG9uJywgJy1waCcsICc3LjAnLCAnLXRuJywgJzgnLCAnLW1hJywgJzIwMCcsICctbWV0YWxfYmluZGluZycsICctaW1hZScsICc8aW5maWxlLm1hZT4nLCAnLW9tYWUnLCAnPG91dGZpbGUubWFlPic=

> <r_epik_Ionization_Penalty>
6.38592

> <r_epik_Ionization_Penalty_Charging>
6.21784

> <r_epik_Ionization_Penalty_Neutral>
0.168075

> <r_epik_State_Penalty>
6.29446

> <r_epik_Charging_Adjusted_Penalty>
12.5123

> <i_epik_Tot_Q>
0

> <i_epik_Tot_abs_Q>
2

> <r_epik_Metal_State_Penalty>
2.27801

> <b_epik_Metal_Only>
1

> <s_lp_Force_Field>
OPLS_2005

> <r_lp_Energy>
25.1562

> <b_lp_Chiralities_Consistent>
1

> <s_lp_Variant>
AV-unprocessed.smi:2790-4

> <Gold.Version>
5.8.1

> <Gold.Id.Protein>
6NUR|6NUR_protein|mol2

> <Gold.PLP.Fitness>
43.5950

> <Gold.PLP.PLP>
-37.2809

> <Gold.PLP.part.hbond>
-2.0000

> <Gold.PLP.part.metal>
0.0000

> <Gold.PLP.part.buried>
-5.2570

> <Gold.PLP.part.nonpolar>
-32.7347

> <Gold.PLP.part.repulsive>
2.6423

> <Gold.PLP.ligand.clash>
0.0000

> <Gold.PLP.ligand.torsion>
1.3740

> <Gold.PLP.Chemscore.Hbond>
2.0000

> <Gold.PLP.Chemscore.CHOScore>
0.9968

> <Gold.PLP.Chemscore.Metal>
0.0000

> <Gold.Chemscore.Hbonds>
donor molecule, donor type, donor heavy atom, donor atom, acceptor molecule, acceptor atom, score
      L1  H     2    45       P1 10171  1.00
      P1  H  7954  7966       L1     6  0.96
      L1  C    12    32       P1  7949  1.00

> <Gold.PLP.Chemscore.Internal.Correction>
0.0716

> <Gold.Rescore>
     Score         DG    S(hbond)    S(metal)    S(lipo)     H(rot)  DE(clash)    DE(int)     intcor
     13.49     -17.83       1.94        0.00      84.99       1.59       1.34       3.01       ----

> <Gold.Chemscore.Fitness>
13.4861

> <Gold.Chemscore.DG>
-17.8321

> <Gold.Chemscore.ZeroCoef>
-5.4800

> <Gold.Chemscore.Hbond>
1.9428

> <Gold.Chemscore.Metal>
0.0000

> <Gold.Chemscore.Lipo>
84.9872

> <Gold.Chemscore.Internal_Hbond>
0.0000

> <Gold.Chemscore.DEClash>
1.3390

> <Gold.Chemscore.DEInternal>
3.0070

> <Gold.Chemscore.Rot>
1.5938

> <Gold.Chemscore.Internal.Correction>
   9.000000E+99

> <Gold.Chemscore.Hbonds>
donor molecule, donor type, donor heavy atom, donor atom, acceptor molecule, acceptor atom, score
      L1  H     2    45       P1 10171  0.99
      P1  H  7954  7966       L1     6  0.89

> <Gold.Chemscore.Hbond.Weighted>
-6.4889

> <Gold.Chemscore.Metal.Weighted>
-0.0000

> <Gold.Chemscore.Lipo.Weighted>
-9.9435

> <Gold.Chemscore.Internal_Hbond.Weighted>
0.0000

> <Gold.Chemscore.DEClash.Weighted>
1.3390

> <Gold.Chemscore.DEInternal.Weighted>
3.0070

> <Gold.Chemscore.Rot.Weighted>
4.0802

> <Gold.Chemscore.Internal.Correction.Weighted>
   9.000000E+99

> <Gold.Protein.RotatedTorsions>
[ 6907 6896 6895 6894 ] final  -75.77 input  -60.11 | X-H torsion
[ 7974 7965 7964 7962 ] final -106.35 input  175.53 | X-H torsion
[ 8008 7997 7996 7995 ] final -158.98 input   59.86 | X-H torsion
[ 10167 10162 10161 10158 ] final  165.64 input  -65.29 | X-H torsion
[ 10718 10713 10712 10709 ] final  119.70 input   66.30 | X-H torsion
[ 10763 10752 10751 10750 ] final  -39.40 input  -60.55 | X-H torsion
[ 11005 11000 10999 10996 ] final  173.95 input  -57.11 | X-H torsion

> <Gold.Protein.ActiveResidues>
 VAL166  LYS551  ARG553  GLY616  TRP617  ASP618  TYR619  PRO620  LYS621  CYS622 
 ASP623  PHE694  ASN695  SER759  ASP760  ASP761  ALA762  ILE779  LEU786  VAL792 
 PHE793  MET794  SER795  GLU796  ALA797  LYS798  CYS799  TRP800  GLU811  SER814 

> <Gold.Protein.RotatedAtoms>
  150.7048  134.4671  159.5407 H   0  0  0  0  0  0  0  0  0  0  0  0  # atno 6907 bound_to 6896
  152.2335  134.8296  160.0479 H   0  0  0  0  0  0  0  0  0  0  0  0  # atno 6908 bound_to 6896
  151.9103  133.3524  159.3898 H   0  0  0  0  0  0  0  0  0  0  0  0  # atno 6909 bound_to 6896
  145.2190  140.9127  143.3270 H   0  0  0  0  0  0  0  0  0  0  0  0  # atno 7974 bound_to 7965
  155.7557  140.0832  157.2179 H   0  0  0  0  0  0  0  0  0  0  0  0  # atno 8008 bound_to 7997
  154.4008  140.1552  156.2831 H   0  0  0  0  0  0  0  0  0  0  0  0  # atno 8009 bound_to 7997
  155.8887  140.3416  155.5943 H   0  0  0  0  0  0  0  0  0  0  0  0  # atno 8010 bound_to 7997
  139.4909  144.4111  151.9299 H   0  0  0  0  0  0  0  0  0  0  0  0  # atno 10167 bound_to 10162
  157.5943  131.1060  150.7933 H   0  0  0  0  0  0  0  0  0  0  0  0  # atno 10718 bound_to 10713
  153.9288  135.6774  153.4746 H   0  0  0  0  0  0  0  0  0  0  0  0  # atno 10763 bound_to 10752
  153.0990  135.4837  154.8829 H   0  0  0  0  0  0  0  0  0  0  0  0  # atno 10764 bound_to 10752
  154.7439  135.3167  154.8637 H   0  0  0  0  0  0  0  0  0  0  0  0  # atno 10765 bound_to 10752
  140.3460  134.7235  157.4235 H   0  0  0  0  0  0  0  0  0  0  0  0  # atno 11005 bound_to 11000
  144.9783  139.3809  143.6274 LP  0  0  0  0  0  0  0  0  0  0  0  0  # atno 17320 bound_to 7965
  146.3380  139.8913  142.8808 LP  0  0  0  0  0  0  0  0  0  0  0  0  # atno 17321 bound_to 7965
  140.3552  144.3040  150.5942 LP  0  0  0  0  0  0  0  0  0  0  0  0  # atno 17342 bound_to 10162
  140.5451  143.2216  151.8021 LP  0  0  0  0  0  0  0  0  0  0  0  0  # atno 17343 bound_to 10162
  156.8348  130.5028  149.5327 LP  0  0  0  0  0  0  0  0  0  0  0  0  # atno 17370 bound_to 10713
  156.1003  130.5963  150.9882 LP  0  0  0  0  0  0  0  0  0  0  0  0  # atno 17371 bound_to 10713
  140.0742  134.5821  155.8609 LP  0  0  0  0  0  0  0  0  0  0  0  0  # atno 17394 bound_to 11000
  141.2025  133.6625  156.6011 LP  0  0  0  0  0  0  0  0  0  0  0  0  # atno 17395 bound_to 11000

$$$$
