AV-unprocessed.smi:1297|AV-procd|sdf|5416|dock10
  -GOLD-   22720 4573D 1   1.00000     0.00000
 Structure written by MMmdl.
 26 27  0  0  0  0  0  0  0  0  1 V2000
  149.9433  137.6248  158.7838 C   0  0  0  0  0  0  0  0  0  0  0  0
  150.4981  138.4197  157.2485 S   0  0  0  0  0  0  0  0  0  0  0  0
  151.0547  139.9752  157.8844 C   0  0  0  0  0  0  0  0  0  0  0  0
  151.9552  140.1128  158.8630 N   0  0  0  0  0  0  0  0  0  0  0  0
  152.0894  141.4676  159.0607 N   0  0  0  0  0  0  0  0  0  0  0  0
  151.2741  142.0368  158.1710 C   0  0  0  0  0  0  0  0  0  0  0  0
  151.0793  143.5164  158.0597 C   0  0  0  0  0  0  0  0  0  0  0  0
  152.2294  144.4266  157.6897 C   0  0  0  0  0  0  0  0  0  0  0  0
  151.6609  144.4684  159.0832 C   0  0  0  0  0  0  0  0  0  0  0  0
  150.5887  141.1533  157.4150 N   0  0  0  0  0  0  0  0  0  0  0  0
  149.5981  141.4089  156.3747 C   0  0  0  0  0  0  0  0  0  0  0  0
  150.0021  140.7918  155.0330 C   0  0  0  0  0  0  0  0  0  0  0  0
  149.1628  140.9454  154.0058 N   0  0  0  0  0  0  0  0  0  0  0  0
  151.0687  140.1921  154.9216 O   0  0  0  0  0  0  0  0  0  0  0  0
  149.5640  136.6259  158.5686 H   0  0  0  0  0  0  0  0  0  0  0  0
  149.1423  138.2005  159.2483 H   0  0  0  0  0  0  0  0  0  0  0  0
  150.7680  137.5316  159.4911 H   0  0  0  0  0  0  0  0  0  0  0  0
  150.0948  143.7460  157.6567 H   0  0  0  0  0  0  0  0  0  0  0  0
  153.2136  143.9785  157.5684 H   0  0  0  0  0  0  0  0  0  0  0  0
  152.0128  145.2636  157.0294 H   0  0  0  0  0  0  0  0  0  0  0  0
  151.0644  145.3363  159.3563 H   0  0  0  0  0  0  0  0  0  0  0  0
  152.2705  144.0514  159.8827 H   0  0  0  0  0  0  0  0  0  0  0  0
  148.6298  141.0168  156.6866 H   0  0  0  0  0  0  0  0  0  0  0  0
  149.4698  142.4860  156.2623 H   0  0  0  0  0  0  0  0  0  0  0  0
  149.3924  140.5543  153.1033 H   0  0  0  0  0  0  0  0  0  0  0  0
  148.3000  141.4538  154.1351 H   0  0  0  0  0  0  0  0  0  0  0  0
  1  2  1  0  0  0  0
  1 15  1  0  0  0  0
  1 16  1  0  0  0  0
  1 17  1  0  0  0  0
  2  3  1  0  0  0  0
  3 10  1  0  0  0  0
  3  4  2  0  0  0  0
  4  5  1  0  0  0  0
  5  6  2  0  0  0  0
  6  7  1  0  0  0  0
  6 10  1  0  0  0  0
  7  9  1  0  0  0  0
  7  8  1  0  0  0  0
  7 18  1  0  0  0  0
  8  9  1  0  0  0  0
  8 19  1  0  0  0  0
  8 20  1  0  0  0  0
  9 21  1  0  0  0  0
  9 22  1  0  0  0  0
 10 11  1  0  0  0  0
 11 12  1  0  0  0  0
 11 23  1  0  0  0  0
 11 24  1  0  0  0  0
 12 13  1  0  0  0  0
 12 14  2  0  0  0  0
 13 25  1  0  0  0  0
 13 26  1  0  0  0  0
M  END
> <s_m_source_file>
AV-unprocessed.smi

> <i_m_source_file_index>
1297

> <i_lp_mmshare_version>
43012

> <i_f3d_flags>
0

> <s_epik_input>
W0NIM11TYzFubmMoW0NIXTJbQ0gyXVtDSDJdMiluMVtDSDJdQyg9TylbTkgyXQ==

> <s_epik_cmdline>
J2VwaWtfcHl0aG9uJywgJy1waCcsICc3LjAnLCAnLXRuJywgJzgnLCAnLW1hJywgJzIwMCcsICctbWV0YWxfYmluZGluZycsICctaW1hZScsICc8aW5maWxlLm1hZT4nLCAnLW9tYWUnLCAnPG91dGZpbGUubWFlPic=

> <r_lp_tautomer_probability>
1

> <r_epik_Ionization_Penalty>
2.14715e-06

> <r_epik_Ionization_Penalty_Charging>
0

> <r_epik_Ionization_Penalty_Neutral>
2.14715e-06

> <r_epik_State_Penalty>
-0

> <r_epik_Charging_Adjusted_Penalty>
0

> <i_epik_Tot_Q>
0

> <i_epik_Tot_abs_Q>
0

> <r_epik_Metal_State_Penalty>
-0

> <b_epik_Metal_Only>
0

> <s_lp_Force_Field>
OPLS_2005

> <r_lp_Energy>
5.16146

> <b_lp_Chiralities_Consistent>
1

> <s_lp_Variant>
AV-unprocessed.smi:1297-1

> <Gold.Version>
5.8.1

> <Gold.Id.Protein>
6NUR|6NUR_protein|mol2

> <Gold.PLP.Fitness>
32.1955

> <Gold.PLP.PLP>
-26.3181

> <Gold.PLP.part.hbond>
-2.0000

> <Gold.PLP.part.metal>
0.0000

> <Gold.PLP.part.buried>
-4.6452

> <Gold.PLP.part.nonpolar>
-20.0552

> <Gold.PLP.part.repulsive>
0.2557

> <Gold.PLP.ligand.clash>
0.0000

> <Gold.PLP.ligand.torsion>
0.1286

> <Gold.PLP.Chemscore.Hbond>
2.0000

> <Gold.PLP.Chemscore.CHOScore>
0.0000

> <Gold.PLP.Chemscore.Metal>
0.0000

> <Gold.Chemscore.Hbonds>
donor molecule, donor type, donor heavy atom, donor atom, acceptor molecule, acceptor atom, score
      L1  H    13    25       P1  7957  1.00
      P1  H  7989  7998       L1    14  1.00

> <Gold.PLP.Chemscore.Internal.Correction>
0.1346

> <Gold.Rescore>
     Score         DG    S(hbond)    S(metal)    S(lipo)     H(rot)  DE(clash)    DE(int)     intcor
     10.54     -11.61       1.92        0.00      45.50       2.19       0.01       1.05       ----

> <Gold.Chemscore.Fitness>
10.5444

> <Gold.Chemscore.DG>
-11.6101

> <Gold.Chemscore.ZeroCoef>
-5.4800

> <Gold.Chemscore.Hbond>
1.9199

> <Gold.Chemscore.Metal>
0.0000

> <Gold.Chemscore.Lipo>
45.4990

> <Gold.Chemscore.Internal_Hbond>
0.0000

> <Gold.Chemscore.DEClash>
0.0120

> <Gold.Chemscore.DEInternal>
1.0537

> <Gold.Chemscore.Rot>
2.1897

> <Gold.Chemscore.Internal.Correction>
   9.000000E+99

> <Gold.Chemscore.Hbonds>
donor molecule, donor type, donor heavy atom, donor atom, acceptor molecule, acceptor atom, score
      L1  H    13    25       P1  7957  0.94
      P1  H  7989  7998       L1    14  0.25

> <Gold.Chemscore.Hbond.Weighted>
-6.4124

> <Gold.Chemscore.Metal.Weighted>
-0.0000

> <Gold.Chemscore.Lipo.Weighted>
-5.3234

> <Gold.Chemscore.Internal_Hbond.Weighted>
0.0000

> <Gold.Chemscore.DEClash.Weighted>
0.0120

> <Gold.Chemscore.DEInternal.Weighted>
1.0537

> <Gold.Chemscore.Rot.Weighted>
5.6057

> <Gold.Chemscore.Internal.Correction.Weighted>
   9.000000E+99

> <Gold.Protein.RotatedTorsions>
[ 6907 6896 6895 6894 ] final -118.03 input  -60.11 | X-H torsion
[ 7974 7965 7964 7962 ] final  -49.44 input  175.53 | X-H torsion
[ 8008 7997 7996 7995 ] final  -41.58 input   59.86 | X-H torsion
[ 10167 10162 10161 10158 ] final  -78.24 input  -65.29 | X-H torsion
[ 10718 10713 10712 10709 ] final  -91.52 input   66.30 | X-H torsion
[ 10763 10752 10751 10750 ] final  170.78 input  -60.55 | X-H torsion
[ 11005 11000 10999 10996 ] final  121.65 input  -57.11 | X-H torsion

> <Gold.Protein.ActiveResidues>
 VAL166  LYS551  ARG553  GLY616  TRP617  ASP618  TYR619  PRO620  LYS621  CYS622 
 ASP623  PHE694  ASN695  SER759  ASP760  ASP761  ALA762  ILE779  LEU786  VAL792 
 PHE793  MET794  SER795  GLU796  ALA797  LYS798  CYS799  TRP800  GLU811  SER814 

> <Gold.Protein.RotatedAtoms>
  150.8186  133.8293  159.3149 H   0  0  0  0  0  0  0  0  0  0  0  0  # atno 6907 bound_to 6896
  151.6058  135.1042  160.0080 H   0  0  0  0  0  0  0  0  0  0  0  0  # atno 6908 bound_to 6896
  152.4276  133.7181  159.6574 H   0  0  0  0  0  0  0  0  0  0  0  0  # atno 6909 bound_to 6896
  145.9405  140.7666  142.9554 H   0  0  0  0  0  0  0  0  0  0  0  0  # atno 7974 bound_to 7965
  154.4003  140.1495  156.3214 H   0  0  0  0  0  0  0  0  0  0  0  0  # atno 8008 bound_to 7997
  155.8526  140.3457  155.5682 H   0  0  0  0  0  0  0  0  0  0  0  0  # atno 8009 bound_to 7997
  155.7968  140.0864  157.1970 H   0  0  0  0  0  0  0  0  0  0  0  0  # atno 8010 bound_to 7997
  140.4699  143.2429  151.8220 H   0  0  0  0  0  0  0  0  0  0  0  0  # atno 10167 bound_to 10162
  155.9994  130.4951  150.5487 H   0  0  0  0  0  0  0  0  0  0  0  0  # atno 10718 bound_to 10713
  154.4025  135.2755  155.2087 H   0  0  0  0  0  0  0  0  0  0  0  0  # atno 10763 bound_to 10752
  154.4107  135.6023  153.5955 H   0  0  0  0  0  0  0  0  0  0  0  0  # atno 10764 bound_to 10752
  152.9831  135.5949  154.4295 H   0  0  0  0  0  0  0  0  0  0  0  0  # atno 10765 bound_to 10752
  139.9235  134.9639  156.7990 H   0  0  0  0  0  0  0  0  0  0  0  0  # atno 11005 bound_to 11000
  144.6778  140.2273  143.7359 LP  0  0  0  0  0  0  0  0  0  0  0  0  # atno 17320 bound_to 7965
  145.8305  139.2084  143.1885 LP  0  0  0  0  0  0  0  0  0  0  0  0  # atno 17321 bound_to 7965
  139.4817  144.4904  151.9192 LP  0  0  0  0  0  0  0  0  0  0  0  0  # atno 17342 bound_to 10162
  140.3989  144.2518  150.5894 LP  0  0  0  0  0  0  0  0  0  0  0  0  # atno 17343 bound_to 10162
  157.3413  131.0717  151.1786 LP  0  0  0  0  0  0  0  0  0  0  0  0  # atno 17370 bound_to 10713
  157.2633  130.6669  149.5985 LP  0  0  0  0  0  0  0  0  0  0  0  0  # atno 17371 bound_to 10713
  140.6405  133.9822  155.7705 LP  0  0  0  0  0  0  0  0  0  0  0  0  # atno 17394 bound_to 11000
  141.0774  134.0114  157.3437 LP  0  0  0  0  0  0  0  0  0  0  0  0  # atno 17395 bound_to 11000

$$$$
