AV-unprocessed.smi:1224|AV-procd|sdf|5129|dock1
  -GOLD-   22720 4183D 1   1.00000     0.00000
 Structure written by MMmdl.
 44 46  0  0  0  0  0  0  0  0  2 V2000
  152.1883  141.5501  156.5905 C   0  0  0  0  0  0  0  0  0  0  0  0
  151.0949  141.1481  155.6165 C   0  0  0  0  0  0  0  0  0  0  0  0
  149.7598  141.5217  155.8898 C   0  0  0  0  0  0  0  0  0  0  0  0
  148.7146  141.1709  155.0075 C   0  0  0  0  0  0  0  0  0  0  0  0
  147.3561  141.4292  155.0743 N   0  0  0  0  0  0  0  0  0  0  0  0
  146.9172  140.8475  153.9619 C   0  0  0  0  0  0  0  0  0  0  0  0
  147.8321  140.2400  153.1818 N   0  0  0  0  0  0  0  0  0  0  0  0
  147.5980  139.5427  151.9303 C   0  0  0  0  0  0  0  0  0  0  0  0
  146.1977  138.9034  151.8682 C   0  0  1  0  0  0  0  0  0  0  0  0
  145.9140  138.5268  150.5339 O   0  0  0  0  0  0  0  0  0  0  0  0
  146.0894  137.6641  152.7706 C   0  0  0  0  0  0  0  0  0  0  0  0
  146.2073  136.4175  151.9840 N   0  3  0  0  0  0  0  0  0  0  0  0
  145.6059  135.2225  152.6118 C   0  0  0  0  0  0  0  0  0  0  0  0
  145.5228  134.0603  151.6760 C   0  0  0  0  0  0  0  0  0  0  0  0
  144.3937  133.4213  151.2295 C   0  0  0  0  0  0  0  0  0  0  0  0
  144.6746  132.3396  150.3447 C   0  0  0  0  0  0  0  0  0  0  0  0
  146.0154  132.1669  150.1271 C   0  0  0  0  0  0  0  0  0  0  0  0
  146.9628  133.3333  151.0090 S   0  0  0  0  0  0  0  0  0  0  0  0
  149.0445  140.4297  153.8355 C   0  0  0  0  0  0  0  0  0  0  0  0
  150.3687  140.0508  153.5531 C   0  0  0  0  0  0  0  0  0  0  0  0
  151.4008  140.4101  154.4448 C   0  0  0  0  0  0  0  0  0  0  0  0
  152.8284  139.9986  154.1303 C   0  0  0  0  0  0  0  0  0  0  0  0
  151.7808  142.0838  157.4495 H   0  0  0  0  0  0  0  0  0  0  0  0
  152.9113  142.2039  156.1021 H   0  0  0  0  0  0  0  0  0  0  0  0
  152.7125  140.6698  156.9630 H   0  0  0  0  0  0  0  0  0  0  0  0
  149.5267  142.0842  156.7819 H   0  0  0  0  0  0  0  0  0  0  0  0
  145.8693  140.8615  153.7003 H   0  0  0  0  0  0  0  0  0  0  0  0
  147.7387  140.2434  151.1057 H   0  0  0  0  0  0  0  0  0  0  0  0
  148.3675  138.7773  151.8227 H   0  0  0  0  0  0  0  0  0  0  0  0
  145.4564  139.6406  152.1803 H   0  0  0  0  0  0  0  0  0  0  0  0
  144.9779  138.5504  150.4035 H   0  0  0  0  0  0  0  0  0  0  0  0
  146.8524  137.6958  153.5495 H   0  0  0  0  0  0  0  0  0  0  0  0
  145.1207  137.6611  153.2726 H   0  0  0  0  0  0  0  0  0  0  0  0
  145.7519  136.5666  151.0949 H   0  0  0  0  0  0  0  0  0  0  0  0
  146.1757  134.9542  153.5023 H   0  0  0  0  0  0  0  0  0  0  0  0
  144.6046  135.4856  152.9537 H   0  0  0  0  0  0  0  0  0  0  0  0
  143.3842  133.6890  151.5050 H   0  0  0  0  0  0  0  0  0  0  0  0
  143.8950  131.7350  149.9050 H   0  0  0  0  0  0  0  0  0  0  0  0
  146.5020  131.4302  149.5049 H   0  0  0  0  0  0  0  0  0  0  0  0
  150.5879  139.4895  152.6570 H   0  0  0  0  0  0  0  0  0  0  0  0
  152.8873  139.4574  153.1857 H   0  0  0  0  0  0  0  0  0  0  0  0
  153.2196  139.3489  154.9134 H   0  0  0  0  0  0  0  0  0  0  0  0
  153.4714  140.8756  154.0539 H   0  0  0  0  0  0  0  0  0  0  0  0
  147.1865  136.2364  151.8138 H   0  0  0  0  0  0  0  0  0  0  0  0
  1  2  1  0  0  0  0
  1 23  1  0  0  0  0
  1 24  1  0  0  0  0
  1 25  1  0  0  0  0
  2 21  1  0  0  0  0
  2  3  2  0  0  0  0
  3  4  1  0  0  0  0
  3 26  1  0  0  0  0
  4 19  2  0  0  0  0
  4  5  1  0  0  0  0
  5  6  2  0  0  0  0
  6  7  1  0  0  0  0
  6 27  1  0  0  0  0
  7  8  1  0  0  0  0
  7 19  1  0  0  0  0
  8  9  1  0  0  0  0
  8 28  1  0  0  0  0
  8 29  1  0  0  0  0
  9 10  1  0  0  0  0
  9 11  1  0  0  0  0
  9 30  1  0  0  0  0
 10 31  1  0  0  0  0
 11 12  1  0  0  0  0
 11 32  1  0  0  0  0
 11 33  1  0  0  0  0
 12 13  1  0  0  0  0
 12 34  1  0  0  0  0
 12 44  1  0  0  0  0
 13 14  1  0  0  0  0
 13 35  1  0  0  0  0
 13 36  1  0  0  0  0
 14 18  1  0  0  0  0
 14 15  2  0  0  0  0
 15 16  1  0  0  0  0
 15 37  1  0  0  0  0
 16 17  2  0  0  0  0
 16 38  1  0  0  0  0
 17 18  1  0  0  0  0
 17 39  1  0  0  0  0
 19 20  1  0  0  0  0
 20 21  2  0  0  0  0
 20 40  1  0  0  0  0
 21 22  1  0  0  0  0
 22 41  1  0  0  0  0
 22 42  1  0  0  0  0
 22 43  1  0  0  0  0
M  CHG  1  12   1
M  END
> <s_m_source_file>
AV-unprocessed.smi

> <i_m_source_file_index>
1224

> <i_lp_mmshare_version>
43012

> <i_f3d_flags>
0

> <s_epik_input>
W0NIM11jKFtjSF0xKWMoW0NIM10pW2NIXWMoYzEyKW4oW2NIXW4yKVtDSDJdW0NASF0oW09IXSlbQ0gyXVtOSF1bQ0gyXWMzW2NIXVtjSF1bY0hdczM=

> <s_epik_cmdline>
J2VwaWtfcHl0aG9uJywgJy1waCcsICc3LjAnLCAnLXRuJywgJzgnLCAnLW1hJywgJzIwMCcsICctbWV0YWxfYmluZGluZycsICctaW1hZScsICc8aW5maWxlLm1hZT4nLCAnLW9tYWUnLCAnPG91dGZpbGUubWFlPic=

> <r_epik_Ionization_Penalty>
0.145091

> <r_epik_Ionization_Penalty_Charging>
0.0551904

> <r_epik_Ionization_Penalty_Neutral>
0.0899003

> <r_epik_State_Penalty>
0.131364

> <r_epik_Charging_Adjusted_Penalty>
0.186554

> <i_epik_Tot_Q>
1

> <i_epik_Tot_abs_Q>
1

> <r_epik_Metal_State_Penalty>
0.0472291

> <b_epik_Metal_Only>
0

> <s_lp_Force_Field>
OPLS_2005

> <r_lp_Energy>
7.75101

> <b_lp_Chiralities_Consistent>
1

> <s_lp_Variant>
AV-unprocessed.smi:1224-2

> <Gold.Version>
5.8.1

> <Gold.Id.Protein>
6NUR|6NUR_protein|mol2

> <Gold.PLP.Fitness>
53.9618

> <Gold.PLP.PLP>
-39.0466

> <Gold.PLP.part.hbond>
-3.0000

> <Gold.PLP.part.metal>
0.0000

> <Gold.PLP.part.buried>
4.3382

> <Gold.PLP.part.nonpolar>
-40.8676

> <Gold.PLP.part.repulsive>
0.1370

> <Gold.PLP.ligand.clash>
0.0000

> <Gold.PLP.ligand.torsion>
1.1908

> <Gold.PLP.Chemscore.Hbond>
3.8160

> <Gold.PLP.Chemscore.CHOScore>
1.8935

> <Gold.PLP.Chemscore.Metal>
0.0000

> <Gold.Chemscore.Hbonds>
donor molecule, donor type, donor heavy atom, donor atom, acceptor molecule, acceptor atom, score
      L1  H    10    31       P1 10171  0.28
      L1  H    12    44       P1  7948  2.00
      P1  H  7954  7966       L1    10  0.02
      L1  C     6    27       P1 10175  1.00
      L1  C    17    39       P1 10747  0.52

> <Gold.PLP.Chemscore.Internal.Correction>
0.1683

> <Gold.Rescore>
     Score         DG    S(hbond)    S(metal)    S(lipo)     H(rot)  DE(clash)    DE(int)     intcor
     17.95     -20.84       2.68        0.00     107.67       2.42       1.76       1.13       ----

> <Gold.Chemscore.Fitness>
17.9485

> <Gold.Chemscore.DG>
-20.8393

> <Gold.Chemscore.ZeroCoef>
-5.4800

> <Gold.Chemscore.Hbond>
2.6848

> <Gold.Chemscore.Metal>
0.0000

> <Gold.Chemscore.Lipo>
107.6729

> <Gold.Chemscore.Internal_Hbond>
0.0000

> <Gold.Chemscore.DEClash>
1.7589

> <Gold.Chemscore.DEInternal>
1.1319

> <Gold.Chemscore.Rot>
2.4240

> <Gold.Chemscore.Internal.Correction>
   9.000000E+99

> <Gold.Chemscore.Hbonds>
donor molecule, donor type, donor heavy atom, donor atom, acceptor molecule, acceptor atom, score
      L1  H    10    31       P1 10171  0.29
      L1  H    12    44       P1  7948  1.00
      P1  H  7954  7966       L1    10  0.01

> <Gold.Chemscore.Hbond.Weighted>
-8.9671

> <Gold.Chemscore.Metal.Weighted>
-0.0000

> <Gold.Chemscore.Lipo.Weighted>
-12.5977

> <Gold.Chemscore.Internal_Hbond.Weighted>
0.0000

> <Gold.Chemscore.DEClash.Weighted>
1.7589

> <Gold.Chemscore.DEInternal.Weighted>
1.1319

> <Gold.Chemscore.Rot.Weighted>
6.2055

> <Gold.Chemscore.Internal.Correction.Weighted>
   9.000000E+99

> <Gold.Protein.RotatedTorsions>
[ 6907 6896 6895 6894 ] final  146.15 input  -60.11 | X-H torsion
[ 7974 7965 7964 7962 ] final  -71.02 input  175.53 | X-H torsion
[ 8008 7997 7996 7995 ] final  -23.13 input   59.86 | X-H torsion
[ 10167 10162 10161 10158 ] final   73.35 input  -65.29 | X-H torsion
[ 10718 10713 10712 10709 ] final -133.75 input   66.30 | X-H torsion
[ 10763 10752 10751 10750 ] final -119.38 input  -60.55 | X-H torsion
[ 11005 11000 10999 10996 ] final  128.24 input  -57.11 | X-H torsion

> <Gold.Protein.ActiveResidues>
 VAL166  LYS551  ARG553  GLY616  TRP617  ASP618  TYR619  PRO620  LYS621  CYS622 
 ASP623  PHE694  ASN695  SER759  ASP760  ASP761  ALA762  ILE779  LEU786  VAL792 
 PHE793  MET794  SER795  GLU796  ALA797  LYS798  CYS799  TRP800  GLU811  SER814 

> <Gold.Protein.RotatedAtoms>
  152.1716  133.4647  159.4911 H   0  0  0  0  0  0  0  0  0  0  0  0  # atno 6907 bound_to 6896
  150.6920  134.1946  159.4307 H   0  0  0  0  0  0  0  0  0  0  0  0  # atno 6908 bound_to 6896
  151.9853  135.0007  160.0610 H   0  0  0  0  0  0  0  0  0  0  0  0  # atno 6909 bound_to 6896
  145.6834  140.9179  143.0820 H   0  0  0  0  0  0  0  0  0  0  0  0  # atno 7974 bound_to 7965
  154.4603  140.1989  156.0264 H   0  0  0  0  0  0  0  0  0  0  0  0  # atno 8008 bound_to 7997
  156.0827  140.3269  155.7685 H   0  0  0  0  0  0  0  0  0  0  0  0  # atno 8009 bound_to 7997
  155.5086  140.0560  157.2918 H   0  0  0  0  0  0  0  0  0  0  0  0  # atno 8010 bound_to 7997
  140.0254  144.5507  150.7548 H   0  0  0  0  0  0  0  0  0  0  0  0  # atno 10167 bound_to 10162
  156.2482  130.7137  151.1025 H   0  0  0  0  0  0  0  0  0  0  0  0  # atno 10718 bound_to 10713
  154.8615  135.4240  154.2290 H   0  0  0  0  0  0  0  0  0  0  0  0  # atno 10763 bound_to 10752
  153.3279  135.6986  153.6979 H   0  0  0  0  0  0  0  0  0  0  0  0  # atno 10764 bound_to 10752
  153.6007  135.3537  155.2918 H   0  0  0  0  0  0  0  0  0  0  0  0  # atno 10765 bound_to 10752
  139.9550  134.9614  156.8973 H   0  0  0  0  0  0  0  0  0  0  0  0  # atno 11005 bound_to 11000
  144.7019  139.8727  143.7442 LP  0  0  0  0  0  0  0  0  0  0  0  0  # atno 17320 bound_to 7965
  146.0944  139.3936  143.0385 LP  0  0  0  0  0  0  0  0  0  0  0  0  # atno 17321 bound_to 7965
  140.7325  143.2706  151.3901 LP  0  0  0  0  0  0  0  0  0  0  0  0  # atno 17342 bound_to 10162
  139.6111  144.1096  152.2300 LP  0  0  0  0  0  0  0  0  0  0  0  0  # atno 17343 bound_to 10162
  157.7203  131.0685  150.6160 LP  0  0  0  0  0  0  0  0  0  0  0  0  # atno 17370 bound_to 10713
  156.6239  130.4413  149.5812 LP  0  0  0  0  0  0  0  0  0  0  0  0  # atno 17371 bound_to 10713
  140.5630  134.0517  155.7405 LP  0  0  0  0  0  0  0  0  0  0  0  0  # atno 17394 bound_to 11000
  141.1220  133.9445  157.2710 LP  0  0  0  0  0  0  0  0  0  0  0  0  # atno 17395 bound_to 11000

$$$$
