AV-unprocessed.smi:3085|AV-procd|sdf|11754|dock5
  -GOLD-   2272017143D 1   1.00000     0.00000
 Structure written by MMmdl.
 27 28  0  0  0  0  0  0  0  0  1 V2000
  152.4001  144.1191  158.4855 C   0  0  0  0  0  0  0  0  0  0  0  0
  151.0391  143.4150  158.4913 C   0  0  0  0  0  0  0  0  0  0  0  0
  150.8807  142.4591  157.3546 C   0  0  0  0  0  0  0  0  0  0  0  0
  151.5476  141.3187  157.2151 N   0  0  0  0  0  0  0  0  0  0  0  0
  151.0187  140.8687  156.0350 C   0  0  0  0  0  0  0  0  0  0  0  0
  151.4044  139.5667  155.4035 C   0  0  2  0  0  0  0  0  0  0  0  0
  150.4854  139.1966  154.2231 C   0  0  0  0  0  0  0  0  0  0  0  0
  150.8397  137.8773  153.7012 N   0  0  0  0  0  0  0  0  0  0  0  0
  150.8121  136.8665  154.7576 C   0  0  0  0  0  0  0  0  0  0  0  0
  151.7127  137.2921  155.9317 C   0  0  0  0  0  0  0  0  0  0  0  0
  151.2994  138.5662  156.4143 O   0  0  0  0  0  0  0  0  0  0  0  0
  150.0726  141.6355  155.4936 N   0  0  0  0  0  0  0  0  0  0  0  0
  150.0092  142.6643  156.3650 N   0  0  0  0  0  0  0  0  0  0  0  0
  149.3808  143.4466  156.2510 H   0  0  0  0  0  0  0  0  0  0  0  0
  152.4829  144.8111  159.3236 H   0  0  0  0  0  0  0  0  0  0  0  0
  152.5440  144.6890  157.5672 H   0  0  0  0  0  0  0  0  0  0  0  0
  153.2153  143.3993  158.5655 H   0  0  0  0  0  0  0  0  0  0  0  0
  150.9019  142.8781  159.4306 H   0  0  0  0  0  0  0  0  0  0  0  0
  150.2400  144.1553  158.4376 H   0  0  0  0  0  0  0  0  0  0  0  0
  152.4414  139.6341  155.0681 H   0  0  0  0  0  0  0  0  0  0  0  0
  149.4455  139.1958  154.5523 H   0  0  0  0  0  0  0  0  0  0  0  0
  150.5652  139.9447  153.4341 H   0  0  0  0  0  0  0  0  0  0  0  0
  150.1910  137.6175  152.9649 H   0  0  0  0  0  0  0  0  0  0  0  0
  149.7899  136.7287  155.1121 H   0  0  0  0  0  0  0  0  0  0  0  0
  151.1397  135.9044  154.3636 H   0  0  0  0  0  0  0  0  0  0  0  0
  151.6378  136.5675  156.7426 H   0  0  0  0  0  0  0  0  0  0  0  0
  152.7608  137.3243  155.6300 H   0  0  0  0  0  0  0  0  0  0  0  0
  1  2  1  0  0  0  0
  1 15  1  0  0  0  0
  1 16  1  0  0  0  0
  1 17  1  0  0  0  0
  2  3  1  0  0  0  0
  2 18  1  0  0  0  0
  2 19  1  0  0  0  0
  3 13  1  0  0  0  0
  3  4  2  0  0  0  0
  4  5  1  0  0  0  0
  5  6  1  0  0  0  0
  5 12  2  0  0  0  0
  6 11  1  0  0  0  0
  6  7  1  0  0  0  0
  6 20  1  0  0  0  0
  7  8  1  0  0  0  0
  7 21  1  0  0  0  0
  7 22  1  0  0  0  0
  8  9  1  0  0  0  0
  8 23  1  0  0  0  0
  9 10  1  0  0  0  0
  9 24  1  0  0  0  0
  9 25  1  0  0  0  0
 10 11  1  0  0  0  0
 10 26  1  0  0  0  0
 10 27  1  0  0  0  0
 12 13  1  0  0  0  0
 13 14  1  0  0  0  0
M  END
> <s_m_source_file>
AV-unprocessed.smi

> <i_m_source_file_index>
3085

> <i_lp_mmshare_version>
43012

> <i_f3d_flags>
0

> <s_epik_input>
W0NIM11bQ0gyXWMxbmMobltuSF0xKVtDQEBIXTJbQ0gyXVtOSF1bQ0gyXVtDSDJdTzI=

> <s_epik_cmdline>
J2VwaWtfcHl0aG9uJywgJy1waCcsICc3LjAnLCAnLXRuJywgJzgnLCAnLW1hJywgJzIwMCcsICctbWV0YWxfYmluZGluZycsICctaW1hZScsICc8aW5maWxlLm1hZT4nLCAnLW9tYWUnLCAnPG91dGZpbGUubWFlPic=

> <r_lp_tautomer_probability>
0.948284

> <r_epik_Ionization_Penalty>
1.10101

> <r_epik_Ionization_Penalty_Charging>
0

> <r_epik_Ionization_Penalty_Neutral>
1.10101

> <r_epik_State_Penalty>
1.49451

> <r_epik_Charging_Adjusted_Penalty>
1.49451

> <i_epik_Tot_Q>
0

> <i_epik_Tot_abs_Q>
0

> <r_epik_Metal_State_Penalty>
1.71443

> <b_epik_Metal_Only>
0

> <s_lp_Force_Field>
OPLS_2005

> <r_lp_Energy>
11.1302

> <b_lp_Chiralities_Consistent>
1

> <s_lp_Variant>
AV-unprocessed.smi:3085-5

> <Gold.Version>
5.8.1

> <Gold.Id.Protein>
6NUR|6NUR_protein|mol2

> <Gold.PLP.Fitness>
31.3778

> <Gold.PLP.PLP>
-25.7615

> <Gold.PLP.part.hbond>
-2.7838

> <Gold.PLP.part.metal>
0.0000

> <Gold.PLP.part.buried>
-3.5307

> <Gold.PLP.part.nonpolar>
-20.3918

> <Gold.PLP.part.repulsive>
0.2053

> <Gold.PLP.ligand.clash>
0.0000

> <Gold.PLP.ligand.torsion>
0.1980

> <Gold.PLP.Chemscore.Hbond>
2.0000

> <Gold.PLP.Chemscore.CHOScore>
0.0000

> <Gold.PLP.Chemscore.Metal>
0.0000

> <Gold.Chemscore.Hbonds>
donor molecule, donor type, donor heavy atom, donor atom, acceptor molecule, acceptor atom, score
      L1  H     8    23       P1  7948  0.61
      L1  H    13    14       P1  8028  0.89

> <Gold.PLP.Chemscore.Internal.Correction>
0.0123

> <Gold.Rescore>
     Score         DG    S(hbond)    S(metal)    S(lipo)     H(rot)  DE(clash)    DE(int)     intcor
     13.43     -13.70       1.67        0.00      50.73       1.28       0.00       0.26       ----

> <Gold.Chemscore.Fitness>
13.4332

> <Gold.Chemscore.DG>
-13.6994

> <Gold.Chemscore.ZeroCoef>
-5.4800

> <Gold.Chemscore.Hbond>
1.6661

> <Gold.Chemscore.Metal>
0.0000

> <Gold.Chemscore.Lipo>
50.7276

> <Gold.Chemscore.Internal_Hbond>
0.0000

> <Gold.Chemscore.DEClash>
0.0015

> <Gold.Chemscore.DEInternal>
0.2647

> <Gold.Chemscore.Rot>
1.2815

> <Gold.Chemscore.Internal.Correction>
   9.000000E+99

> <Gold.Chemscore.Hbonds>
donor molecule, donor type, donor heavy atom, donor atom, acceptor molecule, acceptor atom, score
      L1  H     8    23       P1  7948  0.07
      L1  H    13    14       P1  8028  0.86

> <Gold.Chemscore.Hbond.Weighted>
-5.5648

> <Gold.Chemscore.Metal.Weighted>
-0.0000

> <Gold.Chemscore.Lipo.Weighted>
-5.9351

> <Gold.Chemscore.Internal_Hbond.Weighted>
0.0000

> <Gold.Chemscore.DEClash.Weighted>
0.0015

> <Gold.Chemscore.DEInternal.Weighted>
0.2647

> <Gold.Chemscore.Rot.Weighted>
3.2805

> <Gold.Chemscore.Internal.Correction.Weighted>
   9.000000E+99

> <Gold.Protein.RotatedTorsions>
[ 6907 6896 6895 6894 ] final   37.27 input  -60.11 | X-H torsion
[ 7974 7965 7964 7962 ] final  109.26 input  175.53 | X-H torsion
[ 8008 7997 7996 7995 ] final  178.33 input   59.86 | X-H torsion
[ 10167 10162 10161 10158 ] final  -85.66 input  -65.29 | X-H torsion
[ 10718 10713 10712 10709 ] final  -34.34 input   66.30 | X-H torsion
[ 10763 10752 10751 10750 ] final  -19.73 input  -60.55 | X-H torsion
[ 11005 11000 10999 10996 ] final -113.25 input  -57.11 | X-H torsion

> <Gold.Protein.ActiveResidues>
 VAL166  LYS551  ARG553  GLY616  TRP617  ASP618  TYR619  PRO620  LYS621  CYS622 
 ASP623  PHE694  ASN695  SER759  ASP760  ASP761  ALA762  ILE779  LEU786  VAL792 
 PHE793  MET794  SER795  GLU796  ALA797  LYS798  CYS799  TRP800  GLU811  SER814 

> <Gold.Protein.RotatedAtoms>
  152.1409  134.9063  160.0553 H   0  0  0  0  0  0  0  0  0  0  0  0  # atno 6907 bound_to 6896
  152.0131  133.3864  159.4236 H   0  0  0  0  0  0  0  0  0  0  0  0  # atno 6908 bound_to 6896
  150.6865  134.3630  159.5002 H   0  0  0  0  0  0  0  0  0  0  0  0  # atno 6909 bound_to 6896
  145.2701  139.2670  143.3971 H   0  0  0  0  0  0  0  0  0  0  0  0  # atno 7974 bound_to 7965
  156.0558  140.1336  156.9998 H   0  0  0  0  0  0  0  0  0  0  0  0  # atno 8008 bound_to 7997
  154.4457  140.1001  156.6514 H   0  0  0  0  0  0  0  0  0  0  0  0  # atno 8009 bound_to 7997
  155.5454  140.3462  155.4458 H   0  0  0  0  0  0  0  0  0  0  0  0  # atno 8010 bound_to 7997
  140.4016  143.2660  151.9135 H   0  0  0  0  0  0  0  0  0  0  0  0  # atno 10167 bound_to 10162
  156.3517  130.4309  149.7699 H   0  0  0  0  0  0  0  0  0  0  0  0  # atno 10718 bound_to 10713
  153.6093  135.6997  153.5353 H   0  0  0  0  0  0  0  0  0  0  0  0  # atno 10763 bound_to 10752
  153.3030  135.4123  155.1269 H   0  0  0  0  0  0  0  0  0  0  0  0  # atno 10764 bound_to 10752
  154.8566  135.3653  154.5631 H   0  0  0  0  0  0  0  0  0  0  0  0  # atno 10765 bound_to 10752
  141.0625  133.9511  157.2639 H   0  0  0  0  0  0  0  0  0  0  0  0  # atno 11005 bound_to 11000
  146.3249  140.3141  142.8628 LP  0  0  0  0  0  0  0  0  0  0  0  0  # atno 17320 bound_to 7965
  144.9343  140.8009  143.5670 LP  0  0  0  0  0  0  0  0  0  0  0  0  # atno 17321 bound_to 7965
  139.4784  144.5628  151.8212 LP  0  0  0  0  0  0  0  0  0  0  0  0  # atno 17342 bound_to 10162
  140.4734  144.1554  150.5921 LP  0  0  0  0  0  0  0  0  0  0  0  0  # atno 17343 bound_to 10162
  156.4896  130.8079  151.3089 LP  0  0  0  0  0  0  0  0  0  0  0  0  # atno 17370 bound_to 10713
  157.7462  130.9979  150.2834 LP  0  0  0  0  0  0  0  0  0  0  0  0  # atno 17371 bound_to 10713
  139.9446  135.0186  156.8813 LP  0  0  0  0  0  0  0  0  0  0  0  0  # atno 17394 bound_to 11000
  140.5839  134.0326  155.7474 LP  0  0  0  0  0  0  0  0  0  0  0  0  # atno 17395 bound_to 11000

$$$$
