AV-unprocessed.smi:3032|AV-procd|sdf|11569|dock10
  -GOLD-   2272016533D 1   1.00000     0.00000
 Structure written by MMmdl.
 36 37  0  0  0  0  0  0  0  0  2 V2000
  148.4905  140.6229  154.3226 C   0  0  0  0  0  0  0  0  0  0  0  0
  149.5931  139.7541  154.9442 C   0  0  2  0  0  0  0  0  0  0  0  0
  150.7696  140.6117  155.4457 C   0  0  0  0  0  0  0  0  0  0  0  0
  151.8680  139.7470  156.0829 C   0  0  0  0  0  0  0  0  0  0  0  0
  152.3593  138.6514  155.1169 C   0  0  0  0  0  0  0  0  0  0  0  0
  151.2202  137.7937  154.5145 C   0  0  1  0  0  0  0  0  0  0  0  0
  150.6731  136.7297  155.4845 C   0  0  0  0  0  0  0  0  0  0  0  0
  150.8945  135.5317  155.3065 O   0  0  0  0  0  0  0  0  0  0  0  0
  149.9562  137.1905  156.5205 N   0  0  0  0  0  0  0  0  0  0  0  0
  149.4216  136.3708  157.6028 C   0  0  0  0  0  0  0  0  0  0  0  0
  148.7793  137.2138  158.7211 C   0  0  0  0  0  0  0  0  0  0  0  0
  148.2030  136.3791  159.8483 C   0  0  0  0  0  0  0  0  0  0  0  0
  147.7651  136.8546  161.0322 N   0  5  0  0  0  0  0  0  0  0  0  0
  147.3638  135.8605  161.8002 N   0  0  0  0  0  0  0  0  0  0  0  0
  147.5749  134.7672  161.0578 C   0  0  0  0  0  0  0  0  0  0  0  0
  148.0930  135.0525  159.8587 N   0  0  0  0  0  0  0  0  0  0  0  0
  150.0969  138.6908  153.9460 C   0  0  0  0  0  0  0  0  0  0  0  0
  148.8571  141.1680  153.4524 H   0  0  0  0  0  0  0  0  0  0  0  0
  148.1151  141.3529  155.0403 H   0  0  0  0  0  0  0  0  0  0  0  0
  147.6455  140.0123  154.0021 H   0  0  0  0  0  0  0  0  0  0  0  0
  149.1537  139.2450  155.8026 H   0  0  0  0  0  0  0  0  0  0  0  0
  151.1913  141.1806  154.6159 H   0  0  0  0  0  0  0  0  0  0  0  0
  150.4156  141.3432  156.1728 H   0  0  0  0  0  0  0  0  0  0  0  0
  152.7071  140.3782  156.3764 H   0  0  0  0  0  0  0  0  0  0  0  0
  151.4939  139.3026  157.0046 H   0  0  0  0  0  0  0  0  0  0  0  0
  152.9043  139.1265  154.3005 H   0  0  0  0  0  0  0  0  0  0  0  0
  153.0848  138.0138  155.6243 H   0  0  0  0  0  0  0  0  0  0  0  0
  151.6516  137.2471  153.6739 H   0  0  0  0  0  0  0  0  0  0  0  0
  149.8289  138.1889  156.6028 H   0  0  0  0  0  0  0  0  0  0  0  0
  148.6685  135.7110  157.1715 H   0  0  0  0  0  0  0  0  0  0  0  0
  150.1999  135.7248  158.0113 H   0  0  0  0  0  0  0  0  0  0  0  0
  149.5169  137.9012  159.1359 H   0  0  0  0  0  0  0  0  0  0  0  0
  147.9815  137.8327  158.3087 H   0  0  0  0  0  0  0  0  0  0  0  0
  147.3534  133.7615  161.3927 H   0  0  0  0  0  0  0  0  0  0  0  0
  149.2610  138.0727  153.6141 H   0  0  0  0  0  0  0  0  0  0  0  0
  150.4677  139.1892  153.0493 H   0  0  0  0  0  0  0  0  0  0  0  0
  1  2  1  0  0  0  0
  1 18  1  0  0  0  0
  1 19  1  0  0  0  0
  1 20  1  0  0  0  0
  2 17  1  0  0  0  0
  2  3  1  0  0  0  0
  2 21  1  0  0  0  0
  3  4  1  0  0  0  0
  3 22  1  0  0  0  0
  3 23  1  0  0  0  0
  4  5  1  0  0  0  0
  4 24  1  0  0  0  0
  4 25  1  0  0  0  0
  5  6  1  0  0  0  0
  5 26  1  0  0  0  0
  5 27  1  0  0  0  0
  6  7  1  0  0  0  0
  6 17  1  0  0  0  0
  6 28  1  0  0  0  0
  7  8  2  0  0  0  0
  7  9  1  0  0  0  0
  9 10  1  0  0  0  0
  9 29  1  0  0  0  0
 10 11  1  0  0  0  0
 10 30  1  0  0  0  0
 10 31  1  0  0  0  0
 11 32  1  0  0  0  0
 11 33  1  0  0  0  0
 11 12  1  0  0  0  0
 12 16  2  0  0  0  0
 12 13  1  0  0  0  0
 13 14  1  0  0  0  0
 14 15  2  0  0  0  0
 15 16  1  0  0  0  0
 15 34  1  0  0  0  0
 17 35  1  0  0  0  0
 17 36  1  0  0  0  0
M  CHG  1  13  -1
M  END
> <s_m_source_file>
AV-unprocessed.smi

> <i_m_source_file_index>
3032

> <i_lp_mmshare_version>
43012

> <i_f3d_flags>
0

> <s_epik_input>
W0NIM11bQ0BASF0xW0NIMl1bQ0gyXVtDSDJdW0NASF0oW0NIMl0xKUMoPU8pW05IXVtDSDJdW0NIMl1jMm5uW2NIXVtuSF0y

> <s_epik_cmdline>
J2VwaWtfcHl0aG9uJywgJy1waCcsICc3LjAnLCAnLXRuJywgJzgnLCAnLW1hJywgJzIwMCcsICctbWV0YWxfYmluZGluZycsICctaW1hZScsICc8aW5maWxlLm1hZT4nLCAnLW9tYWUnLCAnPG91dGZpbGUubWFlPic=

> <r_lp_tautomer_probability>
0.948284

> <r_epik_Ionization_Penalty>
12.042

> <r_epik_Ionization_Penalty_Charging>
12.042

> <r_epik_Ionization_Penalty_Neutral>
4.36781e-08

> <r_epik_State_Penalty>
4.67286

> <r_epik_Charging_Adjusted_Penalty>
16.7149

> <i_epik_Tot_Q>
-1

> <i_epik_Tot_abs_Q>
1

> <r_epik_Metal_State_Penalty>
0.981637

> <b_epik_Metal_Only>
1

> <s_lp_Force_Field>
OPLS_2005

> <r_lp_Energy>
8.77891

> <b_lp_Chiralities_Consistent>
1

> <s_lp_Variant>
AV-unprocessed.smi:3032-13

> <Gold.Version>
5.8.1

> <Gold.Id.Protein>
6NUR|6NUR_protein|mol2

> <Gold.PLP.Fitness>
43.5795

> <Gold.PLP.PLP>
-29.6553

> <Gold.PLP.part.hbond>
-3.0000

> <Gold.PLP.part.metal>
0.0000

> <Gold.PLP.part.buried>
-3.7250

> <Gold.PLP.part.nonpolar>
-23.1905

> <Gold.PLP.part.repulsive>
0.0785

> <Gold.PLP.ligand.clash>
0.0000

> <Gold.PLP.ligand.torsion>
0.2268

> <Gold.PLP.Chemscore.Hbond>
4.7760

> <Gold.PLP.Chemscore.CHOScore>
0.0000

> <Gold.PLP.Chemscore.Metal>
0.0000

> <Gold.Chemscore.Hbonds>
donor molecule, donor type, donor heavy atom, donor atom, acceptor molecule, acceptor atom, score
      P1  H  6931  6943       L1    13  1.76
      P1  H  6934  6947       L1    13  0.84
      P1  H 10752 10763       L1     8  0.73

> <Gold.PLP.Chemscore.Internal.Correction>
0.0497

> <Gold.Rescore>
     Score         DG    S(hbond)    S(metal)    S(lipo)     H(rot)  DE(clash)    DE(int)     intcor
     12.77     -13.99       2.24        0.00      57.24       2.21       0.27       0.95       ----

> <Gold.Chemscore.Fitness>
12.7718

> <Gold.Chemscore.DG>
-13.9916

> <Gold.Chemscore.ZeroCoef>
-5.4800

> <Gold.Chemscore.Hbond>
2.2409

> <Gold.Chemscore.Metal>
0.0000

> <Gold.Chemscore.Lipo>
57.2419

> <Gold.Chemscore.Internal_Hbond>
0.0000

> <Gold.Chemscore.DEClash>
0.2655

> <Gold.Chemscore.DEInternal>
0.9543

> <Gold.Chemscore.Rot>
2.2149

> <Gold.Chemscore.Internal.Correction>
   9.000000E+99

> <Gold.Chemscore.Hbonds>
donor molecule, donor type, donor heavy atom, donor atom, acceptor molecule, acceptor atom, score
      P1  H  6931  6943       L1    13  0.69
      P1  H  6934  6947       L1    13  0.34
      P1  H 10752 10763       L1     8  0.25

> <Gold.Chemscore.Hbond.Weighted>
-7.4845

> <Gold.Chemscore.Metal.Weighted>
-0.0000

> <Gold.Chemscore.Lipo.Weighted>
-6.6973

> <Gold.Chemscore.Internal_Hbond.Weighted>
0.0000

> <Gold.Chemscore.DEClash.Weighted>
0.2655

> <Gold.Chemscore.DEInternal.Weighted>
0.9543

> <Gold.Chemscore.Rot.Weighted>
5.6702

> <Gold.Chemscore.Internal.Correction.Weighted>
   9.000000E+99

> <Gold.Protein.RotatedTorsions>
[ 6907 6896 6895 6894 ] final  151.24 input  -60.11 | X-H torsion
[ 7974 7965 7964 7962 ] final -152.52 input  175.53 | X-H torsion
[ 8008 7997 7996 7995 ] final  -35.42 input   59.86 | X-H torsion
[ 10167 10162 10161 10158 ] final -178.33 input  -65.29 | X-H torsion
[ 10718 10713 10712 10709 ] final   53.90 input   66.30 | X-H torsion
[ 10763 10752 10751 10750 ] final   66.35 input  -60.55 | X-H torsion
[ 11005 11000 10999 10996 ] final   55.02 input  -57.11 | X-H torsion

> <Gold.Protein.ActiveResidues>
 VAL166  LYS551  ARG553  GLY616  TRP617  ASP618  TYR619  PRO620  LYS621  CYS622 
 ASP623  PHE694  ASN695  SER759  ASP760  ASP761  ALA762  ILE779  LEU786  VAL792 
 PHE793  MET794  SER795  GLU796  ALA797  LYS798  CYS799  TRP800  GLU811  SER814 

> <Gold.Protein.RotatedAtoms>
  152.1033  133.4261  159.4596 H   0  0  0  0  0  0  0  0  0  0  0  0  # atno 6907 bound_to 6896
  150.6865  134.2735  159.4607 H   0  0  0  0  0  0  0  0  0  0  0  0  # atno 6908 bound_to 6896
  152.0597  134.9602  160.0625 H   0  0  0  0  0  0  0  0  0  0  0  0  # atno 6909 bound_to 6896
  144.7790  140.4651  143.5853 H   0  0  0  0  0  0  0  0  0  0  0  0  # atno 7974 bound_to 7965
  154.4096  140.1658  156.2209 H   0  0  0  0  0  0  0  0  0  0  0  0  # atno 8008 bound_to 7997
  155.9365  140.3411  155.6268 H   0  0  0  0  0  0  0  0  0  0  0  0  # atno 8009 bound_to 7997
  155.7043  140.0749  157.2388 H   0  0  0  0  0  0  0  0  0  0  0  0  # atno 8010 bound_to 7997
  139.5437  144.2292  152.0947 H   0  0  0  0  0  0  0  0  0  0  0  0  # atno 10167 bound_to 10162
  157.5208  130.8564  149.8556 H   0  0  0  0  0  0  0  0  0  0  0  0  # atno 10718 bound_to 10713
  153.0136  135.5324  154.6809 H   0  0  0  0  0  0  0  0  0  0  0  0  # atno 10763 bound_to 10752
  154.5969  135.2864  155.0578 H   0  0  0  0  0  0  0  0  0  0  0  0  # atno 10764 bound_to 10752
  154.1650  135.6541  153.5047 H   0  0  0  0  0  0  0  0  0  0  0  0  # atno 10765 bound_to 10752
  140.0640  134.5562  155.9120 H   0  0  0  0  0  0  0  0  0  0  0  0  # atno 11005 bound_to 11000
  145.6105  139.1513  143.3079 LP  0  0  0  0  0  0  0  0  0  0  0  0  # atno 17320 bound_to 7965
  146.1986  140.6221  142.9112 LP  0  0  0  0  0  0  0  0  0  0  0  0  # atno 17321 bound_to 7965
  140.1775  144.4876  150.6546 LP  0  0  0  0  0  0  0  0  0  0  0  0  # atno 17342 bound_to 10162
  140.6678  143.2274  151.5701 LP  0  0  0  0  0  0  0  0  0  0  0  0  # atno 17343 bound_to 10162
  156.0352  130.3753  150.1579 LP  0  0  0  0  0  0  0  0  0  0  0  0  # atno 17370 bound_to 10713
  156.9767  130.9851  151.3447 LP  0  0  0  0  0  0  0  0  0  0  0  0  # atno 17371 bound_to 10713
  141.1985  133.6602  156.5795 LP  0  0  0  0  0  0  0  0  0  0  0  0  # atno 17394 bound_to 11000
  140.3727  134.7592  157.4609 LP  0  0  0  0  0  0  0  0  0  0  0  0  # atno 17395 bound_to 11000

$$$$
