AV-unprocessed.smi:960|AV-procd|sdf|4273|dock6
  -GOLD-   22720 2183D 1   1.00000     0.00000
 Structure written by MMmdl.
 45 46  0  0  0  0  0  0  0  0  1 V2000
  151.8697  143.7412  158.8621 C   0  0  0  0  0  0  0  0  0  0  0  0
  151.5164  142.5988  158.2507 C   0  0  0  0  0  0  0  0  0  0  0  0
  151.5593  141.2595  158.9624 C   0  0  0  0  0  0  0  0  0  0  0  0
  151.0263  142.5764  156.8100 C   0  0  0  0  0  0  0  0  0  0  0  0
  150.6020  141.2509  156.3586 N   0  0  0  0  0  0  0  0  0  0  0  0
  151.7425  140.4450  155.9089 C   0  0  0  0  0  0  0  0  0  0  0  0
  151.2772  139.0345  155.5071 C   0  0  0  0  0  0  0  0  0  0  0  0
  150.2133  139.0917  154.4008 C   0  0  0  0  0  0  0  0  0  0  0  0
  149.6954  137.7515  154.1427 N   0  0  0  0  0  0  0  0  0  0  0  0
  149.3503  136.8618  155.0838 C   0  0  0  0  0  0  0  0  0  0  0  0
  149.4094  137.0880  156.2920 O   0  0  0  0  0  0  0  0  0  0  0  0
  148.9185  135.7151  154.5374 N   0  0  0  0  0  0  0  0  0  0  0  0
  148.5069  134.5451  155.2235 C   0  0  0  0  0  0  0  0  0  0  0  0
  147.9511  134.4056  156.5296 C   0  0  0  0  0  0  0  0  0  0  0  0
  147.6283  135.4295  157.5821 C   0  0  0  0  0  0  0  0  0  0  0  0
  147.7470  133.1241  156.7971 N   0  0  0  0  0  0  0  0  0  0  0  0
  148.1985  132.4018  155.6821 O   0  0  0  0  0  0  0  0  0  0  0  0
  148.6691  133.2751  154.7540 C   0  0  0  0  0  0  0  0  0  0  0  0
  149.2192  132.6947  153.4952 C   0  0  0  0  0  0  0  0  0  0  0  0
  149.0840  140.0410  154.8372 C   0  0  0  0  0  0  0  0  0  0  0  0
  149.6435  141.4089  155.2635 C   0  0  0  0  0  0  0  0  0  0  0  0
  152.2081  143.7473  159.8879 H   0  0  0  0  0  0  0  0  0  0  0  0
  151.8266  144.6888  158.3453 H   0  0  0  0  0  0  0  0  0  0  0  0
  150.5704  140.8014  158.9648 H   0  0  0  0  0  0  0  0  0  0  0  0
  151.8844  141.3691  159.9974 H   0  0  0  0  0  0  0  0  0  0  0  0
  152.2507  140.5806  158.4625 H   0  0  0  0  0  0  0  0  0  0  0  0
  150.1869  143.2688  156.7351 H   0  0  0  0  0  0  0  0  0  0  0  0
  151.8085  142.9561  156.1504 H   0  0  0  0  0  0  0  0  0  0  0  0
  152.2387  140.9350  155.0696 H   0  0  0  0  0  0  0  0  0  0  0  0
  152.4809  140.3527  156.7053 H   0  0  0  0  0  0  0  0  0  0  0  0
  152.1328  138.4474  155.1716 H   0  0  0  0  0  0  0  0  0  0  0  0
  150.8772  138.5247  156.3851 H   0  0  0  0  0  0  0  0  0  0  0  0
  150.6796  139.4815  153.4938 H   0  0  0  0  0  0  0  0  0  0  0  0
  149.6061  137.4786  153.1749 H   0  0  0  0  0  0  0  0  0  0  0  0
  148.7982  135.7061  153.5350 H   0  0  0  0  0  0  0  0  0  0  0  0
  148.3360  136.2580  157.5574 H   0  0  0  0  0  0  0  0  0  0  0  0
  147.6684  134.9995  158.5835 H   0  0  0  0  0  0  0  0  0  0  0  0
  146.6275  135.8363  157.4385 H   0  0  0  0  0  0  0  0  0  0  0  0
  149.6635  133.4673  152.8675 H   0  0  0  0  0  0  0  0  0  0  0  0
  148.4329  132.2046  152.9214 H   0  0  0  0  0  0  0  0  0  0  0  0
  149.9892  131.9552  153.7153 H   0  0  0  0  0  0  0  0  0  0  0  0
  148.3701  140.1761  154.0242 H   0  0  0  0  0  0  0  0  0  0  0  0
  148.5277  139.6038  155.6678 H   0  0  0  0  0  0  0  0  0  0  0  0
  148.8199  142.0464  155.5877 H   0  0  0  0  0  0  0  0  0  0  0  0
  150.1181  141.9056  154.4155 H   0  0  0  0  0  0  0  0  0  0  0  0
  1  2  2  0  0  0  0
  1 22  1  0  0  0  0
  1 23  1  0  0  0  0
  2  3  1  0  0  0  0
  2  4  1  0  0  0  0
  3 24  1  0  0  0  0
  3 25  1  0  0  0  0
  3 26  1  0  0  0  0
  4  5  1  0  0  0  0
  4 27  1  0  0  0  0
  4 28  1  0  0  0  0
  5 21  1  0  0  0  0
  5  6  1  0  0  0  0
  6  7  1  0  0  0  0
  6 29  1  0  0  0  0
  6 30  1  0  0  0  0
  7  8  1  0  0  0  0
  7 31  1  0  0  0  0
  7 32  1  0  0  0  0
  8  9  1  0  0  0  0
  8 20  1  0  0  0  0
  8 33  1  0  0  0  0
  9 10  1  0  0  0  0
  9 34  1  0  0  0  0
 10 11  2  0  0  0  0
 10 12  1  0  0  0  0
 12 13  1  0  0  0  0
 12 35  1  0  0  0  0
 13 18  2  0  0  0  0
 13 14  1  0  0  0  0
 14 15  1  0  0  0  0
 14 16  2  0  0  0  0
 15 36  1  0  0  0  0
 15 37  1  0  0  0  0
 15 38  1  0  0  0  0
 16 17  1  0  0  0  0
 17 18  1  0  0  0  0
 18 19  1  0  0  0  0
 19 39  1  0  0  0  0
 19 40  1  0  0  0  0
 19 41  1  0  0  0  0
 20 21  1  0  0  0  0
 20 42  1  0  0  0  0
 20 43  1  0  0  0  0
 21 44  1  0  0  0  0
 21 45  1  0  0  0  0
M  END
> <s_m_source_file>
AV-unprocessed.smi

> <i_m_source_file_index>
960

> <i_lp_mmshare_version>
43012

> <i_f3d_flags>
0

> <s_epik_input>
W0NIMl09QyhbQ0gzXSlbQ0gyXU4xW0NIMl1bQ0gyXVtDSF0oW0NIMl1bQ0gyXTEpW05IXUMoPU8pW05IXWMyYyhbQ0gzXSlub2MyW0NIM10=

> <s_epik_cmdline>
J2VwaWtfcHl0aG9uJywgJy1waCcsICc3LjAnLCAnLXRuJywgJzgnLCAnLW1hJywgJzIwMCcsICctbWV0YWxfYmluZGluZycsICctaW1hZScsICc8aW5maWxlLm1hZT4nLCAnLW9tYWUnLCAnPG91dGZpbGUubWFlPic=

> <r_epik_Ionization_Penalty>
2.03694

> <r_epik_Ionization_Penalty_Charging>
0

> <r_epik_Ionization_Penalty_Neutral>
2.03694

> <r_epik_State_Penalty>
2.16834

> <r_epik_Charging_Adjusted_Penalty>
2.16834

> <i_epik_Tot_Q>
0

> <i_epik_Tot_abs_Q>
0

> <r_epik_Metal_State_Penalty>
2.16834

> <b_epik_Metal_Only>
0

> <s_lp_Force_Field>
OPLS_2005

> <r_lp_Energy>
16.835

> <b_lp_Chiralities_Consistent>
1

> <s_lp_Variant>
AV-unprocessed.smi:960-3

> <Gold.Version>
5.8.1

> <Gold.Id.Protein>
6NUR|6NUR_protein|mol2

> <Gold.PLP.Fitness>
36.0113

> <Gold.PLP.PLP>
-31.0868

> <Gold.PLP.part.hbond>
-2.0000

> <Gold.PLP.part.metal>
0.0000

> <Gold.PLP.part.buried>
-4.3821

> <Gold.PLP.part.nonpolar>
-25.3457

> <Gold.PLP.part.repulsive>
0.0987

> <Gold.PLP.ligand.clash>
0.0000

> <Gold.PLP.ligand.torsion>
0.6606

> <Gold.PLP.Chemscore.Hbond>
2.0000

> <Gold.PLP.Chemscore.CHOScore>
0.0000

> <Gold.PLP.Chemscore.Metal>
0.0000

> <Gold.Chemscore.Hbonds>
donor molecule, donor type, donor heavy atom, donor atom, acceptor molecule, acceptor atom, score
      L1  H     9    34       P1  7948  1.00
      L1  H    12    35       P1  7948  1.00

> <Gold.PLP.Chemscore.Internal.Correction>
0.2456

> <Gold.Rescore>
     Score         DG    S(hbond)    S(metal)    S(lipo)     H(rot)  DE(clash)    DE(int)     intcor
     16.40     -18.76       1.87        0.00      88.98       1.32       0.09       2.26       ----

> <Gold.Chemscore.Fitness>
16.4001

> <Gold.Chemscore.DG>
-18.7568

> <Gold.Chemscore.ZeroCoef>
-5.4800

> <Gold.Chemscore.Hbond>
1.8719

> <Gold.Chemscore.Metal>
0.0000

> <Gold.Chemscore.Lipo>
88.9762

> <Gold.Chemscore.Internal_Hbond>
0.0000

> <Gold.Chemscore.DEClash>
0.0934

> <Gold.Chemscore.DEInternal>
2.2634

> <Gold.Chemscore.Rot>
1.3225

> <Gold.Chemscore.Internal.Correction>
   9.000000E+99

> <Gold.Chemscore.Hbonds>
donor molecule, donor type, donor heavy atom, donor atom, acceptor molecule, acceptor atom, score
      L1  H     9    34       P1  7948  0.75
      L1  H    12    35       P1  7948  0.95

> <Gold.Chemscore.Hbond.Weighted>
-6.2522

> <Gold.Chemscore.Metal.Weighted>
-0.0000

> <Gold.Chemscore.Lipo.Weighted>
-10.4102

> <Gold.Chemscore.Internal_Hbond.Weighted>
0.0000

> <Gold.Chemscore.DEClash.Weighted>
0.0934

> <Gold.Chemscore.DEInternal.Weighted>
2.2634

> <Gold.Chemscore.Rot.Weighted>
3.3856

> <Gold.Chemscore.Internal.Correction.Weighted>
   9.000000E+99

> <Gold.Protein.RotatedTorsions>
[ 6907 6896 6895 6894 ] final   47.83 input  -60.11 | X-H torsion
[ 7974 7965 7964 7962 ] final  -76.44 input  175.53 | X-H torsion
[ 8008 7997 7996 7995 ] final -166.27 input   59.86 | X-H torsion
[ 10167 10162 10161 10158 ] final  133.31 input  -65.29 | X-H torsion
[ 10718 10713 10712 10709 ] final   67.63 input   66.30 | X-H torsion
[ 10763 10752 10751 10750 ] final  -28.66 input  -60.55 | X-H torsion
[ 11005 11000 10999 10996 ] final   93.02 input  -57.11 | X-H torsion

> <Gold.Protein.ActiveResidues>
 VAL166  LYS551  ARG553  GLY616  TRP617  ASP618  TYR619  PRO620  LYS621  CYS622 
 ASP623  PHE694  ASN695  SER759  ASP760  ASP761  ALA762  ILE779  LEU786  VAL792 
 PHE793  MET794  SER795  GLU796  ALA797  LYS798  CYS799  TRP800  GLU811  SER814 

> <Gold.Protein.RotatedAtoms>
  152.2725  134.7917  160.0411 H   0  0  0  0  0  0  0  0  0  0  0  0  # atno 6907 bound_to 6896
  151.8524  133.3437  159.3685 H   0  0  0  0  0  0  0  0  0  0  0  0  # atno 6908 bound_to 6896
  150.7157  134.5214  159.5699 H   0  0  0  0  0  0  0  0  0  0  0  0  # atno 6909 bound_to 6896
  145.6128  140.9382  143.1180 H   0  0  0  0  0  0  0  0  0  0  0  0  # atno 7974 bound_to 7965
  155.8615  140.0979  157.1610 H   0  0  0  0  0  0  0  0  0  0  0  0  # atno 8008 bound_to 7997
  154.3991  140.1364  156.4029 H   0  0  0  0  0  0  0  0  0  0  0  0  # atno 8009 bound_to 7997
  155.7851  140.3457  155.5321 H   0  0  0  0  0  0  0  0  0  0  0  0  # atno 8010 bound_to 7997
  139.5302  144.6622  151.4977 H   0  0  0  0  0  0  0  0  0  0  0  0  # atno 10167 bound_to 10162
  157.6242  130.9331  150.0269 H   0  0  0  0  0  0  0  0  0  0  0  0  # atno 10718 bound_to 10713
  153.7519  135.6925  153.4944 H   0  0  0  0  0  0  0  0  0  0  0  0  # atno 10763 bound_to 10752
  153.1997  135.4441  155.0250 H   0  0  0  0  0  0  0  0  0  0  0  0  # atno 10764 bound_to 10752
  154.8184  135.3410  154.7040 H   0  0  0  0  0  0  0  0  0  0  0  0  # atno 10765 bound_to 10752
  139.8815  134.8766  156.3657 H   0  0  0  0  0  0  0  0  0  0  0  0  # atno 11005 bound_to 11000
  144.7262  139.7867  143.7364 LP  0  0  0  0  0  0  0  0  0  0  0  0  # atno 17320 bound_to 7965
  146.1491  139.4569  143.0060 LP  0  0  0  0  0  0  0  0  0  0  0  0  # atno 17321 bound_to 7965
  140.6475  143.8764  150.6752 LP  0  0  0  0  0  0  0  0  0  0  0  0  # atno 17342 bound_to 10162
  140.2118  143.3877  152.1712 LP  0  0  0  0  0  0  0  0  0  0  0  0  # atno 17343 bound_to 10162
  156.1404  130.3642  149.9591 LP  0  0  0  0  0  0  0  0  0  0  0  0  # atno 17370 bound_to 10713
  156.7633  130.9159  151.3642 LP  0  0  0  0  0  0  0  0  0  0  0  0  # atno 17371 bound_to 10713
  140.9499  133.7458  156.0258 LP  0  0  0  0  0  0  0  0  0  0  0  0  # atno 17394 bound_to 11000
  140.8118  134.3390  157.5409 LP  0  0  0  0  0  0  0  0  0  0  0  0  # atno 17395 bound_to 11000

$$$$
