AV-unprocessed.smi:2667|AV-procd|sdf|10334|dock6
  -GOLD-   2272014353D 1   1.00000     0.00000
 Structure written by MMmdl.
 44 46  0  0  0  0  0  0  0  0  1 V2000
  141.2796  144.6036  156.3897 C   0  0  0  0  0  0  0  0  0  0  0  0
  142.1720  145.7633  155.9194 C   0  0  0  0  0  0  0  0  0  0  0  0
  142.9569  145.4647  154.6326 C   0  0  0  0  0  0  0  0  0  0  0  0
  142.6886  146.0754  153.5968 O   0  0  0  0  0  0  0  0  0  0  0  0
  144.0277  144.4286  154.7067 C   0  0  0  0  0  0  0  0  0  0  0  0
  144.8040  144.0714  153.5795 C   0  0  0  0  0  0  0  0  0  0  0  0
  145.8032  143.0851  153.6838 C   0  0  0  0  0  0  0  0  0  0  0  0
  146.0538  142.4332  154.9072 C   0  0  0  0  0  0  0  0  0  0  0  0
  147.0463  141.4772  154.9171 O   0  0  0  0  0  0  0  0  0  0  0  0
  148.1329  141.6217  154.0109 C   0  0  0  0  0  0  0  0  0  0  0  0
  149.4634  141.3863  154.7455 C   0  0  2  0  0  0  0  0  0  0  0  0
  150.1183  140.2757  154.1599 O   0  0  0  0  0  0  0  0  0  0  0  0
  149.3279  141.3147  156.2903 C   0  0  0  0  0  0  0  0  0  0  0  0
  150.5932  141.2419  157.0026 N   0  0  0  0  0  0  0  0  0  0  0  0
  151.5745  140.3366  156.8221 C   0  0  0  0  0  0  0  0  0  0  0  0
  152.6527  140.4438  157.5928 N   0  0  0  0  0  0  0  0  0  0  0  0
  152.3377  141.5523  158.3602 C   0  0  0  0  0  0  0  0  0  0  0  0
  153.0693  142.1967  159.3835 C   0  0  0  0  0  0  0  0  0  0  0  0
  152.5402  143.3303  160.0351 C   0  0  0  0  0  0  0  0  0  0  0  0
  151.2760  143.8384  159.6719 C   0  0  0  0  0  0  0  0  0  0  0  0
  150.5299  143.2141  158.6544 C   0  0  0  0  0  0  0  0  0  0  0  0
  151.0577  142.0795  158.0111 C   0  0  0  0  0  0  0  0  0  0  0  0
  145.2806  142.7920  156.0381 C   0  0  0  0  0  0  0  0  0  0  0  0
  144.2800  143.7778  155.9355 C   0  0  0  0  0  0  0  0  0  0  0  0
  140.7518  144.8733  157.3045 H   0  0  0  0  0  0  0  0  0  0  0  0
  141.8668  143.7092  156.6008 H   0  0  0  0  0  0  0  0  0  0  0  0
  140.5295  144.3485  155.6405 H   0  0  0  0  0  0  0  0  0  0  0  0
  141.5541  146.6460  155.7525 H   0  0  0  0  0  0  0  0  0  0  0  0
  142.8811  146.0129  156.7088 H   0  0  0  0  0  0  0  0  0  0  0  0
  144.6515  144.5404  152.6191 H   0  0  0  0  0  0  0  0  0  0  0  0
  146.3849  142.8273  152.8110 H   0  0  0  0  0  0  0  0  0  0  0  0
  148.0350  140.9293  153.1728 H   0  0  0  0  0  0  0  0  0  0  0  0
  148.1313  142.6353  153.6069 H   0  0  0  0  0  0  0  0  0  0  0  0
  150.1052  142.2383  154.5178 H   0  0  0  0  0  0  0  0  0  0  0  0
  149.8406  139.4919  154.6083 H   0  0  0  0  0  0  0  0  0  0  0  0
  148.7950  142.1965  156.6485 H   0  0  0  0  0  0  0  0  0  0  0  0
  148.7146  140.4649  156.5916 H   0  0  0  0  0  0  0  0  0  0  0  0
  151.4886  139.5498  156.0868 H   0  0  0  0  0  0  0  0  0  0  0  0
  154.0397  141.8176  159.6679 H   0  0  0  0  0  0  0  0  0  0  0  0
  153.1079  143.8135  160.8165 H   0  0  0  0  0  0  0  0  0  0  0  0
  150.8791  144.7081  160.1745 H   0  0  0  0  0  0  0  0  0  0  0  0
  149.5644  143.6034  158.3708 H   0  0  0  0  0  0  0  0  0  0  0  0
  145.4334  142.3243  156.9987 H   0  0  0  0  0  0  0  0  0  0  0  0
  143.7066  144.0271  156.8170 H   0  0  0  0  0  0  0  0  0  0  0  0
  1  2  1  0  0  0  0
  1 25  1  0  0  0  0
  1 26  1  0  0  0  0
  1 27  1  0  0  0  0
  2  3  1  0  0  0  0
  2 28  1  0  0  0  0
  2 29  1  0  0  0  0
  3  4  2  0  0  0  0
  3  5  1  0  0  0  0
  5 24  1  0  0  0  0
  5  6  2  0  0  0  0
  6  7  1  0  0  0  0
  6 30  1  0  0  0  0
  7  8  2  0  0  0  0
  7 31  1  0  0  0  0
  8  9  1  0  0  0  0
  8 23  1  0  0  0  0
  9 10  1  0  0  0  0
 10 11  1  0  0  0  0
 10 32  1  0  0  0  0
 10 33  1  0  0  0  0
 11 12  1  0  0  0  0
 11 13  1  0  0  0  0
 11 34  1  0  0  0  0
 12 35  1  0  0  0  0
 13 14  1  0  0  0  0
 13 36  1  0  0  0  0
 13 37  1  0  0  0  0
 14 22  1  0  0  0  0
 14 15  1  0  0  0  0
 15 16  2  0  0  0  0
 15 38  1  0  0  0  0
 16 17  1  0  0  0  0
 17 22  2  0  0  0  0
 17 18  1  0  0  0  0
 18 19  2  0  0  0  0
 18 39  1  0  0  0  0
 19 20  1  0  0  0  0
 19 40  1  0  0  0  0
 20 21  2  0  0  0  0
 20 41  1  0  0  0  0
 21 22  1  0  0  0  0
 21 42  1  0  0  0  0
 23 24  2  0  0  0  0
 23 43  1  0  0  0  0
 24 44  1  0  0  0  0
M  END
> <s_m_source_file>
AV-unprocessed.smi

> <i_m_source_file_index>
2667

> <i_lp_mmshare_version>
43012

> <i_f3d_flags>
0

> <s_epik_input>
W0NIM11bQ0gyXUMoPU8pYzFbY0hdW2NIXWMoW2NIXVtjSF0xKU9bQ0gyXVtDQEhdKFtPSF0pW0NIMl1uKFtjSF1uMiljKGMyMylbY0hdW2NIXVtjSF1bY0hdMw==

> <s_epik_cmdline>
J2VwaWtfcHl0aG9uJywgJy1waCcsICc3LjAnLCAnLXRuJywgJzgnLCAnLW1hJywgJzIwMCcsICctbWV0YWxfYmluZGluZycsICctaW1hZScsICc8aW5maWxlLm1hZT4nLCAnLW9tYWUnLCAnPG91dGZpbGUubWFlPic=

> <r_lp_tautomer_probability>
0.9999

> <r_epik_Ionization_Penalty>
0.0583018

> <r_epik_Ionization_Penalty_Charging>
0

> <r_epik_Ionization_Penalty_Neutral>
0.0583018

> <r_epik_State_Penalty>
0.0504087

> <r_epik_Charging_Adjusted_Penalty>
0.0504087

> <i_epik_Tot_Q>
0

> <i_epik_Tot_abs_Q>
0

> <r_epik_Metal_State_Penalty>
5.26129e-05

> <b_epik_Metal_Only>
0

> <s_lp_Force_Field>
OPLS_2005

> <r_lp_Energy>
26.5089

> <b_lp_Chiralities_Consistent>
1

> <s_lp_Variant>
AV-unprocessed.smi:2667-1

> <Gold.Version>
5.8.1

> <Gold.Id.Protein>
6NUR|6NUR_protein|mol2

> <Gold.PLP.Fitness>
54.9971

> <Gold.PLP.PLP>
-52.2096

> <Gold.PLP.part.hbond>
-4.9097

> <Gold.PLP.part.metal>
0.0000

> <Gold.PLP.part.buried>
-6.5283

> <Gold.PLP.part.nonpolar>
-40.8706

> <Gold.PLP.part.repulsive>
0.2063

> <Gold.PLP.ligand.clash>
0.0000

> <Gold.PLP.ligand.torsion>
1.5139

> <Gold.PLP.Chemscore.Hbond>
1.8800

> <Gold.PLP.Chemscore.CHOScore>
0.0000

> <Gold.PLP.Chemscore.Metal>
0.0000

> <Gold.Chemscore.Hbonds>
donor molecule, donor type, donor heavy atom, donor atom, acceptor molecule, acceptor atom, score
      P1  H  7989  7998       L1    12  0.91
      P1  H  7997  8008       L1    16  0.85

> <Gold.PLP.Chemscore.Internal.Correction>
0.1752

> <Gold.Rescore>
     Score         DG    S(hbond)    S(metal)    S(lipo)     H(rot)  DE(clash)    DE(int)     intcor
     15.67     -18.06       1.65        0.00     114.89       2.49       0.06       2.33       ----

> <Gold.Chemscore.Fitness>
15.6676

> <Gold.Chemscore.DG>
-18.0614

> <Gold.Chemscore.ZeroCoef>
-5.4800

> <Gold.Chemscore.Hbond>
1.6532

> <Gold.Chemscore.Metal>
0.0000

> <Gold.Chemscore.Lipo>
114.8909

> <Gold.Chemscore.Internal_Hbond>
0.0000

> <Gold.Chemscore.DEClash>
0.0650

> <Gold.Chemscore.DEInternal>
2.3289

> <Gold.Chemscore.Rot>
2.4932

> <Gold.Chemscore.Internal.Correction>
   9.000000E+99

> <Gold.Chemscore.Hbonds>
donor molecule, donor type, donor heavy atom, donor atom, acceptor molecule, acceptor atom, score
      P1  H  7989  7998       L1    12  0.53
      P1  H  7997  8008       L1    16  0.80

> <Gold.Chemscore.Hbond.Weighted>
-5.5218

> <Gold.Chemscore.Metal.Weighted>
-0.0000

> <Gold.Chemscore.Lipo.Weighted>
-13.4422

> <Gold.Chemscore.Internal_Hbond.Weighted>
0.0000

> <Gold.Chemscore.DEClash.Weighted>
0.0650

> <Gold.Chemscore.DEInternal.Weighted>
2.3289

> <Gold.Chemscore.Rot.Weighted>
6.3826

> <Gold.Chemscore.Internal.Correction.Weighted>
   9.000000E+99

> <Gold.Protein.RotatedTorsions>
[ 6907 6896 6895 6894 ] final  -15.79 input  -60.11 | X-H torsion
[ 7974 7965 7964 7962 ] final   -3.18 input  175.53 | X-H torsion
[ 8008 7997 7996 7995 ] final  -74.57 input   59.86 | X-H torsion
[ 10167 10162 10161 10158 ] final  -98.81 input  -65.29 | X-H torsion
[ 10718 10713 10712 10709 ] final  -45.45 input   66.30 | X-H torsion
[ 10763 10752 10751 10750 ] final  165.46 input  -60.55 | X-H torsion
[ 11005 11000 10999 10996 ] final    4.02 input  -57.11 | X-H torsion

> <Gold.Protein.ActiveResidues>
 VAL166  LYS551  ARG553  GLY616  TRP617  ASP618  TYR619  PRO620  LYS621  CYS622 
 ASP623  PHE694  ASN695  SER759  ASP760  ASP761  ALA762  ILE779  LEU786  VAL792 
 PHE793  MET794  SER795  GLU796  ALA797  LYS798  CYS799  TRP800  GLU811  SER814 

> <Gold.Protein.RotatedAtoms>
  151.3186  135.0812  159.9297 H   0  0  0  0  0  0  0  0  0  0  0  0  # atno 6907 bound_to 6896
  152.5262  133.9662  159.7751 H   0  0  0  0  0  0  0  0  0  0  0  0  # atno 6908 bound_to 6896
  150.9979  133.6033  159.2729 H   0  0  0  0  0  0  0  0  0  0  0  0  # atno 6909 bound_to 6896
  146.2393  140.1683  142.8332 H   0  0  0  0  0  0  0  0  0  0  0  0  # atno 7974 bound_to 7965
  154.5342  140.0759  156.8398 H   0  0  0  0  0  0  0  0  0  0  0  0  # atno 8008 bound_to 7997
  155.3313  140.3402  155.4221 H   0  0  0  0  0  0  0  0  0  0  0  0  # atno 8009 bound_to 7997
  156.1811  140.1652  156.8258 H   0  0  0  0  0  0  0  0  0  0  0  0  # atno 8010 bound_to 7997
  140.2691  143.3356  152.0552 H   0  0  0  0  0  0  0  0  0  0  0  0  # atno 10167 bound_to 10162
  156.2283  130.4171  149.8907 H   0  0  0  0  0  0  0  0  0  0  0  0  # atno 10718 bound_to 10713
  154.3243  135.2755  155.2504 H   0  0  0  0  0  0  0  0  0  0  0  0  # atno 10763 bound_to 10752
  154.4843  135.5850  153.6416 H   0  0  0  0  0  0  0  0  0  0  0  0  # atno 10764 bound_to 10752
  152.9873  135.6119  154.3431 H   0  0  0  0  0  0  0  0  0  0  0  0  # atno 10765 bound_to 10752
  140.5866  133.9963  155.8070 H   0  0  0  0  0  0  0  0  0  0  0  0  # atno 11005 bound_to 11000
  145.0032  140.8650  143.5269 LP  0  0  0  0  0  0  0  0  0  0  0  0  # atno 17320 bound_to 7965
  145.1705  139.2407  143.5344 LP  0  0  0  0  0  0  0  0  0  0  0  0  # atno 17321 bound_to 7965
  139.4994  144.6668  151.6337 LP  0  0  0  0  0  0  0  0  0  0  0  0  # atno 17342 bound_to 10162
  140.5904  143.9789  150.6321 LP  0  0  0  0  0  0  0  0  0  0  0  0  # atno 17343 bound_to 10162
  156.6530  130.8751  151.3534 LP  0  0  0  0  0  0  0  0  0  0  0  0  # atno 17370 bound_to 10713
  157.7121  130.9452  150.1124 LP  0  0  0  0  0  0  0  0  0  0  0  0  # atno 17371 bound_to 10713
  141.0962  133.9840  157.3156 LP  0  0  0  0  0  0  0  0  0  0  0  0  # atno 17394 bound_to 11000
  139.9293  135.0200  156.8344 LP  0  0  0  0  0  0  0  0  0  0  0  0  # atno 17395 bound_to 11000

$$$$
