#       Name:                AV-unprocessed.smi:356
#       Creating user name   scv26
#       Creation time:       Thu Mar 26 22:34:56 2020


#       File generated by GOLD software.
#

@<TRIPOS>MOLECULE
AV-unprocessed.smi:356
    47    49     1
SMALL
NO_CHARGES


@<TRIPOS>ATOM
      1 ****        -2.6931  -0.1422  -3.2074 C.3            1 S1                 0.0000
      2 ****        -2.7213   0.7641  -2.0225 C.2            1 S1                 0.0000
      3 ****        -3.2786   2.0071  -1.9788 N.pl3          1 S1                 1.0000
      4 ****        -3.1157   2.5535  -0.7052 C.ar           1 S1                 0.0000
      5 ****        -3.5113   3.7807  -0.1820 C.ar           1 S1                 0.0000
      6 ****        -3.1874   4.0266   1.1685 C.ar           1 S1                 0.0000
      7 ****        -2.4965   3.0725   1.9437 C.ar           1 S1                 0.0000
      8 ****        -2.0993   1.8321   1.4020 C.ar           1 S1                 0.0000
      9 ****        -2.4240   1.5971   0.0662 C.ar           1 S1                 0.0000
     10 ****        -2.1992   0.5116  -0.7876 N.pl3          1 S1                 0.0000
     11 ****        -1.4867  -0.6701  -0.2774 C.3            1 S1                 0.0000
     12 ****         0.0450  -0.4911  -0.2615 C.3            1 S1                 0.0000
     13 ****         0.4902  -0.2130  -1.5758 O.3            1 S1                 0.0000
     14 ****         0.7536  -1.7594   0.2569 C.3            1 S1                 0.0000
     15 ****         2.2219  -1.5901   0.4083 N.4            1 S1                 1.0000
     16 ****         2.6129  -0.7771   1.5874 C.3            1 S1                 0.0000
     17 ****         4.1423  -0.6236   1.6514 C.3            1 S1                 0.0000
     18 ****         4.7514  -1.9080   1.6836 O.3            1 S1                 0.0000
     19 ****         4.4575  -2.6646   0.5161 C.3            1 S1                 0.0000
     20 ****         2.9391  -2.8877   0.4169 C.3            1 S1                 0.0000
     21 ****        -3.1769   0.3303  -4.0625 H              1 S1                 0.0000
     22 ****        -3.2165  -1.0718  -2.9829 H              1 S1                 0.0000
     23 ****        -1.6637  -0.3773  -3.4784 H              1 S1                 0.0000
     24 ****        -4.0415   4.5128  -0.7734 H              1 S1                 0.0000
     25 ****        -3.4757   4.9655   1.6189 H              1 S1                 0.0000
     26 ****        -2.2673   3.2969   2.9754 H              1 S1                 0.0000
     27 ****        -1.5719   1.1079   2.0047 H              1 S1                 0.0000
     28 ****        -1.8637  -0.8929   0.7216 H              1 S1                 0.0000
     29 ****        -1.7626  -1.5196  -0.9036 H              1 S1                 0.0000
     30 ****         0.2862   0.3659   0.3660 H              1 S1                 0.0000
     31 ****         1.3997   0.0406  -1.5452 H              1 S1                 0.0000
     32 ****         0.3307  -2.0665   1.2149 H              1 S1                 0.0000
     33 ****         0.5511  -2.5762  -0.4383 H              1 S1                 0.0000
     34 ****         2.1575   0.2113   1.5430 H              1 S1                 0.0000
     35 ****         2.2506  -1.2552   2.4987 H              1 S1                 0.0000
     36 ****         4.5129  -0.0528   0.7982 H              1 S1                 0.0000
     37 ****         4.4280  -0.0751   2.5492 H              1 S1                 0.0000
     38 ****         4.8355  -2.1515  -0.3698 H              1 S1                 0.0000
     39 ****         4.9757  -3.6219   0.5749 H              1 S1                 0.0000
     40 ****         2.5943  -3.4915   1.2583 H              1 S1                 0.0000
     41 ****         2.7107  -3.4445  -0.4930 H              1 S1                 0.0000
     42 ****         2.5433  -1.0988  -0.4136 H              1 S1                 0.0000
     43 ****        -3.7382   2.4475  -2.7656 H              1 S1                 0.0000
     44 ****        -0.0528   0.5321  -1.9631 LP             1 S1                 0.0000
     45 ****         0.3888  -1.0297  -2.1440 LP             1 S1                 0.0000
     46 ****         4.4156  -2.4050   2.4837 LP             1 S1                 0.0000
     47 ****         5.7424  -1.7940   1.7538 LP             1 S1                 0.0000
@<TRIPOS>BOND
    1    1    2 1     
    2    1   21 1     
    3    1   22 1     
    4    1   23 1     
    5    2   10 1     
    6    2    3 2     
    7    3    4 1     
    8    3   43 1     
    9    4    9 ar    
   10    4    5 ar    
   11    5    6 ar    
   12    5   24 1     
   13    6    7 ar    
   14    6   25 1     
   15    7    8 ar    
   16    7   26 1     
   17    8    9 ar    
   18    8   27 1     
   19    9   10 1     
   20   10   11 1     
   21   11   12 1     
   22   11   28 1     
   23   11   29 1     
   24   12   13 1     
   25   12   14 1     
   26   12   30 1     
   27   13   31 1     
   28   14   15 1     
   29   14   32 1     
   30   14   33 1     
   31   15   20 1     
   32   15   16 1     
   33   15   42 1     
   34   16   17 1     
   35   16   34 1     
   36   16   35 1     
   37   17   18 1     
   38   17   36 1     
   39   17   37 1     
   40   18   19 1     
   41   19   20 1     
   42   19   38 1     
   43   19   39 1     
   44   20   40 1     
   45   20   41 1     
   46   13   44 1     
   47   13   45 1     
   48   18   46 1     
   49   18   47 1     
@<TRIPOS>SUBSTRUCTURE
      1 S1             1
@<TRIPOS>SET
LONE_PAIRS      STATIC     ATOMS    <user>   **** ""
4 44 45 46 47
DONOR_HYDROGENS      STATIC     ATOMS    <user>   **** ""
3 43 31 42
ATOM$BLUE        STATIC     ATOMS    COLORGROUP SYSTEM
4 44 45 46 47
ATOM$RED        STATIC     ATOMS    COLORGROUP SYSTEM
3 43 31 42
