AV-unprocessed.smi:218|AV-procd|sdf|1676|dock10
  -GOLD-   2262020103D 1   1.00000     0.00000
 Structure written by MMmdl.
 54 57  0  0  0  0  0  0  0  0  1 V2000
  151.2201  142.9984  158.0572 C   0  0  0  0  0  0  0  0  0  0  0  0
  151.0291  141.5067  157.7570 C   0  0  0  0  0  0  0  0  0  0  0  0
  151.8962  140.6374  158.6841 C   0  0  0  0  0  0  0  0  0  0  0  0
  151.4068  141.3058  156.3934 O   0  0  0  0  0  0  0  0  0  0  0  0
  150.9328  140.2113  155.6958 C   0  0  0  0  0  0  0  0  0  0  0  0
  151.3566  138.9281  156.0980 C   0  0  0  0  0  0  0  0  0  0  0  0
  150.8783  137.8015  155.3986 C   0  0  0  0  0  0  0  0  0  0  0  0
  151.3018  136.4039  155.8026 C   0  0  0  0  0  0  0  0  0  0  0  0
  150.2692  135.6852  156.5367 N   0  0  0  0  0  0  0  0  0  0  0  0
  148.9996  135.6687  156.0778 C   0  0  0  0  0  0  0  0  0  0  0  0
  148.0589  136.5030  156.5920 N   0  0  0  0  0  0  0  0  0  0  0  0
  146.8088  136.4689  156.1214 C   0  0  0  0  0  0  0  0  0  0  0  0
  146.3006  135.6941  155.1608 N   0  0  0  0  0  0  0  0  0  0  0  0
  147.2409  134.8544  154.6385 C   0  0  0  0  0  0  0  0  0  0  0  0
  148.6031  134.7813  155.0440 C   0  0  0  0  0  0  0  0  0  0  0  0
  149.2647  133.8129  154.3010 N   0  0  0  0  0  0  0  0  0  0  0  0
  148.3438  133.3444  153.5028 C   0  0  0  0  0  0  0  0  0  0  0  0
  147.0961  133.9121  153.6379 N   0  0  0  0  0  0  0  0  0  0  0  0
  145.8605  133.5718  152.8582 C   0  0  2  0  0  0  0  0  0  0  0  0
  146.1497  132.5566  151.9413 O   0  0  0  0  0  0  0  0  0  0  0  0
  145.8968  132.9969  150.6067 C   0  0  1  0  0  0  0  0  0  0  0  0
  145.4335  131.8109  149.7467 C   0  0  0  0  0  0  0  0  0  0  0  0
  145.1074  132.2519  148.4461 O   0  0  0  0  0  0  0  0  0  0  0  0
  144.8218  134.0675  150.8014 C   0  0  2  0  0  0  0  0  0  0  0  0
  144.6982  134.9493  149.7020 O   0  0  0  0  0  0  0  0  0  0  0  0
  145.2856  134.7650  152.0716 C   0  0  2  0  0  0  0  0  0  0  0  0
  146.2354  135.7892  151.8156 O   0  0  0  0  0  0  0  0  0  0  0  0
  149.9988  138.0033  154.3154 C   0  0  0  0  0  0  0  0  0  0  0  0
  149.6358  139.3228  153.9843 C   0  0  0  0  0  0  0  0  0  0  0  0
  150.0869  140.4049  154.6532 N   0  0  0  0  0  0  0  0  0  0  0  0
  145.1639  133.1824  153.6017 H   0  0  0  0  0  0  0  0  0  0  0  0
  146.7960  133.4558  150.1921 H   0  0  0  0  0  0  0  0  0  0  0  0
  143.8581  133.5891  150.9835 H   0  0  0  0  0  0  0  0  0  0  0  0
  144.4518  135.2001  152.6233 H   0  0  0  0  0  0  0  0  0  0  0  0
  150.9366  143.2327  159.0835 H   0  0  0  0  0  0  0  0  0  0  0  0
  150.6059  143.6106  157.3963 H   0  0  0  0  0  0  0  0  0  0  0  0
  152.2589  143.2999  157.9197 H   0  0  0  0  0  0  0  0  0  0  0  0
  149.9731  141.2795  157.9111 H   0  0  0  0  0  0  0  0  0  0  0  0
  151.6469  140.8142  159.7306 H   0  0  0  0  0  0  0  0  0  0  0  0
  152.9554  140.8592  158.5521 H   0  0  0  0  0  0  0  0  0  0  0  0
  151.7557  139.5742  158.4916 H   0  0  0  0  0  0  0  0  0  0  0  0
  152.0329  138.8148  156.9326 H   0  0  0  0  0  0  0  0  0  0  0  0
  151.5581  135.8493  154.8990 H   0  0  0  0  0  0  0  0  0  0  0  0
  152.2042  136.4609  156.4131 H   0  0  0  0  0  0  0  0  0  0  0  0
  150.5723  135.1889  157.3624 H   0  0  0  0  0  0  0  0  0  0  0  0
  146.1166  137.1607  156.5782 H   0  0  0  0  0  0  0  0  0  0  0  0
  148.5513  132.5624  152.7867 H   0  0  0  0  0  0  0  0  0  0  0  0
  146.1930  131.0299  149.7049 H   0  0  0  0  0  0  0  0  0  0  0  0
  144.5345  131.3660  150.1741 H   0  0  0  0  0  0  0  0  0  0  0  0
  145.1614  133.1953  148.4256 H   0  0  0  0  0  0  0  0  0  0  0  0
  145.2669  134.6413  149.0122 H   0  0  0  0  0  0  0  0  0  0  0  0
  147.0938  135.3964  151.7715 H   0  0  0  0  0  0  0  0  0  0  0  0
  149.6116  137.1688  153.7490 H   0  0  0  0  0  0  0  0  0  0  0  0
  148.9647  139.5145  153.1602 H   0  0  0  0  0  0  0  0  0  0  0  0
  1  2  1  0  0  0  0
  1 35  1  0  0  0  0
  1 36  1  0  0  0  0
  1 37  1  0  0  0  0
  2  3  1  0  0  0  0
  2  4  1  0  0  0  0
  2 38  1  0  0  0  0
  3 39  1  0  0  0  0
  3 40  1  0  0  0  0
  3 41  1  0  0  0  0
  4  5  1  0  0  0  0
  5 30  1  0  0  0  0
  5  6  2  0  0  0  0
  6  7  1  0  0  0  0
  6 42  1  0  0  0  0
  7  8  1  0  0  0  0
  7 28  2  0  0  0  0
  8  9  1  0  0  0  0
  8 43  1  0  0  0  0
  8 44  1  0  0  0  0
  9 10  1  0  0  0  0
  9 45  1  0  0  0  0
 10 15  1  0  0  0  0
 10 11  2  0  0  0  0
 11 12  1  0  0  0  0
 12 13  2  0  0  0  0
 12 46  1  0  0  0  0
 13 14  1  0  0  0  0
 14 18  1  0  0  0  0
 14 15  2  0  0  0  0
 15 16  1  0  0  0  0
 16 17  2  0  0  0  0
 17 18  1  0  0  0  0
 17 47  1  0  0  0  0
 18 19  1  0  0  0  0
 19 31  1  0  0  0  0
 19 26  1  0  0  0  0
 19 20  1  0  0  0  0
 20 21  1  0  0  0  0
 21 32  1  0  0  0  0
 21 22  1  0  0  0  0
 21 24  1  0  0  0  0
 22 23  1  0  0  0  0
 22 48  1  0  0  0  0
 22 49  1  0  0  0  0
 23 50  1  0  0  0  0
 24 33  1  0  0  0  0
 24 25  1  0  0  0  0
 24 26  1  0  0  0  0
 25 51  1  0  0  0  0
 26 34  1  0  0  0  0
 26 27  1  0  0  0  0
 27 52  1  0  0  0  0
 28 29  1  0  0  0  0
 28 53  1  0  0  0  0
 29 30  2  0  0  0  0
 29 54  1  0  0  0  0
M  END
> <s_m_source_file>
AV-unprocessed.smi

> <i_m_source_file_index>
218

> <i_lp_mmshare_version>
43012

> <i_f3d_flags>
0

> <s_epik_input>
W0NIM11bQ0hdKFtDSDNdKU9jMVtjSF1jKFtjSF1bY0hdbjEpW0NIMl1bTkhdYyhuW2NIXW4yKWMoYzIzKW5bY0hdbjNbQ0BASF00T1tDQEhdKFtDSDJdW09IXSlbQ0BASF0oW09IXSlbQ0BIXTRbT0hd

> <s_epik_cmdline>
J2VwaWtfcHl0aG9uJywgJy1waCcsICc3LjAnLCAnLXRuJywgJzgnLCAnLW1hJywgJzIwMCcsICctbWV0YWxfYmluZGluZycsICctaW1hZScsICc8aW5maWxlLm1hZT4nLCAnLW9tYWUnLCAnPG91dGZpbGUubWFlPic=

> <r_lp_tautomer_probability>
1

> <r_epik_Ionization_Penalty>
0.00457014

> <r_epik_Ionization_Penalty_Charging>
0

> <r_epik_Ionization_Penalty_Neutral>
0.00457014

> <r_epik_State_Penalty>
-0

> <r_epik_Charging_Adjusted_Penalty>
0

> <i_epik_Tot_Q>
0

> <i_epik_Tot_abs_Q>
0

> <r_epik_Metal_State_Penalty>
-0

> <b_epik_Metal_Only>
0

> <s_epik_Chemistry_Notes>
This compound contains an acetal/aminal-like group ( X-CH(R)-Y where X, Y are N, S, or O) that may be acid/base labile, releasing an aldehyde.

> <s_lp_Force_Field>
OPLS_2005

> <r_lp_Energy>
48.139

> <b_lp_Chiralities_Consistent>
1

> <s_lp_Variant>
AV-unprocessed.smi:218-15

> <Gold.Version>
5.8.1

> <Gold.Id.Protein>
6NUR|6NUR_protein|mol2

> <Gold.PLP.Fitness>
48.6951

> <Gold.PLP.PLP>
-37.6302

> <Gold.PLP.part.hbond>
-4.5764

> <Gold.PLP.part.metal>
0.0000

> <Gold.PLP.part.buried>
-3.5970

> <Gold.PLP.part.nonpolar>
-30.1218

> <Gold.PLP.part.repulsive>
0.4786

> <Gold.PLP.ligand.clash>
0.0000

> <Gold.PLP.ligand.torsion>
1.2791

> <Gold.PLP.Chemscore.Hbond>
3.4860

> <Gold.PLP.Chemscore.CHOScore>
1.0000

> <Gold.PLP.Chemscore.Metal>
0.0000

> <Gold.Chemscore.Hbonds>
donor molecule, donor type, donor heavy atom, donor atom, acceptor molecule, acceptor atom, score
      L1  H    23    50       P1  7921  0.88
      L1  H    25    51       P1  7921  1.00
      L1  H    27    52       P1  7948  0.64
      P1  H  7989  7998       L1    30  0.46
      L1  C    29    54       P1  7957  0.89

> <Gold.PLP.Chemscore.Internal.Correction>
0.1650

> <Gold.Rescore>
     Score         DG    S(hbond)    S(metal)    S(lipo)     H(rot)  DE(clash)    DE(int)     intcor
      9.87     -11.70       2.86        0.00      78.82       4.90       0.35       1.48       ----

> <Gold.Chemscore.Fitness>
9.8712

> <Gold.Chemscore.DG>
-11.7013

> <Gold.Chemscore.ZeroCoef>
-5.4800

> <Gold.Chemscore.Hbond>
2.8596

> <Gold.Chemscore.Metal>
0.0000

> <Gold.Chemscore.Lipo>
78.8168

> <Gold.Chemscore.Internal_Hbond>
0.0000

> <Gold.Chemscore.DEClash>
0.3523

> <Gold.Chemscore.DEInternal>
1.4777

> <Gold.Chemscore.Rot>
4.9029

> <Gold.Chemscore.Internal.Correction>
   9.000000E+99

> <Gold.Chemscore.Hbonds>
donor molecule, donor type, donor heavy atom, donor atom, acceptor molecule, acceptor atom, score
      L1  H    23    50       P1  7921  0.24
      L1  H    25    51       P1  7921  0.97
      L1  H    27    52       P1  7948  0.61

> <Gold.Chemscore.Hbond.Weighted>
-9.5512

> <Gold.Chemscore.Metal.Weighted>
-0.0000

> <Gold.Chemscore.Lipo.Weighted>
-9.2216

> <Gold.Chemscore.Internal_Hbond.Weighted>
0.0000

> <Gold.Chemscore.DEClash.Weighted>
0.3523

> <Gold.Chemscore.DEInternal.Weighted>
1.4777

> <Gold.Chemscore.Rot.Weighted>
12.5515

> <Gold.Chemscore.Internal.Correction.Weighted>
   9.000000E+99

> <Gold.Protein.RotatedTorsions>
[ 6907 6896 6895 6894 ] final  -12.74 input  -60.11 | X-H torsion
[ 7974 7965 7964 7962 ] final -138.07 input  175.53 | X-H torsion
[ 8008 7997 7996 7995 ] final  126.84 input   59.86 | X-H torsion
[ 10167 10162 10161 10158 ] final  -28.43 input  -65.29 | X-H torsion
[ 10718 10713 10712 10709 ] final   60.62 input   66.30 | X-H torsion
[ 10763 10752 10751 10750 ] final    7.54 input  -60.55 | X-H torsion
[ 11005 11000 10999 10996 ] final -126.13 input  -57.11 | X-H torsion

> <Gold.Protein.ActiveResidues>
 VAL166  LYS551  ARG553  GLY616  TRP617  ASP618  TYR619  PRO620  LYS621  CYS622 
 ASP623  PHE694  ASN695  SER759  ASP760  ASP761  ALA762  ILE779  LEU786  VAL792 
 PHE793  MET794  SER795  GLU796  ALA797  LYS798  CYS799  TRP800  GLU811  SER814 

> <Gold.Protein.RotatedAtoms>
  151.3658  135.0913  159.9449 H   0  0  0  0  0  0  0  0  0  0  0  0  # atno 6907 bound_to 6896
  152.5149  133.9213  159.7546 H   0  0  0  0  0  0  0  0  0  0  0  0  # atno 6908 bound_to 6896
  150.9617  133.6384  159.2782 H   0  0  0  0  0  0  0  0  0  0  0  0  # atno 6909 bound_to 6896
  144.8789  140.6478  143.5218 H   0  0  0  0  0  0  0  0  0  0  0  0  # atno 7974 bound_to 7965
  156.2875  140.2683  156.2176 H   0  0  0  0  0  0  0  0  0  0  0  0  # atno 8008 bound_to 7997
  155.0201  140.0386  157.2452 H   0  0  0  0  0  0  0  0  0  0  0  0  # atno 8009 bound_to 7997
  154.7443  140.2731  155.6351 H   0  0  0  0  0  0  0  0  0  0  0  0  # atno 8010 bound_to 7997
  140.7270  143.4010  151.1264 H   0  0  0  0  0  0  0  0  0  0  0  0  # atno 10167 bound_to 10162
  157.5766  130.8949  149.9358 H   0  0  0  0  0  0  0  0  0  0  0  0  # atno 10718 bound_to 10713
  153.2351  135.6897  153.7845 H   0  0  0  0  0  0  0  0  0  0  0  0  # atno 10763 bound_to 10752
  153.6995  135.3300  155.3222 H   0  0  0  0  0  0  0  0  0  0  0  0  # atno 10764 bound_to 10752
  154.8331  135.4564  154.1252 H   0  0  0  0  0  0  0  0  0  0  0  0  # atno 10765 bound_to 10752
  140.9706  134.0810  157.3873 H   0  0  0  0  0  0  0  0  0  0  0  0  # atno 11005 bound_to 11000
  145.3990  139.1601  143.4187 LP  0  0  0  0  0  0  0  0  0  0  0  0  # atno 17320 bound_to 7965
  146.2981  140.4086  142.8714 LP  0  0  0  0  0  0  0  0  0  0  0  0  # atno 17321 bound_to 7965
  139.7630  143.8607  152.3104 LP  0  0  0  0  0  0  0  0  0  0  0  0  # atno 17342 bound_to 10162
  139.8499  144.7169  150.9227 LP  0  0  0  0  0  0  0  0  0  0  0  0  # atno 17343 bound_to 10162
  156.0811  130.3673  150.0579 LP  0  0  0  0  0  0  0  0  0  0  0  0  # atno 17370 bound_to 10713
  156.8724  130.9529  151.3608 LP  0  0  0  0  0  0  0  0  0  0  0  0  # atno 17371 bound_to 10713
  139.8911  135.0116  156.6772 LP  0  0  0  0  0  0  0  0  0  0  0  0  # atno 17394 bound_to 11000
  140.7334  133.9039  155.8227 LP  0  0  0  0  0  0  0  0  0  0  0  0  # atno 17395 bound_to 11000

$$$$
