AV-unprocessed.smi:263|AV-procd|sdf|2005|dock4
  -GOLD-   2262021203D 1   1.00000     0.00000
 Structure written by MMmdl.
 57 61  0  0  0  0  0  0  0  0  1 V2000
  149.6556  133.7655  157.3790 O   0  0  0  0  0  0  0  0  0  0  0  0
  150.4479  133.8374  156.2063 C   0  0  0  0  0  0  0  0  0  0  0  0
  151.7831  134.5318  156.5743 C   0  0  0  0  0  0  0  0  0  0  0  0
  151.6507  135.9470  156.8846 N   0  0  0  0  0  0  0  0  0  0  0  0
  151.6255  136.5167  158.1376 C   0  0  0  0  0  0  0  0  0  0  0  0
  151.4948  137.8148  158.1563 N   0  0  0  0  0  0  0  0  0  0  0  0
  151.4403  138.1704  156.8136 C   0  0  0  0  0  0  0  0  0  0  0  0
  151.3049  139.4064  156.1204 C   0  0  0  0  0  0  0  0  0  0  0  0
  151.2156  140.5996  156.7607 N   0  0  0  0  0  0  0  0  0  0  0  0
  150.7435  141.7027  155.9267 C   0  0  0  0  0  0  0  0  0  0  0  0
  151.0704  143.0605  156.5722 C   0  0  0  0  0  0  0  0  0  0  0  0
  150.5575  143.1531  158.0290 C   0  0  2  0  0  0  0  0  0  0  0  0
  149.1417  143.1556  157.9808 O   0  0  0  0  0  0  0  0  0  0  0  0
  150.9600  144.4790  158.7171 C   0  0  0  0  0  0  0  0  0  0  0  0
  152.4527  144.5391  159.0806 C   0  0  0  0  0  0  0  0  0  0  0  0
  152.8623  143.3316  159.9345 C   0  0  0  0  0  0  0  0  0  0  0  0
  152.5230  142.0122  159.2264 C   0  0  0  0  0  0  0  0  0  0  0  0
  151.0249  141.9245  158.8583 C   0  0  2  0  0  0  0  0  0  0  0  0
  150.7055  140.5990  158.1332 C   0  0  0  0  0  0  0  0  0  0  0  0
  151.2709  139.3599  154.7613 N   0  0  0  0  0  0  0  0  0  0  0  0
  151.3744  138.1908  154.1226 C   0  0  0  0  0  0  0  0  0  0  0  0
  151.5143  136.9679  154.6374 N   0  0  0  0  0  0  0  0  0  0  0  0
  151.5361  137.0057  156.0005 C   0  0  0  0  0  0  0  0  0  0  0  0
  150.6505  132.4028  155.6718 C   0  0  0  0  0  0  0  0  0  0  0  0
  149.3469  131.8032  155.1154 C   0  0  0  0  0  0  0  0  0  0  0  0
  148.8009  132.6578  154.1180 O   0  0  0  0  0  0  0  0  0  0  0  0
  148.4364  133.9336  154.6302 C   0  0  0  0  0  0  0  0  0  0  0  0
  149.6848  134.6661  155.1532 C   0  0  0  0  0  0  0  0  0  0  0  0
  148.9024  133.2230  157.2017 H   0  0  0  0  0  0  0  0  0  0  0  0
  152.2298  134.0414  157.4404 H   0  0  0  0  0  0  0  0  0  0  0  0
  152.5043  134.4248  155.7626 H   0  0  0  0  0  0  0  0  0  0  0  0
  151.6997  135.9338  159.0442 H   0  0  0  0  0  0  0  0  0  0  0  0
  151.1821  141.6668  154.9303 H   0  0  0  0  0  0  0  0  0  0  0  0
  149.6658  141.6014  155.7926 H   0  0  0  0  0  0  0  0  0  0  0  0
  152.1509  143.1995  156.5452 H   0  0  0  0  0  0  0  0  0  0  0  0
  150.6501  143.8660  155.9687 H   0  0  0  0  0  0  0  0  0  0  0  0
  148.8715  143.3977  157.1083 H   0  0  0  0  0  0  0  0  0  0  0  0
  150.6992  145.3284  158.0842 H   0  0  0  0  0  0  0  0  0  0  0  0
  150.3831  144.6003  159.6356 H   0  0  0  0  0  0  0  0  0  0  0  0
  153.0600  144.5758  158.1761 H   0  0  0  0  0  0  0  0  0  0  0  0
  152.6612  145.4614  159.6236 H   0  0  0  0  0  0  0  0  0  0  0  0
  153.9307  143.3736  160.1482 H   0  0  0  0  0  0  0  0  0  0  0  0
  152.3524  143.3731  160.8978 H   0  0  0  0  0  0  0  0  0  0  0  0
  153.1388  141.9161  158.3317 H   0  0  0  0  0  0  0  0  0  0  0  0
  152.7944  141.1759  159.8711 H   0  0  0  0  0  0  0  0  0  0  0  0
  150.4749  141.9212  159.8008 H   0  0  0  0  0  0  0  0  0  0  0  0
  149.6259  140.4439  158.1066 H   0  0  0  0  0  0  0  0  0  0  0  0
  151.1301  139.7650  158.6939 H   0  0  0  0  0  0  0  0  0  0  0  0
  151.3404  138.2431  153.0444 H   0  0  0  0  0  0  0  0  0  0  0  0
  151.3947  132.4174  154.8746 H   0  0  0  0  0  0  0  0  0  0  0  0
  151.0467  131.7500  156.4506 H   0  0  0  0  0  0  0  0  0  0  0  0
  149.5471  130.8285  154.6699 H   0  0  0  0  0  0  0  0  0  0  0  0
  148.6183  131.6415  155.9113 H   0  0  0  0  0  0  0  0  0  0  0  0
  147.9739  134.5125  153.8306 H   0  0  0  0  0  0  0  0  0  0  0  0
  147.6853  133.8245  155.4140 H   0  0  0  0  0  0  0  0  0  0  0  0
  149.4055  135.6392  155.5589 H   0  0  0  0  0  0  0  0  0  0  0  0
  150.3431  134.8672  154.3068 H   0  0  0  0  0  0  0  0  0  0  0  0
  1  2  1  0  0  0  0
  1 29  1  0  0  0  0
  2 28  1  0  0  0  0
  2  3  1  0  0  0  0
  2 24  1  0  0  0  0
  3  4  1  0  0  0  0
  3 30  1  0  0  0  0
  3 31  1  0  0  0  0
  4 23  1  0  0  0  0
  4  5  1  0  0  0  0
  5  6  2  0  0  0  0
  5 32  1  0  0  0  0
  6  7  1  0  0  0  0
  7 23  2  0  0  0  0
  7  8  1  0  0  0  0
  8  9  1  0  0  0  0
  8 20  2  0  0  0  0
  9 19  1  0  0  0  0
  9 10  1  0  0  0  0
 10 11  1  0  0  0  0
 10 33  1  0  0  0  0
 10 34  1  0  0  0  0
 11 12  1  0  0  0  0
 11 35  1  0  0  0  0
 11 36  1  0  0  0  0
 12 18  1  0  0  0  0
 12 13  1  0  0  0  0
 12 14  1  0  0  0  0
 13 37  1  0  0  0  0
 14 15  1  0  0  0  0
 14 38  1  0  0  0  0
 14 39  1  0  0  0  0
 15 16  1  0  0  0  0
 15 40  1  0  0  0  0
 15 41  1  0  0  0  0
 16 17  1  0  0  0  0
 16 42  1  0  0  0  0
 16 43  1  0  0  0  0
 17 18  1  0  0  0  0
 17 44  1  0  0  0  0
 17 45  1  0  0  0  0
 18 19  1  0  0  0  0
 18 46  1  0  0  0  0
 19 47  1  0  0  0  0
 19 48  1  0  0  0  0
 20 21  1  0  0  0  0
 21 22  2  0  0  0  0
 21 49  1  0  0  0  0
 22 23  1  0  0  0  0
 24 25  1  0  0  0  0
 24 50  1  0  0  0  0
 24 51  1  0  0  0  0
 25 26  1  0  0  0  0
 25 52  1  0  0  0  0
 25 53  1  0  0  0  0
 26 27  1  0  0  0  0
 27 28  1  0  0  0  0
 27 54  1  0  0  0  0
 27 55  1  0  0  0  0
 28 56  1  0  0  0  0
 28 57  1  0  0  0  0
M  END
> <s_m_source_file>
AV-unprocessed.smi

> <i_m_source_file_index>
263

> <i_lp_mmshare_version>
43012

> <i_f3d_flags>
0

> <s_epik_input>
W0NIMl0xW0NIMl1PW0NIMl1bQ0gyXUMxKFtPSF0pW0NIMl1uKFtjSF1uMiljKGMyMyluW2NIXW5jM04oW0NIMl1bQ0gyXTQpW0NIMl1bQ0BASF0oW0NAXTQ1W09IXSlbQ0gyXVtDSDJdW0NIMl1bQ0gyXTU=

> <s_epik_cmdline>
J2VwaWtfcHl0aG9uJywgJy1waCcsICc3LjAnLCAnLXRuJywgJzgnLCAnLW1hJywgJzIwMCcsICctbWV0YWxfYmluZGluZycsICctaW1hZScsICc8aW5maWxlLm1hZT4nLCAnLW9tYWUnLCAnPG91dGZpbGUubWFlPic=

> <r_lp_tautomer_probability>
1

> <r_epik_Ionization_Penalty>
0.00747493

> <r_epik_Ionization_Penalty_Charging>
0

> <r_epik_Ionization_Penalty_Neutral>
0.00747493

> <r_epik_State_Penalty>
0.00549307

> <r_epik_Charging_Adjusted_Penalty>
0.00549307

> <i_epik_Tot_Q>
0

> <i_epik_Tot_abs_Q>
0

> <r_epik_Metal_State_Penalty>
-0

> <b_epik_Metal_Only>
0

> <s_lp_Force_Field>
OPLS_2005

> <r_lp_Energy>
40.0447

> <b_lp_Chiralities_Consistent>
1

> <s_lp_Variant>
AV-unprocessed.smi:263-3

> <Gold.Version>
5.8.1

> <Gold.Id.Protein>
6NUR|6NUR_protein|mol2

> <Gold.PLP.Fitness>
53.2773

> <Gold.PLP.PLP>
-41.4922

> <Gold.PLP.part.hbond>
-4.5856

> <Gold.PLP.part.metal>
0.0000

> <Gold.PLP.part.buried>
-1.1208

> <Gold.PLP.part.nonpolar>
-36.2516

> <Gold.PLP.part.repulsive>
0.3050

> <Gold.PLP.ligand.clash>
0.0000

> <Gold.PLP.ligand.torsion>
0.8781

> <Gold.PLP.Chemscore.Hbond>
3.9193

> <Gold.PLP.Chemscore.CHOScore>
0.4690

> <Gold.PLP.Chemscore.Metal>
0.0000

> <Gold.Chemscore.Hbonds>
donor molecule, donor type, donor heavy atom, donor atom, acceptor molecule, acceptor atom, score
      L1  H    13    37       P1  8028  0.96
      P1  H  6896  6907       L1     1  0.54
      P1  H  7989  7998       L1    20  1.00
      P1  H 10752 10763       L1    22  1.00
      L1  C    21    49       P1  7949  0.41

> <Gold.PLP.Chemscore.Internal.Correction>
0.3765

> <Gold.Rescore>
     Score         DG    S(hbond)    S(metal)    S(lipo)     H(rot)  DE(clash)    DE(int)     intcor
     18.77     -22.82       3.08        0.00     117.70       2.62       1.97       2.08       ----

> <Gold.Chemscore.Fitness>
18.7729

> <Gold.Chemscore.DG>
-22.8239

> <Gold.Chemscore.ZeroCoef>
-5.4800

> <Gold.Chemscore.Hbond>
3.0805

> <Gold.Chemscore.Metal>
0.0000

> <Gold.Chemscore.Lipo>
117.6974

> <Gold.Chemscore.Internal_Hbond>
0.0000

> <Gold.Chemscore.DEClash>
1.9709

> <Gold.Chemscore.DEInternal>
2.0802

> <Gold.Chemscore.Rot>
2.6232

> <Gold.Chemscore.Internal.Correction>
   9.000000E+99

> <Gold.Chemscore.Hbonds>
donor molecule, donor type, donor heavy atom, donor atom, acceptor molecule, acceptor atom, score
      L1  H    13    37       P1  8028  0.46
      P1  H  6896  6907       L1     1  0.45
      P1  H  7989  7998       L1    20  0.72
      P1  H 10752 10763       L1    22  0.29

> <Gold.Chemscore.Hbond.Weighted>
-10.2888

> <Gold.Chemscore.Metal.Weighted>
-0.0000

> <Gold.Chemscore.Lipo.Weighted>
-13.7706

> <Gold.Chemscore.Internal_Hbond.Weighted>
0.0000

> <Gold.Chemscore.DEClash.Weighted>
1.9709

> <Gold.Chemscore.DEInternal.Weighted>
2.0802

> <Gold.Chemscore.Rot.Weighted>
6.7155

> <Gold.Chemscore.Internal.Correction.Weighted>
   9.000000E+99

> <Gold.Protein.RotatedTorsions>
[ 6907 6896 6895 6894 ] final -127.56 input  -60.11 | X-H torsion
[ 7974 7965 7964 7962 ] final  -70.47 input  175.53 | X-H torsion
[ 8008 7997 7996 7995 ] final  108.52 input   59.86 | X-H torsion
[ 10167 10162 10161 10158 ] final -152.24 input  -65.29 | X-H torsion
[ 10718 10713 10712 10709 ] final  -98.39 input   66.30 | X-H torsion
[ 10763 10752 10751 10750 ] final   40.94 input  -60.55 | X-H torsion
[ 11005 11000 10999 10996 ] final    1.22 input  -57.11 | X-H torsion

> <Gold.Protein.ActiveResidues>
 VAL166  LYS551  ARG553  GLY616  TRP617  ASP618  TYR619  PRO620  LYS621  CYS622 
 ASP623  PHE694  ASN695  SER759  ASP760  ASP761  ALA762  ILE779  LEU786  VAL792 
 PHE793  MET794  SER795  GLU796  ALA797  LYS798  CYS799  TRP800  GLU811  SER814 

> <Gold.Protein.RotatedAtoms>
  150.9085  133.7027  159.2860 H   0  0  0  0  0  0  0  0  0  0  0  0  # atno 6907 bound_to 6896
  151.4522  135.1029  159.9710 H   0  0  0  0  0  0  0  0  0  0  0  0  # atno 6908 bound_to 6896
  152.4917  133.8469  159.7236 H   0  0  0  0  0  0  0  0  0  0  0  0  # atno 6909 bound_to 6896
  145.6905  140.9155  143.0784 H   0  0  0  0  0  0  0  0  0  0  0  0  # atno 7974 bound_to 7965
  156.1909  140.3075  155.9331 H   0  0  0  0  0  0  0  0  0  0  0  0  # atno 8008 bound_to 7997
  155.3175  140.0454  157.3055 H   0  0  0  0  0  0  0  0  0  0  0  0  # atno 8009 bound_to 7997
  154.5451  140.2274  155.8586 H   0  0  0  0  0  0  0  0  0  0  0  0  # atno 8010 bound_to 7997
  139.7198  143.8975  152.2499 H   0  0  0  0  0  0  0  0  0  0  0  0  # atno 10167 bound_to 10162
  156.0106  130.5236  150.6516 H   0  0  0  0  0  0  0  0  0  0  0  0  # atno 10718 bound_to 10713
  152.9922  135.6176  154.2707 H   0  0  0  0  0  0  0  0  0  0  0  0  # atno 10763 bound_to 10752
  154.2440  135.2787  155.2844 H   0  0  0  0  0  0  0  0  0  0  0  0  # atno 10764 bound_to 10752
  154.5345  135.5778  153.6844 H   0  0  0  0  0  0  0  0  0  0  0  0  # atno 10765 bound_to 10752
  140.6179  133.9689  155.8209 H   0  0  0  0  0  0  0  0  0  0  0  0  # atno 11005 bound_to 11000
  144.6998  139.8815  143.7447 LP  0  0  0  0  0  0  0  0  0  0  0  0  # atno 17320 bound_to 7965
  146.0886  139.3875  143.0420 LP  0  0  0  0  0  0  0  0  0  0  0  0  # atno 17321 bound_to 7965
  139.8868  144.6987  150.8815 LP  0  0  0  0  0  0  0  0  0  0  0  0  # atno 17342 bound_to 10162
  140.7751  143.3618  151.1814 LP  0  0  0  0  0  0  0  0  0  0  0  0  # atno 17343 bound_to 10162
  157.4276  131.0845  151.1070 LP  0  0  0  0  0  0  0  0  0  0  0  0  # atno 17370 bound_to 10713
  157.1652  130.6243  149.5623 LP  0  0  0  0  0  0  0  0  0  0  0  0  # atno 17371 bound_to 10713
  141.0763  134.0130  157.3453 LP  0  0  0  0  0  0  0  0  0  0  0  0  # atno 17394 bound_to 11000
  139.9165  135.0197  156.7902 LP  0  0  0  0  0  0  0  0  0  0  0  0  # atno 17395 bound_to 11000

$$$$
