AV-unprocessed.smi:2187|AV-procd|sdf|8878|dock4
  -GOLD-   2272012 73D 1   1.00000     0.00000
 Structure written by MMmdl.
 42 43  0  0  0  0  0  0  0  0  1 V2000
  152.5264  138.3744  154.4269 C   0  0  0  0  0  0  0  0  0  0  0  0
  151.2974  137.5563  154.7034 C   0  0  0  0  0  0  0  0  0  0  0  0
  151.3869  136.2369  154.6932 N   0  0  0  0  0  0  0  0  0  0  0  0
  150.1435  135.8044  154.9827 N   0  0  0  0  0  0  0  0  0  0  0  0
  149.8895  134.3788  155.0579 C   0  0  0  0  0  0  0  0  0  0  0  0
  149.2671  136.8535  155.1825 C   0  0  0  0  0  0  0  0  0  0  0  0
  147.8293  136.6373  155.5300 C   0  0  0  0  0  0  0  0  0  0  0  0
  149.9789  138.0101  155.0050 C   0  0  0  0  0  0  0  0  0  0  0  0
  149.4964  139.4348  155.1107 C   0  0  0  0  0  0  0  0  0  0  0  0
  150.4890  140.2500  155.9386 C   0  0  0  0  0  0  0  0  0  0  0  0
  151.4798  140.7446  155.4011 O   0  0  0  0  0  0  0  0  0  0  0  0
  150.2063  140.3845  157.2437 N   0  0  0  0  0  0  0  0  0  0  0  0
  150.9819  141.1562  158.2137 C   0  0  2  0  0  0  0  0  0  0  0  0
  150.9272  142.6698  157.8825 C   0  0  0  0  0  0  0  0  0  0  0  0
  152.0981  143.5228  158.4148 C   0  0  0  0  0  0  0  0  0  0  0  0
  152.3823  143.3927  159.9253 C   0  0  0  0  0  0  0  0  0  0  0  0
  152.6389  141.9651  160.4665 C   0  0  0  0  0  0  0  0  0  0  0  0
  153.1101  141.0127  159.4618 N   0  0  0  0  0  0  0  0  0  0  0  0
  152.3955  140.5751  158.4107 C   0  0  0  0  0  0  0  0  0  0  0  0
  152.8573  139.7561  157.6167 O   0  0  0  0  0  0  0  0  0  0  0  0
  153.0218  138.6562  155.3558 H   0  0  0  0  0  0  0  0  0  0  0  0
  152.2795  139.2907  153.8914 H   0  0  0  0  0  0  0  0  0  0  0  0
  153.2470  137.8247  153.8204 H   0  0  0  0  0  0  0  0  0  0  0  0
  148.9312  134.1465  154.5931 H   0  0  0  0  0  0  0  0  0  0  0  0
  149.8646  134.0680  156.1022 H   0  0  0  0  0  0  0  0  0  0  0  0
  150.6719  133.8230  154.5397 H   0  0  0  0  0  0  0  0  0  0  0  0
  147.3527  137.5676  155.8382 H   0  0  0  0  0  0  0  0  0  0  0  0
  147.7295  135.9274  156.3512 H   0  0  0  0  0  0  0  0  0  0  0  0
  147.2798  136.2457  154.6739 H   0  0  0  0  0  0  0  0  0  0  0  0
  149.3813  139.8932  154.1279 H   0  0  0  0  0  0  0  0  0  0  0  0
  148.5138  139.4907  155.5804 H   0  0  0  0  0  0  0  0  0  0  0  0
  149.3662  139.9456  157.5920 H   0  0  0  0  0  0  0  0  0  0  0  0
  150.4818  141.0148  159.1726 H   0  0  0  0  0  0  0  0  0  0  0  0
  150.8919  142.8020  156.8000 H   0  0  0  0  0  0  0  0  0  0  0  0
  149.9878  143.0778  158.2577 H   0  0  0  0  0  0  0  0  0  0  0  0
  153.0041  143.2831  157.8565 H   0  0  0  0  0  0  0  0  0  0  0  0
  151.8961  144.5701  158.1872 H   0  0  0  0  0  0  0  0  0  0  0  0
  153.2573  144.0048  160.1468 H   0  0  0  0  0  0  0  0  0  0  0  0
  151.5648  143.8419  160.4902 H   0  0  0  0  0  0  0  0  0  0  0  0
  153.3743  142.0080  161.2701 H   0  0  0  0  0  0  0  0  0  0  0  0
  151.7330  141.5733  160.9302 H   0  0  0  0  0  0  0  0  0  0  0  0
  154.0421  140.6437  159.5835 H   0  0  0  0  0  0  0  0  0  0  0  0
  1  2  1  0  0  0  0
  1 21  1  0  0  0  0
  1 22  1  0  0  0  0
  1 23  1  0  0  0  0
  2  8  1  0  0  0  0
  2  3  2  0  0  0  0
  3  4  1  0  0  0  0
  4  5  1  0  0  0  0
  4  6  1  0  0  0  0
  5 24  1  0  0  0  0
  5 25  1  0  0  0  0
  5 26  1  0  0  0  0
  6  7  1  0  0  0  0
  6  8  2  0  0  0  0
  7 27  1  0  0  0  0
  7 28  1  0  0  0  0
  7 29  1  0  0  0  0
  8  9  1  0  0  0  0
  9 10  1  0  0  0  0
  9 30  1  0  0  0  0
  9 31  1  0  0  0  0
 10 11  2  0  0  0  0
 10 12  1  0  0  0  0
 12 13  1  0  0  0  0
 12 32  1  0  0  0  0
 13 19  1  0  0  0  0
 13 14  1  0  0  0  0
 13 33  1  0  0  0  0
 14 15  1  0  0  0  0
 14 34  1  0  0  0  0
 14 35  1  0  0  0  0
 15 16  1  0  0  0  0
 15 36  1  0  0  0  0
 15 37  1  0  0  0  0
 16 17  1  0  0  0  0
 16 38  1  0  0  0  0
 16 39  1  0  0  0  0
 17 18  1  0  0  0  0
 17 40  1  0  0  0  0
 17 41  1  0  0  0  0
 18 19  1  0  0  0  0
 18 42  1  0  0  0  0
 19 20  2  0  0  0  0
M  END
> <s_m_source_file>
AV-unprocessed.smi

> <i_m_source_file_index>
2187

> <i_lp_mmshare_version>
43012

> <i_f3d_flags>
0

> <s_epik_input>
W0NIM11jMW5uKFtDSDNdKWMoW0NIM10pYzFbQ0gyXUMoPU8pW05IXVtDQEBIXTJbQ0gyXVtDSDJdW0NIMl1bQ0gyXVtOSF1DMj1P

> <s_epik_cmdline>
J2VwaWtfcHl0aG9uJywgJy1waCcsICc3LjAnLCAnLXRuJywgJzgnLCAnLW1hJywgJzIwMCcsICctbWV0YWxfYmluZGluZycsICctaW1hZScsICc8aW5maWxlLm1hZT4nLCAnLW9tYWUnLCAnPG91dGZpbGUubWFlPic=

> <r_lp_tautomer_probability>
1

> <r_epik_Ionization_Penalty>
0.00280384

> <r_epik_Ionization_Penalty_Charging>
0

> <r_epik_Ionization_Penalty_Neutral>
0.00280384

> <r_epik_State_Penalty>
0.00195959

> <r_epik_Charging_Adjusted_Penalty>
0.00195959

> <i_epik_Tot_Q>
0

> <i_epik_Tot_abs_Q>
0

> <r_epik_Metal_State_Penalty>
-0

> <b_epik_Metal_Only>
0

> <s_lp_Force_Field>
OPLS_2005

> <r_lp_Energy>
9.17358

> <b_lp_Chiralities_Consistent>
1

> <s_lp_Variant>
AV-unprocessed.smi:2187-1

> <Gold.Version>
5.8.1

> <Gold.Id.Protein>
6NUR|6NUR_protein|mol2

> <Gold.PLP.Fitness>
43.3467

> <Gold.PLP.PLP>
-36.1673

> <Gold.PLP.part.hbond>
-3.0000

> <Gold.PLP.part.metal>
0.0000

> <Gold.PLP.part.buried>
-4.8273

> <Gold.PLP.part.nonpolar>
-29.3541

> <Gold.PLP.part.repulsive>
0.3115

> <Gold.PLP.ligand.clash>
0.0000

> <Gold.PLP.ligand.torsion>
0.5405

> <Gold.PLP.Chemscore.Hbond>
2.7360

> <Gold.PLP.Chemscore.CHOScore>
0.0000

> <Gold.PLP.Chemscore.Metal>
0.0000

> <Gold.Chemscore.Hbonds>
donor molecule, donor type, donor heavy atom, donor atom, acceptor molecule, acceptor atom, score
      P1  H  7989  7998       L1    11  0.72
      P1  H  7997  8009       L1    20  1.00
      P1  H 10752 10763       L1     3  0.99

> <Gold.PLP.Chemscore.Internal.Correction>
0.0524

> <Gold.Rescore>
     Score         DG    S(hbond)    S(metal)    S(lipo)     H(rot)  DE(clash)    DE(int)     intcor
     16.01     -20.19       2.66        0.00      81.59       1.46       0.01       4.17       ----

> <Gold.Chemscore.Fitness>
16.0136

> <Gold.Chemscore.DG>
-20.1937

> <Gold.Chemscore.ZeroCoef>
-5.4800

> <Gold.Chemscore.Hbond>
2.6647

> <Gold.Chemscore.Metal>
0.0000

> <Gold.Chemscore.Lipo>
81.5875

> <Gold.Chemscore.Internal_Hbond>
0.0000

> <Gold.Chemscore.DEClash>
0.0110

> <Gold.Chemscore.DEInternal>
4.1691

> <Gold.Chemscore.Rot>
1.4578

> <Gold.Chemscore.Internal.Correction>
   9.000000E+99

> <Gold.Chemscore.Hbonds>
donor molecule, donor type, donor heavy atom, donor atom, acceptor molecule, acceptor atom, score
      P1  H  7989  7998       L1    11  0.71
      P1  H  7997  8009       L1    20  0.95
      P1  H 10752 10763       L1     3  0.90

> <Gold.Chemscore.Hbond.Weighted>
-8.9001

> <Gold.Chemscore.Metal.Weighted>
-0.0000

> <Gold.Chemscore.Lipo.Weighted>
-9.5457

> <Gold.Chemscore.Internal_Hbond.Weighted>
0.0000

> <Gold.Chemscore.DEClash.Weighted>
0.0110

> <Gold.Chemscore.DEInternal.Weighted>
4.1691

> <Gold.Chemscore.Rot.Weighted>
3.7321

> <Gold.Chemscore.Internal.Correction.Weighted>
   9.000000E+99

> <Gold.Protein.RotatedTorsions>
[ 6907 6896 6895 6894 ] final  -96.57 input  -60.11 | X-H torsion
[ 7974 7965 7964 7962 ] final   -0.17 input  175.53 | X-H torsion
[ 8008 7997 7996 7995 ] final  161.11 input   59.86 | X-H torsion
[ 10167 10162 10161 10158 ] final  -84.83 input  -65.29 | X-H torsion
[ 10718 10713 10712 10709 ] final   85.58 input   66.30 | X-H torsion
[ 10763 10752 10751 10750 ] final   74.31 input  -60.55 | X-H torsion
[ 11005 11000 10999 10996 ] final  150.40 input  -57.11 | X-H torsion

> <Gold.Protein.ActiveResidues>
 VAL166  LYS551  ARG553  GLY616  TRP617  ASP618  TYR619  PRO620  LYS621  CYS622 
 ASP623  PHE694  ASN695  SER759  ASP760  ASP761  ALA762  ILE779  LEU786  VAL792 
 PHE793  MET794  SER795  GLU796  ALA797  LYS798  CYS799  TRP800  GLU811  SER814 

> <Gold.Protein.RotatedAtoms>
  150.6992  134.1482  159.4130 H   0  0  0  0  0  0  0  0  0  0  0  0  # atno 6907 bound_to 6896
  151.9465  135.0187  160.0548 H   0  0  0  0  0  0  0  0  0  0  0  0  # atno 6908 bound_to 6896
  152.2048  133.4832  159.5115 H   0  0  0  0  0  0  0  0  0  0  0  0  # atno 6909 bound_to 6896
  146.2429  140.1229  142.8340 H   0  0  0  0  0  0  0  0  0  0  0  0  # atno 7974 bound_to 7965
  156.2126  140.1786  156.7661 H   0  0  0  0  0  0  0  0  0  0  0  0  # atno 8008 bound_to 7997
  154.5745  140.0677  156.9042 H   0  0  0  0  0  0  0  0  0  0  0  0  # atno 8009 bound_to 7997
  155.2614  140.3336  155.4275 H   0  0  0  0  0  0  0  0  0  0  0  0  # atno 8010 bound_to 7997
  140.4095  143.2628  151.9036 H   0  0  0  0  0  0  0  0  0  0  0  0  # atno 10167 bound_to 10162
  157.6917  131.0180  150.2843 H   0  0  0  0  0  0  0  0  0  0  0  0  # atno 10718 bound_to 10713
  153.0578  135.5030  154.8023 H   0  0  0  0  0  0  0  0  0  0  0  0  # atno 10763 bound_to 10752
  154.6835  135.2972  154.9582 H   0  0  0  0  0  0  0  0  0  0  0  0  # atno 10764 bound_to 10752
  154.0360  135.6723  153.4838 H   0  0  0  0  0  0  0  0  0  0  0  0  # atno 10765 bound_to 10752
  140.1128  134.8913  157.1960 H   0  0  0  0  0  0  0  0  0  0  0  0  # atno 11005 bound_to 11000
  145.0391  140.8931  143.5063 LP  0  0  0  0  0  0  0  0  0  0  0  0  # atno 17320 bound_to 7965
  145.1306  139.2634  143.5541 LP  0  0  0  0  0  0  0  0  0  0  0  0  # atno 17321 bound_to 7965
  139.4783  144.5551  151.8326 LP  0  0  0  0  0  0  0  0  0  0  0  0  # atno 17342 bound_to 10162
  140.4653  144.1664  150.5911 LP  0  0  0  0  0  0  0  0  0  0  0  0  # atno 17343 bound_to 10162
  156.3385  130.3811  149.7429 LP  0  0  0  0  0  0  0  0  0  0  0  0  # atno 17370 bound_to 10713
  156.4946  130.8101  151.3108 LP  0  0  0  0  0  0  0  0  0  0  0  0  # atno 17371 bound_to 10713
  140.3069  134.3068  155.7276 LP  0  0  0  0  0  0  0  0  0  0  0  0  # atno 17394 bound_to 11000
  141.2134  133.7626  156.9720 LP  0  0  0  0  0  0  0  0  0  0  0  0  # atno 17395 bound_to 11000

$$$$
