AV-unprocessed.smi:1740|AV-procd|sdf|7009|dock4
  -GOLD-   22720 8223D 1   1.00000     0.00000
 Structure written by MMmdl.
 52 54  0  0  0  0  0  0  0  0  2 V2000
  155.2087  131.7734  160.8713 N   0  0  0  0  0  0  0  0  0  0  0  0
  154.4775  132.8322  160.5142 C   0  0  0  0  0  0  0  0  0  0  0  0
  153.5942  132.7658  159.6621 O   0  0  0  0  0  0  0  0  0  0  0  0
  154.7893  134.1614  161.2114 C   0  0  0  0  0  0  0  0  0  0  0  0
  153.9942  135.3145  160.7288 N   0  0  0  0  0  0  0  0  0  0  0  0
  154.4339  135.7841  159.4063 C   0  0  0  0  0  0  0  0  0  0  0  0
  153.5407  136.9374  158.9151 C   0  0  0  0  0  0  0  0  0  0  0  0
  153.5380  138.1064  159.9135 C   0  0  0  0  0  0  0  0  0  0  0  0
  152.5872  139.1366  159.5065 N   0  0  0  0  0  0  0  0  0  0  0  0
  152.8470  140.4507  159.4623 C   0  0  0  0  0  0  0  0  0  0  0  0
  153.9334  140.9437  159.7661 O   0  0  0  0  0  0  0  0  0  0  0  0
  151.7832  141.1449  159.0251 N   0  0  0  0  0  0  0  0  0  0  0  0
  151.6937  142.5494  158.8152 C   0  0  0  0  0  0  0  0  0  0  0  0
  152.3640  143.4575  159.6742 C   0  0  0  0  0  0  0  0  0  0  0  0
  152.2017  144.8441  159.4950 C   0  0  0  0  0  0  0  0  0  0  0  0
  151.3584  145.3029  158.4687 C   0  0  0  0  0  0  0  0  0  0  0  0
  150.7260  144.4137  157.6753 N   0  3  0  0  0  0  0  0  0  0  0  0
  150.8531  143.0676  157.7877 C   0  0  0  0  0  0  0  0  0  0  0  0
  150.1418  142.2572  156.8736 N   0  0  0  0  0  0  0  0  0  0  0  0
  150.8475  141.2890  156.0417 C   0  0  0  0  0  0  0  0  0  0  0  0
  149.7593  140.3713  155.4914 C   0  0  0  0  0  0  0  0  0  0  0  0
  148.7701  140.3049  156.6511 C   0  0  0  0  0  0  0  0  0  0  0  0
  148.8562  141.6985  157.2818 C   0  0  0  0  0  0  0  0  0  0  0  0
  153.1680  137.5720  161.3037 C   0  0  0  0  0  0  0  0  0  0  0  0
  154.0829  136.4030  161.7078 C   0  0  0  0  0  0  0  0  0  0  0  0
  155.0352  130.8755  160.4433 H   0  0  0  0  0  0  0  0  0  0  0  0
  155.9282  131.8747  161.5724 H   0  0  0  0  0  0  0  0  0  0  0  0
  154.6099  134.0161  162.2778 H   0  0  0  0  0  0  0  0  0  0  0  0
  155.8541  134.3774  161.1046 H   0  0  0  0  0  0  0  0  0  0  0  0
  155.4764  136.1050  159.4487 H   0  0  0  0  0  0  0  0  0  0  0  0
  154.3824  134.9817  158.6703 H   0  0  0  0  0  0  0  0  0  0  0  0
  153.8882  137.2778  157.9389 H   0  0  0  0  0  0  0  0  0  0  0  0
  152.5239  136.5694  158.7693 H   0  0  0  0  0  0  0  0  0  0  0  0
  154.5404  138.5361  159.9662 H   0  0  0  0  0  0  0  0  0  0  0  0
  151.6668  138.8217  159.2370 H   0  0  0  0  0  0  0  0  0  0  0  0
  150.9917  140.6025  158.7115 H   0  0  0  0  0  0  0  0  0  0  0  0
  152.9848  143.1082  160.4855 H   0  0  0  0  0  0  0  0  0  0  0  0
  152.7072  145.5440  160.1444 H   0  0  0  0  0  0  0  0  0  0  0  0
  151.1682  146.3460  158.2613 H   0  0  0  0  0  0  0  0  0  0  0  0
  151.4045  141.7803  155.2433 H   0  0  0  0  0  0  0  0  0  0  0  0
  151.5468  140.7058  156.6423 H   0  0  0  0  0  0  0  0  0  0  0  0
  149.2851  140.8308  154.6232 H   0  0  0  0  0  0  0  0  0  0  0  0
  150.1378  139.3926  155.1947 H   0  0  0  0  0  0  0  0  0  0  0  0
  147.7594  140.0438  156.3359 H   0  0  0  0  0  0  0  0  0  0  0  0
  149.1017  139.5547  157.3704 H   0  0  0  0  0  0  0  0  0  0  0  0
  148.7541  141.6485  158.3670 H   0  0  0  0  0  0  0  0  0  0  0  0
  148.0586  142.3330  156.8941 H   0  0  0  0  0  0  0  0  0  0  0  0
  153.2430  138.3705  162.0428 H   0  0  0  0  0  0  0  0  0  0  0  0
  152.1291  137.2380  161.3131 H   0  0  0  0  0  0  0  0  0  0  0  0
  153.7763  136.0424  162.6906 H   0  0  0  0  0  0  0  0  0  0  0  0
  155.1149  136.7457  161.8039 H   0  0  0  0  0  0  0  0  0  0  0  0
  150.1210  144.7781  156.9391 H   0  0  0  0  0  0  0  0  0  0  0  0
  1  2  1  0  0  0  0
  1 26  1  0  0  0  0
  1 27  1  0  0  0  0
  2  3  2  0  0  0  0
  2  4  1  0  0  0  0
  4  5  1  0  0  0  0
  4 28  1  0  0  0  0
  4 29  1  0  0  0  0
  5 25  1  0  0  0  0
  5  6  1  0  0  0  0
  6  7  1  0  0  0  0
  6 30  1  0  0  0  0
  6 31  1  0  0  0  0
  7  8  1  0  0  0  0
  7 32  1  0  0  0  0
  7 33  1  0  0  0  0
  8  9  1  0  0  0  0
  8 24  1  0  0  0  0
  8 34  1  0  0  0  0
  9 10  1  0  0  0  0
  9 35  1  0  0  0  0
 10 11  2  0  0  0  0
 10 12  1  0  0  0  0
 12 13  1  0  0  0  0
 12 36  1  0  0  0  0
 13 18  1  0  0  0  0
 13 14  2  0  0  0  0
 14 15  1  0  0  0  0
 14 37  1  0  0  0  0
 15 16  2  0  0  0  0
 15 38  1  0  0  0  0
 16 17  1  0  0  0  0
 16 39  1  0  0  0  0
 17 18  2  0  0  0  0
 17 52  1  0  0  0  0
 18 19  1  0  0  0  0
 19 23  1  0  0  0  0
 19 20  1  0  0  0  0
 20 21  1  0  0  0  0
 20 40  1  0  0  0  0
 20 41  1  0  0  0  0
 21 22  1  0  0  0  0
 21 42  1  0  0  0  0
 21 43  1  0  0  0  0
 22 23  1  0  0  0  0
 22 44  1  0  0  0  0
 22 45  1  0  0  0  0
 23 46  1  0  0  0  0
 23 47  1  0  0  0  0
 24 25  1  0  0  0  0
 24 48  1  0  0  0  0
 24 49  1  0  0  0  0
 25 50  1  0  0  0  0
 25 51  1  0  0  0  0
M  CHG  1  17   1
M  END
> <s_m_source_file>
AV-unprocessed.smi

> <i_m_source_file_index>
1740

> <i_lp_mmshare_version>
43012

> <i_f3d_flags>
0

> <s_epik_input>
W05IMl1DKD1PKVtDSDJdTjFbQ0gyXVtDSDJdW0NIXShbQ0gyXVtDSDJdMSlbTkhdQyg9TylbTkhdYzJbY0hdW2NIXVtjSF1uYzJOM1tDSDJdW0NIMl1bQ0gyXVtDSDJdMw==

> <s_epik_cmdline>
J2VwaWtfcHl0aG9uJywgJy1waCcsICc3LjAnLCAnLXRuJywgJzgnLCAnLW1hJywgJzIwMCcsICctbWV0YWxfYmluZGluZycsICctaW1hZScsICc8aW5maWxlLm1hZT4nLCAnLW9tYWUnLCAnPG91dGZpbGUubWFlPic=

> <r_epik_Ionization_Penalty>
1.24114

> <r_epik_Ionization_Penalty_Charging>
1.08532

> <r_epik_Ionization_Penalty_Neutral>
0.155817

> <r_epik_State_Penalty>
1.33508

> <r_epik_Charging_Adjusted_Penalty>
2.4204

> <i_epik_Tot_Q>
1

> <i_epik_Tot_abs_Q>
1

> <r_epik_Metal_State_Penalty>
1.43573

> <b_epik_Metal_Only>
0

> <s_lp_Force_Field>
OPLS_2005

> <r_lp_Energy>
46.1835

> <b_lp_Chiralities_Consistent>
1

> <s_lp_Variant>
AV-unprocessed.smi:1740-4

> <Gold.Version>
5.8.1

> <Gold.Id.Protein>
6NUR|6NUR_protein|mol2

> <Gold.PLP.Fitness>
46.8561

> <Gold.PLP.PLP>
-38.6875

> <Gold.PLP.part.hbond>
-3.0000

> <Gold.PLP.part.metal>
0.0000

> <Gold.PLP.part.buried>
-6.8567

> <Gold.PLP.part.nonpolar>
-28.4899

> <Gold.PLP.part.repulsive>
0.3775

> <Gold.PLP.ligand.clash>
0.0000

> <Gold.PLP.ligand.torsion>
0.8402

> <Gold.PLP.Chemscore.Hbond>
3.1580

> <Gold.PLP.Chemscore.CHOScore>
0.0000

> <Gold.PLP.Chemscore.Metal>
0.0000

> <Gold.Chemscore.Hbonds>
donor molecule, donor type, donor heavy atom, donor atom, acceptor molecule, acceptor atom, score
      L1  H    17    52       P1  8028  2.00
      P1  H  6896  6907       L1     3  0.26
      P1  H  6896  6909       L1     5  0.60

> <Gold.PLP.Chemscore.Internal.Correction>
0.3752

> <Gold.Rescore>
     Score         DG    S(hbond)    S(metal)    S(lipo)     H(rot)  DE(clash)    DE(int)     intcor
     13.74     -16.09       1.44        0.00      97.60       2.19       0.34       2.01       ----

> <Gold.Chemscore.Fitness>
13.7407

> <Gold.Chemscore.DG>
-16.0889

> <Gold.Chemscore.ZeroCoef>
-5.4800

> <Gold.Chemscore.Hbond>
1.4368

> <Gold.Chemscore.Metal>
0.0000

> <Gold.Chemscore.Lipo>
97.5994

> <Gold.Chemscore.Internal_Hbond>
0.0000

> <Gold.Chemscore.DEClash>
0.3358

> <Gold.Chemscore.DEInternal>
2.0125

> <Gold.Chemscore.Rot>
2.1911

> <Gold.Chemscore.Internal.Correction>
   9.000000E+99

> <Gold.Chemscore.Hbonds>
donor molecule, donor type, donor heavy atom, donor atom, acceptor molecule, acceptor atom, score
      L1  H    17    52       P1  8028  0.39
      P1  H  6896  6907       L1     3  0.26
      P1  H  6896  6909       L1     5  0.03

> <Gold.Chemscore.Hbond.Weighted>
-4.7990

> <Gold.Chemscore.Metal.Weighted>
-0.0000

> <Gold.Chemscore.Lipo.Weighted>
-11.4191

> <Gold.Chemscore.Internal_Hbond.Weighted>
0.0000

> <Gold.Chemscore.DEClash.Weighted>
0.3358

> <Gold.Chemscore.DEInternal.Weighted>
2.0125

> <Gold.Chemscore.Rot.Weighted>
5.6092

> <Gold.Chemscore.Internal.Correction.Weighted>
   9.000000E+99

> <Gold.Protein.RotatedTorsions>
[ 6907 6896 6895 6894 ] final  170.45 input  -60.11 | X-H torsion
[ 7974 7965 7964 7962 ] final  -37.98 input  175.53 | X-H torsion
[ 8008 7997 7996 7995 ] final  126.56 input   59.86 | X-H torsion
[ 10167 10162 10161 10158 ] final  -42.70 input  -65.29 | X-H torsion
[ 10718 10713 10712 10709 ] final  -45.04 input   66.30 | X-H torsion
[ 10763 10752 10751 10750 ] final  -60.14 input  -60.55 | X-H torsion
[ 11005 11000 10999 10996 ] final   81.16 input  -57.11 | X-H torsion

> <Gold.Protein.ActiveResidues>
 VAL166  LYS551  ARG553  GLY616  TRP617  ASP618  TYR619  PRO620  LYS621  CYS622 
 ASP623  PHE694  ASN695  SER759  ASP760  ASP761  ALA762  ILE779  LEU786  VAL792 
 PHE793  MET794  SER795  GLU796  ALA797  LYS798  CYS799  TRP800  GLU811  SER814 

> <Gold.Protein.RotatedAtoms>
  151.8159  133.3388  159.3569 H   0  0  0  0  0  0  0  0  0  0  0  0  # atno 6907 bound_to 6896
  150.7310  134.5619  159.5856 H   0  0  0  0  0  0  0  0  0  0  0  0  # atno 6908 bound_to 6896
  152.3041  134.7577  160.0402 H   0  0  0  0  0  0  0  0  0  0  0  0  # atno 6909 bound_to 6896
  146.0527  140.6458  142.9034 H   0  0  0  0  0  0  0  0  0  0  0  0  # atno 7974 bound_to 7965
  156.2867  140.2690  156.2130 H   0  0  0  0  0  0  0  0  0  0  0  0  # atno 8008 bound_to 7997
  155.0245  140.0386  157.2468 H   0  0  0  0  0  0  0  0  0  0  0  0  # atno 8009 bound_to 7997
  154.7407  140.2724  155.6380 H   0  0  0  0  0  0  0  0  0  0  0  0  # atno 8010 bound_to 7997
  140.6960  143.3023  151.3247 H   0  0  0  0  0  0  0  0  0  0  0  0  # atno 10167 bound_to 10162
  156.2324  130.4173  149.8859 H   0  0  0  0  0  0  0  0  0  0  0  0  # atno 10718 bound_to 10713
  154.2645  135.6302  153.5287 H   0  0  0  0  0  0  0  0  0  0  0  0  # atno 10763 bound_to 10752
  152.9890  135.5595  154.5667 H   0  0  0  0  0  0  0  0  0  0  0  0  # atno 10764 bound_to 10752
  154.5224  135.2883  155.1226 H   0  0  0  0  0  0  0  0  0  0  0  0  # atno 10765 bound_to 10752
  139.9108  134.7975  156.2004 H   0  0  0  0  0  0  0  0  0  0  0  0  # atno 11005 bound_to 11000
  144.7131  140.4113  143.7065 LP  0  0  0  0  0  0  0  0  0  0  0  0  # atno 17320 bound_to 7965
  145.6696  139.1596  143.2762 LP  0  0  0  0  0  0  0  0  0  0  0  0  # atno 17321 bound_to 7965
  139.6416  144.0529  152.2558 LP  0  0  0  0  0  0  0  0  0  0  0  0  # atno 17342 bound_to 10162
  140.0036  144.6275  150.7708 LP  0  0  0  0  0  0  0  0  0  0  0  0  # atno 17343 bound_to 10162
  156.6468  130.8727  151.3524 LP  0  0  0  0  0  0  0  0  0  0  0  0  # atno 17370 bound_to 10713
  157.7139  130.9473  150.1185 LP  0  0  0  0  0  0  0  0  0  0  0  0  # atno 17371 bound_to 10713
  141.0528  133.6880  156.1804 LP  0  0  0  0  0  0  0  0  0  0  0  0  # atno 17394 bound_to 11000
  140.6783  134.4794  157.5588 LP  0  0  0  0  0  0  0  0  0  0  0  0  # atno 17395 bound_to 11000

$$$$
