#       Name:                AV-unprocessed.smi:1820
#       Creating user name   scv26
#       Creation time:       Fri Mar 27 09:05:32 2020


#       File generated by GOLD software.
#

@<TRIPOS>MOLECULE
AV-unprocessed.smi:1820
    39    40     1
SMALL
NO_CHARGES


@<TRIPOS>ATOM
      1 ****         0.0247   1.8872  -0.7556 O.2            1 S1                 0.0000
      2 ****        -0.4209   0.7400  -0.7635 C.2            1 S1                 0.0000
      3 ****         0.3512  -0.3552  -0.7747 N.am           1 S1                 0.0000
      4 ****         1.8112  -0.3551  -0.7340 C.3            1 S1                 0.0000
      5 ****         2.3774  -0.5231   0.6998 C.3            1 S1                 0.0000
      6 ****         2.2229   0.7036   1.3868 O.3            1 S1                 0.0000
      7 ****         1.7728  -1.6899   1.4973 C.3            1 S1                 0.0000
      8 ****         2.5418  -2.9277   1.0249 C.3            1 S1                 0.0000
      9 ****         3.9143  -2.4195   0.5558 C.3            1 S1                 0.0000
     10 ****         3.8683  -0.8887   0.6665 C.3            1 S1                 0.0000
     11 ****        -1.7250   0.4142  -0.7785 N.am           1 S1                 0.0000
     12 ****        -2.8551   1.2764  -0.7579 C.ar           1 S1                 0.0000
     13 ****        -4.0862   0.7487  -1.2072 C.ar           1 S1                 0.0000
     14 ****        -5.2380   1.5614  -1.1950 C.ar           1 S1                 0.0000
     15 ****        -5.1598   2.8318  -0.7447 N.pl3          1 S1                 1.0000
     16 ****        -4.0105   3.3755  -0.2903 C.ar           1 S1                 0.0000
     17 ****        -2.8257   2.6114  -0.2792 C.ar           1 S1                 0.0000
     18 ****        -0.1000  -1.2581  -0.7859 H              1 S1                 0.0000
     19 ****         2.1319  -1.1918  -1.3551 H              1 S1                 0.0000
     20 ****         2.2210   0.5371  -1.2113 H              1 S1                 0.0000
     21 ****         2.6021   0.6162   2.2478 H              1 S1                 0.0000
     22 ****         1.9693  -1.5457   2.5610 H              1 S1                 0.0000
     23 ****         0.6936  -1.7966   1.3891 H              1 S1                 0.0000
     24 ****         2.6261  -3.6759   1.8137 H              1 S1                 0.0000
     25 ****         2.0179  -3.3926   0.1887 H              1 S1                 0.0000
     26 ****         4.7254  -2.8315   1.1572 H              1 S1                 0.0000
     27 ****         4.0895  -2.7224  -0.4772 H              1 S1                 0.0000
     28 ****         4.4123  -0.3926  -0.1383 H              1 S1                 0.0000
     29 ****         4.3457  -0.5959   1.6035 H              1 S1                 0.0000
     30 ****        -1.9322  -0.5697  -0.8673 H              1 S1                 0.0000
     31 ****        -4.1501  -0.2688  -1.5651 H              1 S1                 0.0000
     32 ****        -6.2125   1.2345  -1.5273 H              1 S1                 0.0000
     33 ****        -4.0728   4.3975   0.0538 H              1 S1                 0.0000
     34 ****        -1.9238   3.0615   0.1064 H              1 S1                 0.0000
     35 ****        -6.0051   3.4034  -0.7430 H              1 S1                 0.0000
     36 ****         1.0129   2.0398  -0.7574 LP             1 S1                 0.0000
     37 ****        -0.6016   2.6668  -0.7474 LP             1 S1                 0.0000
     38 ****         1.2509   0.9246   1.4674 LP             1 S1                 0.0000
     39 ****         2.6898   1.4319   0.8852 LP             1 S1                 0.0000
@<TRIPOS>BOND
    1    1    2 2     
    2    2    3 am    
    3    2   11 am    
    4    3    4 1     
    5    3   18 1     
    6    4    5 1     
    7    4   19 1     
    8    4   20 1     
    9    5   10 1     
   10    5    6 1     
   11    5    7 1     
   12    6   21 1     
   13    7    8 1     
   14    7   22 1     
   15    7   23 1     
   16    8    9 1     
   17    8   24 1     
   18    8   25 1     
   19    9   10 1     
   20    9   26 1     
   21    9   27 1     
   22   10   28 1     
   23   10   29 1     
   24   11   12 1     
   25   11   30 1     
   26   12   17 ar    
   27   12   13 ar    
   28   13   14 ar    
   29   13   31 1     
   30   14   15 ar    
   31   14   32 1     
   32   15   16 ar    
   33   15   35 1     
   34   16   17 ar    
   35   16   33 1     
   36   17   34 1     
   37    1   36 1     
   38    1   37 1     
   39    6   38 1     
   40    6   39 1     
@<TRIPOS>SUBSTRUCTURE
      1 S1             1
@<TRIPOS>SET
LONE_PAIRS      STATIC     ATOMS    <user>   **** ""
4 36 37 38 39
DONOR_HYDROGENS      STATIC     ATOMS    <user>   **** ""
4 18 21 30 35
ATOM$BLUE        STATIC     ATOMS    COLORGROUP SYSTEM
4 36 37 38 39
ATOM$RED        STATIC     ATOMS    COLORGROUP SYSTEM
4 18 21 30 35
