AV-unprocessed.smi:2961|AV-procd|sdf|11313|dock6
  -GOLD-   2272016213D 1   1.00000     0.00000
 Structure written by MMmdl.
 48 50  0  0  0  0  0  0  0  0  1 V2000
  146.6693  135.0819  154.1247 C   0  0  0  0  0  0  0  0  0  0  0  0
  147.7989  135.3887  155.1019 C   0  0  0  0  0  0  0  0  0  0  0  0
  147.5739  135.4377  156.3110 O   0  0  0  0  0  0  0  0  0  0  0  0
  149.0111  135.5915  154.5640 N   0  0  0  0  0  0  0  0  0  0  0  0
  150.2205  135.8864  155.3235 C   0  0  0  0  0  0  0  0  0  0  0  0
  150.9681  137.1025  154.7522 C   0  0  0  0  0  0  0  0  0  0  0  0
  150.0787  138.2975  154.5935 C   0  0  0  0  0  0  0  0  0  0  0  0
  148.8717  138.2089  154.0339 N   0  0  0  0  0  0  0  0  0  0  0  0
  148.4233  139.5150  154.0718 C   0  0  0  0  0  0  0  0  0  0  0  0
  147.2051  140.0806  153.6321 C   0  0  0  0  0  0  0  0  0  0  0  0
  146.9672  141.4633  153.7760 C   0  0  0  0  0  0  0  0  0  0  0  0
  147.9412  142.2982  154.3611 C   0  0  0  0  0  0  0  0  0  0  0  0
  149.1622  141.7552  154.8055 C   0  0  0  0  0  0  0  0  0  0  0  0
  149.3953  140.3748  154.6581 C   0  0  0  0  0  0  0  0  0  0  0  0
  150.4630  139.5414  154.9754 N   0  0  0  0  0  0  0  0  0  0  0  0
  151.7181  139.9485  155.5882 C   0  0  0  0  0  0  0  0  0  0  0  0
  151.4899  140.7616  156.8680 C   0  0  0  0  0  0  0  0  0  0  0  0
  152.5892  140.5391  157.7394 O   0  0  0  0  0  0  0  0  0  0  0  0
  152.7175  141.3458  158.8497 C   0  0  0  0  0  0  0  0  0  0  0  0
  153.3844  140.7964  159.9639 C   0  0  0  0  0  0  0  0  0  0  0  0
  153.5592  141.5474  161.1416 C   0  0  0  0  0  0  0  0  0  0  0  0
  153.0668  142.8630  161.2168 C   0  0  0  0  0  0  0  0  0  0  0  0
  152.3978  143.4280  160.1128 C   0  0  0  0  0  0  0  0  0  0  0  0
  151.8682  144.8455  160.1880 C   0  0  0  0  0  0  0  0  0  0  0  0
  152.2260  142.6734  158.9333 C   0  0  0  0  0  0  0  0  0  0  0  0
  146.6453  135.8187  153.3211 H   0  0  0  0  0  0  0  0  0  0  0  0
  145.7036  135.0991  154.6313 H   0  0  0  0  0  0  0  0  0  0  0  0
  146.8070  134.0938  153.6849 H   0  0  0  0  0  0  0  0  0  0  0  0
  149.1036  135.5326  153.5601 H   0  0  0  0  0  0  0  0  0  0  0  0
  149.9656  136.0486  156.3719 H   0  0  0  0  0  0  0  0  0  0  0  0
  150.8653  135.0076  155.2955 H   0  0  0  0  0  0  0  0  0  0  0  0
  151.7913  137.3699  155.4160 H   0  0  0  0  0  0  0  0  0  0  0  0
  151.4275  136.8617  153.7939 H   0  0  0  0  0  0  0  0  0  0  0  0
  146.4524  139.4494  153.1829 H   0  0  0  0  0  0  0  0  0  0  0  0
  146.0326  141.8848  153.4358 H   0  0  0  0  0  0  0  0  0  0  0  0
  147.7513  143.3561  154.4680 H   0  0  0  0  0  0  0  0  0  0  0  0
  149.9098  142.3924  155.2537 H   0  0  0  0  0  0  0  0  0  0  0  0
  152.3215  139.0655  155.7987 H   0  0  0  0  0  0  0  0  0  0  0  0
  152.2834  140.5386  154.8662 H   0  0  0  0  0  0  0  0  0  0  0  0
  151.4087  141.8224  156.6246 H   0  0  0  0  0  0  0  0  0  0  0  0
  150.5607  140.4487  157.3460 H   0  0  0  0  0  0  0  0  0  0  0  0
  153.7650  139.7866  159.9153 H   0  0  0  0  0  0  0  0  0  0  0  0
  154.0710  141.1135  161.9877 H   0  0  0  0  0  0  0  0  0  0  0  0
  153.2044  143.4348  162.1229 H   0  0  0  0  0  0  0  0  0  0  0  0
  150.9097  144.9261  159.6744 H   0  0  0  0  0  0  0  0  0  0  0  0
  152.5699  145.5347  159.7177 H   0  0  0  0  0  0  0  0  0  0  0  0
  151.7227  145.1561  161.2231 H   0  0  0  0  0  0  0  0  0  0  0  0
  151.7140  143.1349  158.1023 H   0  0  0  0  0  0  0  0  0  0  0  0
  1  2  1  0  0  0  0
  1 26  1  0  0  0  0
  1 27  1  0  0  0  0
  1 28  1  0  0  0  0
  2  3  2  0  0  0  0
  2  4  1  0  0  0  0
  4  5  1  0  0  0  0
  4 29  1  0  0  0  0
  5  6  1  0  0  0  0
  5 30  1  0  0  0  0
  5 31  1  0  0  0  0
  6  7  1  0  0  0  0
  6 32  1  0  0  0  0
  6 33  1  0  0  0  0
  7 15  1  0  0  0  0
  7  8  2  0  0  0  0
  8  9  1  0  0  0  0
  9 14  2  0  0  0  0
  9 10  1  0  0  0  0
 10 11  2  0  0  0  0
 10 34  1  0  0  0  0
 11 12  1  0  0  0  0
 11 35  1  0  0  0  0
 12 13  2  0  0  0  0
 12 36  1  0  0  0  0
 13 14  1  0  0  0  0
 13 37  1  0  0  0  0
 14 15  1  0  0  0  0
 15 16  1  0  0  0  0
 16 17  1  0  0  0  0
 16 38  1  0  0  0  0
 16 39  1  0  0  0  0
 17 18  1  0  0  0  0
 17 40  1  0  0  0  0
 17 41  1  0  0  0  0
 18 19  1  0  0  0  0
 19 25  1  0  0  0  0
 19 20  2  0  0  0  0
 20 21  1  0  0  0  0
 20 42  1  0  0  0  0
 21 22  2  0  0  0  0
 21 43  1  0  0  0  0
 22 23  1  0  0  0  0
 22 44  1  0  0  0  0
 23 24  1  0  0  0  0
 23 25  2  0  0  0  0
 24 45  1  0  0  0  0
 24 46  1  0  0  0  0
 24 47  1  0  0  0  0
 25 48  1  0  0  0  0
M  END
> <s_m_source_file>
AV-unprocessed.smi

> <i_m_source_file_index>
2961

> <i_lp_mmshare_version>
43012

> <i_f3d_flags>
0

> <s_epik_input>
W0NIM11DKD1PKVtOSF1bQ0gyXVtDSDJdYyhuMSluKGMoYzEyKVtjSF1bY0hdW2NIXVtjSF0yKVtDSDJdW0NIMl1PYzNbY0hdW2NIXVtjSF1jKFtDSDNdKVtjSF0z

> <s_epik_cmdline>
J2VwaWtfcHl0aG9uJywgJy1waCcsICc3LjAnLCAnLXRuJywgJzgnLCAnLW1hJywgJzIwMCcsICctbWV0YWxfYmluZGluZycsICctaW1hZScsICc8aW5maWxlLm1hZT4nLCAnLW9tYWUnLCAnPG91dGZpbGUubWFlPic=

> <r_lp_tautomer_probability>
1

> <r_epik_Ionization_Penalty>
0.0984942

> <r_epik_Ionization_Penalty_Charging>
0

> <r_epik_Ionization_Penalty_Neutral>
0.0984942

> <r_epik_State_Penalty>
0.0885769

> <r_epik_Charging_Adjusted_Penalty>
0.0885769

> <i_epik_Tot_Q>
0

> <i_epik_Tot_abs_Q>
0

> <r_epik_Metal_State_Penalty>
0.0758518

> <b_epik_Metal_Only>
0

> <s_lp_Force_Field>
OPLS_2005

> <r_lp_Energy>
13.474

> <b_lp_Chiralities_Consistent>
1

> <s_lp_Variant>
AV-unprocessed.smi:2961-1

> <Gold.Version>
5.8.1

> <Gold.Id.Protein>
6NUR|6NUR_protein|mol2

> <Gold.PLP.Fitness>
55.0927

> <Gold.PLP.PLP>
-51.2252

> <Gold.PLP.part.hbond>
-2.0000

> <Gold.PLP.part.metal>
0.0000

> <Gold.PLP.part.buried>
0.0955

> <Gold.PLP.part.nonpolar>
-49.4190

> <Gold.PLP.part.repulsive>
1.9210

> <Gold.PLP.ligand.clash>
0.0000

> <Gold.PLP.ligand.torsion>
0.8882

> <Gold.PLP.Chemscore.Hbond>
1.8143

> <Gold.PLP.Chemscore.CHOScore>
0.0000

> <Gold.PLP.Chemscore.Metal>
0.0000

> <Gold.Chemscore.Hbonds>
donor molecule, donor type, donor heavy atom, donor atom, acceptor molecule, acceptor atom, score
      L1  H     4    29       P1  7948  1.00
      P1  H  7997  8009       L1    18  0.65

> <Gold.PLP.Chemscore.Internal.Correction>
0.2010

> <Gold.Rescore>
     Score         DG    S(hbond)    S(metal)    S(lipo)     H(rot)  DE(clash)    DE(int)     intcor
     17.48     -22.31       1.63        0.00     143.51       2.11       2.28       2.55       ----

> <Gold.Chemscore.Fitness>
17.4795

> <Gold.Chemscore.DG>
-22.3131

> <Gold.Chemscore.ZeroCoef>
-5.4800

> <Gold.Chemscore.Hbond>
1.6283

> <Gold.Chemscore.Metal>
0.0000

> <Gold.Chemscore.Lipo>
143.5088

> <Gold.Chemscore.Internal_Hbond>
0.0000

> <Gold.Chemscore.DEClash>
2.2814

> <Gold.Chemscore.DEInternal>
2.5522

> <Gold.Chemscore.Rot>
2.1078

> <Gold.Chemscore.Internal.Correction>
   9.000000E+99

> <Gold.Chemscore.Hbonds>
donor molecule, donor type, donor heavy atom, donor atom, acceptor molecule, acceptor atom, score
      L1  H     4    29       P1  7948  0.64
      P1  H  7997  8009       L1    18  0.52

> <Gold.Chemscore.Hbond.Weighted>
-5.4386

> <Gold.Chemscore.Metal.Weighted>
-0.0000

> <Gold.Chemscore.Lipo.Weighted>
-16.7905

> <Gold.Chemscore.Internal_Hbond.Weighted>
0.0000

> <Gold.Chemscore.DEClash.Weighted>
2.2814

> <Gold.Chemscore.DEInternal.Weighted>
2.5522

> <Gold.Chemscore.Rot.Weighted>
5.3961

> <Gold.Chemscore.Internal.Correction.Weighted>
   9.000000E+99

> <Gold.Protein.RotatedTorsions>
[ 6907 6896 6895 6894 ] final  176.02 input  -60.11 | X-H torsion
[ 7974 7965 7964 7962 ] final   37.04 input  175.53 | X-H torsion
[ 8008 7997 7996 7995 ] final  169.68 input   59.86 | X-H torsion
[ 10167 10162 10161 10158 ] final   27.17 input  -65.29 | X-H torsion
[ 10718 10713 10712 10709 ] final   58.63 input   66.30 | X-H torsion
[ 10763 10752 10751 10750 ] final  106.39 input  -60.55 | X-H torsion
[ 11005 11000 10999 10996 ] final  115.34 input  -57.11 | X-H torsion

> <Gold.Protein.ActiveResidues>
 VAL166  LYS551  ARG553  GLY616  TRP617  ASP618  TYR619  PRO620  LYS621  CYS622 
 ASP623  PHE694  ASN695  SER759  ASP760  ASP761  ALA762  ILE779  LEU786  VAL792 
 PHE793  MET794  SER795  GLU796  ALA797  LYS798  CYS799  TRP800  GLU811  SER814 

> <Gold.Protein.RotatedAtoms>
  151.7268  133.3316  159.3329 H   0  0  0  0  0  0  0  0  0  0  0  0  # atno 6907 bound_to 6896
  150.7629  134.6399  159.6241 H   0  0  0  0  0  0  0  0  0  0  0  0  # atno 6908 bound_to 6896
  152.3617  134.6865  160.0256 H   0  0  0  0  0  0  0  0  0  0  0  0  # atno 6909 bound_to 6896
  146.1167  139.5943  142.9317 H   0  0  0  0  0  0  0  0  0  0  0  0  # atno 7974 bound_to 7965
  156.1435  140.1558  156.8883 H   0  0  0  0  0  0  0  0  0  0  0  0  # atno 8008 bound_to 7997
  154.5008  140.0826  156.7831 H   0  0  0  0  0  0  0  0  0  0  0  0  # atno 8009 bound_to 7997
  155.4033  140.3415  155.4260 H   0  0  0  0  0  0  0  0  0  0  0  0  # atno 8010 bound_to 7997
  140.4961  144.0390  150.6315 H   0  0  0  0  0  0  0  0  0  0  0  0  # atno 10167 bound_to 10162
  157.5611  130.8836  149.9113 H   0  0  0  0  0  0  0  0  0  0  0  0  # atno 10718 bound_to 10713
  153.3923  135.3878  155.1931 H   0  0  0  0  0  0  0  0  0  0  0  0  # atno 10763 bound_to 10752
  154.8720  135.3751  154.4722 H   0  0  0  0  0  0  0  0  0  0  0  0  # atno 10764 bound_to 10752
  153.5210  135.7087  153.5793 H   0  0  0  0  0  0  0  0  0  0  0  0  # atno 10765 bound_to 10752
  139.9007  134.9582  156.7029 H   0  0  0  0  0  0  0  0  0  0  0  0  # atno 11005 bound_to 11000
  145.5552  141.0409  143.2256 LP  0  0  0  0  0  0  0  0  0  0  0  0  # atno 17320 bound_to 7965
  144.7559  139.7075  143.7254 LP  0  0  0  0  0  0  0  0  0  0  0  0  # atno 17321 bound_to 7965
  140.3673  143.2874  152.0317 LP  0  0  0  0  0  0  0  0  0  0  0  0  # atno 17342 bound_to 10162
  139.4861  144.6257  151.7169 LP  0  0  0  0  0  0  0  0  0  0  0  0  # atno 17343 bound_to 10162
  156.0664  130.3691  150.0870 LP  0  0  0  0  0  0  0  0  0  0  0  0  # atno 17370 bound_to 10713
  156.9034  130.9628  151.3573 LP  0  0  0  0  0  0  0  0  0  0  0  0  # atno 17371 bound_to 10713
  140.7136  133.9202  155.8100 LP  0  0  0  0  0  0  0  0  0  0  0  0  # atno 17394 bound_to 11000
  141.0281  134.0794  157.4045 LP  0  0  0  0  0  0  0  0  0  0  0  0  # atno 17395 bound_to 11000

$$$$
