AV-unprocessed.smi:704|AV-procd|sdf|3444|dock3
  -GOLD-   22720 0433D 1   1.00000     0.00000
 Structure written by MMmdl.
 38 39  0  0  0  0  0  0  0  0  1 V2000
  146.5121  132.8751  152.1992 C   0  0  0  0  0  0  0  0  0  0  0  0
  147.5954  133.5263  152.8537 O   0  0  0  0  0  0  0  0  0  0  0  0
  148.3200  132.8183  153.7935 C   0  0  0  0  0  0  0  0  0  0  0  0
  147.9690  131.5317  154.0440 N   0  0  0  0  0  0  0  0  0  0  0  0
  148.6739  130.8405  154.9629 C   0  0  0  0  0  0  0  0  0  0  0  0
  149.7526  131.3900  155.6798 C   0  0  0  0  0  0  0  0  0  0  0  0
  150.1184  132.7239  155.4220 C   0  0  0  0  0  0  0  0  0  0  0  0
  149.3973  133.4581  154.4497 C   0  0  0  0  0  0  0  0  0  0  0  0
  149.6698  134.8165  154.1309 N   0  0  0  0  0  0  0  0  0  0  0  0
  150.5230  135.6600  154.7351 C   0  0  0  0  0  0  0  0  0  0  0  0
  151.2593  135.3737  155.6791 O   0  0  0  0  0  0  0  0  0  0  0  0
  150.5001  136.8683  154.1555 N   0  0  0  0  0  0  0  0  0  0  0  0
  151.3350  138.0044  154.5498 C   0  0  2  0  0  0  0  0  0  0  0  0
  151.4368  138.1165  156.0827 C   0  0  0  0  0  0  0  0  0  0  0  0
  151.3395  139.6086  156.4272 C   0  0  0  0  0  0  0  0  0  0  0  0
  151.4003  140.3545  155.0913 C   0  0  0  0  0  0  0  0  0  0  0  0
  150.8377  139.3840  154.0421 C   0  0  2  0  0  0  0  0  0  0  0  0
  149.3043  139.5244  153.9233 C   0  0  0  0  0  0  0  0  0  0  0  0
  148.6800  138.6659  153.1130 N   0  0  0  0  0  0  0  0  0  0  0  0
  148.6915  140.3837  154.5551 O   0  0  0  0  0  0  0  0  0  0  0  0
  146.0568  133.5622  151.4863 H   0  0  0  0  0  0  0  0  0  0  0  0
  145.7401  132.5754  152.9093 H   0  0  0  0  0  0  0  0  0  0  0  0
  146.8490  131.9985  151.6439 H   0  0  0  0  0  0  0  0  0  0  0  0
  148.3646  129.8205  155.1368 H   0  0  0  0  0  0  0  0  0  0  0  0
  150.2834  130.8035  156.4149 H   0  0  0  0  0  0  0  0  0  0  0  0
  150.9302  133.1605  155.9830 H   0  0  0  0  0  0  0  0  0  0  0  0
  149.2085  135.1663  153.3037 H   0  0  0  0  0  0  0  0  0  0  0  0
  149.8735  137.0127  153.3773 H   0  0  0  0  0  0  0  0  0  0  0  0
  152.3440  137.8466  154.1631 H   0  0  0  0  0  0  0  0  0  0  0  0
  150.6334  137.5729  156.5825 H   0  0  0  0  0  0  0  0  0  0  0  0
  152.3775  137.6912  156.4343 H   0  0  0  0  0  0  0  0  0  0  0  0
  150.3886  139.8105  156.9216 H   0  0  0  0  0  0  0  0  0  0  0  0
  152.1308  139.9278  157.1059 H   0  0  0  0  0  0  0  0  0  0  0  0
  150.8674  141.3058  155.1305 H   0  0  0  0  0  0  0  0  0  0  0  0
  152.4393  140.5811  154.8482 H   0  0  0  0  0  0  0  0  0  0  0  0
  151.2769  139.5975  153.0660 H   0  0  0  0  0  0  0  0  0  0  0  0
  147.6783  138.7193  152.9969 H   0  0  0  0  0  0  0  0  0  0  0  0
  149.2140  137.9687  152.6148 H   0  0  0  0  0  0  0  0  0  0  0  0
  1  2  1  0  0  0  0
  1 21  1  0  0  0  0
  1 22  1  0  0  0  0
  1 23  1  0  0  0  0
  2  3  1  0  0  0  0
  3  8  1  0  0  0  0
  3  4  2  0  0  0  0
  4  5  1  0  0  0  0
  5  6  2  0  0  0  0
  5 24  1  0  0  0  0
  6  7  1  0  0  0  0
  6 25  1  0  0  0  0
  7  8  2  0  0  0  0
  7 26  1  0  0  0  0
  8  9  1  0  0  0  0
  9 10  1  0  0  0  0
  9 27  1  0  0  0  0
 10 11  2  0  0  0  0
 10 12  1  0  0  0  0
 12 13  1  0  0  0  0
 12 28  1  0  0  0  0
 13 17  1  0  0  0  0
 13 14  1  0  0  0  0
 13 29  1  0  0  0  0
 14 15  1  0  0  0  0
 14 30  1  0  0  0  0
 14 31  1  0  0  0  0
 15 16  1  0  0  0  0
 15 32  1  0  0  0  0
 15 33  1  0  0  0  0
 16 17  1  0  0  0  0
 16 34  1  0  0  0  0
 16 35  1  0  0  0  0
 17 18  1  0  0  0  0
 17 36  1  0  0  0  0
 18 19  1  0  0  0  0
 18 20  2  0  0  0  0
 19 37  1  0  0  0  0
 19 38  1  0  0  0  0
M  END
> <s_m_source_file>
AV-unprocessed.smi

> <i_m_source_file_index>
704

> <i_lp_mmshare_version>
43012

> <i_f3d_flags>
0

> <s_epik_input>
W0NIM11PYzFuW2NIXVtjSF1bY0hdYzFbTkhdQyg9TylbTkhdW0NAQEhdMltDSDJdW0NIMl1bQ0gyXVtDQEhdMkMoPU8pW05IMl0=

> <s_epik_cmdline>
J2VwaWtfcHl0aG9uJywgJy1waCcsICc3LjAnLCAnLXRuJywgJzgnLCAnLW1hJywgJzIwMCcsICctbWV0YWxfYmluZGluZycsICctaW1hZScsICc8aW5maWxlLm1hZT4nLCAnLW9tYWUnLCAnPG91dGZpbGUubWFlPic=

> <r_lp_tautomer_probability>
1

> <r_epik_Ionization_Penalty>
9.09123e-05

> <r_epik_Ionization_Penalty_Charging>
0

> <r_epik_Ionization_Penalty_Neutral>
9.09123e-05

> <r_epik_State_Penalty>
-0

> <r_epik_Charging_Adjusted_Penalty>
0

> <i_epik_Tot_Q>
0

> <i_epik_Tot_abs_Q>
0

> <r_epik_Metal_State_Penalty>
-0

> <b_epik_Metal_Only>
0

> <s_lp_Force_Field>
OPLS_2005

> <r_lp_Energy>
16.4905

> <b_lp_Chiralities_Consistent>
1

> <s_lp_Variant>
AV-unprocessed.smi:704-3

> <Gold.Version>
5.8.1

> <Gold.Id.Protein>
6NUR|6NUR_protein|mol2

> <Gold.PLP.Fitness>
42.7147

> <Gold.PLP.PLP>
-32.8743

> <Gold.PLP.part.hbond>
-6.3967

> <Gold.PLP.part.metal>
0.0000

> <Gold.PLP.part.buried>
-1.2624

> <Gold.PLP.part.nonpolar>
-26.4694

> <Gold.PLP.part.repulsive>
0.8724

> <Gold.PLP.ligand.clash>
0.0000

> <Gold.PLP.ligand.torsion>
0.2837

> <Gold.PLP.Chemscore.Hbond>
3.4620

> <Gold.PLP.Chemscore.CHOScore>
0.0000

> <Gold.PLP.Chemscore.Metal>
0.0000

> <Gold.Chemscore.Hbonds>
donor molecule, donor type, donor heavy atom, donor atom, acceptor molecule, acceptor atom, score
      L1  H     9    27       P1  7948  0.85
      L1  H    12    28       P1  7948  0.93
      L1  H    19    38       P1  7948  0.80
      P1  H 10752 10764       L1    11  1.00

> <Gold.PLP.Chemscore.Internal.Correction>
0.0218

> <Gold.Rescore>
     Score         DG    S(hbond)    S(metal)    S(lipo)     H(rot)  DE(clash)    DE(int)     intcor
     12.17     -16.90       2.78        0.00      59.04       1.86       0.18       4.55       ----

> <Gold.Chemscore.Fitness>
12.1734

> <Gold.Chemscore.DG>
-16.9032

> <Gold.Chemscore.ZeroCoef>
-5.4800

> <Gold.Chemscore.Hbond>
2.7814

> <Gold.Chemscore.Metal>
0.0000

> <Gold.Chemscore.Lipo>
59.0373

> <Gold.Chemscore.Internal_Hbond>
0.0000

> <Gold.Chemscore.DEClash>
0.1802

> <Gold.Chemscore.DEInternal>
4.5496

> <Gold.Chemscore.Rot>
1.8648

> <Gold.Chemscore.Internal.Correction>
   9.000000E+99

> <Gold.Chemscore.Hbonds>
donor molecule, donor type, donor heavy atom, donor atom, acceptor molecule, acceptor atom, score
      L1  H     9    27       P1  7948  0.14
      L1  H    12    28       P1  7948  0.31
      L1  H    19    38       P1  7948  0.75
      P1  H 10752 10764       L1    11  0.57

> <Gold.Chemscore.Hbond.Weighted>
-9.2897

> <Gold.Chemscore.Metal.Weighted>
-0.0000

> <Gold.Chemscore.Lipo.Weighted>
-6.9074

> <Gold.Chemscore.Internal_Hbond.Weighted>
0.0000

> <Gold.Chemscore.DEClash.Weighted>
0.1802

> <Gold.Chemscore.DEInternal.Weighted>
4.5496

> <Gold.Chemscore.Rot.Weighted>
4.7739

> <Gold.Chemscore.Internal.Correction.Weighted>
   9.000000E+99

> <Gold.Protein.RotatedTorsions>
[ 6907 6896 6895 6894 ] final  -20.81 input  -60.11 | X-H torsion
[ 7974 7965 7964 7962 ] final   28.49 input  175.53 | X-H torsion
[ 8008 7997 7996 7995 ] final  131.19 input   59.86 | X-H torsion
[ 10167 10162 10161 10158 ] final -104.69 input  -65.29 | X-H torsion
[ 10718 10713 10712 10709 ] final -176.31 input   66.30 | X-H torsion
[ 10763 10752 10751 10750 ] final  -30.82 input  -60.55 | X-H torsion
[ 11005 11000 10999 10996 ] final  -98.88 input  -57.11 | X-H torsion

> <Gold.Protein.ActiveResidues>
 VAL166  LYS551  ARG553  GLY616  TRP617  ASP618  TYR619  PRO620  LYS621  CYS622 
 ASP623  PHE694  ASN695  SER759  ASP760  ASP761  ALA762  ILE779  LEU786  VAL792 
 PHE793  MET794  SER795  GLU796  ALA797  LYS798  CYS799  TRP800  GLU811  SER814 

> <Gold.Protein.RotatedAtoms>
  151.2426  135.0594  159.9030 H   0  0  0  0  0  0  0  0  0  0  0  0  # atno 6907 bound_to 6896
  152.5391  134.0418  159.8081 H   0  0  0  0  0  0  0  0  0  0  0  0  # atno 6908 bound_to 6896
  151.0614  133.5492  159.2665 H   0  0  0  0  0  0  0  0  0  0  0  0  # atno 6909 bound_to 6896
  146.1726  139.7049  142.8957 H   0  0  0  0  0  0  0  0  0  0  0  0  # atno 7974 bound_to 7965
  156.2966  140.2577  156.2885 H   0  0  0  0  0  0  0  0  0  0  0  0  # atno 8008 bound_to 7997
  154.9532  140.0394  157.2173 H   0  0  0  0  0  0  0  0  0  0  0  0  # atno 8009 bound_to 7997
  154.8016  140.2829  155.5922 H   0  0  0  0  0  0  0  0  0  0  0  0  # atno 8010 bound_to 7997
  140.2065  143.3778  152.1086 H   0  0  0  0  0  0  0  0  0  0  0  0  # atno 10167 bound_to 10162
  156.8127  130.9592  151.3115 H   0  0  0  0  0  0  0  0  0  0  0  0  # atno 10718 bound_to 10713
  153.7872  135.6900  153.4878 H   0  0  0  0  0  0  0  0  0  0  0  0  # atno 10763 bound_to 10752
  153.1773  135.4519  154.9981 H   0  0  0  0  0  0  0  0  0  0  0  0  # atno 10764 bound_to 10752
  154.8059  135.3356  154.7370 H   0  0  0  0  0  0  0  0  0  0  0  0  # atno 10765 bound_to 10752
  141.1329  133.8279  157.0898 H   0  0  0  0  0  0  0  0  0  0  0  0  # atno 11005 bound_to 11000
  145.4300  141.0414  143.2916 LP  0  0  0  0  0  0  0  0  0  0  0  0  # atno 17320 bound_to 7965
  144.8186  139.5832  143.6997 LP  0  0  0  0  0  0  0  0  0  0  0  0  # atno 17321 bound_to 7965
  139.5196  144.7022  151.5460 LP  0  0  0  0  0  0  0  0  0  0  0  0  # atno 17342 bound_to 10162
  140.6353  143.8995  150.6642 LP  0  0  0  0  0  0  0  0  0  0  0  0  # atno 17343 bound_to 10162
  157.6497  130.8874  149.9609 LP  0  0  0  0  0  0  0  0  0  0  0  0  # atno 17370 bound_to 10713
  156.1035  130.3654  150.0176 LP  0  0  0  0  0  0  0  0  0  0  0  0  # atno 17371 bound_to 10713
  140.0399  134.9859  157.0943 LP  0  0  0  0  0  0  0  0  0  0  0  0  # atno 17394 bound_to 11000
  140.4151  134.1940  155.7163 LP  0  0  0  0  0  0  0  0  0  0  0  0  # atno 17395 bound_to 11000

$$$$
