AV-unprocessed.smi:1598|AV-procd|sdf|6421|dock3
  -GOLD-   22720 7 63D 1   1.00000     0.00000
 Structure written by MMmdl.
 39 39  0  0  0  0  0  0  0  0  1 V2000
  159.1274  137.6639  161.2250 C   0  0  0  0  0  0  0  0  0  0  0  0
  158.4416  138.8246  161.6591 O   0  0  0  0  0  0  0  0  0  0  0  0
  158.7204  139.9568  160.8494 C   0  0  0  0  0  0  0  0  0  0  0  0
  157.7251  140.0199  159.6771 C   0  0  2  0  0  0  0  0  0  0  0  0
  158.2222  140.9198  158.5374 C   0  0  0  0  0  0  0  0  0  0  0  0
  156.4240  140.4897  160.1394 N   0  0  0  0  0  0  0  0  0  0  0  0
  155.2317  139.9651  159.8091 C   0  0  0  0  0  0  0  0  0  0  0  0
  155.1110  139.0199  159.0308 O   0  0  0  0  0  0  0  0  0  0  0  0
  153.9701  140.5707  160.4538 C   0  0  0  0  0  0  0  0  0  0  0  0
  152.7188  140.4096  159.6667 N   0  0  0  0  0  0  0  0  0  0  0  0
  152.0382  141.5620  159.1610 C   0  0  0  0  0  0  0  0  0  0  0  0
  152.6249  142.9585  159.4146 C   0  0  0  0  0  0  0  0  0  0  0  0
  151.8883  143.9039  158.8291 F   0  0  0  0  0  0  0  0  0  0  0  0
  152.6426  143.2354  160.7188 F   0  0  0  0  0  0  0  0  0  0  0  0
  153.8574  143.0809  158.9227 F   0  0  0  0  0  0  0  0  0  0  0  0
  150.9082  141.4112  158.4457 C   0  0  0  0  0  0  0  0  0  0  0  0
  150.3802  140.0985  158.1953 C   0  0  0  0  0  0  0  0  0  0  0  0
  151.0113  138.9986  158.6653 C   0  0  0  0  0  0  0  0  0  0  0  0
  150.5077  137.6259  158.4303 C   0  0  0  0  0  0  0  0  0  0  0  0
  149.6304  137.5263  157.4237 N   0  0  0  0  0  0  0  0  0  0  0  0
  150.8128  136.6079  159.0514 O   0  0  0  0  0  0  0  0  0  0  0  0
  152.2640  139.1266  159.4537 C   0  0  0  0  0  0  0  0  0  0  0  0
  152.8964  138.1647  159.9000 O   0  0  0  0  0  0  0  0  0  0  0  0
  158.8716  136.8246  161.8715 H   0  0  0  0  0  0  0  0  0  0  0  0
  160.2080  137.8060  161.2679 H   0  0  0  0  0  0  0  0  0  0  0  0
  158.8487  137.3996  160.2041 H   0  0  0  0  0  0  0  0  0  0  0  0
  158.6527  140.8679  161.4461 H   0  0  0  0  0  0  0  0  0  0  0  0
  159.7416  139.8982  160.4695 H   0  0  0  0  0  0  0  0  0  0  0  0
  157.6116  139.0137  159.2703 H   0  0  0  0  0  0  0  0  0  0  0  0
  159.1869  140.5786  158.1614 H   0  0  0  0  0  0  0  0  0  0  0  0
  158.3395  141.9530  158.8657 H   0  0  0  0  0  0  0  0  0  0  0  0
  157.5221  140.9148  157.7012 H   0  0  0  0  0  0  0  0  0  0  0  0
  156.4325  141.2618  160.7899 H   0  0  0  0  0  0  0  0  0  0  0  0
  153.8587  140.1262  161.4445 H   0  0  0  0  0  0  0  0  0  0  0  0
  154.1817  141.6092  160.6898 H   0  0  0  0  0  0  0  0  0  0  0  0
  150.3822  142.2660  158.0477 H   0  0  0  0  0  0  0  0  0  0  0  0
  149.4678  140.0361  157.6211 H   0  0  0  0  0  0  0  0  0  0  0  0
  149.2283  136.6306  157.1886 H   0  0  0  0  0  0  0  0  0  0  0  0
  149.3719  138.3525  156.9040 H   0  0  0  0  0  0  0  0  0  0  0  0
  1  2  1  0  0  0  0
  1 24  1  0  0  0  0
  1 25  1  0  0  0  0
  1 26  1  0  0  0  0
  2  3  1  0  0  0  0
  3  4  1  0  0  0  0
  3 27  1  0  0  0  0
  3 28  1  0  0  0  0
  4  5  1  0  0  0  0
  4  6  1  0  0  0  0
  4 29  1  0  0  0  0
  5 30  1  0  0  0  0
  5 31  1  0  0  0  0
  5 32  1  0  0  0  0
  6  7  1  0  0  0  0
  6 33  1  0  0  0  0
  7  8  2  0  0  0  0
  7  9  1  0  0  0  0
  9 10  1  0  0  0  0
  9 34  1  0  0  0  0
  9 35  1  0  0  0  0
 10 22  1  0  0  0  0
 10 11  1  0  0  0  0
 11 12  1  0  0  0  0
 11 16  2  0  0  0  0
 12 13  1  0  0  0  0
 12 14  1  0  0  0  0
 12 15  1  0  0  0  0
 16 17  1  0  0  0  0
 16 36  1  0  0  0  0
 17 18  2  0  0  0  0
 17 37  1  0  0  0  0
 18 19  1  0  0  0  0
 18 22  1  0  0  0  0
 19 20  1  0  0  0  0
 19 21  2  0  0  0  0
 20 38  1  0  0  0  0
 20 39  1  0  0  0  0
 22 23  2  0  0  0  0
M  END
> <s_m_source_file>
AV-unprocessed.smi

> <i_m_source_file_index>
1598

> <i_lp_mmshare_version>
43012

> <i_f3d_flags>
0

> <s_epik_input>
W0NIM11PW0NIMl1bQ0BIXShbQ0gzXSlbTkhdQyg9TylbQ0gyXW4xYyhDKEYpKEYpRilbY0hdW2NIXWMoYzE9TylDKD1PKVtOSDJd

> <s_epik_cmdline>
J2VwaWtfcHl0aG9uJywgJy1waCcsICc3LjAnLCAnLXRuJywgJzgnLCAnLW1hJywgJzIwMCcsICctbWV0YWxfYmluZGluZycsICctaW1hZScsICc8aW5maWxlLm1hZT4nLCAnLW9tYWUnLCAnPG91dGZpbGUubWFlPic=

> <r_lp_tautomer_probability>
1

> <r_epik_Ionization_Penalty>
2.07884e-06

> <r_epik_Ionization_Penalty_Charging>
8.00383e-10

> <r_epik_Ionization_Penalty_Neutral>
2.07804e-06

> <r_epik_State_Penalty>
-0

> <r_epik_Charging_Adjusted_Penalty>
8.00383e-10

> <i_epik_Tot_Q>
0

> <i_epik_Tot_abs_Q>
0

> <r_epik_Metal_State_Penalty>
-0

> <b_epik_Metal_Only>
0

> <s_lp_Force_Field>
OPLS_2005

> <r_lp_Energy>
25.9184

> <b_lp_Chiralities_Consistent>
1

> <s_lp_Variant>
AV-unprocessed.smi:1598-1

> <Gold.Version>
5.8.1

> <Gold.Id.Protein>
6NUR|6NUR_protein|mol2

> <Gold.PLP.Fitness>
40.3490

> <Gold.PLP.PLP>
-39.0771

> <Gold.PLP.part.hbond>
-2.7992

> <Gold.PLP.part.metal>
0.0000

> <Gold.PLP.part.buried>
-6.2117

> <Gold.PLP.part.nonpolar>
-29.8329

> <Gold.PLP.part.repulsive>
0.1123

> <Gold.PLP.ligand.clash>
3.8650

> <Gold.PLP.ligand.torsion>
1.0881

> <Gold.PLP.Chemscore.Hbond>
1.0723

> <Gold.PLP.Chemscore.CHOScore>
0.0000

> <Gold.PLP.Chemscore.Metal>
0.0000

> <Gold.Chemscore.Hbonds>
donor molecule, donor type, donor heavy atom, donor atom, acceptor molecule, acceptor atom, score
      P1  H  6896  6907       L1    21  0.15
      P1  H  7997  8010       L1     8  0.90

> <Gold.PLP.Chemscore.Internal.Correction>
4.0962

> <Gold.Rescore>
     Score         DG    S(hbond)    S(metal)    S(lipo)     H(rot)  DE(clash)    DE(int)     intcor
      3.39      -9.82       0.92        0.00      64.05       2.43       0.29       6.13       ----

> <Gold.Chemscore.Fitness>
3.3948

> <Gold.Chemscore.DG>
-9.8163

> <Gold.Chemscore.ZeroCoef>
-5.4800

> <Gold.Chemscore.Hbond>
0.9162

> <Gold.Chemscore.Metal>
0.0000

> <Gold.Chemscore.Lipo>
64.0524

> <Gold.Chemscore.Internal_Hbond>
0.0000

> <Gold.Chemscore.DEClash>
0.2877

> <Gold.Chemscore.DEInternal>
6.1337

> <Gold.Chemscore.Rot>
2.4289

> <Gold.Chemscore.Internal.Correction>
   9.000000E+99

> <Gold.Chemscore.Hbonds>
donor molecule, donor type, donor heavy atom, donor atom, acceptor molecule, acceptor atom, score
      P1  H  6896  6907       L1    21  0.15
      P1  H  6896  6908       L1    21  0.01
      P1  H  7997  8010       L1     8  0.18

> <Gold.Chemscore.Hbond.Weighted>
-3.0602

> <Gold.Chemscore.Metal.Weighted>
-0.0000

> <Gold.Chemscore.Lipo.Weighted>
-7.4941

> <Gold.Chemscore.Internal_Hbond.Weighted>
0.0000

> <Gold.Chemscore.DEClash.Weighted>
0.2877

> <Gold.Chemscore.DEInternal.Weighted>
6.1337

> <Gold.Chemscore.Rot.Weighted>
6.2180

> <Gold.Chemscore.Internal.Correction.Weighted>
   9.000000E+99

> <Gold.Protein.RotatedTorsions>
[ 6907 6896 6895 6894 ] final  -78.56 input  -60.11 | X-H torsion
[ 7974 7965 7964 7962 ] final  -66.50 input  175.53 | X-H torsion
[ 8008 7997 7996 7995 ] final  -16.54 input   59.86 | X-H torsion
[ 10167 10162 10161 10158 ] final   -3.34 input  -65.29 | X-H torsion
[ 10718 10713 10712 10709 ] final  144.38 input   66.30 | X-H torsion
[ 10763 10752 10751 10750 ] final -110.39 input  -60.55 | X-H torsion
[ 11005 11000 10999 10996 ] final -108.28 input  -57.11 | X-H torsion

> <Gold.Protein.ActiveResidues>
 VAL166  LYS551  ARG553  GLY616  TRP617  ASP618  TYR619  PRO620  LYS621  CYS622 
 ASP623  PHE694  ASN695  SER759  ASP760  ASP761  ALA762  ILE779  LEU786  VAL792 
 PHE793  MET794  SER795  GLU796  ALA797  LYS798  CYS799  TRP800  GLU811  SER814 

> <Gold.Protein.RotatedAtoms>
  150.6970  134.4254  159.5223 H   0  0  0  0  0  0  0  0  0  0  0  0  # atno 6907 bound_to 6896
  152.1990  134.8602  160.0519 H   0  0  0  0  0  0  0  0  0  0  0  0  # atno 6908 bound_to 6896
  151.9529  133.3636  159.4043 H   0  0  0  0  0  0  0  0  0  0  0  0  # atno 6909 bound_to 6896
  145.7409  140.8954  143.0530 H   0  0  0  0  0  0  0  0  0  0  0  0  # atno 7974 bound_to 7965
  154.5045  140.2167  155.9278 H   0  0  0  0  0  0  0  0  0  0  0  0  # atno 8008 bound_to 7997
  156.1477  140.3167  155.8563 H   0  0  0  0  0  0  0  0  0  0  0  0  # atno 8009 bound_to 7997
  155.4000  140.0483  157.3028 H   0  0  0  0  0  0  0  0  0  0  0  0  # atno 8010 bound_to 7997
  140.6886  143.6552  150.8315 H   0  0  0  0  0  0  0  0  0  0  0  0  # atno 10167 bound_to 10162
  157.3579  131.0960  151.0942 H   0  0  0  0  0  0  0  0  0  0  0  0  # atno 10718 bound_to 10713
  154.8245  135.4566  154.0878 H   0  0  0  0  0  0  0  0  0  0  0  0  # atno 10763 bound_to 10752
  153.2203  135.6893  153.8014 H   0  0  0  0  0  0  0  0  0  0  0  0  # atno 10764 bound_to 10752
  153.7433  135.3309  155.3284 H   0  0  0  0  0  0  0  0  0  0  0  0  # atno 10765 bound_to 10752
  141.0910  133.9055  157.2076 H   0  0  0  0  0  0  0  0  0  0  0  0  # atno 11005 bound_to 11000
  144.6871  139.9459  143.7476 LP  0  0  0  0  0  0  0  0  0  0  0  0  # atno 17320 bound_to 7965
  146.0448  139.3456  143.0675 LP  0  0  0  0  0  0  0  0  0  0  0  0  # atno 17321 bound_to 7965
  140.0262  143.5491  152.2780 LP  0  0  0  0  0  0  0  0  0  0  0  0  # atno 17342 bound_to 10162
  139.6267  144.7638  151.2623 LP  0  0  0  0  0  0  0  0  0  0  0  0  # atno 17343 bound_to 10162
  157.2093  130.6430  149.5768 LP  0  0  0  0  0  0  0  0  0  0  0  0  # atno 17370 bound_to 10713
  155.9732  130.4665  150.6292 LP  0  0  0  0  0  0  0  0  0  0  0  0  # atno 17371 bound_to 10713
  139.9736  135.0121  156.9574 LP  0  0  0  0  0  0  0  0  0  0  0  0  # atno 17394 bound_to 11000
  140.5252  134.0868  155.7302 LP  0  0  0  0  0  0  0  0  0  0  0  0  # atno 17395 bound_to 11000

$$$$
