#       Name:                AV-unprocessed.smi:629
#       Creating user name   scv26
#       Creation time:       Fri Mar 27 00:04:06 2020


#       File generated by GOLD software.
#

@<TRIPOS>MOLECULE
AV-unprocessed.smi:629
    37    38     1
SMALL
NO_CHARGES


@<TRIPOS>ATOM
      1 ****        -3.9403   1.4279  -2.3595 C.3            1 S1                 0.0000
      2 ****        -3.4254   0.1138  -2.0081 N.am           1 S1                 0.0000
      3 ****        -3.5445  -0.4445  -0.7939 C.2            1 S1                 0.0000
      4 ****        -4.1166   0.1039   0.1481 O.2            1 S1                 0.0000
      5 ****        -2.9364  -1.8374  -0.6137 C.3            1 S1                 0.0000
      6 ****        -1.4420  -1.7724  -0.6141 C.2            1 S1                 0.0000
      7 ****        -0.7416  -2.0128  -1.7170 N.2            1 S1                 0.0000
      8 ****         0.5866  -1.8419  -1.3015 O.3            1 S1                 0.0000
      9 ****         0.5253  -1.5402   0.0176 C.2            1 S1                 0.0000
     10 ****         1.7917  -1.2439   0.7505 C.3            1 S1                 0.0000
     11 ****         2.2536   0.2150   0.5794 C.3            1 S1                 0.0000
     12 ****         1.5341   1.1673   1.5011 C.2            1 S1                 0.0000
     13 ****         2.3648   1.9168   2.2221 C.2            1 S1                 0.0000
     14 ****         3.8083   1.6159   1.9315 C.3            1 S1                 0.0000
     15 ****         3.7458   0.4280   0.9460 C.3            1 S1                 0.0000
     16 ****        -0.7139  -1.4713   0.4970 N.2            1 S1                 0.0000
     17 ****        -3.6702   1.6696  -3.3872 H              1 S1                 0.0000
     18 ****        -3.5236   2.1970  -1.7077 H              1 S1                 0.0000
     19 ****        -5.0275   1.4524  -2.2774 H              1 S1                 0.0000
     20 ****        -2.9410  -0.4012  -2.7294 H              1 S1                 0.0000
     21 ****        -3.2798  -2.2727   0.3260 H              1 S1                 0.0000
     22 ****        -3.2824  -2.4951  -1.4123 H              1 S1                 0.0000
     23 ****         1.6701  -1.4946   1.8054 H              1 S1                 0.0000
     24 ****         2.5557  -1.9179   0.3610 H              1 S1                 0.0000
     25 ****         2.0943   0.5400  -0.4500 H              1 S1                 0.0000
     26 ****         0.4560   1.2247   1.5394 H              1 S1                 0.0000
     27 ****         2.0648   2.6722   2.9334 H              1 S1                 0.0000
     28 ****         4.2852   2.4879   1.4834 H              1 S1                 0.0000
     29 ****         4.3411   1.3570   2.8468 H              1 S1                 0.0000
     30 ****         4.1583  -0.4604   1.4257 H              1 S1                 0.0000
     31 ****         4.3492   0.6178   0.0575 H              1 S1                 0.0000
     32 ****        -4.5210   1.0106   0.0281 LP             1 S1                 0.0000
     33 ****        -4.1770  -0.3573   1.0333 LP             1 S1                 0.0000
     34 ****        -1.0804  -2.2571  -2.6256 LP             1 S1                 0.0000
     35 ****         1.0171  -1.0959  -1.8096 LP             1 S1                 0.0000
     36 ****         1.1065  -2.6845  -1.4421 LP             1 S1                 0.0000
     37 ****        -1.0262  -1.2566   1.4224 LP             1 S1                 0.0000
@<TRIPOS>BOND
    1    1    2 1     
    2    1   17 1     
    3    1   18 1     
    4    1   19 1     
    5    2    3 am    
    6    2   20 1     
    7    3    4 2     
    8    3    5 1     
    9    5    6 1     
   10    5   21 1     
   11    5   22 1     
   12    6   16 1     
   13    6    7 2     
   14    7    8 1     
   15    8    9 1     
   16    9   10 1     
   17    9   16 2     
   18   10   11 1     
   19   10   23 1     
   20   10   24 1     
   21   11   15 1     
   22   11   12 1     
   23   11   25 1     
   24   12   13 2     
   25   12   26 1     
   26   13   14 1     
   27   13   27 1     
   28   14   15 1     
   29   14   28 1     
   30   14   29 1     
   31   15   30 1     
   32   15   31 1     
   33    4   32 1     
   34    4   33 1     
   35    7   34 1     
   36    8   35 1     
   37    8   36 1     
   38   16   37 1     
@<TRIPOS>SUBSTRUCTURE
      1 S1             1
@<TRIPOS>SET
LONE_PAIRS      STATIC     ATOMS    <user>   **** ""
6 32 33 34 35 36 37
DONOR_HYDROGENS      STATIC     ATOMS    <user>   **** ""
1 20
ATOM$BLUE        STATIC     ATOMS    COLORGROUP SYSTEM
6 32 33 34 35 36 37
ATOM$RED        STATIC     ATOMS    COLORGROUP SYSTEM
1 20
