AV-unprocessed.smi:155|AV-procd|sdf|1283|dock2
  -GOLD-   2262018553D 1   1.00000     0.00000
 Structure written by MMmdl.
 64 67  0  0  0  0  0  0  0  0  3 V2000
  146.4592  129.8490  151.7486 C   0  0  0  0  0  0  0  0  0  0  0  0
  146.8848  131.2536  151.5454 N   0  3  0  0  0  0  0  0  0  0  0  0
  145.7969  132.0661  150.9556 C   0  0  0  0  0  0  0  0  0  0  0  0
  147.4545  131.8791  152.7673 C   0  0  0  0  0  0  0  0  0  0  0  0
  147.6352  133.4059  152.6234 C   0  0  0  0  0  0  0  0  0  0  0  0
  148.5559  133.9838  153.6397 N   0  3  2  0  0  0  0  0  0  0  0  0
  149.5840  133.0131  154.1186 C   0  0  0  0  0  0  0  0  0  0  0  0
  150.3186  133.4403  155.4058 C   0  0  0  0  0  0  0  0  0  0  0  0
  150.9709  134.8303  155.3294 C   0  0  0  0  0  0  0  0  0  0  0  0
  150.0397  135.8944  154.9512 N   0  0  0  0  0  0  0  0  0  0  0  0
  150.6186  137.1197  154.9007 C   0  0  0  0  0  0  0  0  0  0  0  0
  151.7947  137.2863  154.2394 N   0  0  0  0  0  0  0  0  0  0  0  0
  152.3619  138.4948  154.1685 C   0  0  0  0  0  0  0  0  0  0  0  0
  151.9315  139.6501  154.6800 N   0  0  0  0  0  0  0  0  0  0  0  0
  150.7541  139.4865  155.3479 C   0  0  0  0  0  0  0  0  0  0  0  0
  150.0358  138.2681  155.5054 C   0  0  0  0  0  0  0  0  0  0  0  0
  148.8873  138.4877  156.2574 N   0  0  0  0  0  0  0  0  0  0  0  0
  148.9189  139.7666  156.5191 C   0  0  0  0  0  0  0  0  0  0  0  0
  150.0082  140.4407  156.0153 N   0  0  0  0  0  0  0  0  0  0  0  0
  150.2995  141.8558  156.1599 C   0  0  0  0  0  0  0  0  0  0  0  0
  151.4740  142.1168  157.1271 C   0  0  2  0  0  0  0  0  0  0  0  0
  151.4145  141.2356  158.2317 O   0  0  0  0  0  0  0  0  0  0  0  0
  151.5574  143.5663  157.6489 C   0  0  1  0  0  0  0  0  0  0  0  0
  150.3707  143.9880  158.5174 C   0  0  0  0  0  0  0  0  0  0  0  0
  150.9687  145.1174  159.3246 C   0  0  0  0  0  0  0  0  0  0  0  0
  152.3777  144.5963  159.5883 C   0  0  0  0  0  0  0  0  0  0  0  0
  152.7033  143.7666  158.4761 O   0  0  0  0  0  0  0  0  0  0  0  0
  148.6398  135.8287  155.3873 C   0  0  0  0  0  0  0  0  0  0  0  0
  147.8279  134.6775  154.7400 C   0  0  0  0  0  0  0  0  0  0  0  0
  145.6713  129.7835  152.5002 H   0  0  0  0  0  0  0  0  0  0  0  0
  147.2886  129.2192  152.0677 H   0  0  0  0  0  0  0  0  0  0  0  0
  146.0742  129.4276  150.8191 H   0  0  0  0  0  0  0  0  0  0  0  0
  144.9553  132.1529  151.6443 H   0  0  0  0  0  0  0  0  0  0  0  0
  145.4360  131.6156  150.0303 H   0  0  0  0  0  0  0  0  0  0  0  0
  146.1476  133.0701  150.7139 H   0  0  0  0  0  0  0  0  0  0  0  0
  146.7748  131.6844  153.5971 H   0  0  0  0  0  0  0  0  0  0  0  0
  148.4002  131.3980  153.0218 H   0  0  0  0  0  0  0  0  0  0  0  0
  148.0430  133.6188  151.6359 H   0  0  0  0  0  0  0  0  0  0  0  0
  146.6692  133.9106  152.6758 H   0  0  0  0  0  0  0  0  0  0  0  0
  149.1120  132.0461  154.2977 H   0  0  0  0  0  0  0  0  0  0  0  0
  150.3203  132.8628  153.3290 H   0  0  0  0  0  0  0  0  0  0  0  0
  149.6458  133.3933  156.2625 H   0  0  0  0  0  0  0  0  0  0  0  0
  151.0949  132.7060  155.6227 H   0  0  0  0  0  0  0  0  0  0  0  0
  151.4203  135.0747  156.2933 H   0  0  0  0  0  0  0  0  0  0  0  0
  151.7874  134.7890  154.6089 H   0  0  0  0  0  0  0  0  0  0  0  0
  153.2932  138.5434  153.6235 H   0  0  0  0  0  0  0  0  0  0  0  0
  148.1477  140.2562  157.0967 H   0  0  0  0  0  0  0  0  0  0  0  0
  150.5182  142.2590  155.1710 H   0  0  0  0  0  0  0  0  0  0  0  0
  149.3963  142.3585  156.5080 H   0  0  0  0  0  0  0  0  0  0  0  0
  152.4100  141.8885  156.6157 H   0  0  0  0  0  0  0  0  0  0  0  0
  152.1562  140.6520  158.1881 H   0  0  0  0  0  0  0  0  0  0  0  0
  151.6220  144.2646  156.8122 H   0  0  0  0  0  0  0  0  0  0  0  0
  149.5042  144.2949  157.9309 H   0  0  0  0  0  0  0  0  0  0  0  0
  150.0622  143.1808  159.1824 H   0  0  0  0  0  0  0  0  0  0  0  0
  151.0097  146.0266  158.7234 H   0  0  0  0  0  0  0  0  0  0  0  0
  150.4155  145.3346  160.2388 H   0  0  0  0  0  0  0  0  0  0  0  0
  153.1023  145.4015  159.7106 H   0  0  0  0  0  0  0  0  0  0  0  0
  152.3950  143.9844  160.4911 H   0  0  0  0  0  0  0  0  0  0  0  0
  148.6033  135.7478  156.4745 H   0  0  0  0  0  0  0  0  0  0  0  0
  148.1413  136.7665  155.1365 H   0  0  0  0  0  0  0  0  0  0  0  0
  146.9003  135.1104  154.3638 H   0  0  0  0  0  0  0  0  0  0  0  0
  147.5179  133.9493  155.4910 H   0  0  0  0  0  0  0  0  0  0  0  0
  147.6221  131.2401  150.8548 H   0  0  0  0  0  0  0  0  0  0  0  0
  149.0626  134.7199  153.1681 H   0  0  0  0  0  0  0  0  0  0  0  0
  1  2  1  0  0  0  0
  1 30  1  0  0  0  0
  1 31  1  0  0  0  0
  1 32  1  0  0  0  0
  2  3  1  0  0  0  0
  2  4  1  0  0  0  0
  2 63  1  0  0  0  0
  3 33  1  0  0  0  0
  3 34  1  0  0  0  0
  3 35  1  0  0  0  0
  4  5  1  0  0  0  0
  4 36  1  0  0  0  0
  4 37  1  0  0  0  0
  5  6  1  0  0  0  0
  5 38  1  0  0  0  0
  5 39  1  0  0  0  0
  6 29  1  0  0  0  0
  6  7  1  0  0  0  0
  6 64  1  0  0  0  0
  7  8  1  0  0  0  0
  7 40  1  0  0  0  0
  7 41  1  0  0  0  0
  8  9  1  0  0  0  0
  8 42  1  0  0  0  0
  8 43  1  0  0  0  0
  9 10  1  0  0  0  0
  9 44  1  0  0  0  0
  9 45  1  0  0  0  0
 10 11  1  0  0  0  0
 10 28  1  0  0  0  0
 11 16  1  0  0  0  0
 11 12  2  0  0  0  0
 12 13  1  0  0  0  0
 13 14  2  0  0  0  0
 13 46  1  0  0  0  0
 14 15  1  0  0  0  0
 15 19  1  0  0  0  0
 15 16  2  0  0  0  0
 16 17  1  0  0  0  0
 17 18  2  0  0  0  0
 18 19  1  0  0  0  0
 18 47  1  0  0  0  0
 19 20  1  0  0  0  0
 20 21  1  0  0  0  0
 20 48  1  0  0  0  0
 20 49  1  0  0  0  0
 21 22  1  0  0  0  0
 21 23  1  0  0  0  0
 21 50  1  0  0  0  0
 22 51  1  0  0  0  0
 23 27  1  0  0  0  0
 23 24  1  0  0  0  0
 23 52  1  0  0  0  0
 24 25  1  0  0  0  0
 24 53  1  0  0  0  0
 24 54  1  0  0  0  0
 25 26  1  0  0  0  0
 25 55  1  0  0  0  0
 25 56  1  0  0  0  0
 26 27  1  0  0  0  0
 26 57  1  0  0  0  0
 26 58  1  0  0  0  0
 28 29  1  0  0  0  0
 28 59  1  0  0  0  0
 28 60  1  0  0  0  0
 29 61  1  0  0  0  0
 29 62  1  0  0  0  0
M  CHG  1   2   1
M  CHG  1   6   1
M  END
> <s_m_source_file>
AV-unprocessed.smi

> <i_m_source_file_index>
155

> <i_lp_mmshare_version>
43012

> <i_f3d_flags>
0

> <s_epik_input>
W0NIM11OKFtDSDNdKVtDSDJdW0NIMl1OMVtDSDJdW0NIMl1bQ0gyXU4oW0NIMl1bQ0gyXTEpYyhuW2NIXW4yKWMoYzIzKW5bY0hdbjNbQ0gyXVtDQEhdKFtPSF0pW0NAQEhdNFtDSDJdW0NIMl1bQ0gyXU80

> <s_epik_cmdline>
J2VwaWtfcHl0aG9uJywgJy1waCcsICc3LjAnLCAnLXRuJywgJzgnLCAnLW1hJywgJzIwMCcsICctbWV0YWxfYmluZGluZycsICctaW1hZScsICc8aW5maWxlLm1hZT4nLCAnLW9tYWUnLCAnPG91dGZpbGUubWFlPic=

> <r_lp_tautomer_probability>
1

> <r_epik_Ionization_Penalty>
3.0333

> <r_epik_Ionization_Penalty_Charging>
3.03317

> <r_epik_Ionization_Penalty_Neutral>
0.000131872

> <r_epik_State_Penalty>
1.99939

> <r_epik_Charging_Adjusted_Penalty>
5.03256

> <i_epik_Tot_Q>
2

> <i_epik_Tot_abs_Q>
2

> <r_epik_Metal_State_Penalty>
2.00021

> <b_epik_Metal_Only>
0

> <s_lp_Force_Field>
OPLS_2005

> <r_lp_Energy>
67.9245

> <b_lp_Chiralities_Consistent>
1

> <s_lp_Variant>
AV-unprocessed.smi:155-17

> <Gold.Version>
5.8.1

> <Gold.Id.Protein>
6NUR|6NUR_protein|mol2

> <Gold.PLP.Fitness>
63.4230

> <Gold.PLP.PLP>
-51.0203

> <Gold.PLP.part.hbond>
-4.0000

> <Gold.PLP.part.metal>
0.0000

> <Gold.PLP.part.buried>
-8.7695

> <Gold.PLP.part.nonpolar>
-38.8539

> <Gold.PLP.part.repulsive>
0.2190

> <Gold.PLP.ligand.clash>
0.0000

> <Gold.PLP.ligand.torsion>
1.4591

> <Gold.PLP.Chemscore.Hbond>
4.8873

> <Gold.PLP.Chemscore.CHOScore>
0.0000

> <Gold.PLP.Chemscore.Metal>
0.0000

> <Gold.Chemscore.Hbonds>
donor molecule, donor type, donor heavy atom, donor atom, acceptor molecule, acceptor atom, score
      L1  H     2    63       P1 10747  0.98
      L1  H     6    64       P1  7948  1.21
      P1  H  7989  7998       L1    14  0.94
      P1  H 10752 10765       L1    12  0.98

> <Gold.PLP.Chemscore.Internal.Correction>
0.6591

> <Gold.Rescore>
     Score         DG    S(hbond)    S(metal)    S(lipo)     H(rot)  DE(clash)    DE(int)     intcor
     15.49     -18.42       1.91        0.00     116.13       2.75       0.21       2.71       ----

> <Gold.Chemscore.Fitness>
15.4940

> <Gold.Chemscore.DG>
-18.4200

> <Gold.Chemscore.ZeroCoef>
-5.4800

> <Gold.Chemscore.Hbond>
1.9135

> <Gold.Chemscore.Metal>
0.0000

> <Gold.Chemscore.Lipo>
116.1291

> <Gold.Chemscore.Internal_Hbond>
0.0000

> <Gold.Chemscore.DEClash>
0.2134

> <Gold.Chemscore.DEInternal>
2.7127

> <Gold.Chemscore.Rot>
2.7493

> <Gold.Chemscore.Internal.Correction>
   9.000000E+99

> <Gold.Chemscore.Hbonds>
donor molecule, donor type, donor heavy atom, donor atom, acceptor molecule, acceptor atom, score
      L1  H     2    63       P1 10747  0.91
      L1  H     6    64       P1  7948  0.05
      P1  H  7989  7998       L1    14  0.47
      P1  H 10752 10765       L1    12  0.65

> <Gold.Chemscore.Hbond.Weighted>
-6.3911

> <Gold.Chemscore.Metal.Weighted>
-0.0000

> <Gold.Chemscore.Lipo.Weighted>
-13.5871

> <Gold.Chemscore.Internal_Hbond.Weighted>
0.0000

> <Gold.Chemscore.DEClash.Weighted>
0.2134

> <Gold.Chemscore.DEInternal.Weighted>
2.7127

> <Gold.Chemscore.Rot.Weighted>
7.0383

> <Gold.Chemscore.Internal.Correction.Weighted>
   9.000000E+99

> <Gold.Protein.RotatedTorsions>
[ 6907 6896 6895 6894 ] final  164.20 input  -60.11 | X-H torsion
[ 7974 7965 7964 7962 ] final   85.07 input  175.53 | X-H torsion
[ 8008 7997 7996 7995 ] final   46.77 input   59.86 | X-H torsion
[ 10167 10162 10161 10158 ] final -178.14 input  -65.29 | X-H torsion
[ 10718 10713 10712 10709 ] final -117.29 input   66.30 | X-H torsion
[ 10763 10752 10751 10750 ] final  170.95 input  -60.55 | X-H torsion
[ 11005 11000 10999 10996 ] final  -48.89 input  -57.11 | X-H torsion

> <Gold.Protein.ActiveResidues>
 VAL166  LYS551  ARG553  GLY616  TRP617  ASP618  TYR619  PRO620  LYS621  CYS622 
 ASP623  PHE694  ASN695  SER759  ASP760  ASP761  ALA762  ILE779  LEU786  VAL792 
 PHE793  MET794  SER795  GLU796  ALA797  LYS798  CYS799  TRP800  GLU811  SER814 

> <Gold.Protein.RotatedAtoms>
  151.9136  133.3567  159.3871 H   0  0  0  0  0  0  0  0  0  0  0  0  # atno 6907 bound_to 6896
  150.7052  134.4707  159.5433 H   0  0  0  0  0  0  0  0  0  0  0  0  # atno 6908 bound_to 6896
  152.2318  134.8315  160.0523 H   0  0  0  0  0  0  0  0  0  0  0  0  # atno 6909 bound_to 6896
  145.5903  139.2337  143.2303 H   0  0  0  0  0  0  0  0  0  0  0  0  # atno 7974 bound_to 7965
  155.3580  140.3417  155.4240 H   0  0  0  0  0  0  0  0  0  0  0  0  # atno 8008 bound_to 7997
  156.1728  140.1637  156.8450 H   0  0  0  0  0  0  0  0  0  0  0  0  # atno 8009 bound_to 7997
  154.5251  140.0758  156.8226 H   0  0  0  0  0  0  0  0  0  0  0  0  # atno 8010 bound_to 7997
  139.5446  144.2269  152.0963 H   0  0  0  0  0  0  0  0  0  0  0  0  # atno 10167 bound_to 10162
  156.1023  130.6182  150.9145 H   0  0  0  0  0  0  0  0  0  0  0  0  # atno 10718 bound_to 10713
  154.4050  135.2755  155.2073 H   0  0  0  0  0  0  0  0  0  0  0  0  # atno 10763 bound_to 10752
  154.4083  135.6028  153.5941 H   0  0  0  0  0  0  0  0  0  0  0  0  # atno 10764 bound_to 10752
  152.9831  135.5943  154.4323 H   0  0  0  0  0  0  0  0  0  0  0  0  # atno 10765 bound_to 10752
  141.0727  133.6674  156.3507 H   0  0  0  0  0  0  0  0  0  0  0  0  # atno 11005 bound_to 11000
  146.1651  140.6729  142.9259 LP  0  0  0  0  0  0  0  0  0  0  0  0  # atno 17320 bound_to 7965
  144.7354  140.4793  143.6907 LP  0  0  0  0  0  0  0  0  0  0  0  0  # atno 17321 bound_to 7965
  140.1754  144.4896  150.6557 LP  0  0  0  0  0  0  0  0  0  0  0  0  # atno 17342 bound_to 10162
  140.6690  143.2278  151.5672 LP  0  0  0  0  0  0  0  0  0  0  0  0  # atno 17343 bound_to 10162
  157.6195  131.0931  150.8648 LP  0  0  0  0  0  0  0  0  0  0  0  0  # atno 17370 bound_to 10713
  156.8774  130.5167  149.5293 LP  0  0  0  0  0  0  0  0  0  0  0  0  # atno 17371 bound_to 10713
  140.5638  134.5908  157.5440 LP  0  0  0  0  0  0  0  0  0  0  0  0  # atno 17394 bound_to 11000
  139.9540  134.7567  156.0383 LP  0  0  0  0  0  0  0  0  0  0  0  0  # atno 17395 bound_to 11000

$$$$
