AV-unprocessed.smi:686|AV-procd|sdf|3339|dock10
  -GOLD-   22720 0313D 1   1.00000     0.00000
 Structure written by MMmdl.
 41 42  0  0  0  0  0  0  0  0  2 V2000
  149.7795  140.6261  157.2647 C   0  0  0  0  0  0  0  0  0  0  0  0
  150.6200  141.1122  158.4533 C   0  0  2  0  0  0  0  0  0  0  0  0
  150.7741  142.6317  158.5187 C   0  0  0  0  0  0  0  0  0  0  0  0
  151.9995  142.8580  159.3110 N   0  3  2  0  0  0  0  0  0  0  0  0
  152.5642  144.2355  159.2365 C   0  0  0  0  0  0  0  0  0  0  0  0
  151.6586  145.2508  159.9587 C   0  0  0  0  0  0  0  0  0  0  0  0
  152.7810  144.6822  157.7785 C   0  0  0  0  0  0  0  0  0  0  0  0
  152.9296  141.7768  158.9138 C   0  0  0  0  0  0  0  0  0  0  0  0
  152.0651  140.5869  158.4567 C   0  0  1  0  0  0  0  0  0  0  0  0
  152.1913  139.4517  159.3752 N   0  0  0  0  0  0  0  0  0  0  0  0
  151.6500  137.9036  158.8390 S   0  0  0  0  0  0  0  0  0  0  0  0
  152.0505  136.9220  159.8580 O   0  0  0  0  0  0  0  0  0  0  0  0
  150.2339  138.0310  158.4611 O   0  0  0  0  0  0  0  0  0  0  0  0
  152.6466  137.6359  157.3130 C   0  0  0  0  0  0  0  0  0  0  0  0
  151.9699  138.2975  156.1467 C   0  0  0  0  0  0  0  0  0  0  0  0
  151.0425  137.7343  155.2268 C   0  0  0  0  0  0  0  0  0  0  0  0
  150.7540  138.7731  154.3893 C   0  0  0  0  0  0  0  0  0  0  0  0
  151.4405  139.8844  154.7572 O   0  0  0  0  0  0  0  0  0  0  0  0
  152.2130  139.5712  155.8813 N   0  0  0  0  0  0  0  0  0  0  0  0
  150.2193  140.9312  156.3148 H   0  0  0  0  0  0  0  0  0  0  0  0
  148.7680  141.0308  157.3095 H   0  0  0  0  0  0  0  0  0  0  0  0
  149.7019  139.5386  157.2617 H   0  0  0  0  0  0  0  0  0  0  0  0
  150.1233  140.8011  159.3745 H   0  0  0  0  0  0  0  0  0  0  0  0
  150.9078  143.0443  157.5169 H   0  0  0  0  0  0  0  0  0  0  0  0
  149.9005  143.1048  158.9683 H   0  0  0  0  0  0  0  0  0  0  0  0
  153.5349  144.2335  159.7349 H   0  0  0  0  0  0  0  0  0  0  0  0
  152.0547  146.2625  159.8661 H   0  0  0  0  0  0  0  0  0  0  0  0
  151.5775  145.0412  161.0253 H   0  0  0  0  0  0  0  0  0  0  0  0
  150.6516  145.2520  159.5402 H   0  0  0  0  0  0  0  0  0  0  0  0
  153.1452  145.7093  157.7351 H   0  0  0  0  0  0  0  0  0  0  0  0
  151.8533  144.6369  157.2069 H   0  0  0  0  0  0  0  0  0  0  0  0
  153.5213  144.0665  157.2678 H   0  0  0  0  0  0  0  0  0  0  0  0
  153.5494  142.1089  158.0792 H   0  0  0  0  0  0  0  0  0  0  0  0
  153.5975  141.5261  159.7388 H   0  0  0  0  0  0  0  0  0  0  0  0
  152.3650  140.2748  157.4548 H   0  0  0  0  0  0  0  0  0  0  0  0
  151.7953  139.6760  160.2882 H   0  0  0  0  0  0  0  0  0  0  0  0
  153.6407  138.0526  157.4733 H   0  0  0  0  0  0  0  0  0  0  0  0
  152.7560  136.5625  157.1548 H   0  0  0  0  0  0  0  0  0  0  0  0
  150.6526  136.7281  155.1864 H   0  0  0  0  0  0  0  0  0  0  0  0
  150.1116  138.8751  153.5272 H   0  0  0  0  0  0  0  0  0  0  0  0
  151.7512  142.6817  160.2740 H   0  0  0  0  0  0  0  0  0  0  0  0
  1  2  1  0  0  0  0
  1 20  1  0  0  0  0
  1 21  1  0  0  0  0
  1 22  1  0  0  0  0
  2  9  1  0  0  0  0
  2  3  1  0  0  0  0
  2 23  1  0  0  0  0
  3  4  1  0  0  0  0
  3 24  1  0  0  0  0
  3 25  1  0  0  0  0
  4  5  1  0  0  0  0
  4  8  1  0  0  0  0
  4 41  1  0  0  0  0
  5  6  1  0  0  0  0
  5  7  1  0  0  0  0
  5 26  1  0  0  0  0
  6 27  1  0  0  0  0
  6 28  1  0  0  0  0
  6 29  1  0  0  0  0
  7 30  1  0  0  0  0
  7 31  1  0  0  0  0
  7 32  1  0  0  0  0
  8  9  1  0  0  0  0
  8 33  1  0  0  0  0
  8 34  1  0  0  0  0
  9 10  1  0  0  0  0
  9 35  1  0  0  0  0
 10 11  1  0  0  0  0
 10 36  1  0  0  0  0
 11 12  2  0  0  0  0
 11 13  2  0  0  0  0
 11 14  1  0  0  0  0
 14 15  1  0  0  0  0
 14 37  1  0  0  0  0
 14 38  1  0  0  0  0
 15 19  2  0  0  0  0
 15 16  1  0  0  0  0
 16 17  2  0  0  0  0
 16 39  1  0  0  0  0
 17 18  1  0  0  0  0
 17 40  1  0  0  0  0
 18 19  1  0  0  0  0
M  CHG  1   4   1
M  END
> <s_m_source_file>
AV-unprocessed.smi

> <i_m_source_file_index>
686

> <i_lp_mmshare_version>
43012

> <i_f3d_flags>
0

> <s_epik_input>
W0NIM11bQ0BASF0xW0NIMl1OKFtDSF0oW0NIM10pW0NIM10pW0NIMl1bQ0BIXTFbTkhdUyg9TykoPU8pW0NIMl1jMltjSF1bY0hdb24y

> <s_epik_cmdline>
J2VwaWtfcHl0aG9uJywgJy1waCcsICc3LjAnLCAnLXRuJywgJzgnLCAnLW1hJywgJzIwMCcsICctbWV0YWxfYmluZGluZycsICctaW1hZScsICc8aW5maWxlLm1hZT4nLCAnLW9tYWUnLCAnPG91dGZpbGUubWFlPic=

> <r_epik_Ionization_Penalty>
0.00200818

> <r_epik_Ionization_Penalty_Charging>
0.000701289

> <r_epik_Ionization_Penalty_Neutral>
0.00130689

> <r_epik_State_Penalty>
0.00131314

> <r_epik_Charging_Adjusted_Penalty>
0.00201443

> <i_epik_Tot_Q>
1

> <i_epik_Tot_abs_Q>
1

> <r_epik_Metal_State_Penalty>
0.310831

> <b_epik_Metal_Only>
0

> <s_lp_Force_Field>
OPLS_2005

> <r_lp_Energy>
20.8584

> <b_lp_Chiralities_Consistent>
1

> <s_lp_Variant>
AV-unprocessed.smi:686-3

> <Gold.Version>
5.8.1

> <Gold.Id.Protein>
6NUR|6NUR_protein|mol2

> <Gold.PLP.Fitness>
44.3264

> <Gold.PLP.PLP>
-35.1376

> <Gold.PLP.part.hbond>
-2.7686

> <Gold.PLP.part.metal>
0.0000

> <Gold.PLP.part.buried>
-6.7663

> <Gold.PLP.part.nonpolar>
-25.4053

> <Gold.PLP.part.repulsive>
0.1268

> <Gold.PLP.ligand.clash>
0.0000

> <Gold.PLP.ligand.torsion>
1.1404

> <Gold.PLP.Chemscore.Hbond>
2.9913

> <Gold.PLP.Chemscore.CHOScore>
0.7675

> <Gold.PLP.Chemscore.Metal>
0.0000

> <Gold.Chemscore.Hbonds>
donor molecule, donor type, donor heavy atom, donor atom, acceptor molecule, acceptor atom, score
      P1  H  6896  6909       L1    12  1.00
      P1  H  7989  7998       L1    18  1.00
      P1  H  7997  8010       L1    19  0.44
      L1  C    17    40       P1  7957  0.64

> <Gold.PLP.Chemscore.Internal.Correction>
0.1933

> <Gold.Rescore>
     Score         DG    S(hbond)    S(metal)    S(lipo)     H(rot)  DE(clash)    DE(int)     intcor
     18.24     -21.50       2.91        0.00      95.85       1.91       0.04       3.22       ----

> <Gold.Chemscore.Fitness>
18.2392

> <Gold.Chemscore.DG>
-21.5049

> <Gold.Chemscore.ZeroCoef>
-5.4800

> <Gold.Chemscore.Hbond>
2.9054

> <Gold.Chemscore.Metal>
0.0000

> <Gold.Chemscore.Lipo>
95.8482

> <Gold.Chemscore.Internal_Hbond>
0.0000

> <Gold.Chemscore.DEClash>
0.0441

> <Gold.Chemscore.DEInternal>
3.2216

> <Gold.Chemscore.Rot>
1.9115

> <Gold.Chemscore.Internal.Correction>
   9.000000E+99

> <Gold.Chemscore.Hbonds>
donor molecule, donor type, donor heavy atom, donor atom, acceptor molecule, acceptor atom, score
      P1  H  6896  6909       L1    12  1.00
      P1  H  7989  7998       L1    18  0.77
      P1  H  7997  8010       L1    19  0.39

> <Gold.Chemscore.Hbond.Weighted>
-9.7042

> <Gold.Chemscore.Metal.Weighted>
-0.0000

> <Gold.Chemscore.Lipo.Weighted>
-11.2142

> <Gold.Chemscore.Internal_Hbond.Weighted>
0.0000

> <Gold.Chemscore.DEClash.Weighted>
0.0441

> <Gold.Chemscore.DEInternal.Weighted>
3.2216

> <Gold.Chemscore.Rot.Weighted>
4.8935

> <Gold.Chemscore.Internal.Correction.Weighted>
   9.000000E+99

> <Gold.Protein.RotatedTorsions>
[ 6907 6896 6895 6894 ] final  127.04 input  -60.11 | X-H torsion
[ 7974 7965 7964 7962 ] final  164.74 input  175.53 | X-H torsion
[ 8008 7997 7996 7995 ] final   93.87 input   59.86 | X-H torsion
[ 10167 10162 10161 10158 ] final  -62.09 input  -65.29 | X-H torsion
[ 10718 10713 10712 10709 ] final  159.40 input   66.30 | X-H torsion
[ 10763 10752 10751 10750 ] final  -25.59 input  -60.55 | X-H torsion
[ 11005 11000 10999 10996 ] final  -41.44 input  -57.11 | X-H torsion

> <Gold.Protein.ActiveResidues>
 VAL166  LYS551  ARG553  GLY616  TRP617  ASP618  TYR619  PRO620  LYS621  CYS622 
 ASP623  PHE694  ASN695  SER759  ASP760  ASP761  ALA762  ILE779  LEU786  VAL792 
 PHE793  MET794  SER795  GLU796  ALA797  LYS798  CYS799  TRP800  GLU811  SER814 

> <Gold.Protein.RotatedAtoms>
  152.3849  133.6597  159.6190 H   0  0  0  0  0  0  0  0  0  0  0  0  # atno 6907 bound_to 6896
  150.7770  133.9052  159.3362 H   0  0  0  0  0  0  0  0  0  0  0  0  # atno 6908 bound_to 6896
  151.6851  135.0957  160.0274 H   0  0  0  0  0  0  0  0  0  0  0  0  # atno 6909 bound_to 6896
  144.7532  139.8369  143.6359 H   0  0  0  0  0  0  0  0  0  0  0  0  # atno 7974 bound_to 7965
  156.0516  140.3307  155.7357 H   0  0  0  0  0  0  0  0  0  0  0  0  # atno 8008 bound_to 7997
  155.5593  140.0617  157.2850 H   0  0  0  0  0  0  0  0  0  0  0  0  # atno 8009 bound_to 7997
  154.4438  140.1880  156.0754 H   0  0  0  0  0  0  0  0  0  0  0  0  # atno 8010 bound_to 7997
  140.5963  143.2351  151.6029 H   0  0  0  0  0  0  0  0  0  0  0  0  # atno 10167 bound_to 10162
  157.1647  131.0596  151.2214 H   0  0  0  0  0  0  0  0  0  0  0  0  # atno 10718 bound_to 10713
  153.7022  135.6955  153.5060 H   0  0  0  0  0  0  0  0  0  0  0  0  # atno 10763 bound_to 10752
  153.2334  135.4330  155.0619 H   0  0  0  0  0  0  0  0  0  0  0  0  # atno 10764 bound_to 10752
  154.8341  135.3490  154.6561 H   0  0  0  0  0  0  0  0  0  0  0  0  # atno 10765 bound_to 10752
  141.0246  133.6847  156.2457 H   0  0  0  0  0  0  0  0  0  0  0  0  # atno 11005 bound_to 11000
  146.1510  139.4593  143.0049 LP  0  0  0  0  0  0  0  0  0  0  0  0  # atno 17320 bound_to 7965
  145.6870  141.0175  143.1576 LP  0  0  0  0  0  0  0  0  0  0  0  0  # atno 17321 bound_to 7965
  139.5260  144.3058  152.1035 LP  0  0  0  0  0  0  0  0  0  0  0  0  # atno 17342 bound_to 10162
  140.2231  144.4446  150.6333 LP  0  0  0  0  0  0  0  0  0  0  0  0  # atno 17343 bound_to 10162
  157.4099  130.7379  149.6831 LP  0  0  0  0  0  0  0  0  0  0  0  0  # atno 17370 bound_to 10713
  155.9748  130.4098  150.3897 LP  0  0  0  0  0  0  0  0  0  0  0  0  # atno 17371 bound_to 10713
  140.6514  134.5063  157.5577 LP  0  0  0  0  0  0  0  0  0  0  0  0  # atno 17394 bound_to 11000
  139.9167  134.8231  156.1342 LP  0  0  0  0  0  0  0  0  0  0  0  0  # atno 17395 bound_to 11000

$$$$
