AV-unprocessed.smi:146|AV-procd|sdf|1200|dock2
  -GOLD-   2262018363D 1   1.00000     0.00000
 Structure written by MMmdl.
 55 59  0  0  0  0  0  0  0  0  1 V2000
  147.6577  135.9192  163.5821 C   0  0  0  0  0  0  0  0  0  0  0  0
  146.8972  135.7623  162.2558 C   0  0  0  0  0  0  0  0  0  0  0  0
  145.7809  136.8250  162.1958 C   0  0  0  0  0  0  0  0  0  0  0  0
  147.8806  135.9150  161.0778 C   0  0  0  0  0  0  0  0  0  0  0  0
  147.2692  135.4605  159.8372 N   0  0  0  0  0  0  0  0  0  0  0  0
  147.8693  135.8999  158.7037 C   0  0  0  0  0  0  0  0  0  0  0  0
  149.0487  135.3555  158.3015 N   0  0  0  0  0  0  0  0  0  0  0  0
  149.6483  135.7923  157.1902 C   0  0  0  0  0  0  0  0  0  0  0  0
  149.2471  136.7431  156.3447 N   0  0  0  0  0  0  0  0  0  0  0  0
  148.0583  137.2848  156.7347 C   0  0  0  0  0  0  0  0  0  0  0  0
  147.3110  136.9276  157.8926 C   0  0  0  0  0  0  0  0  0  0  0  0
  146.1519  137.6914  157.9622 N   0  0  0  0  0  0  0  0  0  0  0  0
  146.2169  138.4641  156.9127 C   0  0  0  0  0  0  0  0  0  0  0  0
  147.3221  138.2782  156.1123 N   0  0  0  0  0  0  0  0  0  0  0  0
  147.6376  138.9977  154.8873 C   0  0  0  0  0  0  0  0  0  0  0  0
  147.9949  140.4840  155.0998 C   0  0  0  0  0  0  0  0  0  0  0  0
  149.3932  140.6275  155.7264 C   0  0  0  0  0  0  0  0  0  0  0  0
  150.3997  140.1275  154.8688 O   0  0  0  0  0  0  0  0  0  0  0  0
  147.7264  141.4122  153.9073 C   0  0  0  0  0  0  0  0  0  0  0  0
  146.9976  142.3486  154.7288 O   0  0  0  0  0  0  0  0  0  0  0  0
  146.9145  141.3488  155.7659 C   0  0  0  0  0  0  0  0  0  0  0  0
  146.8477  134.0679  159.9057 C   0  0  0  0  0  0  0  0  0  0  0  0
  145.8639  133.8546  161.0767 C   0  0  1  0  0  0  0  0  0  0  0  0
  144.4378  134.3156  160.7562 C   0  0  0  0  0  0  0  0  0  0  0  0
  143.6684  133.0419  160.3952 C   0  0  0  0  0  0  0  0  0  0  0  0
  144.6314  132.0014  160.3981 O   0  0  0  0  0  0  0  0  0  0  0  0
  145.6451  132.3586  161.3206 C   0  0  0  0  0  0  0  0  0  0  0  0
  146.3691  134.4270  162.2916 O   0  0  0  0  0  0  0  0  0  0  0  0
  148.1221  136.9027  163.6613 H   0  0  0  0  0  0  0  0  0  0  0  0
  148.4474  135.1728  163.6757 H   0  0  0  0  0  0  0  0  0  0  0  0
  146.9906  135.7979  164.4363 H   0  0  0  0  0  0  0  0  0  0  0  0
  146.1911  137.8268  162.3272 H   0  0  0  0  0  0  0  0  0  0  0  0
  145.0421  136.6661  162.9817 H   0  0  0  0  0  0  0  0  0  0  0  0
  145.2597  136.8280  161.2400 H   0  0  0  0  0  0  0  0  0  0  0  0
  148.2205  136.9483  161.0090 H   0  0  0  0  0  0  0  0  0  0  0  0
  148.7710  135.3100  161.2553 H   0  0  0  0  0  0  0  0  0  0  0  0
  150.5834  135.3112  156.9436 H   0  0  0  0  0  0  0  0  0  0  0  0
  145.4495  139.1901  156.6862 H   0  0  0  0  0  0  0  0  0  0  0  0
  148.4548  138.4756  154.3880 H   0  0  0  0  0  0  0  0  0  0  0  0
  146.7824  138.9030  154.2171 H   0  0  0  0  0  0  0  0  0  0  0  0
  149.6173  141.6763  155.9240 H   0  0  0  0  0  0  0  0  0  0  0  0
  149.4575  140.1212  156.6896 H   0  0  0  0  0  0  0  0  0  0  0  0
  150.2256  139.2134  154.7028 H   0  0  0  0  0  0  0  0  0  0  0  0
  148.6247  141.8484  153.4686 H   0  0  0  0  0  0  0  0  0  0  0  0
  147.0917  140.9716  153.1365 H   0  0  0  0  0  0  0  0  0  0  0  0
  145.9257  140.8896  155.7942 H   0  0  0  0  0  0  0  0  0  0  0  0
  147.1932  141.7339  156.7477 H   0  0  0  0  0  0  0  0  0  0  0  0
  146.3847  133.7583  158.9674 H   0  0  0  0  0  0  0  0  0  0  0  0
  147.7340  133.4469  160.0447 H   0  0  0  0  0  0  0  0  0  0  0  0
  143.9671  134.7778  161.6243 H   0  0  0  0  0  0  0  0  0  0  0  0
  144.4139  135.0414  159.9428 H   0  0  0  0  0  0  0  0  0  0  0  0
  142.9045  132.8294  161.1442 H   0  0  0  0  0  0  0  0  0  0  0  0
  143.1808  133.1119  159.4226 H   0  0  0  0  0  0  0  0  0  0  0  0
  146.5467  131.7606  161.1856 H   0  0  0  0  0  0  0  0  0  0  0  0
  145.2752  132.1808  162.3319 H   0  0  0  0  0  0  0  0  0  0  0  0
  1  2  1  0  0  0  0
  1 29  1  0  0  0  0
  1 30  1  0  0  0  0
  1 31  1  0  0  0  0
  2 28  1  0  0  0  0
  2  3  1  0  0  0  0
  2  4  1  0  0  0  0
  3 32  1  0  0  0  0
  3 33  1  0  0  0  0
  3 34  1  0  0  0  0
  4  5  1  0  0  0  0
  4 35  1  0  0  0  0
  4 36  1  0  0  0  0
  5  6  1  0  0  0  0
  5 22  1  0  0  0  0
  6 11  1  0  0  0  0
  6  7  2  0  0  0  0
  7  8  1  0  0  0  0
  8  9  2  0  0  0  0
  8 37  1  0  0  0  0
  9 10  1  0  0  0  0
 10 14  1  0  0  0  0
 10 11  2  0  0  0  0
 11 12  1  0  0  0  0
 12 13  2  0  0  0  0
 13 14  1  0  0  0  0
 13 38  1  0  0  0  0
 14 15  1  0  0  0  0
 15 16  1  0  0  0  0
 15 39  1  0  0  0  0
 15 40  1  0  0  0  0
 16 21  1  0  0  0  0
 16 17  1  0  0  0  0
 16 19  1  0  0  0  0
 17 18  1  0  0  0  0
 17 41  1  0  0  0  0
 17 42  1  0  0  0  0
 18 43  1  0  0  0  0
 19 20  1  0  0  0  0
 19 44  1  0  0  0  0
 19 45  1  0  0  0  0
 20 21  1  0  0  0  0
 21 46  1  0  0  0  0
 21 47  1  0  0  0  0
 22 23  1  0  0  0  0
 22 48  1  0  0  0  0
 22 49  1  0  0  0  0
 23 27  1  0  0  0  0
 23 24  1  0  0  0  0
 23 28  1  0  0  0  0
 24 25  1  0  0  0  0
 24 50  1  0  0  0  0
 24 51  1  0  0  0  0
 25 26  1  0  0  0  0
 25 52  1  0  0  0  0
 25 53  1  0  0  0  0
 26 27  1  0  0  0  0
 27 54  1  0  0  0  0
 27 55  1  0  0  0  0
M  END
> <s_m_source_file>
AV-unprocessed.smi

> <i_m_source_file_index>
146

> <i_lp_mmshare_version>
43012

> <i_f3d_flags>
0

> <s_epik_input>
W0NIMl0xT1tDSDJdW0NIMl1bQ0BAXTEyW0NIMl1OKFtDSDJdQyhPMikoW0NIM10pW0NIM10pYyhuW2NIXW4zKWMoYzM0KW5bY0hdbjRbQ0gyXUM1KFtDSDJdW09IXSlbQ0gyXU9bQ0gyXTU=

> <s_epik_cmdline>
J2VwaWtfcHl0aG9uJywgJy1waCcsICc3LjAnLCAnLXRuJywgJzgnLCAnLW1hJywgJzIwMCcsICctbWV0YWxfYmluZGluZycsICctaW1hZScsICc8aW5maWxlLm1hZT4nLCAnLW9tYWUnLCAnPG91dGZpbGUubWFlPic=

> <r_lp_tautomer_probability>
1

> <r_epik_Ionization_Penalty>
0.00353822

> <r_epik_Ionization_Penalty_Charging>
0

> <r_epik_Ionization_Penalty_Neutral>
0.00353822

> <r_epik_State_Penalty>
0.0023805

> <r_epik_Charging_Adjusted_Penalty>
0.0023805

> <i_epik_Tot_Q>
0

> <i_epik_Tot_abs_Q>
0

> <r_epik_Metal_State_Penalty>
-0

> <b_epik_Metal_Only>
0

> <s_lp_Force_Field>
OPLS_2005

> <r_lp_Energy>
57.4997

> <b_lp_Chiralities_Consistent>
1

> <s_lp_Variant>
AV-unprocessed.smi:146-2

> <Gold.Version>
5.8.1

> <Gold.Id.Protein>
6NUR|6NUR_protein|mol2

> <Gold.PLP.Fitness>
35.4362

> <Gold.PLP.PLP>
-29.9070

> <Gold.PLP.part.hbond>
-2.0000

> <Gold.PLP.part.metal>
0.0000

> <Gold.PLP.part.buried>
-3.2450

> <Gold.PLP.part.nonpolar>
-25.0796

> <Gold.PLP.part.repulsive>
0.2152

> <Gold.PLP.ligand.clash>
0.0000

> <Gold.PLP.ligand.torsion>
0.5589

> <Gold.PLP.Chemscore.Hbond>
2.0000

> <Gold.PLP.Chemscore.CHOScore>
0.0000

> <Gold.PLP.Chemscore.Metal>
0.0000

> <Gold.Chemscore.Hbonds>
donor molecule, donor type, donor heavy atom, donor atom, acceptor molecule, acceptor atom, score
      P1  H  6896  6908       L1     7  0.52
      P1  H  7989  7998       L1    18  1.00

> <Gold.PLP.Chemscore.Internal.Correction>
0.6470

> <Gold.Rescore>
     Score         DG    S(hbond)    S(metal)    S(lipo)     H(rot)  DE(clash)    DE(int)     intcor
     13.65     -15.20       1.59        0.00      91.16       2.44       0.94       0.61       ----

> <Gold.Chemscore.Fitness>
13.6513

> <Gold.Chemscore.DG>
-15.2005

> <Gold.Chemscore.ZeroCoef>
-5.4800

> <Gold.Chemscore.Hbond>
1.5854

> <Gold.Chemscore.Metal>
0.0000

> <Gold.Chemscore.Lipo>
91.1579

> <Gold.Chemscore.Internal_Hbond>
0.0000

> <Gold.Chemscore.DEClash>
0.9415

> <Gold.Chemscore.DEInternal>
0.6077

> <Gold.Chemscore.Rot>
2.4376

> <Gold.Chemscore.Internal.Correction>
   9.000000E+99

> <Gold.Chemscore.Hbonds>
donor molecule, donor type, donor heavy atom, donor atom, acceptor molecule, acceptor atom, score
      P1  H  6896  6908       L1     7  0.23
      P1  H  7989  7998       L1    18  0.76

> <Gold.Chemscore.Hbond.Weighted>
-5.2952

> <Gold.Chemscore.Metal.Weighted>
-0.0000

> <Gold.Chemscore.Lipo.Weighted>
-10.6655

> <Gold.Chemscore.Internal_Hbond.Weighted>
0.0000

> <Gold.Chemscore.DEClash.Weighted>
0.9415

> <Gold.Chemscore.DEInternal.Weighted>
0.6077

> <Gold.Chemscore.Rot.Weighted>
6.2402

> <Gold.Chemscore.Internal.Correction.Weighted>
   9.000000E+99

> <Gold.Protein.RotatedTorsions>
[ 6907 6896 6895 6894 ] final  178.45 input  -60.11 | X-H torsion
[ 7974 7965 7964 7962 ] final  153.24 input  175.53 | X-H torsion
[ 8008 7997 7996 7995 ] final  -90.62 input   59.86 | X-H torsion
[ 10167 10162 10161 10158 ] final   23.14 input  -65.29 | X-H torsion
[ 10718 10713 10712 10709 ] final   18.10 input   66.30 | X-H torsion
[ 10763 10752 10751 10750 ] final    3.30 input  -60.55 | X-H torsion
[ 11005 11000 10999 10996 ] final  -69.59 input  -57.11 | X-H torsion

> <Gold.Protein.ActiveResidues>
 VAL166  LYS551  ARG553  GLY616  TRP617  ASP618  TYR619  PRO620  LYS621  CYS622 
 ASP623  PHE694  ASN695  SER759  ASP760  ASP761  ALA762  ILE779  LEU786  VAL792 
 PHE793  MET794  SER795  GLU796  ALA797  LYS798  CYS799  TRP800  GLU811  SER814 

> <Gold.Protein.RotatedAtoms>
  151.6876  133.3311  159.3234 H   0  0  0  0  0  0  0  0  0  0  0  0  # atno 6907 bound_to 6896
  150.7793  134.6726  159.6409 H   0  0  0  0  0  0  0  0  0  0  0  0  # atno 6908 bound_to 6896
  152.3846  134.6540  160.0182 H   0  0  0  0  0  0  0  0  0  0  0  0  # atno 6909 bound_to 6896
  144.8168  139.6774  143.6118 H   0  0  0  0  0  0  0  0  0  0  0  0  # atno 7974 bound_to 7965
  154.7008  140.0528  157.0456 H   0  0  0  0  0  0  0  0  0  0  0  0  # atno 8008 bound_to 7997
  155.0687  140.3197  155.4618 H   0  0  0  0  0  0  0  0  0  0  0  0  # atno 8009 bound_to 7997
  156.2759  140.2085  156.5815 H   0  0  0  0  0  0  0  0  0  0  0  0  # atno 8010 bound_to 7997
  140.5292  143.9870  150.6456 H   0  0  0  0  0  0  0  0  0  0  0  0  # atno 10167 bound_to 10162
  157.0915  130.6430  149.5850 H   0  0  0  0  0  0  0  0  0  0  0  0  # atno 10718 bound_to 10713
  153.2850  135.6944  153.7348 H   0  0  0  0  0  0  0  0  0  0  0  0  # atno 10763 bound_to 10752
  153.6321  135.3408  155.3046 H   0  0  0  0  0  0  0  0  0  0  0  0  # atno 10764 bound_to 10752
  154.8507  135.4411  154.1915 H   0  0  0  0  0  0  0  0  0  0  0  0  # atno 10765 bound_to 10752
  141.1557  133.6768  156.6622 H   0  0  0  0  0  0  0  0  0  0  0  0  # atno 11005 bound_to 11000
  146.2471  139.6122  142.9452 LP  0  0  0  0  0  0  0  0  0  0  0  0  # atno 17320 bound_to 7965
  145.5196  141.0432  143.2442 LP  0  0  0  0  0  0  0  0  0  0  0  0  # atno 17321 bound_to 7965
  140.3240  143.3119  152.0755 LP  0  0  0  0  0  0  0  0  0  0  0  0  # atno 17342 bound_to 10162
  139.4948  144.6554  151.6584 LP  0  0  0  0  0  0  0  0  0  0  0  0  # atno 17343 bound_to 10162
  155.9897  130.4945  150.7224 LP  0  0  0  0  0  0  0  0  0  0  0  0  # atno 17370 bound_to 10713
  157.4717  131.0894  151.0635 LP  0  0  0  0  0  0  0  0  0  0  0  0  # atno 17371 bound_to 10713
  140.3238  134.7985  157.4273 LP  0  0  0  0  0  0  0  0  0  0  0  0  # atno 17394 bound_to 11000
  140.1074  134.5391  155.8297 LP  0  0  0  0  0  0  0  0  0  0  0  0  # atno 17395 bound_to 11000

$$$$
