#       Name:                AV-unprocessed.smi:2289
#       Creating user name   scv26
#       Creation time:       Fri Mar 27 12:42:37 2020


#       File generated by GOLD software.
#

@<TRIPOS>MOLECULE
AV-unprocessed.smi:2289
    45    46     1
SMALL
NO_CHARGES


@<TRIPOS>ATOM
      1 ****        -3.1908   4.1695  -0.5063 C.3            1 S1                 0.0000
      2 ****        -2.6649   2.8549   0.0422 C.2            1 S1                 0.0000
      3 ****        -1.9101   2.9486   1.2146 N.2            1 S1                 0.0000
      4 ****        -1.4179   1.8804   1.7510 C.2            1 S1                 0.0000
      5 ****        -1.6156   0.6095   1.1861 N.am           1 S1                 0.0000
      6 ****        -0.9994  -0.5165   1.9143 C.3            1 S1                 0.0000
      7 ****         0.5054  -0.7359   1.6085 C.3            1 S1                 0.0000
      8 ****         1.2754  -0.0101   2.5465 O.3            1 S1                 0.0000
      9 ****         0.9612  -0.4093   0.1683 C.3            1 S1                 0.0000
     10 ****         2.2769  -1.0807  -0.2060 C.ar           1 S1                 0.0000
     11 ****         3.4755  -0.4178   0.1370 C.ar           1 S1                 0.0000
     12 ****         4.7249  -0.9808  -0.1769 C.ar           1 S1                 0.0000
     13 ****         4.7856  -2.2160  -0.8433 C.ar           1 S1                 0.0000
     14 ****         3.5980  -2.8841  -1.1936 C.ar           1 S1                 0.0000
     15 ****         2.3325  -2.3328  -0.8810 C.ar           1 S1                 0.0000
     16 ****         1.0678  -3.0904  -1.2915 C.3            1 S1                 0.0000
     17 ****         1.3528  -4.3078  -1.7557 F              1 S1                 0.0000
     18 ****         0.2434  -3.2425  -0.2554 F              1 S1                 0.0000
     19 ****         0.4368  -2.4237  -2.2581 F              1 S1                 0.0000
     20 ****        -2.3511   0.4283   0.0496 C.2            1 S1                 0.0000
     21 ****        -2.5299  -0.6897  -0.4378 O.2            1 S1                 0.0000
     22 ****        -2.9017   1.6536  -0.5520 C.2            1 S1                 0.0000
     23 ****        -3.7165   1.4910  -1.8293 C.3            1 S1                 0.0000
     24 ****        -4.2808   4.1643  -0.5291 H              1 S1                 0.0000
     25 ****        -2.8205   4.3377  -1.5178 H              1 S1                 0.0000
     26 ****        -2.8729   5.0126   0.1084 H              1 S1                 0.0000
     27 ****        -0.8228   1.8979   2.6657 H              1 S1                 0.0000
     28 ****        -1.1585  -0.4083   2.9893 H              1 S1                 0.0000
     29 ****        -1.5264  -1.4408   1.6731 H              1 S1                 0.0000
     30 ****         0.7124  -1.7880   1.8074 H              1 S1                 0.0000
     31 ****         1.0651  -0.3215   3.4137 H              1 S1                 0.0000
     32 ****         0.2007  -0.7191  -0.5434 H              1 S1                 0.0000
     33 ****         1.0520   0.6699   0.0351 H              1 S1                 0.0000
     34 ****         3.4385   0.5324   0.6499 H              1 S1                 0.0000
     35 ****         5.6346  -0.4645   0.0926 H              1 S1                 0.0000
     36 ****         5.7431  -2.6512  -1.0883 H              1 S1                 0.0000
     37 ****         3.6746  -3.8289  -1.7103 H              1 S1                 0.0000
     38 ****        -3.1056   1.0357  -2.6093 H              1 S1                 0.0000
     39 ****        -4.0966   2.4338  -2.2192 H              1 S1                 0.0000
     40 ****        -4.5737   0.8416  -1.6486 H              1 S1                 0.0000
     41 ****        -1.7511   3.8405   1.6379 LP             1 S1                 0.0000
     42 ****         1.0608   0.9641   2.4769 LP             1 S1                 0.0000
     43 ****         2.2486  -0.1509   2.3646 LP             1 S1                 0.0000
     44 ****        -2.1315  -1.4956   0.0001 LP             1 S1                 0.0000
     45 ****        -3.0734  -0.7908  -1.2711 LP             1 S1                 0.0000
@<TRIPOS>BOND
    1    1    2 1     
    2    1   24 1     
    3    1   25 1     
    4    1   26 1     
    5    2   22 2     
    6    2    3 1     
    7    3    4 2     
    8    4    5 1     
    9    4   27 1     
   10    5    6 1     
   11    5   20 am    
   12    6    7 1     
   13    6   28 1     
   14    6   29 1     
   15    7    8 1     
   16    7    9 1     
   17    7   30 1     
   18    8   31 1     
   19    9   10 1     
   20    9   32 1     
   21    9   33 1     
   22   10   15 ar    
   23   10   11 ar    
   24   11   12 ar    
   25   11   34 1     
   26   12   13 ar    
   27   12   35 1     
   28   13   14 ar    
   29   13   36 1     
   30   14   15 ar    
   31   14   37 1     
   32   15   16 1     
   33   16   17 1     
   34   16   18 1     
   35   16   19 1     
   36   20   21 2     
   37   20   22 1     
   38   22   23 1     
   39   23   38 1     
   40   23   39 1     
   41   23   40 1     
   42    3   41 1     
   43    8   42 1     
   44    8   43 1     
   45   21   44 1     
   46   21   45 1     
@<TRIPOS>SUBSTRUCTURE
      1 S1             1
@<TRIPOS>SET
LONE_PAIRS      STATIC     ATOMS    <user>   **** ""
5 41 42 43 44 45
DONOR_HYDROGENS      STATIC     ATOMS    <user>   **** ""
1 31
ATOM$BLUE        STATIC     ATOMS    COLORGROUP SYSTEM
5 41 42 43 44 45
ATOM$RED        STATIC     ATOMS    COLORGROUP SYSTEM
1 31
