#       Name:                AV-unprocessed.smi:1885
#       Creating user name   scv26
#       Creation time:       Fri Mar 27 09:38:30 2020


#       File generated by GOLD software.
#

@<TRIPOS>MOLECULE
AV-unprocessed.smi:1885
    50    52     1
SMALL
NO_CHARGES


@<TRIPOS>ATOM
      1 ****        -6.4667   3.3924   0.8605 C.3            1 S1                 0.0000
      2 ****        -5.6691   2.4057   0.2228 O.3            1 S1                 0.0000
      3 ****        -4.2989   2.5466   0.2744 C.ar           1 S1                 0.0000
      4 ****        -3.6314   3.6199   0.9166 C.ar           1 S1                 0.0000
      5 ****        -2.2243   3.6852   0.9194 C.ar           1 S1                 0.0000
      6 ****        -1.4620   2.6806   0.2903 C.ar           1 S1                 0.0000
      7 ****         0.0526   2.7708   0.2837 C.3            1 S1                 0.0000
      8 ****         0.6650   1.4914   0.2798 O.3            1 S1                 0.0000
      9 ****         2.0810   1.5568   0.2580 C.3            1 S1                 0.0000
     10 ****         2.6407   0.1283   0.2104 C.3            1 S1                 0.0000
     11 ****         4.0427   0.1816   0.3841 O.3            1 S1                 0.0000
     12 ****         2.3101  -0.5893  -1.1136 C.3            1 S1                 0.0000
     13 ****         2.8032  -1.9719  -1.1471 N.pl3          1 S1                 0.0000
     14 ****         3.9197  -2.4924  -1.7248 C.2            1 S1                 0.0000
     15 ****         3.9289  -3.8302  -1.4680 N.pl3          1 S1                 1.0000
     16 ****         2.8016  -4.1685  -0.7156 C.ar           1 S1                 0.0000
     17 ****         2.3726  -5.3928  -0.2135 C.ar           1 S1                 0.0000
     18 ****         1.1690  -5.3911   0.5222 C.ar           1 S1                 0.0000
     19 ****         0.7065  -6.5563   1.0341 F              1 S1                 0.0000
     20 ****         0.4396  -4.2016   0.7346 C.ar           1 S1                 0.0000
     21 ****        -0.7111  -4.2440   1.4470 F              1 S1                 0.0000
     22 ****         0.8841  -2.9662   0.2189 C.ar           1 S1                 0.0000
     23 ****         2.0745  -2.9785  -0.5060 C.ar           1 S1                 0.0000
     24 ****        -2.1217   1.6163  -0.3582 C.ar           1 S1                 0.0000
     25 ****        -3.5282   1.5517  -0.3607 C.ar           1 S1                 0.0000
     26 ****        -7.5195   3.1391   0.7361 H              1 S1                 0.0000
     27 ****        -6.3106   4.3778   0.4193 H              1 S1                 0.0000
     28 ****        -6.2630   3.4385   1.9312 H              1 S1                 0.0000
     29 ****        -4.1765   4.4080   1.4133 H              1 S1                 0.0000
     30 ****        -1.7310   4.5121   1.4091 H              1 S1                 0.0000
     31 ****         0.3584   3.3329  -0.6001 H              1 S1                 0.0000
     32 ****         0.3842   3.3317   1.1593 H              1 S1                 0.0000
     33 ****         2.4260   2.1314  -0.6035 H              1 S1                 0.0000
     34 ****         2.4307   2.0676   1.1566 H              1 S1                 0.0000
     35 ****         2.2308  -0.4364   1.0486 H              1 S1                 0.0000
     36 ****         4.4101   0.7171  -0.3025 H              1 S1                 0.0000
     37 ****         1.2343  -0.6056  -1.2936 H              1 S1                 0.0000
     38 ****         2.7564  -0.0594  -1.9563 H              1 S1                 0.0000
     39 ****         4.6650  -1.9435  -2.2824 H              1 S1                 0.0000
     40 ****         2.9278  -6.3055  -0.3731 H              1 S1                 0.0000
     41 ****         0.3203  -2.0606   0.3877 H              1 S1                 0.0000
     42 ****        -1.5543   0.8446  -0.8573 H              1 S1                 0.0000
     43 ****        -4.0217   0.7298  -0.8585 H              1 S1                 0.0000
     44 ****         4.6538  -4.4623  -1.7833 H              1 S1                 0.0000
     45 ****        -5.9301   2.3909  -0.7424 LP             1 S1                 0.0000
     46 ****        -5.8933   1.5260   0.6422 LP             1 S1                 0.0000
     47 ****         0.3562   0.9924  -0.5299 LP             1 S1                 0.0000
     48 ****         0.3811   0.9994   1.1029 LP             1 S1                 0.0000
     49 ****         4.4242  -0.7414   0.3326 LP             1 S1                 0.0000
     50 ****         4.2572   0.5817   1.2751 LP             1 S1                 0.0000
@<TRIPOS>BOND
    1    1    2 1     
    2    1   26 1     
    3    1   27 1     
    4    1   28 1     
    5    2    3 1     
    6    3   25 ar    
    7    3    4 ar    
    8    4    5 ar    
    9    4   29 1     
   10    5    6 ar    
   11    5   30 1     
   12    6    7 1     
   13    6   24 ar    
   14    7    8 1     
   15    7   31 1     
   16    7   32 1     
   17    8    9 1     
   18    9   10 1     
   19    9   33 1     
   20    9   34 1     
   21   10   11 1     
   22   10   12 1     
   23   10   35 1     
   24   11   36 1     
   25   12   13 1     
   26   12   37 1     
   27   12   38 1     
   28   13   23 1     
   29   13   14 1     
   30   14   15 2     
   31   14   39 1     
   32   15   16 1     
   33   15   44 1     
   34   16   23 ar    
   35   16   17 ar    
   36   17   18 ar    
   37   17   40 1     
   38   18   19 1     
   39   18   20 ar    
   40   20   21 1     
   41   20   22 ar    
   42   22   23 ar    
   43   22   41 1     
   44   24   25 ar    
   45   24   42 1     
   46   25   43 1     
   47    2   45 1     
   48    2   46 1     
   49    8   47 1     
   50    8   48 1     
   51   11   49 1     
   52   11   50 1     
@<TRIPOS>SUBSTRUCTURE
      1 S1             1
@<TRIPOS>SET
LONE_PAIRS      STATIC     ATOMS    <user>   **** ""
6 45 46 47 48 49 50
DONOR_HYDROGENS      STATIC     ATOMS    <user>   **** ""
2 36 44
ATOM$BLUE        STATIC     ATOMS    COLORGROUP SYSTEM
6 45 46 47 48 49 50
ATOM$RED        STATIC     ATOMS    COLORGROUP SYSTEM
2 36 44
