#       Name:                AV-unprocessed.smi:2886
#       Creating user name   scv26
#       Creation time:       Fri Mar 27 15:56:19 2020


#       File generated by GOLD software.
#

@<TRIPOS>MOLECULE
AV-unprocessed.smi:2886
    33    35     1
SMALL
NO_CHARGES


@<TRIPOS>ATOM
      1 ****        -4.2053  -3.5364   0.9238 O.2            1 S1                 0.0000
      2 ****        -3.6887  -2.4242   0.8376 C.2            1 S1                 0.0000
      3 ****        -4.3456  -1.2673   1.1494 N.pl3          1 S1                -1.0000
      4 ****        -3.7680  -0.0909   1.0480 N.pl3          1 S1                 1.0000
      5 ****        -2.5145   0.0810   0.6404 C.2            1 S1                 0.0000
      6 ****        -1.7166  -1.0439   0.2904 C.2            1 S1                 0.0000
      7 ****        -0.4032  -0.9133  -0.1433 N.pl3          1 S1                 0.0000
      8 ****         0.3800   0.3018  -0.3203 C.3            1 S1                 0.0000
      9 ****         0.5748   0.6686  -1.7937 C.3            1 S1                 0.0000
     10 ****         2.1034   0.7450  -1.8967 C.3            1 S1                 0.0000
     11 ****         2.6809   1.9394  -1.1237 C.3            1 S1                 0.0000
     12 ****         2.5264   1.4789   0.3258 C.3            1 S1                 0.0000
     13 ****         1.8316   0.1216   0.1531 C.3            1 S1                 0.0000
     14 ****         2.4621  -0.3228  -1.0377 O.3            1 S1                 0.0000
     15 ****        -2.2941  -2.2766   0.3814 C.2            1 S1                 0.0000
     16 ****        -1.4048  -3.7060  -0.0289 Cl             1 S1                 0.0000
     17 ****        -4.2861   0.7701   1.2835 H              1 S1                 0.0000
     18 ****        -2.1497   1.0989   0.5880 H              1 S1                 0.0000
     19 ****         0.1337  -1.7669  -0.2105 H              1 S1                 0.0000
     20 ****        -0.0770   1.1217   0.2338 H              1 S1                 0.0000
     21 ****         0.1904  -0.1101  -2.4544 H              1 S1                 0.0000
     22 ****         0.0906   1.6083  -2.0609 H              1 S1                 0.0000
     23 ****         2.4828   0.6499  -2.9144 H              1 S1                 0.0000
     24 ****         3.7335   2.0901  -1.3668 H              1 S1                 0.0000
     25 ****         2.1446   2.8655  -1.3335 H              1 S1                 0.0000
     26 ****         3.5041   1.3534   0.7923 H              1 S1                 0.0000
     27 ****         1.9452   2.1730   0.9335 H              1 S1                 0.0000
     28 ****         1.9509  -0.5436   1.0092 H              1 S1                 0.0000
     29 ****        -5.1515  -3.6255   1.2348 LP             1 S1                 0.0000
     30 ****        -3.6793  -4.3521   0.6828 LP             1 S1                 0.0000
     31 ****        -5.2935  -1.3171   1.4639 LP             1 S1                 0.0000
     32 ****         3.4533  -0.3996  -0.9300 LP             1 S1                 0.0000
     33 ****         2.0924  -1.1969  -1.3529 LP             1 S1                 0.0000
@<TRIPOS>BOND
    1    1    2 2     
    2    2    3 1     
    3    2   15 1     
    4    3    4 1     
    5    4    5 2     
    6    4   17 1     
    7    5    6 1     
    8    5   18 1     
    9    6   15 2     
   10    6    7 1     
   11    7    8 1     
   12    7   19 1     
   13    8   13 1     
   14    8    9 1     
   15    8   20 1     
   16    9   10 1     
   17    9   21 1     
   18    9   22 1     
   19   10   14 1     
   20   10   11 1     
   21   10   23 1     
   22   11   12 1     
   23   11   24 1     
   24   11   25 1     
   25   12   13 1     
   26   12   26 1     
   27   12   27 1     
   28   13   14 1     
   29   13   28 1     
   30   15   16 1     
   31    1   29 1     
   32    1   30 1     
   33    3   31 1     
   34   14   32 1     
   35   14   33 1     
@<TRIPOS>SUBSTRUCTURE
      1 S1             1
@<TRIPOS>SET
LONE_PAIRS      STATIC     ATOMS    <user>   **** ""
5 29 30 31 32 33
DONOR_HYDROGENS      STATIC     ATOMS    <user>   **** ""
2 17 19
ATOM$BLUE        STATIC     ATOMS    COLORGROUP SYSTEM
5 29 30 31 32 33
ATOM$RED        STATIC     ATOMS    COLORGROUP SYSTEM
2 17 19
