AV-unprocessed.smi:1952|AV-procd|sdf|7889|dock3
  -GOLD-   2272010 43D 1   1.00000     0.00000
 Structure written by MMmdl.
 39 40  0  0  0  0  0  0  0  0  3 V2000
  151.9645  140.2484  156.7348 C   0  0  0  0  0  0  0  0  0  0  0  0
  152.1653  139.0156  155.9222 C   0  0  0  0  0  0  0  0  0  0  0  0
  151.3759  137.9300  155.6683 C   0  0  0  0  0  0  0  0  0  0  0  0
  152.1838  137.1349  154.8111 C   0  0  0  0  0  0  0  0  0  0  0  0
  151.8455  135.9457  154.2893 N   0  5  0  0  0  0  0  0  0  0  0  0
  150.8905  135.1934  154.8796 C   0  0  0  0  0  0  0  0  0  0  0  0
  150.5767  135.2169  156.0717 O   0  0  0  0  0  0  0  0  0  0  0  0
  150.2366  134.3885  154.0281 N   0  0  0  0  0  0  0  0  0  0  0  0
  149.0892  133.5331  154.3379 C   0  0  2  0  0  0  0  0  0  0  0  0
  149.5883  132.2207  154.9566 C   0  0  0  0  0  0  0  0  0  0  0  0
  148.2410  133.2757  153.0714 C   0  0  0  0  0  0  0  0  0  0  0  0
  147.3909  134.4370  152.7080 N   0  3  0  0  0  0  0  0  0  0  0  0
  146.3913  134.1353  151.6583 C   0  0  0  0  0  0  0  0  0  0  0  0
  145.6373  135.4184  151.2688 C   0  0  0  0  0  0  0  0  0  0  0  0
  145.0268  135.9846  152.4231 O   0  0  0  0  0  0  0  0  0  0  0  0
  145.9848  136.3439  153.4125 C   0  0  0  0  0  0  0  0  0  0  0  0
  146.7430  135.0879  153.8714 C   0  0  0  0  0  0  0  0  0  0  0  0
  153.3654  137.6821  154.5768 N   0  0  0  0  0  0  0  0  0  0  0  0
  153.3583  138.8924  155.2806 O   0  0  0  0  0  0  0  0  0  0  0  0
  152.8162  140.4222  157.3924 H   0  0  0  0  0  0  0  0  0  0  0  0
  151.0712  140.1649  157.3539 H   0  0  0  0  0  0  0  0  0  0  0  0
  151.8497  141.1203  156.0909 H   0  0  0  0  0  0  0  0  0  0  0  0
  150.3789  137.7357  156.0345 H   0  0  0  0  0  0  0  0  0  0  0  0
  150.5432  134.4000  153.0661 H   0  0  0  0  0  0  0  0  0  0  0  0
  148.4660  134.0198  155.0894 H   0  0  0  0  0  0  0  0  0  0  0  0
  148.7543  131.5713  155.2242 H   0  0  0  0  0  0  0  0  0  0  0  0
  150.1628  132.4086  155.8644 H   0  0  0  0  0  0  0  0  0  0  0  0
  150.2291  131.6721  154.2654 H   0  0  0  0  0  0  0  0  0  0  0  0
  148.9239  133.0658  152.2467 H   0  0  0  0  0  0  0  0  0  0  0  0
  147.6239  132.3837  153.1887 H   0  0  0  0  0  0  0  0  0  0  0  0
  146.8881  133.7240  150.7788 H   0  0  0  0  0  0  0  0  0  0  0  0
  145.6931  133.3790  152.0202 H   0  0  0  0  0  0  0  0  0  0  0  0
  146.3128  136.1418  150.8088 H   0  0  0  0  0  0  0  0  0  0  0  0
  144.8641  135.1924  150.5343 H   0  0  0  0  0  0  0  0  0  0  0  0
  146.6739  137.0922  153.0170 H   0  0  0  0  0  0  0  0  0  0  0  0
  145.4677  136.8005  154.2565 H   0  0  0  0  0  0  0  0  0  0  0  0
  146.0563  134.3883  154.3502 H   0  0  0  0  0  0  0  0  0  0  0  0
  147.4889  135.3634  154.6164 H   0  0  0  0  0  0  0  0  0  0  0  0
  148.0183  135.1198  152.3047 H   0  0  0  0  0  0  0  0  0  0  0  0
  1  2  1  0  0  0  0
  1 20  1  0  0  0  0
  1 21  1  0  0  0  0
  1 22  1  0  0  0  0
  2 19  1  0  0  0  0
  2  3  2  0  0  0  0
  3  4  1  0  0  0  0
  3 23  1  0  0  0  0
  4  5  1  0  0  0  0
  4 18  2  0  0  0  0
  5  6  1  0  0  0  0
  6  7  2  0  0  0  0
  6  8  1  0  0  0  0
  8  9  1  0  0  0  0
  8 24  1  0  0  0  0
  9 10  1  0  0  0  0
  9 11  1  0  0  0  0
  9 25  1  0  0  0  0
 10 26  1  0  0  0  0
 10 27  1  0  0  0  0
 10 28  1  0  0  0  0
 11 12  1  0  0  0  0
 11 29  1  0  0  0  0
 11 30  1  0  0  0  0
 12 17  1  0  0  0  0
 12 13  1  0  0  0  0
 12 39  1  0  0  0  0
 13 14  1  0  0  0  0
 13 31  1  0  0  0  0
 13 32  1  0  0  0  0
 14 15  1  0  0  0  0
 14 33  1  0  0  0  0
 14 34  1  0  0  0  0
 15 16  1  0  0  0  0
 16 17  1  0  0  0  0
 16 35  1  0  0  0  0
 16 36  1  0  0  0  0
 17 37  1  0  0  0  0
 17 38  1  0  0  0  0
 18 19  1  0  0  0  0
M  CHG  1   5  -1
M  CHG  1  12   1
M  END
> <s_m_source_file>
AV-unprocessed.smi

> <i_m_source_file_index>
1952

> <i_lp_mmshare_version>
43012

> <i_f3d_flags>
0

> <s_epik_input>
W0NIM11jMVtjSF1jKG5vMSlbTkhdQyg9TylbTkhdW0NASF0oW0NIM10pW0NIMl1OMltDSDJdW0NIMl1PW0NIMl1bQ0gyXTI=

> <s_epik_cmdline>
J2VwaWtfcHl0aG9uJywgJy1waCcsICc3LjAnLCAnLXRuJywgJzgnLCAnLW1hJywgJzIwMCcsICctbWV0YWxfYmluZGluZycsICctaW1hZScsICc8aW5maWxlLm1hZT4nLCAnLW9tYWUnLCAnPG91dGZpbGUubWFlPic=

> <r_epik_Ionization_Penalty>
6.62152

> <r_epik_Ionization_Penalty_Charging>
6.62142

> <r_epik_Ionization_Penalty_Neutral>
9.8734e-05

> <r_epik_State_Penalty>
6.82189

> <r_epik_Charging_Adjusted_Penalty>
13.4433

> <i_epik_Tot_Q>
0

> <i_epik_Tot_abs_Q>
2

> <r_epik_Metal_State_Penalty>
2.76365

> <b_epik_Metal_Only>
1

> <s_lp_Force_Field>
OPLS_2005

> <r_lp_Energy>
7.85486

> <b_lp_Chiralities_Consistent>
1

> <s_lp_Variant>
AV-unprocessed.smi:1952-7

> <Gold.Version>
5.8.1

> <Gold.Id.Protein>
6NUR|6NUR_protein|mol2

> <Gold.PLP.Fitness>
43.3661

> <Gold.PLP.PLP>
-29.9898

> <Gold.PLP.part.hbond>
-5.3866

> <Gold.PLP.part.metal>
0.0000

> <Gold.PLP.part.buried>
-3.4095

> <Gold.PLP.part.nonpolar>
-22.3995

> <Gold.PLP.part.repulsive>
1.0329

> <Gold.PLP.ligand.clash>
0.0000

> <Gold.PLP.ligand.torsion>
0.8650

> <Gold.PLP.Chemscore.Hbond>
5.0000

> <Gold.PLP.Chemscore.CHOScore>
0.0000

> <Gold.PLP.Chemscore.Metal>
0.0000

> <Gold.Chemscore.Hbonds>
donor molecule, donor type, donor heavy atom, donor atom, acceptor molecule, acceptor atom, score
      L1  H    12    39       P1  7948  1.76
      P1  H  7997  8009       L1    19  0.91
      P1  H 10752 10763       L1     5  0.13

> <Gold.PLP.Chemscore.Internal.Correction>
0.1063

> <Gold.Rescore>
     Score         DG    S(hbond)    S(metal)    S(lipo)     H(rot)  DE(clash)    DE(int)     intcor
     13.65     -15.70       2.56        0.00      48.97       1.58       0.06       1.99       ----

> <Gold.Chemscore.Fitness>
13.6480

> <Gold.Chemscore.DG>
-15.6999

> <Gold.Chemscore.ZeroCoef>
-5.4800

> <Gold.Chemscore.Hbond>
2.5552

> <Gold.Chemscore.Metal>
0.0000

> <Gold.Chemscore.Lipo>
48.9728

> <Gold.Chemscore.Internal_Hbond>
0.0000

> <Gold.Chemscore.DEClash>
0.0580

> <Gold.Chemscore.DEInternal>
1.9939

> <Gold.Chemscore.Rot>
1.5798

> <Gold.Chemscore.Internal.Correction>
   9.000000E+99

> <Gold.Chemscore.Hbonds>
donor molecule, donor type, donor heavy atom, donor atom, acceptor molecule, acceptor atom, score
      L1  H    12    39       P1  7948  0.73
      P1  H  7997  8009       L1    19  0.23

> <Gold.Chemscore.Hbond.Weighted>
-8.5343

> <Gold.Chemscore.Metal.Weighted>
-0.0000

> <Gold.Chemscore.Lipo.Weighted>
-5.7298

> <Gold.Chemscore.Internal_Hbond.Weighted>
0.0000

> <Gold.Chemscore.DEClash.Weighted>
0.0580

> <Gold.Chemscore.DEInternal.Weighted>
1.9939

> <Gold.Chemscore.Rot.Weighted>
4.0442

> <Gold.Chemscore.Internal.Correction.Weighted>
   9.000000E+99

> <Gold.Protein.RotatedTorsions>
[ 6907 6896 6895 6894 ] final -135.02 input  -60.11 | X-H torsion
[ 7974 7965 7964 7962 ] final -111.59 input  175.53 | X-H torsion
[ 8008 7997 7996 7995 ] final -157.44 input   59.86 | X-H torsion
[ 10167 10162 10161 10158 ] final  165.82 input  -65.29 | X-H torsion
[ 10718 10713 10712 10709 ] final   98.61 input   66.30 | X-H torsion
[ 10763 10752 10751 10750 ] final   64.46 input  -60.55 | X-H torsion
[ 11005 11000 10999 10996 ] final  170.30 input  -57.11 | X-H torsion

> <Gold.Protein.ActiveResidues>
 VAL166  LYS551  ARG553  GLY616  TRP617  ASP618  TYR619  PRO620  LYS621  CYS622 
 ASP623  PHE694  ASN695  SER759  ASP760  ASP761  ALA762  ILE779  LEU786  VAL792 
 PHE793  MET794  SER795  GLU796  ALA797  LYS798  CYS799  TRP800  GLU811  SER814 

> <Gold.Protein.RotatedAtoms>
  150.9928  133.6132  159.2705 H   0  0  0  0  0  0  0  0  0  0  0  0  # atno 6907 bound_to 6896
  151.3347  135.0849  159.9360 H   0  0  0  0  0  0  0  0  0  0  0  0  # atno 6908 bound_to 6896
  152.5251  133.9551  159.7745 H   0  0  0  0  0  0  0  0  0  0  0  0  # atno 6909 bound_to 6896
  145.1542  140.8845  143.3629 H   0  0  0  0  0  0  0  0  0  0  0  0  # atno 7974 bound_to 7965
  155.7324  140.0803  157.2283 H   0  0  0  0  0  0  0  0  0  0  0  0  # atno 8008 bound_to 7997
  154.4031  140.1593  156.2578 H   0  0  0  0  0  0  0  0  0  0  0  0  # atno 8009 bound_to 7997
  155.9097  140.3404  155.6092 H   0  0  0  0  0  0  0  0  0  0  0  0  # atno 8010 bound_to 7997
  139.4913  144.4092  151.9319 H   0  0  0  0  0  0  0  0  0  0  0  0  # atno 10167 bound_to 10162
  157.6892  131.0645  150.4822 H   0  0  0  0  0  0  0  0  0  0  0  0  # atno 10718 bound_to 10713
  153.0056  135.5392  154.6513 H   0  0  0  0  0  0  0  0  0  0  0  0  # atno 10763 bound_to 10752
  154.5744  135.2844  155.0797 H   0  0  0  0  0  0  0  0  0  0  0  0  # atno 10764 bound_to 10752
  154.1950  135.6493  153.5123 H   0  0  0  0  0  0  0  0  0  0  0  0  # atno 10765 bound_to 10752
  140.3069  134.7549  157.3960 H   0  0  0  0  0  0  0  0  0  0  0  0  # atno 11005 bound_to 11000
  145.0399  139.3269  143.5982 LP  0  0  0  0  0  0  0  0  0  0  0  0  # atno 17320 bound_to 7965
  146.3491  139.9768  142.8700 LP  0  0  0  0  0  0  0  0  0  0  0  0  # atno 17321 bound_to 7965
  140.3533  144.3062  150.5945 LP  0  0  0  0  0  0  0  0  0  0  0  0  # atno 17342 bound_to 10162
  140.5466  143.2213  151.7997 LP  0  0  0  0  0  0  0  0  0  0  0  0  # atno 17343 bound_to 10162
  156.5154  130.4149  149.6279 LP  0  0  0  0  0  0  0  0  0  0  0  0  # atno 17370 bound_to 10713
  156.3203  130.7277  151.2187 LP  0  0  0  0  0  0  0  0  0  0  0  0  # atno 17371 bound_to 10713
  140.1059  134.5410  155.8309 LP  0  0  0  0  0  0  0  0  0  0  0  0  # atno 17394 bound_to 11000
  141.2116  133.6709  156.6598 LP  0  0  0  0  0  0  0  0  0  0  0  0  # atno 17395 bound_to 11000

$$$$
