AV-unprocessed.smi:184|AV-procd|sdf|1463|dock1
  -GOLD-   2262019273D 1   1.00000     0.00000
 Structure written by MMmdl.
 54 58  0  0  0  0  0  0  0  0  1 V2000
  149.7529  141.7277  155.1432 O   0  0  0  0  0  0  0  0  0  0  0  0
  150.4791  141.8086  156.1312 C   0  0  0  0  0  0  0  0  0  0  0  0
  151.0480  140.5233  156.7603 C   0  0  0  0  0  0  0  0  0  0  0  0
  151.9138  140.7357  157.9301 N   0  0  0  0  0  0  0  0  0  0  0  0
  152.1605  139.5762  158.5803 C   0  0  0  0  0  0  0  0  0  0  0  0
  151.1121  138.7388  158.7725 N   0  0  0  0  0  0  0  0  0  0  0  0
  151.2941  137.5768  159.4070 C   0  0  0  0  0  0  0  0  0  0  0  0
  152.4183  137.0734  159.9217 N   0  0  0  0  0  0  0  0  0  0  0  0
  153.4719  137.9201  159.7389 C   0  0  0  0  0  0  0  0  0  0  0  0
  153.4313  139.1851  159.0886 C   0  0  0  0  0  0  0  0  0  0  0  0
  154.6923  139.7677  159.1054 N   0  0  0  0  0  0  0  0  0  0  0  0
  155.4385  138.8924  159.7213 C   0  0  0  0  0  0  0  0  0  0  0  0
  154.7894  137.7476  160.1266 N   0  0  0  0  0  0  0  0  0  0  0  0
  155.3773  136.6148  160.8262 C   0  0  0  0  0  0  0  0  0  0  0  0
  155.8750  136.9465  162.2598 C   0  0  0  0  0  0  0  0  0  0  0  0
  157.0406  137.7409  162.1331 O   0  0  0  0  0  0  0  0  0  0  0  0
  154.8402  137.7756  163.0465 C   0  0  0  0  0  0  0  0  0  0  0  0
  153.6592  136.9085  163.5205 C   0  0  0  0  0  0  0  0  0  0  0  0
  154.1379  135.8134  164.2937 O   0  0  0  0  0  0  0  0  0  0  0  0
  154.9914  134.9428  163.5590 C   0  0  0  0  0  0  0  0  0  0  0  0
  156.2469  135.7054  163.1001 C   0  0  0  0  0  0  0  0  0  0  0  0
  151.6591  141.9265  158.7464 C   0  0  1  0  0  0  0  0  0  0  0  0
  152.6709  142.1307  159.9000 C   0  0  0  0  0  0  0  0  0  0  0  0
  152.3507  143.4081  160.6949 C   0  0  0  0  0  0  0  0  0  0  0  0
  152.2993  144.6455  159.7843 C   0  0  0  0  0  0  0  0  0  0  0  0
  151.3225  144.4419  158.6148 C   0  0  0  0  0  0  0  0  0  0  0  0
  151.6727  143.1673  157.8277 C   0  0  2  0  0  0  0  0  0  0  0  0
  150.7772  142.9933  156.6889 N   0  0  0  0  0  0  0  0  0  0  0  0
  150.2041  139.8854  157.0296 H   0  0  0  0  0  0  0  0  0  0  0  0
  151.6151  139.9915  155.9950 H   0  0  0  0  0  0  0  0  0  0  0  0
  150.4133  136.9616  159.5170 H   0  0  0  0  0  0  0  0  0  0  0  0
  156.4926  139.0558  159.8929 H   0  0  0  0  0  0  0  0  0  0  0  0
  154.6306  135.8199  160.8635 H   0  0  0  0  0  0  0  0  0  0  0  0
  156.1911  136.2277  160.2135 H   0  0  0  0  0  0  0  0  0  0  0  0
  156.8006  138.6474  162.2512 H   0  0  0  0  0  0  0  0  0  0  0  0
  155.3138  138.2146  163.9264 H   0  0  0  0  0  0  0  0  0  0  0  0
  154.4787  138.6115  162.4462 H   0  0  0  0  0  0  0  0  0  0  0  0
  152.9870  137.5034  164.1390 H   0  0  0  0  0  0  0  0  0  0  0  0
  153.0683  136.5443  162.6795 H   0  0  0  0  0  0  0  0  0  0  0  0
  155.2771  134.1091  164.2007 H   0  0  0  0  0  0  0  0  0  0  0  0
  154.4506  134.5172  162.7135 H   0  0  0  0  0  0  0  0  0  0  0  0
  156.9189  135.0408  162.5571 H   0  0  0  0  0  0  0  0  0  0  0  0
  156.7951  136.0193  163.9899 H   0  0  0  0  0  0  0  0  0  0  0  0
  150.6603  141.8320  159.1758 H   0  0  0  0  0  0  0  0  0  0  0  0
  152.6601  141.2845  160.5870 H   0  0  0  0  0  0  0  0  0  0  0  0
  153.6838  142.1902  159.4992 H   0  0  0  0  0  0  0  0  0  0  0  0
  151.3914  143.2892  161.2002 H   0  0  0  0  0  0  0  0  0  0  0  0
  153.0954  143.5541  161.4777 H   0  0  0  0  0  0  0  0  0  0  0  0
  152.0088  145.5221  160.3640 H   0  0  0  0  0  0  0  0  0  0  0  0
  153.2966  144.8506  159.3932 H   0  0  0  0  0  0  0  0  0  0  0  0
  150.3026  144.3753  158.9962 H   0  0  0  0  0  0  0  0  0  0  0  0
  151.3530  145.3115  157.9573 H   0  0  0  0  0  0  0  0  0  0  0  0
  152.6757  143.2852  157.4132 H   0  0  0  0  0  0  0  0  0  0  0  0
  150.3847  143.8275  156.2773 H   0  0  0  0  0  0  0  0  0  0  0  0
  1  2  2  0  0  0  0
  2 28  1  0  0  0  0
  2  3  1  0  0  0  0
  3  4  1  0  0  0  0
  3 29  1  0  0  0  0
  3 30  1  0  0  0  0
  4  5  1  0  0  0  0
  4 22  1  0  0  0  0
  5 10  1  0  0  0  0
  5  6  2  0  0  0  0
  6  7  1  0  0  0  0
  7  8  2  0  0  0  0
  7 31  1  0  0  0  0
  8  9  1  0  0  0  0
  9 13  1  0  0  0  0
  9 10  2  0  0  0  0
 10 11  1  0  0  0  0
 11 12  2  0  0  0  0
 12 13  1  0  0  0  0
 12 32  1  0  0  0  0
 13 14  1  0  0  0  0
 14 15  1  0  0  0  0
 14 33  1  0  0  0  0
 14 34  1  0  0  0  0
 15 21  1  0  0  0  0
 15 16  1  0  0  0  0
 15 17  1  0  0  0  0
 16 35  1  0  0  0  0
 17 18  1  0  0  0  0
 17 36  1  0  0  0  0
 17 37  1  0  0  0  0
 18 19  1  0  0  0  0
 18 38  1  0  0  0  0
 18 39  1  0  0  0  0
 19 20  1  0  0  0  0
 20 21  1  0  0  0  0
 20 40  1  0  0  0  0
 20 41  1  0  0  0  0
 21 42  1  0  0  0  0
 21 43  1  0  0  0  0
 22 27  1  0  0  0  0
 22 23  1  0  0  0  0
 22 44  1  0  0  0  0
 23 24  1  0  0  0  0
 23 45  1  0  0  0  0
 23 46  1  0  0  0  0
 24 25  1  0  0  0  0
 24 47  1  0  0  0  0
 24 48  1  0  0  0  0
 25 26  1  0  0  0  0
 25 49  1  0  0  0  0
 25 50  1  0  0  0  0
 26 27  1  0  0  0  0
 26 51  1  0  0  0  0
 26 52  1  0  0  0  0
 27 28  1  0  0  0  0
 27 53  1  0  0  0  0
 28 54  1  0  0  0  0
M  END
> <s_m_source_file>
AV-unprocessed.smi

> <i_m_source_file_index>
184

> <i_lp_mmshare_version>
43012

> <i_f3d_flags>
0

> <s_epik_input>
W0NIMl0xW0NIMl1bQ0gyXVtDSDJdW0NASF0oW0NASF0xMilbTkhdQyg9TylbQ0gyXU4yYyhuW2NIXW4zKWMoYzM0KW5bY0hdbjRbQ0gyXUM1KFtPSF0pW0NIMl1bQ0gyXU9bQ0gyXVtDSDJdNQ==

> <s_epik_cmdline>
J2VwaWtfcHl0aG9uJywgJy1waCcsICc3LjAnLCAnLXRuJywgJzgnLCAnLW1hJywgJzIwMCcsICctbWV0YWxfYmluZGluZycsICctaW1hZScsICc8aW5maWxlLm1hZT4nLCAnLW9tYWUnLCAnPG91dGZpbGUubWFlPic=

> <r_lp_tautomer_probability>
1

> <r_epik_Ionization_Penalty>
0.000822761

> <r_epik_Ionization_Penalty_Charging>
0

> <r_epik_Ionization_Penalty_Neutral>
0.000822761

> <r_epik_State_Penalty>
0.000403048

> <r_epik_Charging_Adjusted_Penalty>
0.000403048

> <i_epik_Tot_Q>
0

> <i_epik_Tot_abs_Q>
0

> <r_epik_Metal_State_Penalty>
-0

> <b_epik_Metal_Only>
0

> <s_lp_Force_Field>
OPLS_2005

> <r_lp_Energy>
32.8133

> <b_lp_Chiralities_Consistent>
1

> <s_lp_Variant>
AV-unprocessed.smi:184-3

> <Gold.Version>
5.8.1

> <Gold.Id.Protein>
6NUR|6NUR_protein|mol2

> <Gold.PLP.Fitness>
53.9706

> <Gold.PLP.PLP>
-46.0463

> <Gold.PLP.part.hbond>
-3.5938

> <Gold.PLP.part.metal>
0.0000

> <Gold.PLP.part.buried>
-7.7985

> <Gold.PLP.part.nonpolar>
-35.5164

> <Gold.PLP.part.repulsive>
0.2877

> <Gold.PLP.ligand.clash>
0.0000

> <Gold.PLP.ligand.torsion>
0.7177

> <Gold.PLP.Chemscore.Hbond>
2.9920

> <Gold.PLP.Chemscore.CHOScore>
0.0000

> <Gold.PLP.Chemscore.Metal>
0.0000

> <Gold.Chemscore.Hbonds>
donor molecule, donor type, donor heavy atom, donor atom, acceptor molecule, acceptor atom, score
      L1  H    28    54       P1  8028  0.99
      P1  H  6896  6907       L1     8  0.99
      P1  H  7997  8008       L1    11  1.00

> <Gold.PLP.Chemscore.Internal.Correction>
0.3836

> <Gold.Rescore>
     Score         DG    S(hbond)    S(metal)    S(lipo)     H(rot)  DE(clash)    DE(int)     intcor
     20.93     -21.89       2.59        0.00     113.72       2.17       0.13       0.83       ----

> <Gold.Chemscore.Fitness>
20.9347

> <Gold.Chemscore.DG>
-21.8945

> <Gold.Chemscore.ZeroCoef>
-5.4800

> <Gold.Chemscore.Hbond>
2.5938

> <Gold.Chemscore.Metal>
0.0000

> <Gold.Chemscore.Lipo>
113.7153

> <Gold.Chemscore.Internal_Hbond>
0.0000

> <Gold.Chemscore.DEClash>
0.1281

> <Gold.Chemscore.DEInternal>
0.8317

> <Gold.Chemscore.Rot>
2.1693

> <Gold.Chemscore.Internal.Correction>
   9.000000E+99

> <Gold.Chemscore.Hbonds>
donor molecule, donor type, donor heavy atom, donor atom, acceptor molecule, acceptor atom, score
      L1  H    28    54       P1  8028  0.93
      P1  H  6896  6907       L1     8  0.24
      P1  H  7997  8008       L1    11  0.40

> <Gold.Chemscore.Hbond.Weighted>
-8.6632

> <Gold.Chemscore.Metal.Weighted>
-0.0000

> <Gold.Chemscore.Lipo.Weighted>
-13.3047

> <Gold.Chemscore.Internal_Hbond.Weighted>
0.0000

> <Gold.Chemscore.DEClash.Weighted>
0.1281

> <Gold.Chemscore.DEInternal.Weighted>
0.8317

> <Gold.Chemscore.Rot.Weighted>
5.5533

> <Gold.Chemscore.Internal.Correction.Weighted>
   9.000000E+99

> <Gold.Protein.RotatedTorsions>
[ 6907 6896 6895 6894 ] final   20.04 input  -60.11 | X-H torsion
[ 7974 7965 7964 7962 ] final -174.90 input  175.53 | X-H torsion
[ 8008 7997 7996 7995 ] final -118.60 input   59.86 | X-H torsion
[ 10167 10162 10161 10158 ] final   31.88 input  -65.29 | X-H torsion
[ 10718 10713 10712 10709 ] final  -35.32 input   66.30 | X-H torsion
[ 10763 10752 10751 10750 ] final -156.34 input  -60.55 | X-H torsion
[ 11005 11000 10999 10996 ] final  -14.26 input  -57.11 | X-H torsion

> <Gold.Protein.ActiveResidues>
 VAL166  LYS551  ARG553  GLY616  TRP617  ASP618  TYR619  PRO620  LYS621  CYS622 
 ASP623  PHE694  ASN695  SER759  ASP760  ASP761  ALA762  ILE779  LEU786  VAL792 
 PHE793  MET794  SER795  GLU796  ALA797  LYS798  CYS799  TRP800  GLU811  SER814 

> <Gold.Protein.RotatedAtoms>
  151.8902  135.0419  160.0496 H   0  0  0  0  0  0  0  0  0  0  0  0  # atno 6907 bound_to 6896
  152.2442  133.5156  159.5296 H   0  0  0  0  0  0  0  0  0  0  0  0  # atno 6908 bound_to 6896
  150.7063  134.0964  159.3993 H   0  0  0  0  0  0  0  0  0  0  0  0  # atno 6909 bound_to 6896
  144.7130  140.1402  143.6392 H   0  0  0  0  0  0  0  0  0  0  0  0  # atno 7974 bound_to 7965
  155.1023  140.0396  157.2700 H   0  0  0  0  0  0  0  0  0  0  0  0  # atno 8008 bound_to 7997
  154.6748  140.2620  155.6944 H   0  0  0  0  0  0  0  0  0  0  0  0  # atno 8009 bound_to 7997
  156.2672  140.2790  156.1271 H   0  0  0  0  0  0  0  0  0  0  0  0  # atno 8010 bound_to 7997
  140.4549  144.0994  150.6199 H   0  0  0  0  0  0  0  0  0  0  0  0  # atno 10167 bound_to 10162
  156.3401  130.4292  149.7795 H   0  0  0  0  0  0  0  0  0  0  0  0  # atno 10718 bound_to 10713
  154.7720  135.3148  154.8170 H   0  0  0  0  0  0  0  0  0  0  0  0  # atno 10763 bound_to 10752
  153.8903  135.6826  153.4765 H   0  0  0  0  0  0  0  0  0  0  0  0  # atno 10764 bound_to 10752
  153.1336  135.4769  154.9321 H   0  0  0  0  0  0  0  0  0  0  0  0  # atno 10765 bound_to 10752
  140.7845  133.8336  155.9323 H   0  0  0  0  0  0  0  0  0  0  0  0  # atno 11005 bound_to 11000
  145.9209  139.2545  143.1382 LP  0  0  0  0  0  0  0  0  0  0  0  0  # atno 17320 bound_to 7965
  145.9621  140.8827  143.0205 LP  0  0  0  0  0  0  0  0  0  0  0  0  # atno 17321 bound_to 7965
  140.4163  143.2632  151.9770 LP  0  0  0  0  0  0  0  0  0  0  0  0  # atno 17342 bound_to 10162
  139.4800  144.5870  151.7836 LP  0  0  0  0  0  0  0  0  0  0  0  0  # atno 17343 bound_to 10162
  156.5035  130.8139  151.3141 LP  0  0  0  0  0  0  0  0  0  0  0  0  # atno 17370 bound_to 10713
  157.7445  130.9937  150.2681 LP  0  0  0  0  0  0  0  0  0  0  0  0  # atno 17371 bound_to 10713
  140.9450  134.1852  157.4770 LP  0  0  0  0  0  0  0  0  0  0  0  0  # atno 17394 bound_to 11000
  139.8738  134.9887  156.5422 LP  0  0  0  0  0  0  0  0  0  0  0  0  # atno 17395 bound_to 11000

$$$$
