AV-unprocessed.smi:2114|AV-procd|sdf|8619|dock7
  -GOLD-   2272011363D 1   1.00000     0.00000
 Structure written by MMmdl.
 47 48  0  0  0  0  0  0  0  0  1 V2000
  153.5017  132.0708  157.6755 C   0  0  0  0  0  0  0  0  0  0  0  0
  153.0765  131.4112  156.4964 O   0  0  0  0  0  0  0  0  0  0  0  0
  152.7098  130.0606  156.7282 C   0  0  0  0  0  0  0  0  0  0  0  0
  152.3657  129.3780  155.3929 C   0  0  2  0  0  0  0  0  0  0  0  0
  153.5559  129.4061  154.4241 C   0  0  0  0  0  0  0  0  0  0  0  0
  151.2259  130.0398  154.7627 N   0  0  0  0  0  0  0  0  0  0  0  0
  150.0460  129.4653  154.4745 C   0  0  0  0  0  0  0  0  0  0  0  0
  149.7944  128.2787  154.6840 O   0  0  0  0  0  0  0  0  0  0  0  0
  149.0406  130.3570  153.8054 C   0  0  0  0  0  0  0  0  0  0  0  0
  149.1977  131.7596  153.7715 C   0  0  0  0  0  0  0  0  0  0  0  0
  148.2094  132.5454  153.1484 C   0  0  0  0  0  0  0  0  0  0  0  0
  147.0806  131.9114  152.5785 C   0  0  0  0  0  0  0  0  0  0  0  0
  146.0811  132.6815  151.9466 N   0  0  0  0  0  0  0  0  0  0  0  0
  144.8093  132.0001  151.7235 C   0  0  0  0  0  0  0  0  0  0  0  0
  143.9196  132.7955  150.7481 C   0  0  2  0  0  0  0  0  0  0  0  0
  144.3693  132.6835  149.2803 C   0  0  0  0  0  0  0  0  0  0  0  0
  143.8071  134.1546  151.1773 O   0  0  0  0  0  0  0  0  0  0  0  0
  145.0509  134.8346  151.3424 C   0  0  1  0  0  0  0  0  0  0  0  0
  144.7524  136.2646  151.8050 C   0  0  0  0  0  0  0  0  0  0  0  0
  145.9237  134.0741  152.3563 C   0  0  0  0  0  0  0  0  0  0  0  0
  146.9225  130.5662  152.6280 N   0  0  0  0  0  0  0  0  0  0  0  0
  147.8727  129.8167  153.2263 C   0  0  0  0  0  0  0  0  0  0  0  0
  153.7712  133.1006  157.4414 H   0  0  0  0  0  0  0  0  0  0  0  0
  154.3774  131.5832  158.1059 H   0  0  0  0  0  0  0  0  0  0  0  0
  152.7084  132.0915  158.4238 H   0  0  0  0  0  0  0  0  0  0  0  0
  153.5182  129.5269  157.2312 H   0  0  0  0  0  0  0  0  0  0  0  0
  151.8428  130.0356  157.3903 H   0  0  0  0  0  0  0  0  0  0  0  0
  152.1276  128.3305  155.5866 H   0  0  0  0  0  0  0  0  0  0  0  0
  154.4206  128.8968  154.8503 H   0  0  0  0  0  0  0  0  0  0  0  0
  153.8547  130.4285  154.1896 H   0  0  0  0  0  0  0  0  0  0  0  0
  153.3107  128.9066  153.4862 H   0  0  0  0  0  0  0  0  0  0  0  0
  151.3423  131.0151  154.5299 H   0  0  0  0  0  0  0  0  0  0  0  0
  150.0563  132.2388  154.2190 H   0  0  0  0  0  0  0  0  0  0  0  0
  148.3184  133.6194  153.1295 H   0  0  0  0  0  0  0  0  0  0  0  0
  144.9470  130.9882  151.3447 H   0  0  0  0  0  0  0  0  0  0  0  0
  144.3024  131.9053  152.6848 H   0  0  0  0  0  0  0  0  0  0  0  0
  142.9142  132.3770  150.8017 H   0  0  0  0  0  0  0  0  0  0  0  0
  144.3177  131.6492  148.9398 H   0  0  0  0  0  0  0  0  0  0  0  0
  145.3957  133.0196  149.1346 H   0  0  0  0  0  0  0  0  0  0  0  0
  143.7263  133.2769  148.6301 H   0  0  0  0  0  0  0  0  0  0  0  0
  145.5685  134.8919  150.3846 H   0  0  0  0  0  0  0  0  0  0  0  0
  145.6720  136.8352  151.9362 H   0  0  0  0  0  0  0  0  0  0  0  0
  144.2174  136.2681  152.7551 H   0  0  0  0  0  0  0  0  0  0  0  0
  144.1369  136.7899  151.0741 H   0  0  0  0  0  0  0  0  0  0  0  0
  145.4684  134.1070  153.3472 H   0  0  0  0  0  0  0  0  0  0  0  0
  146.8982  134.5590  152.4281 H   0  0  0  0  0  0  0  0  0  0  0  0
  147.6905  128.7519  153.2345 H   0  0  0  0  0  0  0  0  0  0  0  0
  1  2  1  0  0  0  0
  1 23  1  0  0  0  0
  1 24  1  0  0  0  0
  1 25  1  0  0  0  0
  2  3  1  0  0  0  0
  3  4  1  0  0  0  0
  3 26  1  0  0  0  0
  3 27  1  0  0  0  0
  4  5  1  0  0  0  0
  4  6  1  0  0  0  0
  4 28  1  0  0  0  0
  5 29  1  0  0  0  0
  5 30  1  0  0  0  0
  5 31  1  0  0  0  0
  6  7  1  0  0  0  0
  6 32  1  0  0  0  0
  7  8  2  0  0  0  0
  7  9  1  0  0  0  0
  9 22  1  0  0  0  0
  9 10  2  0  0  0  0
 10 11  1  0  0  0  0
 10 33  1  0  0  0  0
 11 12  2  0  0  0  0
 11 34  1  0  0  0  0
 12 13  1  0  0  0  0
 12 21  1  0  0  0  0
 13 20  1  0  0  0  0
 13 14  1  0  0  0  0
 14 15  1  0  0  0  0
 14 35  1  0  0  0  0
 14 36  1  0  0  0  0
 15 16  1  0  0  0  0
 15 17  1  0  0  0  0
 15 37  1  0  0  0  0
 16 38  1  0  0  0  0
 16 39  1  0  0  0  0
 16 40  1  0  0  0  0
 17 18  1  0  0  0  0
 18 19  1  0  0  0  0
 18 20  1  0  0  0  0
 18 41  1  0  0  0  0
 19 42  1  0  0  0  0
 19 43  1  0  0  0  0
 19 44  1  0  0  0  0
 20 45  1  0  0  0  0
 20 46  1  0  0  0  0
 21 22  2  0  0  0  0
 22 47  1  0  0  0  0
M  END
> <s_m_source_file>
AV-unprocessed.smi

> <i_m_source_file_index>
2114

> <i_lp_mmshare_version>
43012

> <i_f3d_flags>
0

> <s_epik_input>
W0NIM11PW0NIMl1bQ0BIXShbQ0gzXSlbTkhdQyg9TyljMVtjSF1bY0hdYyhuW2NIXTEpTjJbQ0gyXVtDQEBIXShbQ0gzXSlPW0NAQEhdKFtDSDNdKVtDSDJdMg==

> <s_epik_cmdline>
J2VwaWtfcHl0aG9uJywgJy1waCcsICc3LjAnLCAnLXRuJywgJzgnLCAnLW1hJywgJzIwMCcsICctbWV0YWxfYmluZGluZycsICctaW1hZScsICc8aW5maWxlLm1hZT4nLCAnLW9tYWUnLCAnPG91dGZpbGUubWFlPic=

> <r_lp_tautomer_probability>
1

> <r_epik_Ionization_Penalty>
1.92915e-05

> <r_epik_Ionization_Penalty_Charging>
0

> <r_epik_Ionization_Penalty_Neutral>
1.92915e-05

> <r_epik_State_Penalty>
-0

> <r_epik_Charging_Adjusted_Penalty>
0

> <i_epik_Tot_Q>
0

> <i_epik_Tot_abs_Q>
0

> <r_epik_Metal_State_Penalty>
-0

> <b_epik_Metal_Only>
0

> <s_lp_Force_Field>
OPLS_2005

> <r_lp_Energy>
21.9464

> <b_lp_Chiralities_Consistent>
1

> <s_lp_Variant>
AV-unprocessed.smi:2114-3

> <Gold.Version>
5.8.1

> <Gold.Id.Protein>
6NUR|6NUR_protein|mol2

> <Gold.PLP.Fitness>
34.7357

> <Gold.PLP.PLP>
-35.6497

> <Gold.PLP.part.hbond>
0.0000

> <Gold.PLP.part.metal>
0.0000

> <Gold.PLP.part.buried>
-3.7705

> <Gold.PLP.part.nonpolar>
-31.5104

> <Gold.PLP.part.repulsive>
0.5426

> <Gold.PLP.ligand.clash>
0.0000

> <Gold.PLP.ligand.torsion>
0.6325

> <Gold.PLP.Chemscore.Hbond>
0.0000

> <Gold.PLP.Chemscore.CHOScore>
0.0000

> <Gold.PLP.Chemscore.Metal>
0.0000

> <Gold.PLP.Chemscore.Internal.Correction>
0.3508

> <Gold.Rescore>
     Score         DG    S(hbond)    S(metal)    S(lipo)     H(rot)  DE(clash)    DE(int)     intcor
     10.95     -11.62       0.00        0.00      85.83       1.52       0.07       0.61       ----

> <Gold.Chemscore.Fitness>
10.9492

> <Gold.Chemscore.DG>
-11.6237

> <Gold.Chemscore.ZeroCoef>
-5.4800

> <Gold.Chemscore.Hbond>
0.0000

> <Gold.Chemscore.Metal>
0.0000

> <Gold.Chemscore.Lipo>
85.8266

> <Gold.Chemscore.Internal_Hbond>
0.0000

> <Gold.Chemscore.DEClash>
0.0693

> <Gold.Chemscore.DEInternal>
0.6053

> <Gold.Chemscore.Rot>
1.5226

> <Gold.Chemscore.Internal.Correction>
   9.000000E+99

> <Gold.Chemscore.Hbond.Weighted>
-0.0000

> <Gold.Chemscore.Metal.Weighted>
-0.0000

> <Gold.Chemscore.Lipo.Weighted>
-10.0417

> <Gold.Chemscore.Internal_Hbond.Weighted>
0.0000

> <Gold.Chemscore.DEClash.Weighted>
0.0693

> <Gold.Chemscore.DEInternal.Weighted>
0.6053

> <Gold.Chemscore.Rot.Weighted>
3.8980

> <Gold.Chemscore.Internal.Correction.Weighted>
   9.000000E+99

> <Gold.Protein.RotatedTorsions>
[ 6907 6896 6895 6894 ] final  -16.64 input  -60.11 | X-H torsion
[ 7974 7965 7964 7962 ] final -130.13 input  175.53 | X-H torsion
[ 8008 7997 7996 7995 ] final  -57.03 input   59.86 | X-H torsion
[ 10167 10162 10161 10158 ] final -120.61 input  -65.29 | X-H torsion
[ 10718 10713 10712 10709 ] final  157.91 input   66.30 | X-H torsion
[ 10763 10752 10751 10750 ] final  112.65 input  -60.55 | X-H torsion
[ 11005 11000 10999 10996 ] final   27.17 input  -57.11 | X-H torsion

> <Gold.Protein.ActiveResidues>
 VAL166  LYS551  ARG553  GLY616  TRP617  ASP618  TYR619  PRO620  LYS621  CYS622 
 ASP623  PHE694  ASN695  SER759  ASP760  ASP761  ALA762  ILE779  LEU786  VAL792 
 PHE793  MET794  SER795  GLU796  ALA797  LYS798  CYS799  TRP800  GLU811  SER814 

> <Gold.Protein.RotatedAtoms>
  151.3055  135.0780  159.9253 H   0  0  0  0  0  0  0  0  0  0  0  0  # atno 6907 bound_to 6896
  152.5289  133.9789  159.7807 H   0  0  0  0  0  0  0  0  0  0  0  0  # atno 6908 bound_to 6896
  151.0084  133.5937  159.2716 H   0  0  0  0  0  0  0  0  0  0  0  0  # atno 6909 bound_to 6896
  144.9505  140.7339  143.4791 H   0  0  0  0  0  0  0  0  0  0  0  0  # atno 7974 bound_to 7965
  154.4252  140.1116  156.5732 H   0  0  0  0  0  0  0  0  0  0  0  0  # atno 8008 bound_to 7997
  155.6190  140.3495  155.4627 H   0  0  0  0  0  0  0  0  0  0  0  0  # atno 8009 bound_to 7997
  156.0039  140.1205  157.0510 H   0  0  0  0  0  0  0  0  0  0  0  0  # atno 8010 bound_to 7997
  140.0340  143.5219  152.2162 H   0  0  0  0  0  0  0  0  0  0  0  0  # atno 10167 bound_to 10162
  157.1850  131.0641  151.2111 H   0  0  0  0  0  0  0  0  0  0  0  0  # atno 10718 bound_to 10713
  153.4809  135.3680  155.2441 H   0  0  0  0  0  0  0  0  0  0  0  0  # atno 10763 bound_to 10752
  154.8755  135.3954  154.3701 H   0  0  0  0  0  0  0  0  0  0  0  0  # atno 10764 bound_to 10752
  153.4305  135.7082  153.6299 H   0  0  0  0  0  0  0  0  0  0  0  0  # atno 10765 bound_to 10752
  140.3291  134.2458  155.7705 H   0  0  0  0  0  0  0  0  0  0  0  0  # atno 11005 bound_to 11000
  145.2852  139.1904  143.4770 LP  0  0  0  0  0  0  0  0  0  0  0  0  # atno 17320 bound_to 7965
  146.3319  140.2820  142.8611 LP  0  0  0  0  0  0  0  0  0  0  0  0  # atno 17321 bound_to 7965
  139.6057  144.7595  151.3067 LP  0  0  0  0  0  0  0  0  0  0  0  0  # atno 17342 bound_to 10162
  140.7289  143.6921  150.7913 LP  0  0  0  0  0  0  0  0  0  0  0  0  # atno 17343 bound_to 10162
  157.3916  130.7285  149.6701 LP  0  0  0  0  0  0  0  0  0  0  0  0  # atno 17370 bound_to 10713
  155.9719  130.4145  150.4135 LP  0  0  0  0  0  0  0  0  0  0  0  0  # atno 17371 bound_to 10713
  141.2068  133.7824  157.0157 LP  0  0  0  0  0  0  0  0  0  0  0  0  # atno 17394 bound_to 11000
  140.0876  134.9612  157.1724 LP  0  0  0  0  0  0  0  0  0  0  0  0  # atno 17395 bound_to 11000

$$$$
