AV-unprocessed.smi:1760|AV-procd|sdf|7091|dock8
  -GOLD-   22720 8313D 1   1.00000     0.00000
 Structure written by MMmdl.
 43 45  0  0  0  0  0  0  0  0  1 V2000
  149.8606  134.4462  155.7974 O   0  0  0  0  0  0  0  0  0  0  0  0
  149.5366  134.9631  154.7285 C   0  0  0  0  0  0  0  0  0  0  0  0
  148.8564  134.3588  153.7367 N   0  0  0  0  0  0  0  0  0  0  0  0
  148.3429  133.0520  153.6760 C   0  0  0  0  0  0  0  0  0  0  0  0
  149.0309  131.9292  154.0115 C   0  0  0  0  0  0  0  0  0  0  0  0
  148.4343  130.6062  153.9324 C   0  0  0  0  0  0  0  0  0  0  0  0
  149.2384  129.3511  154.2344 C   0  0  0  0  0  0  0  0  0  0  0  0
  148.7739  128.7272  155.3178 F   0  0  0  0  0  0  0  0  0  0  0  0
  149.1971  128.4984  153.2105 F   0  0  0  0  0  0  0  0  0  0  0  0
  150.5122  129.6727  154.4552 F   0  0  0  0  0  0  0  0  0  0  0  0
  147.1620  130.5464  153.4982 C   0  0  0  0  0  0  0  0  0  0  0  0
  146.4405  131.6972  153.1736 N   0  0  0  0  0  0  0  0  0  0  0  0
  146.9414  132.9513  153.2359 C   0  0  0  0  0  0  0  0  0  0  0  0
  146.2388  133.9159  152.9354 O   0  0  0  0  0  0  0  0  0  0  0  0
  149.8468  136.2235  154.3922 N   0  0  0  0  0  0  0  0  0  0  0  0
  150.6093  137.1645  155.2089 C   0  0  0  0  0  0  0  0  0  0  0  0
  149.8081  137.5504  156.4619 C   0  0  0  0  0  0  0  0  0  0  0  0
  150.5261  138.6568  157.2547 C   0  0  0  0  0  0  0  0  0  0  0  0
  150.7231  139.8358  156.4106 N   0  0  0  0  0  0  0  0  0  0  0  0
  151.3612  140.8779  157.1979 C   0  0  0  0  0  0  0  0  0  0  0  0
  150.4793  141.7168  158.0941 C   0  0  0  0  0  0  0  0  0  0  0  0
  151.0565  142.3127  156.8330 C   0  0  0  0  0  0  0  0  0  0  0  0
  151.5906  139.5001  155.2811 C   0  0  0  0  0  0  0  0  0  0  0  0
  150.9235  138.4313  154.3978 C   0  0  0  0  0  0  0  0  0  0  0  0
  145.4841  131.5704  152.8748 H   0  0  0  0  0  0  0  0  0  0  0  0
  148.7252  134.8978  152.8928 H   0  0  0  0  0  0  0  0  0  0  0  0
  150.0457  131.9849  154.3699 H   0  0  0  0  0  0  0  0  0  0  0  0
  146.6074  129.6295  153.3638 H   0  0  0  0  0  0  0  0  0  0  0  0
  149.5415  136.5579  153.4900 H   0  0  0  0  0  0  0  0  0  0  0  0
  151.5541  136.7218  155.5299 H   0  0  0  0  0  0  0  0  0  0  0  0
  148.8127  137.8967  156.1792 H   0  0  0  0  0  0  0  0  0  0  0  0
  149.6633  136.6758  157.0970 H   0  0  0  0  0  0  0  0  0  0  0  0
  149.9259  138.9279  158.1242 H   0  0  0  0  0  0  0  0  0  0  0  0
  151.4856  138.2948  157.6276 H   0  0  0  0  0  0  0  0  0  0  0  0
  152.3666  140.6994  157.5762 H   0  0  0  0  0  0  0  0  0  0  0  0
  149.4121  141.5029  158.1050 H   0  0  0  0  0  0  0  0  0  0  0  0
  150.8981  142.0448  159.0433 H   0  0  0  0  0  0  0  0  0  0  0  0
  151.8597  143.0386  156.9410 H   0  0  0  0  0  0  0  0  0  0  0  0
  150.3718  142.4950  156.0067 H   0  0  0  0  0  0  0  0  0  0  0  0
  151.7786  140.3959  154.6877 H   0  0  0  0  0  0  0  0  0  0  0  0
  152.5578  139.1446  155.6404 H   0  0  0  0  0  0  0  0  0  0  0  0
  151.5759  138.1856  153.5593 H   0  0  0  0  0  0  0  0  0  0  0  0
  150.0068  138.8388  153.9682 H   0  0  0  0  0  0  0  0  0  0  0  0
  1  2  2  0  0  0  0
  2  3  1  0  0  0  0
  2 15  1  0  0  0  0
  3  4  1  0  0  0  0
  3 26  1  0  0  0  0
  4 13  1  0  0  0  0
  4  5  2  0  0  0  0
  5  6  1  0  0  0  0
  5 27  1  0  0  0  0
  6  7  1  0  0  0  0
  6 11  2  0  0  0  0
  7  8  1  0  0  0  0
  7  9  1  0  0  0  0
  7 10  1  0  0  0  0
 11 12  1  0  0  0  0
 11 28  1  0  0  0  0
 12 25  1  0  0  0  0
 12 13  1  0  0  0  0
 13 14  2  0  0  0  0
 15 16  1  0  0  0  0
 15 29  1  0  0  0  0
 16 24  1  0  0  0  0
 16 17  1  0  0  0  0
 16 30  1  0  0  0  0
 17 18  1  0  0  0  0
 17 31  1  0  0  0  0
 17 32  1  0  0  0  0
 18 19  1  0  0  0  0
 18 33  1  0  0  0  0
 18 34  1  0  0  0  0
 19 20  1  0  0  0  0
 19 23  1  0  0  0  0
 20 22  1  0  0  0  0
 20 21  1  0  0  0  0
 20 35  1  0  0  0  0
 21 22  1  0  0  0  0
 21 36  1  0  0  0  0
 21 37  1  0  0  0  0
 22 38  1  0  0  0  0
 22 39  1  0  0  0  0
 23 24  1  0  0  0  0
 23 40  1  0  0  0  0
 23 41  1  0  0  0  0
 24 42  1  0  0  0  0
 24 43  1  0  0  0  0
M  END
> <s_m_source_file>
AV-unprocessed.smi

> <i_m_source_file_index>
1760

> <i_lp_mmshare_version>
43012

> <i_f3d_flags>
0

> <s_epik_input>
W0NIMl0xW0NIMl1bQ0hdMU4oW0NIMl1bQ0gyXTIpW0NIMl1bQ0gyXVtDSF0yW05IXUMoPU8pW05IXWMzW2NIXWMoQyhGKShGKUYpW2NIXVtuSF1jMz1P

> <s_epik_cmdline>
J2VwaWtfcHl0aG9uJywgJy1waCcsICc3LjAnLCAnLXRuJywgJzgnLCAnLW1hJywgJzIwMCcsICctbWV0YWxfYmluZGluZycsICctaW1hZScsICc8aW5maWxlLm1hZT4nLCAnLW9tYWUnLCAnPG91dGZpbGUubWFlPic=

> <r_lp_tautomer_probability>
0.999

> <r_epik_Ionization_Penalty>
0.980325

> <r_epik_Ionization_Penalty_Charging>
0.0037226

> <r_epik_Ionization_Penalty_Neutral>
0.976602

> <r_epik_State_Penalty>
1.02305

> <r_epik_Charging_Adjusted_Penalty>
1.02677

> <i_epik_Tot_Q>
0

> <i_epik_Tot_abs_Q>
0

> <r_epik_Metal_State_Penalty>
1.39928

> <b_epik_Metal_Only>
0

> <s_lp_Force_Field>
OPLS_2005

> <r_lp_Energy>
33.0511

> <b_lp_Chiralities_Consistent>
1

> <s_lp_Variant>
AV-unprocessed.smi:1760-3

> <Gold.Version>
5.8.1

> <Gold.Id.Protein>
6NUR|6NUR_protein|mol2

> <Gold.PLP.Fitness>
39.2758

> <Gold.PLP.PLP>
-35.0549

> <Gold.PLP.part.hbond>
-2.4570

> <Gold.PLP.part.metal>
0.0000

> <Gold.PLP.part.buried>
-2.5649

> <Gold.PLP.part.nonpolar>
-29.6752

> <Gold.PLP.part.repulsive>
0.1787

> <Gold.PLP.ligand.clash>
0.5282

> <Gold.PLP.ligand.torsion>
1.2124

> <Gold.PLP.Chemscore.Hbond>
1.9920

> <Gold.PLP.Chemscore.CHOScore>
0.0000

> <Gold.PLP.Chemscore.Metal>
0.0000

> <Gold.Chemscore.Hbonds>
donor molecule, donor type, donor heavy atom, donor atom, acceptor molecule, acceptor atom, score
      L1  H     3    26       P1  7948  1.00
      L1  H    15    29       P1  7948  0.99

> <Gold.PLP.Chemscore.Internal.Correction>
1.1980

> <Gold.Rescore>
     Score         DG    S(hbond)    S(metal)    S(lipo)     H(rot)  DE(clash)    DE(int)     intcor
     14.40     -15.43       1.54        0.00      69.11       1.27       0.02       1.01       ----

> <Gold.Chemscore.Fitness>
14.4043

> <Gold.Chemscore.DG>
-15.4350

> <Gold.Chemscore.ZeroCoef>
-5.4800

> <Gold.Chemscore.Hbond>
1.5356

> <Gold.Chemscore.Metal>
0.0000

> <Gold.Chemscore.Lipo>
69.1093

> <Gold.Chemscore.Internal_Hbond>
0.0000

> <Gold.Chemscore.DEClash>
0.0170

> <Gold.Chemscore.DEInternal>
1.0137

> <Gold.Chemscore.Rot>
1.2734

> <Gold.Chemscore.Internal.Correction>
   9.000000E+99

> <Gold.Chemscore.Hbonds>
donor molecule, donor type, donor heavy atom, donor atom, acceptor molecule, acceptor atom, score
      L1  H     3    26       P1  7948  0.25
      L1  H    15    29       P1  7948  0.66

> <Gold.Chemscore.Hbond.Weighted>
-5.1290

> <Gold.Chemscore.Metal.Weighted>
-0.0000

> <Gold.Chemscore.Lipo.Weighted>
-8.0858

> <Gold.Chemscore.Internal_Hbond.Weighted>
0.0000

> <Gold.Chemscore.DEClash.Weighted>
0.0170

> <Gold.Chemscore.DEInternal.Weighted>
1.0137

> <Gold.Chemscore.Rot.Weighted>
3.2598

> <Gold.Chemscore.Internal.Correction.Weighted>
   9.000000E+99

> <Gold.Protein.RotatedTorsions>
[ 6907 6896 6895 6894 ] final   55.72 input  -60.11 | X-H torsion
[ 7974 7965 7964 7962 ] final   96.90 input  175.53 | X-H torsion
[ 8008 7997 7996 7995 ] final  -35.61 input   59.86 | X-H torsion
[ 10167 10162 10161 10158 ] final  -26.27 input  -65.29 | X-H torsion
[ 10718 10713 10712 10709 ] final  -46.01 input   66.30 | X-H torsion
[ 10763 10752 10751 10750 ] final  159.74 input  -60.55 | X-H torsion
[ 11005 11000 10999 10996 ] final  167.54 input  -57.11 | X-H torsion

> <Gold.Protein.ActiveResidues>
 VAL166  LYS551  ARG553  GLY616  TRP617  ASP618  TYR619  PRO620  LYS621  CYS622 
 ASP623  PHE694  ASN695  SER759  ASP760  ASP761  ALA762  ILE779  LEU786  VAL792 
 PHE793  MET794  SER795  GLU796  ALA797  LYS798  CYS799  TRP800  GLU811  SER814 

> <Gold.Protein.RotatedAtoms>
  152.3566  134.6931  160.0219 H   0  0  0  0  0  0  0  0  0  0  0  0  # atno 6907 bound_to 6896
  151.7268  133.3311  159.3338 H   0  0  0  0  0  0  0  0  0  0  0  0  # atno 6908 bound_to 6896
  150.7576  134.6333  159.6242 H   0  0  0  0  0  0  0  0  0  0  0  0  # atno 6909 bound_to 6896
  145.4326  139.2309  143.3135 H   0  0  0  0  0  0  0  0  0  0  0  0  # atno 7974 bound_to 7965
  154.4091  140.1652  156.2239 H   0  0  0  0  0  0  0  0  0  0  0  0  # atno 8008 bound_to 7997
  155.9340  140.3413  155.6249 H   0  0  0  0  0  0  0  0  0  0  0  0  # atno 8009 bound_to 7997
  155.7072  140.0752  157.2377 H   0  0  0  0  0  0  0  0  0  0  0  0  # atno 8010 bound_to 7997
  140.7283  143.4192  151.0978 H   0  0  0  0  0  0  0  0  0  0  0  0  # atno 10167 bound_to 10162
  156.2226  130.4167  149.8974 H   0  0  0  0  0  0  0  0  0  0  0  0  # atno 10718 bound_to 10713
  154.2364  135.2776  155.2870 H   0  0  0  0  0  0  0  0  0  0  0  0  # atno 10763 bound_to 10752
  154.5581  135.5655  153.6986 H   0  0  0  0  0  0  0  0  0  0  0  0  # atno 10764 bound_to 10752
  153.0009  135.6291  154.2507 H   0  0  0  0  0  0  0  0  0  0  0  0  # atno 10765 bound_to 10752
  140.2779  134.7774  157.3732 H   0  0  0  0  0  0  0  0  0  0  0  0  # atno 11005 bound_to 11000
  146.2599  140.5065  142.8858 LP  0  0  0  0  0  0  0  0  0  0  0  0  # atno 17320 bound_to 7965
  144.8173  140.6489  143.6376 LP  0  0  0  0  0  0  0  0  0  0  0  0  # atno 17321 bound_to 7965
  139.7836  143.8320  152.3141 LP  0  0  0  0  0  0  0  0  0  0  0  0  # atno 17342 bound_to 10162
  139.8279  144.7267  150.9488 LP  0  0  0  0  0  0  0  0  0  0  0  0  # atno 17343 bound_to 10162
  156.6615  130.8784  151.3548 LP  0  0  0  0  0  0  0  0  0  0  0  0  # atno 17370 bound_to 10713
  157.7095  130.9423  150.1041 LP  0  0  0  0  0  0  0  0  0  0  0  0  # atno 17371 bound_to 10713
  140.1311  134.5094  155.8105 LP  0  0  0  0  0  0  0  0  0  0  0  0  # atno 17394 bound_to 11000
  141.2167  133.6790  156.7041 LP  0  0  0  0  0  0  0  0  0  0  0  0  # atno 17395 bound_to 11000

$$$$
