#       Name:                AV-unprocessed.smi:3112
#       Creating user name   scv26
#       Creation time:       Fri Mar 27 17:22:36 2020


#       File generated by GOLD software.
#

@<TRIPOS>MOLECULE
AV-unprocessed.smi:3112
    40    40     1
SMALL
NO_CHARGES


@<TRIPOS>ATOM
      1 ****        -2.3284   4.3454   1.5828 C.3            1 S1                 0.0000
      2 ****        -1.6779   2.9606   1.4635 C.3            1 S1                 0.0000
      3 ****        -2.0055   2.2465   0.1369 C.3            1 S1                 0.0000
      4 ****        -1.4328   2.9299  -0.9602 O.3            1 S1                 0.0000
      5 ****        -1.5755   0.7681   0.0866 C.3            1 S1                 0.0000
      6 ****        -0.1690   0.5833   0.4552 N.3            1 S1                 0.0000
      7 ****         0.3157  -0.7982   0.3779 C.3            1 S1                 0.0000
      8 ****         1.2442  -1.0496   1.5812 C.3            1 S1                 0.0000
      9 ****         1.0201  -1.0871  -0.9820 C.3            1 S1                 0.0000
     10 ****         0.1010  -0.9793  -2.2130 C.3            1 S1                 0.0000
     11 ****         1.6854  -2.3847  -0.9836 N.pl3          1 S1                 0.0000
     12 ****         3.0348  -2.6517  -1.0923 C.2            1 S1                 0.0000
     13 ****         3.1885  -4.0076  -1.0461 C.2            1 S1                 0.0000
     14 ****         1.8587  -4.4938  -0.9074 C.2            1 S1                 0.0000
     15 ****         0.9619  -3.5221  -0.8707 N.2            1 S1                 0.0000
     16 ****        -2.0978   4.7996   2.5466 H              1 S1                 0.0000
     17 ****        -3.4135   4.2804   1.4980 H              1 S1                 0.0000
     18 ****        -1.9705   5.0212   0.8059 H              1 S1                 0.0000
     19 ****        -0.5985   3.0587   1.5844 H              1 S1                 0.0000
     20 ****        -2.0235   2.3446   2.2944 H              1 S1                 0.0000
     21 ****        -3.0856   2.2746  -0.0105 H              1 S1                 0.0000
     22 ****        -1.7510   3.8194  -0.9591 H              1 S1                 0.0000
     23 ****        -2.1989   0.2038   0.7812 H              1 S1                 0.0000
     24 ****        -1.7884   0.3602  -0.8993 H              1 S1                 0.0000
     25 ****        -0.0256   0.9403   1.3942 H              1 S1                 0.0000
     26 ****        -0.5272  -1.4824   0.4879 H              1 S1                 0.0000
     27 ****         1.5372  -2.0968   1.6572 H              1 S1                 0.0000
     28 ****         0.7490  -0.7925   2.5182 H              1 S1                 0.0000
     29 ****         2.1540  -0.4524   1.5124 H              1 S1                 0.0000
     30 ****         1.8072  -0.3417  -1.1082 H              1 S1                 0.0000
     31 ****        -0.2141   0.0494  -2.3845 H              1 S1                 0.0000
     32 ****        -0.7907  -1.5973  -2.1041 H              1 S1                 0.0000
     33 ****         0.6194  -1.3008  -3.1170 H              1 S1                 0.0000
     34 ****         3.7661  -1.8628  -1.1908 H              1 S1                 0.0000
     35 ****         4.1104  -4.5671  -1.1027 H              1 S1                 0.0000
     36 ****         1.5205  -5.5167  -0.8328 H              1 S1                 0.0000
     37 ****        -1.6958   2.4787  -1.8130 LP             1 S1                 0.0000
     38 ****        -0.4364   2.9281  -0.8757 LP             1 S1                 0.0000
     39 ****         0.3633   1.0902  -0.2228 LP             1 S1                 0.0000
     40 ****        -0.0301  -3.6090  -0.7797 LP             1 S1                 0.0000
@<TRIPOS>BOND
    1    1    2 1     
    2    1   16 1     
    3    1   17 1     
    4    1   18 1     
    5    2    3 1     
    6    2   19 1     
    7    2   20 1     
    8    3    4 1     
    9    3    5 1     
   10    3   21 1     
   11    4   22 1     
   12    5    6 1     
   13    5   23 1     
   14    5   24 1     
   15    6    7 1     
   16    6   25 1     
   17    7    8 1     
   18    7    9 1     
   19    7   26 1     
   20    8   27 1     
   21    8   28 1     
   22    8   29 1     
   23    9   10 1     
   24    9   11 1     
   25    9   30 1     
   26   10   31 1     
   27   10   32 1     
   28   10   33 1     
   29   11   15 1     
   30   11   12 1     
   31   12   13 2     
   32   12   34 1     
   33   13   14 1     
   34   13   35 1     
   35   14   15 2     
   36   14   36 1     
   37    4   37 1     
   38    4   38 1     
   39    6   39 1     
   40   15   40 1     
@<TRIPOS>SUBSTRUCTURE
      1 S1             1
@<TRIPOS>SET
LONE_PAIRS      STATIC     ATOMS    <user>   **** ""
4 37 38 39 40
DONOR_HYDROGENS      STATIC     ATOMS    <user>   **** ""
2 22 25
ATOM$BLUE        STATIC     ATOMS    COLORGROUP SYSTEM
4 37 38 39 40
ATOM$RED        STATIC     ATOMS    COLORGROUP SYSTEM
2 22 25
