AV-unprocessed.smi:3018|AV-procd|sdf|11480|dock8
  -GOLD-   2272016413D 1   1.00000     0.00000
 Structure written by MMmdl.
 45 46  0  0  0  0  0  0  0  0  1 V2000
  148.1614  141.1902  153.9539 C   0  0  0  0  0  0  0  0  0  0  0  0
  148.4715  141.4795  155.4323 C   0  0  0  0  0  0  0  0  0  0  0  0
  149.9663  141.4688  155.8191 C   0  0  1  0  0  0  0  0  0  0  0  0
  150.0718  141.8566  157.1914 O   0  0  0  0  0  0  0  0  0  0  0  0
  151.3006  142.4351  157.6356 C   0  0  0  0  0  0  0  0  0  0  0  0
  151.5242  141.9516  159.0791 C   0  0  0  0  0  0  0  0  0  0  0  0
  152.7911  142.5670  159.6942 C   0  0  0  0  0  0  0  0  0  0  0  0
  152.7517  144.1015  159.6303 C   0  0  0  0  0  0  0  0  0  0  0  0
  152.5280  144.5920  158.1915 C   0  0  0  0  0  0  0  0  0  0  0  0
  151.2587  143.9765  157.5803 C   0  0  0  0  0  0  0  0  0  0  0  0
  150.6434  140.1075  155.5790 C   0  0  0  0  0  0  0  0  0  0  0  0
  150.9956  139.7758  154.4470 O   0  0  0  0  0  0  0  0  0  0  0  0
  150.7545  139.3062  156.6499 N   0  0  0  0  0  0  0  0  0  0  0  0
  151.2235  137.9227  156.6320 C   0  0  0  0  0  0  0  0  0  0  0  0
  151.2632  137.3164  158.0513 C   0  0  0  0  0  0  0  0  0  0  0  0
  152.4845  137.6815  158.8854 C   0  0  0  0  0  0  0  0  0  0  0  0
  152.8576  137.1703  160.0057 N   0  0  0  0  0  0  0  0  0  0  0  0
  153.9969  137.8648  160.2476 N   0  0  0  0  0  0  0  0  0  0  0  0
  154.3087  138.7603  159.3034 C   0  0  0  0  0  0  0  0  0  0  0  0
  155.2865  139.5028  159.2637 O   0  0  0  0  0  0  0  0  0  0  0  0
  153.3279  138.6582  158.4159 N   0  0  0  0  0  0  0  0  0  0  0  0
  154.5274  137.6663  161.0836 H   0  0  0  0  0  0  0  0  0  0  0  0
  153.2269  139.1701  157.5514 H   0  0  0  0  0  0  0  0  0  0  0  0
  147.0849  141.1235  153.7953 H   0  0  0  0  0  0  0  0  0  0  0  0
  148.6002  140.2450  153.6327 H   0  0  0  0  0  0  0  0  0  0  0  0
  148.5346  141.9764  153.2984 H   0  0  0  0  0  0  0  0  0  0  0  0
  148.0347  142.4415  155.7037 H   0  0  0  0  0  0  0  0  0  0  0  0
  147.9543  140.7391  156.0433 H   0  0  0  0  0  0  0  0  0  0  0  0
  150.4597  142.2194  155.2015 H   0  0  0  0  0  0  0  0  0  0  0  0
  152.1378  142.0796  157.0372 H   0  0  0  0  0  0  0  0  0  0  0  0
  150.6601  142.2124  159.6917 H   0  0  0  0  0  0  0  0  0  0  0  0
  151.5987  140.8639  159.0967 H   0  0  0  0  0  0  0  0  0  0  0  0
  152.8978  142.2407  160.7289 H   0  0  0  0  0  0  0  0  0  0  0  0
  153.6707  142.2011  159.1644 H   0  0  0  0  0  0  0  0  0  0  0  0
  151.9513  144.4729  160.2713 H   0  0  0  0  0  0  0  0  0  0  0  0
  153.6810  144.5139  160.0243 H   0  0  0  0  0  0  0  0  0  0  0  0
  152.4573  145.6797  158.1763 H   0  0  0  0  0  0  0  0  0  0  0  0
  153.3914  144.3307  157.5787 H   0  0  0  0  0  0  0  0  0  0  0  0
  151.1617  144.3232  156.5521 H   0  0  0  0  0  0  0  0  0  0  0  0
  150.3810  144.3394  158.1164 H   0  0  0  0  0  0  0  0  0  0  0  0
  150.4337  139.6641  157.5382 H   0  0  0  0  0  0  0  0  0  0  0  0
  150.6332  137.2990  155.9587 H   0  0  0  0  0  0  0  0  0  0  0  0
  152.2329  137.9277  156.2202 H   0  0  0  0  0  0  0  0  0  0  0  0
  150.3730  137.6227  158.6012 H   0  0  0  0  0  0  0  0  0  0  0  0
  151.2088  136.2295  157.9747 H   0  0  0  0  0  0  0  0  0  0  0  0
  1  2  1  0  0  0  0
  1 24  1  0  0  0  0
  1 25  1  0  0  0  0
  1 26  1  0  0  0  0
  2  3  1  0  0  0  0
  2 27  1  0  0  0  0
  2 28  1  0  0  0  0
  3  4  1  0  0  0  0
  3 11  1  0  0  0  0
  3 29  1  0  0  0  0
  4  5  1  0  0  0  0
  5 10  1  0  0  0  0
  5  6  1  0  0  0  0
  5 30  1  0  0  0  0
  6  7  1  0  0  0  0
  6 31  1  0  0  0  0
  6 32  1  0  0  0  0
  7  8  1  0  0  0  0
  7 33  1  0  0  0  0
  7 34  1  0  0  0  0
  8  9  1  0  0  0  0
  8 35  1  0  0  0  0
  8 36  1  0  0  0  0
  9 10  1  0  0  0  0
  9 37  1  0  0  0  0
  9 38  1  0  0  0  0
 10 39  1  0  0  0  0
 10 40  1  0  0  0  0
 11 12  2  0  0  0  0
 11 13  1  0  0  0  0
 13 14  1  0  0  0  0
 13 41  1  0  0  0  0
 14 15  1  0  0  0  0
 14 42  1  0  0  0  0
 14 43  1  0  0  0  0
 15 16  1  0  0  0  0
 15 44  1  0  0  0  0
 15 45  1  0  0  0  0
 16 21  1  0  0  0  0
 16 17  2  0  0  0  0
 17 18  1  0  0  0  0
 18 22  1  0  0  0  0
 18 19  1  0  0  0  0
 19 20  2  0  0  0  0
 19 21  1  0  0  0  0
 21 23  1  0  0  0  0
M  END
> <s_m_source_file>
AV-unprocessed.smi

> <i_m_source_file_index>
3018

> <i_lp_mmshare_version>
43012

> <i_f3d_flags>
0

> <s_epik_input>
W0NIMl0xW0NIMl1bQ0gyXVtDSDJdW0NIMl1bQ0hdMU9bQ0BASF0oW0NIMl1bQ0gzXSlDKD1PKVtOSF1bQ0gyXVtDSDJdYzJuW25IXWMoPU8pW25IXTI=

> <s_epik_cmdline>
J2VwaWtfcHl0aG9uJywgJy1waCcsICc3LjAnLCAnLXRuJywgJzgnLCAnLW1hJywgJzIwMCcsICctbWV0YWxfYmluZGluZycsICctaW1hZScsICc8aW5maWxlLm1hZT4nLCAnLW9tYWUnLCAnPG91dGZpbGUubWFlPic=

> <r_lp_tautomer_probability>
1

> <r_epik_Ionization_Penalty>
0.000773817

> <r_epik_Ionization_Penalty_Charging>
0.000773741

> <r_epik_Ionization_Penalty_Neutral>
7.58514e-08

> <r_epik_State_Penalty>
-0

> <r_epik_Charging_Adjusted_Penalty>
0.000773741

> <i_epik_Tot_Q>
0

> <i_epik_Tot_abs_Q>
0

> <r_epik_Metal_State_Penalty>
0.495152

> <b_epik_Metal_Only>
0

> <s_lp_Force_Field>
OPLS_2005

> <r_lp_Energy>
29.5576

> <b_lp_Chiralities_Consistent>
1

> <s_lp_Variant>
AV-unprocessed.smi:3018-2

> <Gold.Version>
5.8.1

> <Gold.Id.Protein>
6NUR|6NUR_protein|mol2

> <Gold.PLP.Fitness>
43.0752

> <Gold.PLP.PLP>
-36.9653

> <Gold.PLP.part.hbond>
-3.0000

> <Gold.PLP.part.metal>
0.0000

> <Gold.PLP.part.buried>
-4.7827

> <Gold.PLP.part.nonpolar>
-31.0263

> <Gold.PLP.part.repulsive>
0.3697

> <Gold.PLP.ligand.clash>
0.0000

> <Gold.PLP.ligand.torsion>
1.5096

> <Gold.PLP.Chemscore.Hbond>
3.0000

> <Gold.PLP.Chemscore.CHOScore>
0.0000

> <Gold.PLP.Chemscore.Metal>
0.0000

> <Gold.Chemscore.Hbonds>
donor molecule, donor type, donor heavy atom, donor atom, acceptor molecule, acceptor atom, score
      P1  H  6896  6909       L1    17  0.39
      P1  H  7989  7998       L1    12  1.00
      P1  H  7997  8009       L1    20  1.00

> <Gold.PLP.Chemscore.Internal.Correction>
0.1290

> <Gold.Rescore>
     Score         DG    S(hbond)    S(metal)    S(lipo)     H(rot)  DE(clash)    DE(int)     intcor
     16.86     -18.16       2.94        0.00      90.80       3.04       0.05       1.25       ----

> <Gold.Chemscore.Fitness>
16.8577

> <Gold.Chemscore.DG>
-18.1597

> <Gold.Chemscore.ZeroCoef>
-5.4800

> <Gold.Chemscore.Hbond>
2.9431

> <Gold.Chemscore.Metal>
0.0000

> <Gold.Chemscore.Lipo>
90.8016

> <Gold.Chemscore.Internal_Hbond>
0.0000

> <Gold.Chemscore.DEClash>
0.0543

> <Gold.Chemscore.DEInternal>
1.2476

> <Gold.Chemscore.Rot>
3.0367

> <Gold.Chemscore.Internal.Correction>
   9.000000E+99

> <Gold.Chemscore.Hbonds>
donor molecule, donor type, donor heavy atom, donor atom, acceptor molecule, acceptor atom, score
      P1  H  6896  6909       L1    17  0.20
      P1  H  7989  7998       L1    12  0.94
      P1  H  7997  8009       L1    20  0.39

> <Gold.Chemscore.Hbond.Weighted>
-9.8298

> <Gold.Chemscore.Metal.Weighted>
-0.0000

> <Gold.Chemscore.Lipo.Weighted>
-10.6238

> <Gold.Chemscore.Internal_Hbond.Weighted>
0.0000

> <Gold.Chemscore.DEClash.Weighted>
0.0543

> <Gold.Chemscore.DEInternal.Weighted>
1.2476

> <Gold.Chemscore.Rot.Weighted>
7.7739

> <Gold.Chemscore.Internal.Correction.Weighted>
   9.000000E+99

> <Gold.Protein.RotatedTorsions>
[ 6907 6896 6895 6894 ] final  137.95 input  -60.11 | X-H torsion
[ 7974 7965 7964 7962 ] final  135.26 input  175.53 | X-H torsion
[ 8008 7997 7996 7995 ] final  104.49 input   59.86 | X-H torsion
[ 10167 10162 10161 10158 ] final -178.07 input  -65.29 | X-H torsion
[ 10718 10713 10712 10709 ] final   63.64 input   66.30 | X-H torsion
[ 10763 10752 10751 10750 ] final  107.53 input  -60.55 | X-H torsion
[ 11005 11000 10999 10996 ] final  -90.86 input  -57.11 | X-H torsion

> <Gold.Protein.ActiveResidues>
 VAL166  LYS551  ARG553  GLY616  TRP617  ASP618  TYR619  PRO620  LYS621  CYS622 
 ASP623  PHE694  ASN695  SER759  ASP760  ASP761  ALA762  ILE779  LEU786  VAL792 
 PHE793  MET794  SER795  GLU796  ALA797  LYS798  CYS799  TRP800  GLU811  SER814 

> <Gold.Protein.RotatedAtoms>
  152.2722  133.5393  159.5445 H   0  0  0  0  0  0  0  0  0  0  0  0  # atno 6907 bound_to 6896
  150.7163  134.0682  159.3864 H   0  0  0  0  0  0  0  0  0  0  0  0  # atno 6908 bound_to 6896
  151.8596  135.0529  160.0518 H   0  0  0  0  0  0  0  0  0  0  0  0  # atno 6909 bound_to 6896
  144.9681  139.4635  143.5446 H   0  0  0  0  0  0  0  0  0  0  0  0  # atno 7974 bound_to 7965
  156.1577  140.3147  155.8754 H   0  0  0  0  0  0  0  0  0  0  0  0  # atno 8008 bound_to 7997
  155.3845  140.0490  157.3059 H   0  0  0  0  0  0  0  0  0  0  0  0  # atno 8009 bound_to 7997
  154.5117  140.2167  155.9155 H   0  0  0  0  0  0  0  0  0  0  0  0  # atno 8010 bound_to 7997
  139.5450  144.2261  152.0970 H   0  0  0  0  0  0  0  0  0  0  0  0  # atno 10167 bound_to 10162
  157.5985  130.9116  149.9742 H   0  0  0  0  0  0  0  0  0  0  0  0  # atno 10718 bound_to 10713
  153.4080  135.3841  155.2031 H   0  0  0  0  0  0  0  0  0  0  0  0  # atno 10763 bound_to 10752
  154.8735  135.3787  154.4536 H   0  0  0  0  0  0  0  0  0  0  0  0  # atno 10764 bound_to 10752
  153.5041  135.7088  153.5878 H   0  0  0  0  0  0  0  0  0  0  0  0  # atno 10765 bound_to 10752
  141.1557  133.7719  156.9797 H   0  0  0  0  0  0  0  0  0  0  0  0  # atno 11005 bound_to 11000
  146.3374  139.8876  142.8814 LP  0  0  0  0  0  0  0  0  0  0  0  0  # atno 17320 bound_to 7965
  145.2599  141.0073  143.3832 LP  0  0  0  0  0  0  0  0  0  0  0  0  # atno 17321 bound_to 7965
  140.1746  144.4903  150.6561 LP  0  0  0  0  0  0  0  0  0  0  0  0  # atno 17342 bound_to 10162
  140.6694  143.2280  151.5662 LP  0  0  0  0  0  0  0  0  0  0  0  0  # atno 17343 bound_to 10162
  156.1053  130.3653  150.0145 LP  0  0  0  0  0  0  0  0  0  0  0  0  # atno 17370 bound_to 10713
  156.8253  130.9373  151.3639 LP  0  0  0  0  0  0  0  0  0  0  0  0  # atno 17371 bound_to 10713
  140.1074  134.9498  157.2014 LP  0  0  0  0  0  0  0  0  0  0  0  0  # atno 17394 bound_to 11000
  140.3239  134.2886  155.7241 LP  0  0  0  0  0  0  0  0  0  0  0  0  # atno 17395 bound_to 11000

$$$$
