#       Name:                AV-unprocessed.smi:1193
#       Creating user name   scv26
#       Creation time:       Fri Mar 27 03:58:56 2020


#       File generated by GOLD software.
#

@<TRIPOS>MOLECULE
AV-unprocessed.smi:1193
    45    46     1
SMALL
NO_CHARGES


@<TRIPOS>ATOM
      1 ****        -3.6638  -4.9789  -0.0071 C.3            1 S1                 0.0000
      2 ****        -2.9688  -3.7367  -0.0093 O.3            1 S1                 0.0000
      3 ****        -3.7056  -2.5675  -0.0257 C.ar           1 S1                 0.0000
      4 ****        -5.0591  -2.6588  -0.0452 N.ar           1 S1                 0.0000
      5 ****        -5.7800  -1.5190  -0.0637 C.ar           1 S1                 0.0000
      6 ****        -5.1967  -0.2389  -0.0701 C.ar           1 S1                 0.0000
      7 ****        -3.7930  -0.1414  -0.0503 C.ar           1 S1                 0.0000
      8 ****        -3.0222  -1.3290  -0.0161 C.ar           1 S1                 0.0000
      9 ****        -1.6000  -1.3484  -0.0115 N.am           1 S1                 0.0000
     10 ****        -0.7463  -0.3851   0.3742 C.2            1 S1                 0.0000
     11 ****        -1.0660   0.7235   0.8029 O.2            1 S1                 0.0000
     12 ****         0.5259  -0.7898   0.2486 N.am           1 S1                 0.0000
     13 ****         1.7020   0.0164   0.5698 C.3            1 S1                 0.0000
     14 ****         2.1354   0.9475  -0.5772 C.2            1 S1                 0.0000
     15 ****         1.6078   0.8443  -1.6864 O.2            1 S1                 0.0000
     16 ****         3.1059   1.8512  -0.3291 N.am           1 S1                 0.0000
     17 ****         3.8024   2.0300   0.9446 C.3            1 S1                 0.0000
     18 ****         4.9700   2.9715   0.6477 C.3            1 S1                 0.0000
     19 ****         4.5089   3.7648  -0.5671 C.3            1 S1                 0.0000
     20 ****         3.6092   2.7910  -1.3289 C.3            1 S1                 0.0000
     21 ****        -2.9417  -5.7951   0.0125 H              1 S1                 0.0000
     22 ****        -4.2725  -5.0974  -0.9047 H              1 S1                 0.0000
     23 ****        -4.2999  -5.0793   0.8737 H              1 S1                 0.0000
     24 ****        -6.8539  -1.6311  -0.0798 H              1 S1                 0.0000
     25 ****        -5.8119   0.6484  -0.0949 H              1 S1                 0.0000
     26 ****        -3.3403   0.8375  -0.0762 H              1 S1                 0.0000
     27 ****        -1.1831  -2.2309  -0.2697 H              1 S1                 0.0000
     28 ****         0.6966  -1.7165  -0.1130 H              1 S1                 0.0000
     29 ****         1.5139   0.5969   1.4745 H              1 S1                 0.0000
     30 ****         2.5230  -0.6644   0.7955 H              1 S1                 0.0000
     31 ****         3.1193   2.4869   1.6624 H              1 S1                 0.0000
     32 ****         4.1568   1.0868   1.3623 H              1 S1                 0.0000
     33 ****         5.2276   3.6064   1.4958 H              1 S1                 0.0000
     34 ****         5.8539   2.3874   0.3874 H              1 S1                 0.0000
     35 ****         3.9231   4.6245  -0.2388 H              1 S1                 0.0000
     36 ****         5.3374   4.1357  -1.1711 H              1 S1                 0.0000
     37 ****         4.1848   2.2403  -2.0742 H              1 S1                 0.0000
     38 ****         2.8022   3.3156  -1.8429 H              1 S1                 0.0000
     39 ****        -2.3833  -3.7277  -0.8199 LP             1 S1                 0.0000
     40 ****        -2.4001  -3.7154   0.8130 LP             1 S1                 0.0000
     41 ****        -5.5118  -3.5504  -0.0458 LP             1 S1                 0.0000
     42 ****        -2.0322   0.9676   0.8869 LP             1 S1                 0.0000
     43 ****        -0.3597   1.3802   1.0673 LP             1 S1                 0.0000
     44 ****         0.8988   0.1562  -1.8407 LP             1 S1                 0.0000
     45 ****         1.8887   1.4487  -2.4319 LP             1 S1                 0.0000
@<TRIPOS>BOND
    1    1    2 1     
    2    1   21 1     
    3    1   22 1     
    4    1   23 1     
    5    2    3 1     
    6    3    8 ar    
    7    3    4 ar    
    8    4    5 ar    
    9    5    6 ar    
   10    5   24 1     
   11    6    7 ar    
   12    6   25 1     
   13    7    8 ar    
   14    7   26 1     
   15    8    9 1     
   16    9   10 am    
   17    9   27 1     
   18   10   11 2     
   19   10   12 am    
   20   12   13 1     
   21   12   28 1     
   22   13   14 1     
   23   13   29 1     
   24   13   30 1     
   25   14   15 2     
   26   14   16 am    
   27   16   20 1     
   28   16   17 1     
   29   17   18 1     
   30   17   31 1     
   31   17   32 1     
   32   18   19 1     
   33   18   33 1     
   34   18   34 1     
   35   19   20 1     
   36   19   35 1     
   37   19   36 1     
   38   20   37 1     
   39   20   38 1     
   40    2   39 1     
   41    2   40 1     
   42    4   41 1     
   43   11   42 1     
   44   11   43 1     
   45   15   44 1     
   46   15   45 1     
@<TRIPOS>SUBSTRUCTURE
      1 S1             1
@<TRIPOS>SET
LONE_PAIRS      STATIC     ATOMS    <user>   **** ""
7 39 40 41 42 43 44 45
DONOR_HYDROGENS      STATIC     ATOMS    <user>   **** ""
2 27 28
ATOM$BLUE        STATIC     ATOMS    COLORGROUP SYSTEM
7 39 40 41 42 43 44 45
ATOM$RED        STATIC     ATOMS    COLORGROUP SYSTEM
2 27 28
