AV-unprocessed.smi:2021|AV-procd|sdf|8177|dock5
  -GOLD-   2272010423D 1   1.00000     0.00000
 Structure written by MMmdl.
 42 43  0  0  0  0  0  0  0  0  2 V2000
  151.5278  140.3711  156.4239 C   0  0  0  0  0  0  0  0  0  0  0  0
  150.6507  141.6291  156.3091 C   0  0  0  0  0  0  0  0  0  0  0  0
  151.1292  142.7070  157.2932 C   0  0  0  0  0  0  0  0  0  0  0  0
  149.1554  141.3147  156.5357 C   0  0  0  0  0  0  0  0  0  0  0  0
  148.2488  142.0967  155.6507 N   0  3  1  0  0  0  0  0  0  0  0  0
  148.2864  141.6618  154.2333 C   0  0  0  0  0  0  0  0  0  0  0  0
  147.4652  140.3770  154.0256 C   0  0  0  0  0  0  0  0  0  0  0  0
  146.1313  140.5953  154.4660 O   0  0  0  0  0  0  0  0  0  0  0  0
  146.0512  140.8980  155.8558 C   0  0  2  0  0  0  0  0  0  0  0  0
  144.5699  141.0490  156.2466 C   0  0  0  0  0  0  0  0  0  0  0  0
  143.6836  140.4172  155.2748 N   0  0  0  0  0  0  0  0  0  0  0  0
  142.7927  139.4544  155.5521 C   0  0  0  0  0  0  0  0  0  0  0  0
  142.6177  138.9973  156.6818 O   0  0  0  0  0  0  0  0  0  0  0  0
  142.1335  139.0697  154.4453 N   0  0  0  0  0  0  0  0  0  0  0  0
  141.1278  138.0752  154.3198 C   0  0  0  0  0  0  0  0  0  0  0  0
  140.9761  137.0564  155.1804 N   0  0  0  0  0  0  0  0  0  0  0  0
  139.9189  136.2290  154.8241 N   0  0  0  0  0  0  0  0  0  0  0  0
  139.3158  136.6562  153.7110 C   0  0  0  0  0  0  0  0  0  0  0  0
  139.9790  138.1123  152.9899 S   0  0  0  0  0  0  0  0  0  0  0  0
  146.8427  142.1982  156.1212 C   0  0  0  0  0  0  0  0  0  0  0  0
  151.4440  139.9172  157.4118 H   0  0  0  0  0  0  0  0  0  0  0  0
  152.5787  140.6106  156.2580 H   0  0  0  0  0  0  0  0  0  0  0  0
  151.2481  139.6190  155.6861 H   0  0  0  0  0  0  0  0  0  0  0  0
  150.7852  142.0403  155.3093 H   0  0  0  0  0  0  0  0  0  0  0  0
  151.0393  142.3703  158.3266 H   0  0  0  0  0  0  0  0  0  0  0  0
  150.5458  143.6221  157.1889 H   0  0  0  0  0  0  0  0  0  0  0  0
  152.1743  142.9644  157.1177 H   0  0  0  0  0  0  0  0  0  0  0  0
  149.0041  140.2498  156.3527 H   0  0  0  0  0  0  0  0  0  0  0  0
  148.8885  141.4764  157.5800 H   0  0  0  0  0  0  0  0  0  0  0  0
  147.8670  142.4595  153.6186 H   0  0  0  0  0  0  0  0  0  0  0  0
  149.3147  141.5260  153.8963 H   0  0  0  0  0  0  0  0  0  0  0  0
  147.4460  140.1120  152.9684 H   0  0  0  0  0  0  0  0  0  0  0  0
  147.9064  139.5320  154.5561 H   0  0  0  0  0  0  0  0  0  0  0  0
  146.4785  140.0759  156.4319 H   0  0  0  0  0  0  0  0  0  0  0  0
  144.3934  140.5616  157.2057 H   0  0  0  0  0  0  0  0  0  0  0  0
  144.3107  142.1002  156.3852 H   0  0  0  0  0  0  0  0  0  0  0  0
  143.7613  140.7307  154.3183 H   0  0  0  0  0  0  0  0  0  0  0  0
  142.3875  139.5364  153.5872 H   0  0  0  0  0  0  0  0  0  0  0  0
  138.4743  136.1100  153.3115 H   0  0  0  0  0  0  0  0  0  0  0  0
  146.7989  142.4664  157.1757 H   0  0  0  0  0  0  0  0  0  0  0  0
  146.3700  143.0211  155.5833 H   0  0  0  0  0  0  0  0  0  0  0  0
  148.6237  143.0347  155.6592 H   0  0  0  0  0  0  0  0  0  0  0  0
  1  2  1  0  0  0  0
  1 21  1  0  0  0  0
  1 22  1  0  0  0  0
  1 23  1  0  0  0  0
  2  3  1  0  0  0  0
  2  4  1  0  0  0  0
  2 24  1  0  0  0  0
  3 25  1  0  0  0  0
  3 26  1  0  0  0  0
  3 27  1  0  0  0  0
  4  5  1  0  0  0  0
  4 28  1  0  0  0  0
  4 29  1  0  0  0  0
  5 20  1  0  0  0  0
  5  6  1  0  0  0  0
  5 42  1  0  0  0  0
  6  7  1  0  0  0  0
  6 30  1  0  0  0  0
  6 31  1  0  0  0  0
  7  8  1  0  0  0  0
  7 32  1  0  0  0  0
  7 33  1  0  0  0  0
  8  9  1  0  0  0  0
  9 10  1  0  0  0  0
  9 20  1  0  0  0  0
  9 34  1  0  0  0  0
 10 11  1  0  0  0  0
 10 35  1  0  0  0  0
 10 36  1  0  0  0  0
 11 12  1  0  0  0  0
 11 37  1  0  0  0  0
 12 13  2  0  0  0  0
 12 14  1  0  0  0  0
 14 15  1  0  0  0  0
 14 38  1  0  0  0  0
 15 19  1  0  0  0  0
 15 16  2  0  0  0  0
 16 17  1  0  0  0  0
 17 18  2  0  0  0  0
 18 19  1  0  0  0  0
 18 39  1  0  0  0  0
 20 40  1  0  0  0  0
 20 41  1  0  0  0  0
M  CHG  1   5   1
M  END
> <s_m_source_file>
AV-unprocessed.smi

> <i_m_source_file_index>
2021

> <i_lp_mmshare_version>
43012

> <i_f3d_flags>
0

> <s_epik_input>
W0NIM11bQ0hdKFtDSDNdKVtDSDJdTjFbQ0gyXVtDSDJdT1tDQEhdKFtDSDJdMSlbQ0gyXVtOSF1DKD1PKVtOSF1jMm5uW2NIXXMy

> <s_epik_cmdline>
J2VwaWtfcHl0aG9uJywgJy1waCcsICc3LjAnLCAnLXRuJywgJzgnLCAnLW1hJywgJzIwMCcsICctbWV0YWxfYmluZGluZycsICctaW1hZScsICc8aW5maWxlLm1hZT4nLCAnLW9tYWUnLCAnPG91dGZpbGUubWFlPic=

> <r_lp_tautomer_probability>
1

> <r_epik_Ionization_Penalty>
0.102019

> <r_epik_Ionization_Penalty_Charging>
0.098413

> <r_epik_Ionization_Penalty_Neutral>
0.00360555

> <r_epik_State_Penalty>
0.0884988

> <r_epik_Charging_Adjusted_Penalty>
0.186912

> <i_epik_Tot_Q>
1

> <i_epik_Tot_abs_Q>
1

> <r_epik_Metal_State_Penalty>
0.454709

> <b_epik_Metal_Only>
0

> <s_lp_Force_Field>
OPLS_2005

> <r_lp_Energy>
19.4379

> <b_lp_Chiralities_Consistent>
1

> <s_lp_Variant>
AV-unprocessed.smi:2021-3

> <Gold.Version>
5.8.1

> <Gold.Id.Protein>
6NUR|6NUR_protein|mol2

> <Gold.PLP.Fitness>
42.4138

> <Gold.PLP.PLP>
-28.7667

> <Gold.PLP.part.hbond>
-4.1362

> <Gold.PLP.part.metal>
0.0000

> <Gold.PLP.part.buried>
-3.1120

> <Gold.PLP.part.nonpolar>
-20.8392

> <Gold.PLP.part.repulsive>
0.3254

> <Gold.PLP.ligand.clash>
0.0000

> <Gold.PLP.ligand.torsion>
1.3173

> <Gold.PLP.Chemscore.Hbond>
5.0000

> <Gold.PLP.Chemscore.CHOScore>
0.3983

> <Gold.PLP.Chemscore.Metal>
0.0000

> <Gold.Chemscore.Hbonds>
donor molecule, donor type, donor heavy atom, donor atom, acceptor molecule, acceptor atom, score
      L1  H     5    42       P1  8028  2.00
      L1  H    11    37       P1 10175  1.00
      L1  H    14    38       P1 10175  1.00
      P1  H 11000 11005       L1    17  1.00
      L1  C    18    39       P1 10187  0.18

> <Gold.PLP.Chemscore.Internal.Correction>
0.0868

> <Gold.Rescore>
     Score         DG    S(hbond)    S(metal)    S(lipo)     H(rot)  DE(clash)    DE(int)     intcor
     18.43     -21.01       3.82        0.00      64.75       1.88       0.03       2.55       ----

> <Gold.Chemscore.Fitness>
18.4275

> <Gold.Chemscore.DG>
-21.0140

> <Gold.Chemscore.ZeroCoef>
-5.4800

> <Gold.Chemscore.Hbond>
3.8247

> <Gold.Chemscore.Metal>
0.0000

> <Gold.Chemscore.Lipo>
64.7465

> <Gold.Chemscore.Internal_Hbond>
0.0000

> <Gold.Chemscore.DEClash>
0.0341

> <Gold.Chemscore.DEInternal>
2.5524

> <Gold.Chemscore.Rot>
1.8812

> <Gold.Chemscore.Internal.Correction>
   9.000000E+99

> <Gold.Chemscore.Hbonds>
donor molecule, donor type, donor heavy atom, donor atom, acceptor molecule, acceptor atom, score
      L1  H     5    42       P1  8028  1.00
      L1  H    11    37       P1 10175  0.95
      L1  H    14    38       P1 10175  0.97
      P1  H 11000 11005       L1    17  0.55

> <Gold.Chemscore.Hbond.Weighted>
-12.7745

> <Gold.Chemscore.Metal.Weighted>
-0.0000

> <Gold.Chemscore.Lipo.Weighted>
-7.5753

> <Gold.Chemscore.Internal_Hbond.Weighted>
0.0000

> <Gold.Chemscore.DEClash.Weighted>
0.0341

> <Gold.Chemscore.DEInternal.Weighted>
2.5524

> <Gold.Chemscore.Rot.Weighted>
4.8159

> <Gold.Chemscore.Internal.Correction.Weighted>
   9.000000E+99

> <Gold.Protein.RotatedTorsions>
[ 6907 6896 6895 6894 ] final -133.78 input  -60.11 | X-H torsion
[ 7974 7965 7964 7962 ] final  114.35 input  175.53 | X-H torsion
[ 8008 7997 7996 7995 ] final   88.34 input   59.86 | X-H torsion
[ 10167 10162 10161 10158 ] final  164.65 input  -65.29 | X-H torsion
[ 10718 10713 10712 10709 ] final -104.49 input   66.30 | X-H torsion
[ 10763 10752 10751 10750 ] final   60.27 input  -60.55 | X-H torsion
[ 11005 11000 10999 10996 ] final   71.74 input  -57.11 | X-H torsion

> <Gold.Protein.ActiveResidues>
 VAL166  LYS551  ARG553  GLY616  TRP617  ASP618  TYR619  PRO620  LYS621  CYS622 
 ASP623  PHE694  ASN695  SER759  ASP760  ASP761  ALA762  ILE779  LEU786  VAL792 
 PHE793  MET794  SER795  GLU796  ALA797  LYS798  CYS799  TRP800  GLU811  SER814 

> <Gold.Protein.RotatedAtoms>
  150.9781  133.6274  159.2726 H   0  0  0  0  0  0  0  0  0  0  0  0  # atno 6907 bound_to 6896
  151.3539  135.0889  159.9422 H   0  0  0  0  0  0  0  0  0  0  0  0  # atno 6908 bound_to 6896
  152.5206  133.9368  159.7662 H   0  0  0  0  0  0  0  0  0  0  0  0  # atno 6909 bound_to 6896
  145.2055  139.2931  143.4296 H   0  0  0  0  0  0  0  0  0  0  0  0  # atno 7974 bound_to 7965
  155.9865  140.3372  155.6712 H   0  0  0  0  0  0  0  0  0  0  0  0  # atno 8008 bound_to 7997
  155.6478  140.0702  157.2615 H   0  0  0  0  0  0  0  0  0  0  0  0  # atno 8009 bound_to 7997
  154.4207  140.1731  156.1630 H   0  0  0  0  0  0  0  0  0  0  0  0  # atno 8010 bound_to 7997
  139.4892  144.4213  151.9183 H   0  0  0  0  0  0  0  0  0  0  0  0  # atno 10167 bound_to 10162
  156.0307  130.5518  150.7404 H   0  0  0  0  0  0  0  0  0  0  0  0  # atno 10718 bound_to 10713
  152.9916  135.5542  154.5846 H   0  0  0  0  0  0  0  0  0  0  0  0  # atno 10763 bound_to 10752
  154.5221  135.2808  155.1256 H   0  0  0  0  0  0  0  0  0  0  0  0  # atno 10764 bound_to 10752
  154.2605  135.6382  153.5325 H   0  0  0  0  0  0  0  0  0  0  0  0  # atno 10765 bound_to 10752
  139.9527  134.7198  156.0824 H   0  0  0  0  0  0  0  0  0  0  0  0  # atno 11005 bound_to 11000
  146.3408  140.2314  142.8593 LP  0  0  0  0  0  0  0  0  0  0  0  0  # atno 17320 bound_to 7965
  144.9906  140.8543  143.5342 LP  0  0  0  0  0  0  0  0  0  0  0  0  # atno 17321 bound_to 7965
  140.3657  144.2918  150.5927 LP  0  0  0  0  0  0  0  0  0  0  0  0  # atno 17342 bound_to 10162
  140.5363  143.2232  151.8157 LP  0  0  0  0  0  0  0  0  0  0  0  0  # atno 17343 bound_to 10162
  157.4974  131.0916  151.0355 LP  0  0  0  0  0  0  0  0  0  0  0  0  # atno 17370 bound_to 10713
  157.0745  130.5878  149.5408 LP  0  0  0  0  0  0  0  0  0  0  0  0  # atno 17371 bound_to 10713
  141.1193  133.6617  156.3175 LP  0  0  0  0  0  0  0  0  0  0  0  0  # atno 17394 bound_to 11000
  140.5680  134.5868  157.5450 LP  0  0  0  0  0  0  0  0  0  0  0  0  # atno 17395 bound_to 11000

$$$$
