AV-unprocessed.smi:465|AV-procd|sdf|2639|dock5
  -GOLD-   2262023 43D 1   1.00000     0.00000
 Structure written by MMmdl.
 42 44  0  0  0  0  0  0  0  0  1 V2000
  151.1419  145.2823  160.4102 C   0  0  0  0  0  0  0  0  0  0  0  0
  151.5606  143.9596  159.8024 C   0  0  0  0  0  0  0  0  0  0  0  0
  150.9554  143.4938  158.6185 C   0  0  0  0  0  0  0  0  0  0  0  0
  151.3539  142.2648  158.0583 C   0  0  0  0  0  0  0  0  0  0  0  0
  152.3592  141.4850  158.6660 C   0  0  0  0  0  0  0  0  0  0  0  0
  152.6904  140.2982  158.0478 O   0  0  0  0  0  0  0  0  0  0  0  0
  151.6952  139.6448  157.2729 C   0  0  0  0  0  0  0  0  0  0  0  0
  151.6996  140.2435  155.8615 C   0  0  0  0  0  0  0  0  0  0  0  0
  150.6058  139.7205  155.0576 N   0  0  0  0  0  0  0  0  0  0  0  0
  150.4637  138.4795  154.5251 C   0  0  0  0  0  0  0  0  0  0  0  0
  151.4818  137.3923  154.7138 C   0  0  0  0  0  0  0  0  0  0  0  0
  150.9104  136.1350  155.3888 C   0  0  0  0  0  0  0  0  0  0  0  0
  151.9462  135.2812  155.8269 O   0  0  0  0  0  0  0  0  0  0  0  0
  149.3498  138.2772  153.8197 N   0  0  0  0  0  0  0  0  0  0  0  0
  148.7127  139.5001  153.8968 C   0  0  0  0  0  0  0  0  0  0  0  0
  147.4833  139.9315  153.3489 C   0  0  0  0  0  0  0  0  0  0  0  0
  147.0309  141.2503  153.5613 C   0  0  0  0  0  0  0  0  0  0  0  0
  147.7996  142.1546  154.3226 C   0  0  0  0  0  0  0  0  0  0  0  0
  149.0271  141.7449  154.8778 C   0  0  0  0  0  0  0  0  0  0  0  0
  149.4736  140.4269  154.6637 C   0  0  0  0  0  0  0  0  0  0  0  0
  152.9627  141.9591  159.8582 C   0  0  0  0  0  0  0  0  0  0  0  0
  152.5648  143.1883  160.4192 C   0  0  0  0  0  0  0  0  0  0  0  0
  150.2167  145.6484  159.9642 H   0  0  0  0  0  0  0  0  0  0  0  0
  151.9181  146.0310  160.2515 H   0  0  0  0  0  0  0  0  0  0  0  0
  150.9817  145.1754  161.4833 H   0  0  0  0  0  0  0  0  0  0  0  0
  150.1852  144.0762  158.1346 H   0  0  0  0  0  0  0  0  0  0  0  0
  150.8838  141.9175  157.1500 H   0  0  0  0  0  0  0  0  0  0  0  0
  151.9031  138.5749  157.2167 H   0  0  0  0  0  0  0  0  0  0  0  0
  150.7140  139.7782  157.7310 H   0  0  0  0  0  0  0  0  0  0  0  0
  151.6388  141.3303  155.9023 H   0  0  0  0  0  0  0  0  0  0  0  0
  152.6399  140.0114  155.3608 H   0  0  0  0  0  0  0  0  0  0  0  0
  151.8544  137.1188  153.7260 H   0  0  0  0  0  0  0  0  0  0  0  0
  152.3502  137.7632  155.2577 H   0  0  0  0  0  0  0  0  0  0  0  0
  150.2640  136.3979  156.2269 H   0  0  0  0  0  0  0  0  0  0  0  0
  150.3012  135.5793  154.6756 H   0  0  0  0  0  0  0  0  0  0  0  0
  152.1196  135.4606  156.7384 H   0  0  0  0  0  0  0  0  0  0  0  0
  146.8879  139.2469  152.7631 H   0  0  0  0  0  0  0  0  0  0  0  0
  146.0900  141.5698  153.1378 H   0  0  0  0  0  0  0  0  0  0  0  0
  147.4461  143.1633  154.4798 H   0  0  0  0  0  0  0  0  0  0  0  0
  149.6185  142.4356  155.4602 H   0  0  0  0  0  0  0  0  0  0  0  0
  153.7350  141.3988  160.3626 H   0  0  0  0  0  0  0  0  0  0  0  0
  153.0350  143.5385  161.3265 H   0  0  0  0  0  0  0  0  0  0  0  0
  1  2  1  0  0  0  0
  1 23  1  0  0  0  0
  1 24  1  0  0  0  0
  1 25  1  0  0  0  0
  2 22  1  0  0  0  0
  2  3  2  0  0  0  0
  3  4  1  0  0  0  0
  3 26  1  0  0  0  0
  4  5  2  0  0  0  0
  4 27  1  0  0  0  0
  5  6  1  0  0  0  0
  5 21  1  0  0  0  0
  6  7  1  0  0  0  0
  7  8  1  0  0  0  0
  7 28  1  0  0  0  0
  7 29  1  0  0  0  0
  8  9  1  0  0  0  0
  8 30  1  0  0  0  0
  8 31  1  0  0  0  0
  9 20  1  0  0  0  0
  9 10  1  0  0  0  0
 10 11  1  0  0  0  0
 10 14  2  0  0  0  0
 11 12  1  0  0  0  0
 11 32  1  0  0  0  0
 11 33  1  0  0  0  0
 12 13  1  0  0  0  0
 12 34  1  0  0  0  0
 12 35  1  0  0  0  0
 13 36  1  0  0  0  0
 14 15  1  0  0  0  0
 15 20  2  0  0  0  0
 15 16  1  0  0  0  0
 16 17  2  0  0  0  0
 16 37  1  0  0  0  0
 17 18  1  0  0  0  0
 17 38  1  0  0  0  0
 18 19  2  0  0  0  0
 18 39  1  0  0  0  0
 19 20  1  0  0  0  0
 19 40  1  0  0  0  0
 21 22  2  0  0  0  0
 21 41  1  0  0  0  0
 22 42  1  0  0  0  0
M  END
> <s_m_source_file>
AV-unprocessed.smi

> <i_m_source_file_index>
465

> <i_lp_mmshare_version>
43012

> <i_f3d_flags>
0

> <s_epik_input>
W0NIM11jMVtjSF1bY0hdYyhbY0hdW2NIXTEpT1tDSDJdW0NIMl1uKGMobjIpW0NIMl1bQ0gyXVtPSF0pYyhjMjMpW2NIXVtjSF1bY0hdW2NIXTM=

> <s_epik_cmdline>
J2VwaWtfcHl0aG9uJywgJy1waCcsICc3LjAnLCAnLXRuJywgJzgnLCAnLW1hJywgJzIwMCcsICctbWV0YWxfYmluZGluZycsICctaW1hZScsICc8aW5maWxlLm1hZT4nLCAnLW9tYWUnLCAnPG91dGZpbGUubWFlPic=

> <r_lp_tautomer_probability>
1

> <r_epik_Ionization_Penalty>
0.207749

> <r_epik_Ionization_Penalty_Charging>
0

> <r_epik_Ionization_Penalty_Neutral>
0.207749

> <r_epik_State_Penalty>
0.197758

> <r_epik_Charging_Adjusted_Penalty>
0.197758

> <i_epik_Tot_Q>
0

> <i_epik_Tot_abs_Q>
0

> <r_epik_Metal_State_Penalty>
0.000234715

> <b_epik_Metal_Only>
0

> <s_lp_Force_Field>
OPLS_2005

> <r_lp_Energy>
16.7212

> <b_lp_Chiralities_Consistent>
1

> <s_lp_Variant>
AV-unprocessed.smi:465-1

> <Gold.Version>
5.8.1

> <Gold.Id.Protein>
6NUR|6NUR_protein|mol2

> <Gold.PLP.Fitness>
53.8476

> <Gold.PLP.PLP>
-49.3071

> <Gold.PLP.part.hbond>
-2.0000

> <Gold.PLP.part.metal>
0.0000

> <Gold.PLP.part.buried>
-0.5901

> <Gold.PLP.part.nonpolar>
-46.9500

> <Gold.PLP.part.repulsive>
1.9639

> <Gold.PLP.ligand.clash>
0.0000

> <Gold.PLP.ligand.torsion>
0.6899

> <Gold.PLP.Chemscore.Hbond>
1.9600

> <Gold.PLP.Chemscore.CHOScore>
0.0000

> <Gold.PLP.Chemscore.Metal>
0.0000

> <Gold.Chemscore.Hbonds>
donor molecule, donor type, donor heavy atom, donor atom, acceptor molecule, acceptor atom, score
      P1  H  7997  8009       L1     6  0.67
      P1  H 10752 10765       L1    13  0.75

> <Gold.PLP.Chemscore.Internal.Correction>
0.0404

> <Gold.Rescore>
     Score         DG    S(hbond)    S(metal)    S(lipo)     H(rot)  DE(clash)    DE(int)     intcor
     18.91     -21.22       1.57        0.00     139.64       2.28       1.46       0.85       ----

> <Gold.Chemscore.Fitness>
18.9106

> <Gold.Chemscore.DG>
-21.2238

> <Gold.Chemscore.ZeroCoef>
-5.4800

> <Gold.Chemscore.Hbond>
1.5713

> <Gold.Chemscore.Metal>
0.0000

> <Gold.Chemscore.Lipo>
139.6378

> <Gold.Chemscore.Internal_Hbond>
0.0000

> <Gold.Chemscore.DEClash>
1.4592

> <Gold.Chemscore.DEInternal>
0.8540

> <Gold.Chemscore.Rot>
2.2821

> <Gold.Chemscore.Internal.Correction>
   9.000000E+99

> <Gold.Chemscore.Hbonds>
donor molecule, donor type, donor heavy atom, donor atom, acceptor molecule, acceptor atom, score
      P1  H  7997  8009       L1     6  0.25
      P1  H 10752 10765       L1    13  0.47

> <Gold.Chemscore.Hbond.Weighted>
-5.2483

> <Gold.Chemscore.Metal.Weighted>
-0.0000

> <Gold.Chemscore.Lipo.Weighted>
-16.3376

> <Gold.Chemscore.Internal_Hbond.Weighted>
0.0000

> <Gold.Chemscore.DEClash.Weighted>
1.4592

> <Gold.Chemscore.DEInternal.Weighted>
0.8540

> <Gold.Chemscore.Rot.Weighted>
5.8421

> <Gold.Chemscore.Internal.Correction.Weighted>
   9.000000E+99

> <Gold.Protein.RotatedTorsions>
[ 6907 6896 6895 6894 ] final   49.11 input  -60.11 | X-H torsion
[ 7974 7965 7964 7962 ] final   11.02 input  175.53 | X-H torsion
[ 8008 7997 7996 7995 ] final  167.32 input   59.86 | X-H torsion
[ 10167 10162 10161 10158 ] final  115.45 input  -65.29 | X-H torsion
[ 10718 10713 10712 10709 ] final  -55.11 input   66.30 | X-H torsion
[ 10763 10752 10751 10750 ] final -152.40 input  -60.55 | X-H torsion
[ 11005 11000 10999 10996 ] final   97.75 input  -57.11 | X-H torsion

> <Gold.Protein.ActiveResidues>
 VAL166  LYS551  ARG553  GLY616  TRP617  ASP618  TYR619  PRO620  LYS621  CYS622 
 ASP623  PHE694  ASN695  SER759  ASP760  ASP761  ALA762  ILE779  LEU786  VAL792 
 PHE793  MET794  SER795  GLU796  ALA797  LYS798  CYS799  TRP800  GLU811  SER814 

> <Gold.Protein.RotatedAtoms>
  152.2871  134.7763  160.0384 H   0  0  0  0  0  0  0  0  0  0  0  0  # atno 6907 bound_to 6896
  151.8322  133.3405  159.3625 H   0  0  0  0  0  0  0  0  0  0  0  0  # atno 6908 bound_to 6896
  150.7214  134.5400  159.5787 H   0  0  0  0  0  0  0  0  0  0  0  0  # atno 6909 bound_to 6896
  146.2378  139.9547  142.8466 H   0  0  0  0  0  0  0  0  0  0  0  0  # atno 7974 bound_to 7965
  156.1644  140.1620  156.8557 H   0  0  0  0  0  0  0  0  0  0  0  0  # atno 8008 bound_to 7997
  154.5192  140.0782  156.8175 H   0  0  0  0  0  0  0  0  0  0  0  0  # atno 8009 bound_to 7997
  155.3642  140.3397  155.4244 H   0  0  0  0  0  0  0  0  0  0  0  0  # atno 8010 bound_to 7997
  139.6316  144.7115  151.2419 H   0  0  0  0  0  0  0  0  0  0  0  0  # atno 10167 bound_to 10162
  156.1395  130.4155  150.0127 H   0  0  0  0  0  0  0  0  0  0  0  0  # atno 10718 bound_to 10713
  154.7996  135.3237  154.7582 H   0  0  0  0  0  0  0  0  0  0  0  0  # atno 10763 bound_to 10752
  153.8253  135.6884  153.4826 H   0  0  0  0  0  0  0  0  0  0  0  0  # atno 10764 bound_to 10752
  153.1705  135.4625  154.9839 H   0  0  0  0  0  0  0  0  0  0  0  0  # atno 10765 bound_to 10752
  139.8775  134.9016  156.4354 H   0  0  0  0  0  0  0  0  0  0  0  0  # atno 11005 bound_to 11000
  145.1828  140.9775  143.4256 LP  0  0  0  0  0  0  0  0  0  0  0  0  # atno 17320 bound_to 7965
  144.9927  139.3674  143.6207 LP  0  0  0  0  0  0  0  0  0  0  0  0  # atno 17321 bound_to 7965
  140.7442  143.6469  150.8283 LP  0  0  0  0  0  0  0  0  0  0  0  0  # atno 17342 bound_to 10162
  140.0095  143.5658  152.2844 LP  0  0  0  0  0  0  0  0  0  0  0  0  # atno 17343 bound_to 10162
  156.8016  130.9292  151.3646 LP  0  0  0  0  0  0  0  0  0  0  0  0  # atno 17370 bound_to 10713
  157.6563  130.8927  149.9736 LP  0  0  0  0  0  0  0  0  0  0  0  0  # atno 17371 bound_to 10713
  140.9037  133.7761  155.9710 LP  0  0  0  0  0  0  0  0  0  0  0  0  # atno 17394 bound_to 11000
  140.8622  134.2826  157.5229 LP  0  0  0  0  0  0  0  0  0  0  0  0  # atno 17395 bound_to 11000

$$$$
