AV-unprocessed.smi:3253|AV-procd|sdf|12450|dock10
  -GOLD-   2272018343D 1   1.00000     0.00000
 Structure written by MMmdl.
 36 37  0  0  0  0  0  0  0  0  1 V2000
  146.1371  134.8363  151.9092 C   0  0  0  0  0  0  0  0  0  0  0  0
  146.4568  133.6588  152.8401 C   0  0  1  0  0  0  0  0  0  0  0  0
  146.5318  132.3290  152.0595 C   0  0  0  0  0  0  0  0  0  0  0  0
  145.5337  132.2384  151.0092 N   0  0  0  0  0  0  0  0  0  0  0  0
  144.1651  132.4415  151.1319 C   0  0  0  0  0  0  0  0  0  0  0  0
  143.6270  132.2615  149.8778 C   0  0  0  0  0  0  0  0  0  0  0  0
  144.6384  131.9412  148.9754 N   0  0  0  0  0  0  0  0  0  0  0  0
  145.7379  131.9443  149.7179 C   0  0  0  0  0  0  0  0  0  0  0  0
  147.7185  133.9266  153.5294 N   0  0  0  0  0  0  0  0  0  0  0  0
  148.3102  133.1173  154.4225 C   0  0  0  0  0  0  0  0  0  0  0  0
  147.8222  132.0509  154.7984 O   0  0  0  0  0  0  0  0  0  0  0  0
  149.6753  133.5737  154.9587 C   0  0  2  0  0  0  0  0  0  0  0  0
  149.7372  133.4558  156.4954 C   0  0  0  0  0  0  0  0  0  0  0  0
  149.8114  134.8964  156.9724 C   0  0  0  0  0  0  0  0  0  0  0  0
  149.7761  135.2092  158.1614 O   0  0  0  0  0  0  0  0  0  0  0  0
  149.9086  135.7375  155.9392 N   0  0  0  0  0  0  0  0  0  0  0  0
  149.9857  137.1894  156.0263 C   0  0  0  0  0  0  0  0  0  0  0  0
  149.9650  135.0602  154.6552 C   0  0  0  0  0  0  0  0  0  0  0  0
  145.1863  134.6846  151.3976 H   0  0  0  0  0  0  0  0  0  0  0  0
  146.9077  134.9630  151.1478 H   0  0  0  0  0  0  0  0  0  0  0  0
  146.0634  135.7698  152.4682 H   0  0  0  0  0  0  0  0  0  0  0  0
  145.6433  133.5936  153.5651 H   0  0  0  0  0  0  0  0  0  0  0  0
  147.5134  132.2209  151.5964 H   0  0  0  0  0  0  0  0  0  0  0  0
  146.4103  131.4803  152.7342 H   0  0  0  0  0  0  0  0  0  0  0  0
  143.7014  132.6982  152.0727 H   0  0  0  0  0  0  0  0  0  0  0  0
  142.5982  132.3371  149.5579 H   0  0  0  0  0  0  0  0  0  0  0  0
  146.7165  131.7342  149.3115 H   0  0  0  0  0  0  0  0  0  0  0  0
  148.1943  134.7829  153.2846 H   0  0  0  0  0  0  0  0  0  0  0  0
  150.4565  132.9568  154.5112 H   0  0  0  0  0  0  0  0  0  0  0  0
  148.8723  132.9542  156.9334 H   0  0  0  0  0  0  0  0  0  0  0  0
  150.6323  132.9204  156.8132 H   0  0  0  0  0  0  0  0  0  0  0  0
  150.7693  137.4939  156.7210 H   0  0  0  0  0  0  0  0  0  0  0  0
  149.0374  137.5992  156.3754 H   0  0  0  0  0  0  0  0  0  0  0  0
  150.2083  137.6294  155.0538 H   0  0  0  0  0  0  0  0  0  0  0  0
  150.9609  135.1807  154.2269 H   0  0  0  0  0  0  0  0  0  0  0  0
  149.2513  135.5032  153.9579 H   0  0  0  0  0  0  0  0  0  0  0  0
  1  2  1  0  0  0  0
  1 19  1  0  0  0  0
  1 20  1  0  0  0  0
  1 21  1  0  0  0  0
  2  3  1  0  0  0  0
  2  9  1  0  0  0  0
  2 22  1  0  0  0  0
  3  4  1  0  0  0  0
  3 23  1  0  0  0  0
  3 24  1  0  0  0  0
  4  8  1  0  0  0  0
  4  5  1  0  0  0  0
  5  6  2  0  0  0  0
  5 25  1  0  0  0  0
  6  7  1  0  0  0  0
  6 26  1  0  0  0  0
  7  8  2  0  0  0  0
  8 27  1  0  0  0  0
  9 10  1  0  0  0  0
  9 28  1  0  0  0  0
 10 11  2  0  0  0  0
 10 12  1  0  0  0  0
 12 18  1  0  0  0  0
 12 13  1  0  0  0  0
 12 29  1  0  0  0  0
 13 14  1  0  0  0  0
 13 30  1  0  0  0  0
 13 31  1  0  0  0  0
 14 15  2  0  0  0  0
 14 16  1  0  0  0  0
 16 17  1  0  0  0  0
 16 18  1  0  0  0  0
 17 32  1  0  0  0  0
 17 33  1  0  0  0  0
 17 34  1  0  0  0  0
 18 35  1  0  0  0  0
 18 36  1  0  0  0  0
M  END
> <s_m_source_file>
AV-unprocessed.smi

> <i_m_source_file_index>
3253

> <i_lp_mmshare_version>
43012

> <i_f3d_flags>
0

> <s_epik_input>
W2NIXTFuW2NIXVtjSF1uMVtDSDJdW0NAQEhdKFtDSDNdKVtOSF1DKD1PKVtDQEBIXTJbQ0gyXUMoPU8pTihbQ0gzXSlbQ0gyXTI=

> <s_epik_cmdline>
J2VwaWtfcHl0aG9uJywgJy1waCcsICc3LjAnLCAnLXRuJywgJzgnLCAnLW1hJywgJzIwMCcsICctbWV0YWxfYmluZGluZycsICctaW1hZScsICc8aW5maWxlLm1hZT4nLCAnLW9tYWUnLCAnPG91dGZpbGUubWFlPic=

> <r_lp_tautomer_probability>
1

> <r_epik_Ionization_Penalty>
0.628884

> <r_epik_Ionization_Penalty_Charging>
0.628884

> <r_epik_Ionization_Penalty_Neutral>
2.35084e-08

> <r_epik_State_Penalty>
0.64556

> <r_epik_Charging_Adjusted_Penalty>
1.27444

> <i_epik_Tot_Q>
0

> <i_epik_Tot_abs_Q>
0

> <r_epik_Metal_State_Penalty>
0.308736

> <b_epik_Metal_Only>
0

> <s_lp_Force_Field>
OPLS_2005

> <r_lp_Energy>
12.6473

> <b_lp_Chiralities_Consistent>
1

> <s_lp_Variant>
AV-unprocessed.smi:3253-6

> <Gold.Version>
5.8.1

> <Gold.Id.Protein>
6NUR|6NUR_protein|mol2

> <Gold.PLP.Fitness>
40.9135

> <Gold.PLP.PLP>
-30.5978

> <Gold.PLP.part.hbond>
-3.2243

> <Gold.PLP.part.metal>
0.0000

> <Gold.PLP.part.buried>
-2.6378

> <Gold.PLP.part.nonpolar>
-25.7044

> <Gold.PLP.part.repulsive>
0.2298

> <Gold.PLP.ligand.clash>
0.0000

> <Gold.PLP.ligand.torsion>
0.5739

> <Gold.PLP.Chemscore.Hbond>
1.9833

> <Gold.PLP.Chemscore.CHOScore>
1.8311

> <Gold.PLP.Chemscore.Metal>
0.0000

> <Gold.Chemscore.Hbonds>
donor molecule, donor type, donor heavy atom, donor atom, acceptor molecule, acceptor atom, score
      L1  H     9    28       P1  7948  0.73
      P1  H  6896  6907       L1    15  0.94
      L1  C     6    26       P1 10186  0.79
      L1  C     6    26       P1 10952  0.62
      L1  C     8    27       P1 10747  0.87

> <Gold.PLP.Chemscore.Internal.Correction>
0.0207

> <Gold.Rescore>
     Score         DG    S(hbond)    S(metal)    S(lipo)     H(rot)  DE(clash)    DE(int)     intcor
     10.63     -12.46       1.69        0.00      54.46       1.97       0.34       1.49       ----

> <Gold.Chemscore.Fitness>
10.6294

> <Gold.Chemscore.DG>
-12.4624

> <Gold.Chemscore.ZeroCoef>
-5.4800

> <Gold.Chemscore.Hbond>
1.6904

> <Gold.Chemscore.Metal>
0.0000

> <Gold.Chemscore.Lipo>
54.4580

> <Gold.Chemscore.Internal_Hbond>
0.0000

> <Gold.Chemscore.DEClash>
0.3418

> <Gold.Chemscore.DEInternal>
1.4912

> <Gold.Chemscore.Rot>
1.9669

> <Gold.Chemscore.Internal.Correction>
   9.000000E+99

> <Gold.Chemscore.Hbonds>
donor molecule, donor type, donor heavy atom, donor atom, acceptor molecule, acceptor atom, score
      L1  H     9    28       P1  7948  0.60
      P1  H  6896  6907       L1    15  0.89

> <Gold.Chemscore.Hbond.Weighted>
-5.6460

> <Gold.Chemscore.Metal.Weighted>
-0.0000

> <Gold.Chemscore.Lipo.Weighted>
-6.3716

> <Gold.Chemscore.Internal_Hbond.Weighted>
0.0000

> <Gold.Chemscore.DEClash.Weighted>
0.3418

> <Gold.Chemscore.DEInternal.Weighted>
1.4912

> <Gold.Chemscore.Rot.Weighted>
5.0352

> <Gold.Chemscore.Internal.Correction.Weighted>
   9.000000E+99

> <Gold.Protein.RotatedTorsions>
[ 6907 6896 6895 6894 ] final  -91.47 input  -60.11 | X-H torsion
[ 7974 7965 7964 7962 ] final   -0.68 input  175.53 | X-H torsion
[ 8008 7997 7996 7995 ] final   -8.20 input   59.86 | X-H torsion
[ 10167 10162 10161 10158 ] final   77.50 input  -65.29 | X-H torsion
[ 10718 10713 10712 10709 ] final   28.98 input   66.30 | X-H torsion
[ 10763 10752 10751 10750 ] final  -13.42 input  -60.55 | X-H torsion
[ 11005 11000 10999 10996 ] final  -79.53 input  -57.11 | X-H torsion

> <Gold.Protein.ActiveResidues>
 VAL166  LYS551  ARG553  GLY616  TRP617  ASP618  TYR619  PRO620  LYS621  CYS622 
 ASP623  PHE694  ASN695  SER759  ASP760  ASP761  ALA762  ILE779  LEU786  VAL792 
 PHE793  MET794  SER795  GLU796  ALA797  LYS798  CYS799  TRP800  GLU811  SER814 

> <Gold.Protein.RotatedAtoms>
  150.6893  134.2272  159.4419 H   0  0  0  0  0  0  0  0  0  0  0  0  # atno 6907 bound_to 6896
  152.0225  134.9812  160.0580 H   0  0  0  0  0  0  0  0  0  0  0  0  # atno 6908 bound_to 6896
  152.1383  133.4414  159.4791 H   0  0  0  0  0  0  0  0  0  0  0  0  # atno 6909 bound_to 6896
  146.2425  140.1307  142.8338 H   0  0  0  0  0  0  0  0  0  0  0  0  # atno 7974 bound_to 7965
  154.5764  140.2387  155.8116 H   0  0  0  0  0  0  0  0  0  0  0  0  # atno 8008 bound_to 7997
  156.2147  140.3016  155.9768 H   0  0  0  0  0  0  0  0  0  0  0  0  # atno 8009 bound_to 7997
  155.2619  140.0415  157.2988 H   0  0  0  0  0  0  0  0  0  0  0  0  # atno 8010 bound_to 7997
  139.9809  144.5827  150.7901 H   0  0  0  0  0  0  0  0  0  0  0  0  # atno 10167 bound_to 10162
  157.2405  130.7067  149.6356 H   0  0  0  0  0  0  0  0  0  0  0  0  # atno 10718 bound_to 10713
  153.5131  135.7016  153.5770 H   0  0  0  0  0  0  0  0  0  0  0  0  # atno 10763 bound_to 10752
  153.3852  135.3910  155.1885 H   0  0  0  0  0  0  0  0  0  0  0  0  # atno 10764 bound_to 10752
  154.8701  135.3845  154.4612 H   0  0  0  0  0  0  0  0  0  0  0  0  # atno 10765 bound_to 10752
  141.1667  133.7110  156.8136 H   0  0  0  0  0  0  0  0  0  0  0  0  # atno 11005 bound_to 11000
  145.0329  140.8885  143.5099 LP  0  0  0  0  0  0  0  0  0  0  0  0  # atno 17320 bound_to 7965
  145.1374  139.2593  143.5508 LP  0  0  0  0  0  0  0  0  0  0  0  0  # atno 17321 bound_to 7965
  140.7489  143.2930  151.3279 LP  0  0  0  0  0  0  0  0  0  0  0  0  # atno 17342 bound_to 10162
  139.6410  144.0539  152.2554 LP  0  0  0  0  0  0  0  0  0  0  0  0  # atno 17343 bound_to 10162
  155.9670  130.4459  150.5521 LP  0  0  0  0  0  0  0  0  0  0  0  0  # atno 17370 bound_to 10713
  157.3383  131.0712  151.1807 LP  0  0  0  0  0  0  0  0  0  0  0  0  # atno 17371 bound_to 10713
  140.2170  134.8785  157.3336 LP  0  0  0  0  0  0  0  0  0  0  0  0  # atno 17394 bound_to 11000
  140.2028  134.4234  155.7654 LP  0  0  0  0  0  0  0  0  0  0  0  0  # atno 17395 bound_to 11000

$$$$
