AV-unprocessed.smi:2704|AV-procd|sdf|10442|dock9
  -GOLD-   2272014483D 1   1.00000     0.00000
 Structure written by MMmdl.
 43 44  0  0  0  0  0  0  0  0  1 V2000
  150.1072  140.5146  156.8560 C   0  0  0  0  0  0  0  0  0  0  0  0
  150.4227  140.3088  155.3670 C   0  0  0  0  0  0  0  0  0  0  0  0
  149.2798  140.7598  154.4462 C   0  0  0  0  0  0  0  0  0  0  0  0
  150.8495  138.9010  155.0813 C   0  0  0  0  0  0  0  0  0  0  0  0
  152.1057  138.6160  154.7577 N   0  0  0  0  0  0  0  0  0  0  0  0
  152.0931  137.2233  154.5974 O   0  0  0  0  0  0  0  0  0  0  0  0
  150.8235  136.8324  154.8604 C   0  0  0  0  0  0  0  0  0  0  0  0
  150.4759  135.3841  154.7330 C   0  0  0  0  0  0  0  0  0  0  0  0
  149.0087  135.0551  155.0657 C   0  0  0  0  0  0  0  0  0  0  0  0
  148.1851  134.8892  153.8712 N   0  0  0  0  0  0  0  0  0  0  0  0
  146.8889  134.5314  153.8516 C   0  0  0  0  0  0  0  0  0  0  0  0
  146.2535  134.3025  154.8818 O   0  0  0  0  0  0  0  0  0  0  0  0
  146.1924  134.3939  152.4780 C   0  0  0  0  0  0  0  0  0  0  0  0
  146.2632  135.6191  151.7620 O   0  0  0  0  0  0  0  0  0  0  0  0
  146.9051  133.3026  151.6416 C   0  0  0  0  0  0  0  0  0  0  0  0
  146.1751  132.9823  150.3248 C   0  0  0  0  0  0  0  0  0  0  0  0
  144.7083  132.6060  150.5767 C   0  0  0  0  0  0  0  0  0  0  0  0
  143.9806  133.7147  151.3501 C   0  0  0  0  0  0  0  0  0  0  0  0
  144.6971  134.0358  152.6744 C   0  0  0  0  0  0  0  0  0  0  0  0
  150.0004  137.8371  155.1518 N   0  0  0  0  0  0  0  0  0  0  0  0
  150.9667  140.2599  157.4771 H   0  0  0  0  0  0  0  0  0  0  0  0
  149.2695  139.8935  157.1750 H   0  0  0  0  0  0  0  0  0  0  0  0
  149.8475  141.5531  157.0622 H   0  0  0  0  0  0  0  0  0  0  0  0
  151.2713  140.9566  155.1405 H   0  0  0  0  0  0  0  0  0  0  0  0
  149.5626  140.6688  153.3972 H   0  0  0  0  0  0  0  0  0  0  0  0
  149.0180  141.8025  154.6276 H   0  0  0  0  0  0  0  0  0  0  0  0
  148.3827  140.1612  154.6058 H   0  0  0  0  0  0  0  0  0  0  0  0
  150.6978  135.0683  153.7132 H   0  0  0  0  0  0  0  0  0  0  0  0
  151.1386  134.8106  155.3822 H   0  0  0  0  0  0  0  0  0  0  0  0
  148.9567  134.1667  155.6971 H   0  0  0  0  0  0  0  0  0  0  0  0
  148.5818  135.8682  155.6531 H   0  0  0  0  0  0  0  0  0  0  0  0
  148.6324  135.0550  152.9808 H   0  0  0  0  0  0  0  0  0  0  0  0
  147.1634  135.9065  151.7544 H   0  0  0  0  0  0  0  0  0  0  0  0
  147.9298  133.6074  151.4255 H   0  0  0  0  0  0  0  0  0  0  0  0
  146.9798  132.3814  152.2216 H   0  0  0  0  0  0  0  0  0  0  0  0
  146.2237  133.8410  149.6542 H   0  0  0  0  0  0  0  0  0  0  0  0
  146.6831  132.1652  149.8118 H   0  0  0  0  0  0  0  0  0  0  0  0
  144.2033  132.4205  149.6282 H   0  0  0  0  0  0  0  0  0  0  0  0
  144.6608  131.6737  151.1410 H   0  0  0  0  0  0  0  0  0  0  0  0
  143.9190  134.6123  150.7338 H   0  0  0  0  0  0  0  0  0  0  0  0
  142.9527  133.4117  151.5513 H   0  0  0  0  0  0  0  0  0  0  0  0
  144.6048  133.1673  153.3290 H   0  0  0  0  0  0  0  0  0  0  0  0
  144.1778  134.8503  153.1819 H   0  0  0  0  0  0  0  0  0  0  0  0
  1  2  1  0  0  0  0
  1 21  1  0  0  0  0
  1 22  1  0  0  0  0
  1 23  1  0  0  0  0
  2  3  1  0  0  0  0
  2  4  1  0  0  0  0
  2 24  1  0  0  0  0
  3 25  1  0  0  0  0
  3 26  1  0  0  0  0
  3 27  1  0  0  0  0
  4 20  1  0  0  0  0
  4  5  2  0  0  0  0
  5  6  1  0  0  0  0
  6  7  1  0  0  0  0
  7  8  1  0  0  0  0
  7 20  2  0  0  0  0
  8  9  1  0  0  0  0
  8 28  1  0  0  0  0
  8 29  1  0  0  0  0
  9 10  1  0  0  0  0
  9 30  1  0  0  0  0
  9 31  1  0  0  0  0
 10 11  1  0  0  0  0
 10 32  1  0  0  0  0
 11 12  2  0  0  0  0
 11 13  1  0  0  0  0
 13 19  1  0  0  0  0
 13 14  1  0  0  0  0
 13 15  1  0  0  0  0
 14 33  1  0  0  0  0
 15 16  1  0  0  0  0
 15 34  1  0  0  0  0
 15 35  1  0  0  0  0
 16 17  1  0  0  0  0
 16 36  1  0  0  0  0
 16 37  1  0  0  0  0
 17 18  1  0  0  0  0
 17 38  1  0  0  0  0
 17 39  1  0  0  0  0
 18 19  1  0  0  0  0
 18 40  1  0  0  0  0
 18 41  1  0  0  0  0
 19 42  1  0  0  0  0
 19 43  1  0  0  0  0
M  END
> <s_m_source_file>
AV-unprocessed.smi

> <i_m_source_file_index>
2704

> <i_lp_mmshare_version>
43012

> <i_f3d_flags>
0

> <s_epik_input>
W0NIM11bQ0hdKFtDSDNdKWMxbm9jKG4xKVtDSDJdW0NIMl1bTkhdQyg9TylDMihbT0hdKVtDSDJdW0NIMl1bQ0gyXVtDSDJdW0NIMl0y

> <s_epik_cmdline>
J2VwaWtfcHl0aG9uJywgJy1waCcsICc3LjAnLCAnLXRuJywgJzgnLCAnLW1hJywgJzIwMCcsICctbWV0YWxfYmluZGluZycsICctaW1hZScsICc8aW5maWxlLm1hZT4nLCAnLW9tYWUnLCAnPG91dGZpbGUubWFlPic=

> <r_lp_tautomer_probability>
1

> <r_epik_Ionization_Penalty>
7.72761e-08

> <r_epik_Ionization_Penalty_Charging>
0

> <r_epik_Ionization_Penalty_Neutral>
7.72761e-08

> <r_epik_State_Penalty>
-0

> <r_epik_Charging_Adjusted_Penalty>
0

> <i_epik_Tot_Q>
0

> <i_epik_Tot_abs_Q>
0

> <r_epik_Metal_State_Penalty>
-0

> <b_epik_Metal_Only>
0

> <s_lp_Force_Field>
OPLS_2005

> <r_lp_Energy>
5.6077

> <b_lp_Chiralities_Consistent>
1

> <s_lp_Variant>
AV-unprocessed.smi:2704-1

> <Gold.Version>
5.8.1

> <Gold.Id.Protein>
6NUR|6NUR_protein|mol2

> <Gold.PLP.Fitness>
40.4964

> <Gold.PLP.PLP>
-32.7853

> <Gold.PLP.part.hbond>
-2.9583

> <Gold.PLP.part.metal>
0.0000

> <Gold.PLP.part.buried>
-5.1835

> <Gold.PLP.part.nonpolar>
-25.1279

> <Gold.PLP.part.repulsive>
0.3863

> <Gold.PLP.ligand.clash>
0.0000

> <Gold.PLP.ligand.torsion>
0.4090

> <Gold.PLP.Chemscore.Hbond>
2.8080

> <Gold.PLP.Chemscore.CHOScore>
0.0000

> <Gold.PLP.Chemscore.Metal>
0.0000

> <Gold.Chemscore.Hbonds>
donor molecule, donor type, donor heavy atom, donor atom, acceptor molecule, acceptor atom, score
      L1  H    10    32       P1  7948  0.90
      L1  H    14    33       P1  7948  1.00
      P1  H 10752 10763       L1     6  0.88

> <Gold.PLP.Chemscore.Internal.Correction>
0.1052

> <Gold.Rescore>
     Score         DG    S(hbond)    S(metal)    S(lipo)     H(rot)  DE(clash)    DE(int)     intcor
     14.67     -15.15       2.59        0.00      63.31       2.50       0.03       0.45       ----

> <Gold.Chemscore.Fitness>
14.6731

> <Gold.Chemscore.DG>
-15.1526

> <Gold.Chemscore.ZeroCoef>
-5.4800

> <Gold.Chemscore.Hbond>
2.5944

> <Gold.Chemscore.Metal>
0.0000

> <Gold.Chemscore.Lipo>
63.3116

> <Gold.Chemscore.Internal_Hbond>
0.0000

> <Gold.Chemscore.DEClash>
0.0291

> <Gold.Chemscore.DEInternal>
0.4504

> <Gold.Chemscore.Rot>
2.5001

> <Gold.Chemscore.Internal.Correction>
   9.000000E+99

> <Gold.Chemscore.Hbonds>
donor molecule, donor type, donor heavy atom, donor atom, acceptor molecule, acceptor atom, score
      L1  H    10    32       P1  7948  0.48
      L1  H    14    33       P1  7948  1.00
      P1  H 10752 10763       L1     6  0.30

> <Gold.Chemscore.Hbond.Weighted>
-8.6653

> <Gold.Chemscore.Metal.Weighted>
-0.0000

> <Gold.Chemscore.Lipo.Weighted>
-7.4075

> <Gold.Chemscore.Internal_Hbond.Weighted>
0.0000

> <Gold.Chemscore.DEClash.Weighted>
0.0291

> <Gold.Chemscore.DEInternal.Weighted>
0.4504

> <Gold.Chemscore.Rot.Weighted>
6.4002

> <Gold.Chemscore.Internal.Correction.Weighted>
   9.000000E+99

> <Gold.Protein.RotatedTorsions>
[ 6907 6896 6895 6894 ] final -179.36 input  -60.11 | X-H torsion
[ 7974 7965 7964 7962 ] final  112.31 input  175.53 | X-H torsion
[ 8008 7997 7996 7995 ] final   92.07 input   59.86 | X-H torsion
[ 10167 10162 10161 10158 ] final   54.82 input  -65.29 | X-H torsion
[ 10718 10713 10712 10709 ] final  -33.55 input   66.30 | X-H torsion
[ 10763 10752 10751 10750 ] final   49.34 input  -60.55 | X-H torsion
[ 11005 11000 10999 10996 ] final  -46.14 input  -57.11 | X-H torsion

> <Gold.Protein.ActiveResidues>
 VAL166  LYS551  ARG553  GLY616  TRP617  ASP618  TYR619  PRO620  LYS621  CYS622 
 ASP623  PHE694  ASN695  SER759  ASP760  ASP761  ALA762  ILE779  LEU786  VAL792 
 PHE793  MET794  SER795  GLU796  ALA797  LYS798  CYS799  TRP800  GLU811  SER814 

> <Gold.Protein.RotatedAtoms>
  151.6522  133.3320  159.3154 H   0  0  0  0  0  0  0  0  0  0  0  0  # atno 6907 bound_to 6896
  150.7954  134.7014  159.6562 H   0  0  0  0  0  0  0  0  0  0  0  0  # atno 6908 bound_to 6896
  152.4041  134.6241  160.0110 H   0  0  0  0  0  0  0  0  0  0  0  0  # atno 6909 bound_to 6896
  145.2312  139.2819  143.4167 H   0  0  0  0  0  0  0  0  0  0  0  0  # atno 7974 bound_to 7965
  156.0311  140.3330  155.7140 H   0  0  0  0  0  0  0  0  0  0  0  0  # atno 8008 bound_to 7997
  155.5884  140.0644  157.2783 H   0  0  0  0  0  0  0  0  0  0  0  0  # atno 8009 bound_to 7997
  154.4353  140.1831  156.1037 H   0  0  0  0  0  0  0  0  0  0  0  0  # atno 8010 bound_to 7997
  140.2261  144.3737  150.6432 H   0  0  0  0  0  0  0  0  0  0  0  0  # atno 10167 bound_to 10162
  156.3612  130.4324  149.7622 H   0  0  0  0  0  0  0  0  0  0  0  0  # atno 10718 bound_to 10713
  152.9787  135.5915  154.4073 H   0  0  0  0  0  0  0  0  0  0  0  0  # atno 10763 bound_to 10752
  154.3712  135.2767  155.2267 H   0  0  0  0  0  0  0  0  0  0  0  0  # atno 10764 bound_to 10752
  154.4222  135.6056  153.6071 H   0  0  0  0  0  0  0  0  0  0  0  0  # atno 10765 bound_to 10752
  141.0560  133.6725  156.3112 H   0  0  0  0  0  0  0  0  0  0  0  0  # atno 11005 bound_to 11000
  146.3352  140.2647  142.8603 LP  0  0  0  0  0  0  0  0  0  0  0  0  # atno 17320 bound_to 7965
  144.9675  140.8336  143.5476 LP  0  0  0  0  0  0  0  0  0  0  0  0  # atno 17321 bound_to 7965
  140.6220  143.2177  151.6675 LP  0  0  0  0  0  0  0  0  0  0  0  0  # atno 17342 bound_to 10162
  139.5127  144.3468  152.0689 LP  0  0  0  0  0  0  0  0  0  0  0  0  # atno 17343 bound_to 10162
  156.4785  130.8030  151.3045 LP  0  0  0  0  0  0  0  0  0  0  0  0  # atno 17370 bound_to 10713
  157.7473  131.0013  150.2959 LP  0  0  0  0  0  0  0  0  0  0  0  0  # atno 17371 bound_to 10713
  140.5963  134.5600  157.5509 LP  0  0  0  0  0  0  0  0  0  0  0  0  # atno 17394 bound_to 11000
  139.9390  134.7821  156.0726 LP  0  0  0  0  0  0  0  0  0  0  0  0  # atno 17395 bound_to 11000

$$$$
