#       Name:                AV-unprocessed.smi:1950
#       Creating user name   scv26
#       Creation time:       Fri Mar 27 10:03:05 2020


#       File generated by GOLD software.
#

@<TRIPOS>MOLECULE
AV-unprocessed.smi:1950
    39    40     1
SMALL
NO_CHARGES


@<TRIPOS>ATOM
      1 ****        -3.4385  -3.2157  -1.2294 C.3            1 S1                 0.0000
      2 ****        -3.1775  -2.5629   0.1299 C.2            1 S1                 0.0000
      3 ****        -3.3233  -3.2518   1.1398 O.2            1 S1                 0.0000
      4 ****        -2.7914  -1.2652   0.1781 N.am           1 S1                 0.0000
      5 ****        -2.4273  -0.5909   1.4294 C.3            1 S1                 0.0000
      6 ****        -0.9058  -0.3559   1.4409 C.3            1 S1                 0.0000
      7 ****        -0.4478   0.4343   0.1956 C.3            1 S1                 0.0000
      8 ****         1.0112   0.4471   0.1295 N.am           1 S1                 0.0000
      9 ****         1.7927   1.5355   0.1872 C.2            1 S1                 0.0000
     10 ****         1.3600   2.6822   0.3046 O.2            1 S1                 0.0000
     11 ****         3.0922   1.2013   0.0982 N.am           1 S1                 0.0000
     12 ****         4.2260   2.0559   0.1289 C.2            1 S1                 0.0000
     13 ****         4.1508   3.3888   0.2691 N.2            1 S1                 0.0000
     14 ****         5.4061   3.9830   0.2694 N.2            1 S1                 0.0000
     15 ****         6.3774   3.0764   0.1288 C.2            1 S1                 0.0000
     16 ****         5.8535   1.4075  -0.0163 S.3            1 S1                 0.0000
     17 ****        -1.0221  -0.1695  -1.1046 C.3            1 S1                 0.0000
     18 ****        -2.5375  -0.4104  -0.9880 C.3            1 S1                 0.0000
     19 ****        -2.5505  -3.1657  -1.8601 H              1 S1                 0.0000
     20 ****        -4.2664  -2.7252  -1.7416 H              1 S1                 0.0000
     21 ****        -3.6989  -4.2674  -1.1070 H              1 S1                 0.0000
     22 ****        -2.9552   0.3615   1.4945 H              1 S1                 0.0000
     23 ****        -2.7232  -1.1543   2.3153 H              1 S1                 0.0000
     24 ****        -0.6176   0.1763   2.3484 H              1 S1                 0.0000
     25 ****        -0.3979  -1.3211   1.4747 H              1 S1                 0.0000
     26 ****        -0.8374   1.4499   0.2874 H              1 S1                 0.0000
     27 ****         1.4625  -0.4508   0.0338 H              1 S1                 0.0000
     28 ****         3.2950   0.2177  -0.0015 H              1 S1                 0.0000
     29 ****         7.4098   3.3926   0.1105 H              1 S1                 0.0000
     30 ****        -0.8136   0.4912  -1.9470 H              1 S1                 0.0000
     31 ****        -0.5274  -1.1171  -1.3246 H              1 S1                 0.0000
     32 ****        -2.9222  -0.8187  -1.9214 H              1 S1                 0.0000
     33 ****        -3.0546   0.5409  -0.8538 H              1 S1                 0.0000
     34 ****        -3.6044  -4.2079   1.0566 LP             1 S1                 0.0000
     35 ****        -3.1607  -2.8553   2.0433 LP             1 S1                 0.0000
     36 ****         0.3744   2.8412   0.3626 LP             1 S1                 0.0000
     37 ****         1.9941   3.4545   0.3420 LP             1 S1                 0.0000
     38 ****         3.2928   3.8939   0.3623 LP             1 S1                 0.0000
     39 ****         5.5632   4.9661   0.3631 LP             1 S1                 0.0000
@<TRIPOS>BOND
    1    1    2 1     
    2    1   19 1     
    3    1   20 1     
    4    1   21 1     
    5    2    3 2     
    6    2    4 am    
    7    4   18 1     
    8    4    5 1     
    9    5    6 1     
   10    5   22 1     
   11    5   23 1     
   12    6    7 1     
   13    6   24 1     
   14    6   25 1     
   15    7    8 1     
   16    7   17 1     
   17    7   26 1     
   18    8    9 am    
   19    8   27 1     
   20    9   10 2     
   21    9   11 am    
   22   11   12 1     
   23   11   28 1     
   24   12   16 1     
   25   12   13 2     
   26   13   14 1     
   27   14   15 2     
   28   15   16 1     
   29   15   29 1     
   30   17   18 1     
   31   17   30 1     
   32   17   31 1     
   33   18   32 1     
   34   18   33 1     
   35    3   34 1     
   36    3   35 1     
   37   10   36 1     
   38   10   37 1     
   39   13   38 1     
   40   14   39 1     
@<TRIPOS>SUBSTRUCTURE
      1 S1             1
@<TRIPOS>SET
LONE_PAIRS      STATIC     ATOMS    <user>   **** ""
6 34 35 36 37 38 39
DONOR_HYDROGENS      STATIC     ATOMS    <user>   **** ""
2 27 28
ATOM$BLUE        STATIC     ATOMS    COLORGROUP SYSTEM
6 34 35 36 37 38 39
ATOM$RED        STATIC     ATOMS    COLORGROUP SYSTEM
2 27 28
