AV-unprocessed.smi:817|AV-procd|sdf|3828|dock4
  -GOLD-   22720 1273D 1   1.00000     0.00000
 Structure written by MMmdl.
 48 49  0  0  0  0  0  0  0  0  2 V2000
  145.1386  144.7515  153.1138 C   0  0  0  0  0  0  0  0  0  0  0  0
  145.2540  143.4154  153.8609 C   0  0  2  0  0  0  0  0  0  0  0  0
  144.6286  143.5059  155.2649 C   0  0  0  0  0  0  0  0  0  0  0  0
  144.7974  142.1958  156.0481 C   0  0  0  0  0  0  0  0  0  0  0  0
  146.2747  141.7650  156.0953 C   0  0  0  0  0  0  0  0  0  0  0  0
  146.8924  141.5775  154.6765 C   0  0  1  0  0  0  0  0  0  0  0  0
  148.4068  141.2274  154.8023 C   0  0  0  0  0  0  0  0  0  0  0  0
  149.1268  142.0982  155.7340 N   0  0  0  0  0  0  0  0  0  0  0  0
  149.9497  141.7298  156.7309 C   0  0  0  0  0  0  0  0  0  0  0  0
  150.1663  140.5440  156.9680 O   0  0  0  0  0  0  0  0  0  0  0  0
  150.4696  142.7624  157.4236 N   0  0  0  0  0  0  0  0  0  0  0  0
  151.3714  142.7339  158.5212 C   0  0  0  0  0  0  0  0  0  0  0  0
  152.0720  141.5350  158.7675 C   0  0  0  0  0  0  0  0  0  0  0  0
  152.9610  141.4700  159.8568 C   0  0  0  0  0  0  0  0  0  0  0  0
  153.1100  142.6113  160.6679 C   0  0  0  0  0  0  0  0  0  0  0  0
  152.4365  143.7615  160.4570 N   0  0  0  0  0  0  0  0  0  0  0  0
  151.5860  143.8175  159.4094 C   0  0  0  0  0  0  0  0  0  0  0  0
  146.1612  140.4897  153.9240 N   0  3  0  0  0  0  0  0  0  0  0  0
  145.6845  139.3413  154.7395 C   0  0  0  0  0  0  0  0  0  0  0  0
  146.8196  140.0020  152.6828 C   0  0  0  0  0  0  0  0  0  0  0  0
  146.7248  142.9513  153.9561 C   0  0  0  0  0  0  0  0  0  0  0  0
  145.6840  145.5432  153.6288 H   0  0  0  0  0  0  0  0  0  0  0  0
  144.0979  145.0658  153.0292 H   0  0  0  0  0  0  0  0  0  0  0  0
  145.5416  144.6733  152.1037 H   0  0  0  0  0  0  0  0  0  0  0  0
  144.6905  142.6789  153.2871 H   0  0  0  0  0  0  0  0  0  0  0  0
  145.0958  144.3192  155.8220 H   0  0  0  0  0  0  0  0  0  0  0  0
  143.5695  143.7547  155.1891 H   0  0  0  0  0  0  0  0  0  0  0  0
  144.4204  142.3267  157.0628 H   0  0  0  0  0  0  0  0  0  0  0  0
  144.1881  141.4124  155.5965 H   0  0  0  0  0  0  0  0  0  0  0  0
  146.8212  142.5378  156.6368 H   0  0  0  0  0  0  0  0  0  0  0  0
  146.3901  140.8729  156.7093 H   0  0  0  0  0  0  0  0  0  0  0  0
  148.5333  140.2010  155.1470 H   0  0  0  0  0  0  0  0  0  0  0  0
  148.8968  141.3019  153.8315 H   0  0  0  0  0  0  0  0  0  0  0  0
  148.9837  143.0907  155.6133 H   0  0  0  0  0  0  0  0  0  0  0  0
  150.1377  143.6791  157.1629 H   0  0  0  0  0  0  0  0  0  0  0  0
  151.9348  140.6747  158.1288 H   0  0  0  0  0  0  0  0  0  0  0  0
  153.5159  140.5675  160.0662 H   0  0  0  0  0  0  0  0  0  0  0  0
  153.7839  142.5985  161.5117 H   0  0  0  0  0  0  0  0  0  0  0  0
  151.0601  144.7538  159.3097 H   0  0  0  0  0  0  0  0  0  0  0  0
  146.5109  138.7654  155.1546 H   0  0  0  0  0  0  0  0  0  0  0  0
  145.0975  138.6607  154.1218 H   0  0  0  0  0  0  0  0  0  0  0  0
  145.0273  139.6463  155.5515 H   0  0  0  0  0  0  0  0  0  0  0  0
  147.7757  139.5220  152.8895 H   0  0  0  0  0  0  0  0  0  0  0  0
  146.9761  140.7944  151.9529 H   0  0  0  0  0  0  0  0  0  0  0  0
  146.1889  139.2632  152.1869 H   0  0  0  0  0  0  0  0  0  0  0  0
  147.1874  142.9402  152.9697 H   0  0  0  0  0  0  0  0  0  0  0  0
  147.2739  143.7204  154.5010 H   0  0  0  0  0  0  0  0  0  0  0  0
  145.3156  140.9382  153.6005 H   0  0  0  0  0  0  0  0  0  0  0  0
  1  2  1  0  0  0  0
  1 22  1  0  0  0  0
  1 23  1  0  0  0  0
  1 24  1  0  0  0  0
  2 21  1  0  0  0  0
  2  3  1  0  0  0  0
  2 25  1  0  0  0  0
  3  4  1  0  0  0  0
  3 26  1  0  0  0  0
  3 27  1  0  0  0  0
  4  5  1  0  0  0  0
  4 28  1  0  0  0  0
  4 29  1  0  0  0  0
  5  6  1  0  0  0  0
  5 30  1  0  0  0  0
  5 31  1  0  0  0  0
  6  7  1  0  0  0  0
  6 18  1  0  0  0  0
  6 21  1  0  0  0  0
  7  8  1  0  0  0  0
  7 32  1  0  0  0  0
  7 33  1  0  0  0  0
  8  9  1  0  0  0  0
  8 34  1  0  0  0  0
  9 10  2  0  0  0  0
  9 11  1  0  0  0  0
 11 12  1  0  0  0  0
 11 35  1  0  0  0  0
 12 17  1  0  0  0  0
 12 13  2  0  0  0  0
 13 14  1  0  0  0  0
 13 36  1  0  0  0  0
 14 15  2  0  0  0  0
 14 37  1  0  0  0  0
 15 16  1  0  0  0  0
 15 38  1  0  0  0  0
 16 17  2  0  0  0  0
 17 39  1  0  0  0  0
 18 19  1  0  0  0  0
 18 20  1  0  0  0  0
 18 48  1  0  0  0  0
 19 40  1  0  0  0  0
 19 41  1  0  0  0  0
 19 42  1  0  0  0  0
 20 43  1  0  0  0  0
 20 44  1  0  0  0  0
 20 45  1  0  0  0  0
 21 46  1  0  0  0  0
 21 47  1  0  0  0  0
M  CHG  1  18   1
M  END
> <s_m_source_file>
AV-unprocessed.smi

> <i_m_source_file_index>
817

> <i_lp_mmshare_version>
43012

> <i_f3d_flags>
0

> <s_epik_input>
W0NIM11bQ0BASF0oW0NIMl0xKVtDSDJdW0NIMl1bQ0gyXVtDQF0xKE4oW0NIM10pW0NIM10pW0NIMl1bTkhdQyg9TylbTkhdYzJbY0hdW2NIXVtjSF1uW2NIXTI=

> <s_epik_cmdline>
J2VwaWtfcHl0aG9uJywgJy1waCcsICc3LjAnLCAnLXRuJywgJzgnLCAnLW1hJywgJzIwMCcsICctbWV0YWxfYmluZGluZycsICctaW1hZScsICc8aW5maWxlLm1hZT4nLCAnLW9tYWUnLCAnPG91dGZpbGUubWFlPic=

> <r_lp_tautomer_probability>
1

> <r_epik_Ionization_Penalty>
0.00584939

> <r_epik_Ionization_Penalty_Charging>
0.00160539

> <r_epik_Ionization_Penalty_Neutral>
0.004244

> <r_epik_State_Penalty>
-0

> <r_epik_Charging_Adjusted_Penalty>
0.00160539

> <i_epik_Tot_Q>
1

> <i_epik_Tot_abs_Q>
1

> <r_epik_Metal_State_Penalty>
-0

> <b_epik_Metal_Only>
0

> <s_lp_Force_Field>
OPLS_2005

> <r_lp_Energy>
44.2375

> <b_lp_Chiralities_Consistent>
1

> <s_lp_Variant>
AV-unprocessed.smi:817-1

> <Gold.Version>
5.8.1

> <Gold.Id.Protein>
6NUR|6NUR_protein|mol2

> <Gold.PLP.Fitness>
49.9399

> <Gold.PLP.PLP>
-41.0059

> <Gold.PLP.part.hbond>
-3.0000

> <Gold.PLP.part.metal>
0.0000

> <Gold.PLP.part.buried>
-2.9608

> <Gold.PLP.part.nonpolar>
-35.1562

> <Gold.PLP.part.repulsive>
0.2162

> <Gold.PLP.ligand.clash>
0.0000

> <Gold.PLP.ligand.torsion>
0.8062

> <Gold.PLP.Chemscore.Hbond>
3.4757

> <Gold.PLP.Chemscore.CHOScore>
0.0000

> <Gold.PLP.Chemscore.Metal>
0.0000

> <Gold.Chemscore.Hbonds>
donor molecule, donor type, donor heavy atom, donor atom, acceptor molecule, acceptor atom, score
      L1  H     8    34       P1  8028  1.00
      L1  H    11    35       P1  8028  0.49
      L1  H    18    48       P1 10175  1.57

> <Gold.PLP.Chemscore.Internal.Correction>
0.1194

> <Gold.Rescore>
     Score         DG    S(hbond)    S(metal)    S(lipo)     H(rot)  DE(clash)    DE(int)     intcor
     20.75     -23.24       2.71        0.00     106.05       1.44       0.40       2.10       ----

> <Gold.Chemscore.Fitness>
20.7457

> <Gold.Chemscore.DG>
-23.2435

> <Gold.Chemscore.ZeroCoef>
-5.4800

> <Gold.Chemscore.Hbond>
2.7076

> <Gold.Chemscore.Metal>
0.0000

> <Gold.Chemscore.Lipo>
106.0515

> <Gold.Chemscore.Internal_Hbond>
0.0000

> <Gold.Chemscore.DEClash>
0.4018

> <Gold.Chemscore.DEInternal>
2.0960

> <Gold.Chemscore.Rot>
1.4405

> <Gold.Chemscore.Internal.Correction>
   9.000000E+99

> <Gold.Chemscore.Hbonds>
donor molecule, donor type, donor heavy atom, donor atom, acceptor molecule, acceptor atom, score
      L1  H     8    34       P1  8028  0.99
      L1  H    11    35       P1  8028  0.48
      L1  H    18    48       P1 10175  0.57

> <Gold.Chemscore.Hbond.Weighted>
-9.0433

> <Gold.Chemscore.Metal.Weighted>
-0.0000

> <Gold.Chemscore.Lipo.Weighted>
-12.4080

> <Gold.Chemscore.Internal_Hbond.Weighted>
0.0000

> <Gold.Chemscore.DEClash.Weighted>
0.4018

> <Gold.Chemscore.DEInternal.Weighted>
2.0960

> <Gold.Chemscore.Rot.Weighted>
3.6878

> <Gold.Chemscore.Internal.Correction.Weighted>
   9.000000E+99

> <Gold.Protein.RotatedTorsions>
[ 6907 6896 6895 6894 ] final  -52.31 input  -60.11 | X-H torsion
[ 7974 7965 7964 7962 ] final -115.31 input  175.53 | X-H torsion
[ 8008 7997 7996 7995 ] final  -43.38 input   59.86 | X-H torsion
[ 10167 10162 10161 10158 ] final   31.73 input  -65.29 | X-H torsion
[ 10718 10713 10712 10709 ] final  -48.35 input   66.30 | X-H torsion
[ 10763 10752 10751 10750 ] final   98.68 input  -60.55 | X-H torsion
[ 11005 11000 10999 10996 ] final -137.86 input  -57.11 | X-H torsion

> <Gold.Protein.ActiveResidues>
 VAL166  LYS551  ARG553  GLY616  TRP617  ASP618  TYR619  PRO620  LYS621  CYS622 
 ASP623  PHE694  ASN695  SER759  ASP760  ASP761  ALA762  ILE779  LEU786  VAL792 
 PHE793  MET794  SER795  GLU796  ALA797  LYS798  CYS799  TRP800  GLU811  SER814 

> <Gold.Protein.RotatedAtoms>
  150.8530  134.7860  159.7023 H   0  0  0  0  0  0  0  0  0  0  0  0  # atno 6907 bound_to 6896
  152.4589  134.5225  159.9796 H   0  0  0  0  0  0  0  0  0  0  0  0  # atno 6908 bound_to 6896
  151.5342  133.3405  159.2959 H   0  0  0  0  0  0  0  0  0  0  0  0  # atno 6909 bound_to 6896
  145.1099  140.8605  143.3876 H   0  0  0  0  0  0  0  0  0  0  0  0  # atno 7974 bound_to 7965
  154.3997  140.1449  156.3509 H   0  0  0  0  0  0  0  0  0  0  0  0  # atno 8008 bound_to 7997
  155.8270  140.3467  155.5527 H   0  0  0  0  0  0  0  0  0  0  0  0  # atno 8009 bound_to 7997
  155.8228  140.0900  157.1829 H   0  0  0  0  0  0  0  0  0  0  0  0  # atno 8010 bound_to 7997
  140.4563  144.0974  150.6202 H   0  0  0  0  0  0  0  0  0  0  0  0  # atno 10167 bound_to 10162
  156.1997  130.4155  149.9258 H   0  0  0  0  0  0  0  0  0  0  0  0  # atno 10718 bound_to 10713
  153.2921  135.4140  155.1176 H   0  0  0  0  0  0  0  0  0  0  0  0  # atno 10763 bound_to 10752
  154.8523  135.3521  154.5967 H   0  0  0  0  0  0  0  0  0  0  0  0  # atno 10764 bound_to 10752
  153.6390  135.7057  153.5306 H   0  0  0  0  0  0  0  0  0  0  0  0  # atno 10765 bound_to 10752
  140.8671  134.2097  157.4673 H   0  0  0  0  0  0  0  0  0  0  0  0  # atno 11005 bound_to 11000
  145.0859  139.2926  143.5760 LP  0  0  0  0  0  0  0  0  0  0  0  0  # atno 17320 bound_to 7965
  146.3526  140.0380  142.8645 LP  0  0  0  0  0  0  0  0  0  0  0  0  # atno 17321 bound_to 7965
  140.4147  143.2640  151.9789 LP  0  0  0  0  0  0  0  0  0  0  0  0  # atno 17342 bound_to 10162
  139.4801  144.5884  151.7814 LP  0  0  0  0  0  0  0  0  0  0  0  0  # atno 17343 bound_to 10162
  156.6972  130.8919  151.3595 LP  0  0  0  0  0  0  0  0  0  0  0  0  # atno 17370 bound_to 10713
  157.6978  130.9300  150.0696 LP  0  0  0  0  0  0  0  0  0  0  0  0  # atno 17371 bound_to 10713
  139.8710  134.9757  156.4893 LP  0  0  0  0  0  0  0  0  0  0  0  0  # atno 17394 bound_to 11000
  140.8616  133.8055  155.9271 LP  0  0  0  0  0  0  0  0  0  0  0  0  # atno 17395 bound_to 11000

$$$$
