AV-unprocessed.smi:290|AV-procd|sdf|2239|dock5
  -GOLD-   2262022113D 1   1.00000     0.00000
 Structure written by MMmdl.
 59 62  0  0  0  0  0  0  0  0  2 V2000
  152.8440  144.8156  158.1385 C   0  0  0  0  0  0  0  0  0  0  0  0
  152.2177  143.8476  159.1489 C   0  0  2  0  0  0  0  0  0  0  0  0
  153.2621  143.1107  159.7722 O   0  0  0  0  0  0  0  0  0  0  0  0
  152.6835  141.9590  160.3538 C   0  0  0  0  0  0  0  0  0  0  0  0
  151.7537  141.4843  159.2480 C   0  0  0  0  0  0  0  0  0  0  0  0
  151.2080  142.7766  158.6329 C   0  0  1  0  0  0  0  0  0  0  0  0
  149.9581  143.0375  159.2461 O   0  0  0  0  0  0  0  0  0  0  0  0
  151.0219  142.6001  157.0957 C   0  0  0  0  0  0  0  0  0  0  0  0
  150.0908  141.5590  156.6755 N   0  0  0  0  0  0  0  0  0  0  0  0
  148.7838  141.7286  156.2805 C   0  0  0  0  0  0  0  0  0  0  0  0
  148.1593  140.6372  155.9355 N   0  0  0  0  0  0  0  0  0  0  0  0
  149.1176  139.6360  156.0493 C   0  0  0  0  0  0  0  0  0  0  0  0
  149.1319  138.2261  155.8200 C   0  0  0  0  0  0  0  0  0  0  0  0
  148.0767  137.4852  155.3866 N   0  0  0  0  0  0  0  0  0  0  0  0
  146.8287  138.1137  154.9901 C   0  0  0  0  0  0  0  0  0  0  0  0
  146.2910  137.2267  153.8755 C   0  0  0  0  0  0  0  0  0  0  0  0
  146.7937  135.8186  154.2344 C   0  0  1  0  0  0  0  0  0  0  0  0
  146.8494  134.9204  153.0374 N   0  3  2  0  0  0  0  0  0  0  0  0
  145.5962  134.9949  152.2413 C   0  0  0  0  0  0  0  0  0  0  0  0
  147.2472  133.5133  153.3328 C   0  0  0  0  0  0  0  0  0  0  0  0
  146.7496  132.4877  152.2966 C   0  0  0  0  0  0  0  0  0  0  0  0
  147.4242  132.6683  151.0691 O   0  0  0  0  0  0  0  0  0  0  0  0
  148.1527  136.1000  154.9312 C   0  0  2  0  0  0  0  0  0  0  0  0
  148.4127  135.1616  156.1307 C   0  0  0  0  0  0  0  0  0  0  0  0
  150.3018  137.5738  156.0492 N   0  0  0  0  0  0  0  0  0  0  0  0
  151.3840  138.2387  156.4607 C   0  0  0  0  0  0  0  0  0  0  0  0
  151.5150  139.5411  156.7112 N   0  0  0  0  0  0  0  0  0  0  0  0
  150.3434  140.2070  156.5022 C   0  0  0  0  0  0  0  0  0  0  0  0
  146.1075  135.3881  154.9664 H   0  0  0  0  0  0  0  0  0  0  0  0
  148.9521  136.0301  154.1946 H   0  0  0  0  0  0  0  0  0  0  0  0
  152.0963  145.4945  157.7324 H   0  0  0  0  0  0  0  0  0  0  0  0
  153.3325  144.2911  157.3180 H   0  0  0  0  0  0  0  0  0  0  0  0
  153.5996  145.4340  158.6233 H   0  0  0  0  0  0  0  0  0  0  0  0
  151.7548  144.4445  159.9378 H   0  0  0  0  0  0  0  0  0  0  0  0
  153.4374  141.2183  160.6200 H   0  0  0  0  0  0  0  0  0  0  0  0
  152.1266  142.2309  161.2521 H   0  0  0  0  0  0  0  0  0  0  0  0
  152.3481  140.9395  158.5130 H   0  0  0  0  0  0  0  0  0  0  0  0
  150.9805  140.8035  159.6073 H   0  0  0  0  0  0  0  0  0  0  0  0
  149.4560  143.6028  158.6789 H   0  0  0  0  0  0  0  0  0  0  0  0
  150.7276  143.5431  156.6343 H   0  0  0  0  0  0  0  0  0  0  0  0
  151.9860  142.3505  156.6500 H   0  0  0  0  0  0  0  0  0  0  0  0
  148.2986  142.6933  156.2591 H   0  0  0  0  0  0  0  0  0  0  0  0
  146.1499  138.1241  155.8435 H   0  0  0  0  0  0  0  0  0  0  0  0
  146.9628  139.1391  154.6433 H   0  0  0  0  0  0  0  0  0  0  0  0
  145.2059  137.2938  153.7956 H   0  0  0  0  0  0  0  0  0  0  0  0
  146.7201  137.5462  152.9245 H   0  0  0  0  0  0  0  0  0  0  0  0
  144.7658  134.5358  152.7793 H   0  0  0  0  0  0  0  0  0  0  0  0
  145.6981  134.4974  151.2784 H   0  0  0  0  0  0  0  0  0  0  0  0
  145.3193  136.0227  152.0116 H   0  0  0  0  0  0  0  0  0  0  0  0
  148.3313  133.4231  153.3481 H   0  0  0  0  0  0  0  0  0  0  0  0
  146.8922  133.2399  154.3275 H   0  0  0  0  0  0  0  0  0  0  0  0
  146.9638  131.4800  152.6537 H   0  0  0  0  0  0  0  0  0  0  0  0
  145.6722  132.5313  152.1441 H   0  0  0  0  0  0  0  0  0  0  0  0
  148.0316  131.9533  150.9499 H   0  0  0  0  0  0  0  0  0  0  0  0
  148.4416  134.1125  155.8434 H   0  0  0  0  0  0  0  0  0  0  0  0
  147.6310  135.2672  156.8836 H   0  0  0  0  0  0  0  0  0  0  0  0
  149.3600  135.3831  156.6208 H   0  0  0  0  0  0  0  0  0  0  0  0
  152.2717  137.6418  156.6102 H   0  0  0  0  0  0  0  0  0  0  0  0
  147.5848  135.2901  152.4515 H   0  0  0  0  0  0  0  0  0  0  0  0
  1  2  1  0  0  0  0
  1 31  1  0  0  0  0
  1 32  1  0  0  0  0
  1 33  1  0  0  0  0
  2  6  1  0  0  0  0
  2  3  1  0  0  0  0
  2 34  1  0  0  0  0
  3  4  1  0  0  0  0
  4  5  1  0  0  0  0
  4 35  1  0  0  0  0
  4 36  1  0  0  0  0
  5  6  1  0  0  0  0
  5 37  1  0  0  0  0
  5 38  1  0  0  0  0
  6  7  1  0  0  0  0
  6  8  1  0  0  0  0
  7 39  1  0  0  0  0
  8  9  1  0  0  0  0
  8 40  1  0  0  0  0
  8 41  1  0  0  0  0
  9 28  1  0  0  0  0
  9 10  1  0  0  0  0
 10 11  2  0  0  0  0
 10 42  1  0  0  0  0
 11 12  1  0  0  0  0
 12 28  2  0  0  0  0
 12 13  1  0  0  0  0
 13 14  1  0  0  0  0
 13 25  2  0  0  0  0
 14 23  1  0  0  0  0
 14 15  1  0  0  0  0
 15 16  1  0  0  0  0
 15 43  1  0  0  0  0
 15 44  1  0  0  0  0
 16 17  1  0  0  0  0
 16 45  1  0  0  0  0
 16 46  1  0  0  0  0
 17 29  1  0  0  0  0
 17 18  1  0  0  0  0
 17 23  1  0  0  0  0
 18 19  1  0  0  0  0
 18 20  1  0  0  0  0
 18 59  1  0  0  0  0
 19 47  1  0  0  0  0
 19 48  1  0  0  0  0
 19 49  1  0  0  0  0
 20 21  1  0  0  0  0
 20 50  1  0  0  0  0
 20 51  1  0  0  0  0
 21 22  1  0  0  0  0
 21 52  1  0  0  0  0
 21 53  1  0  0  0  0
 22 54  1  0  0  0  0
 23 30  1  0  0  0  0
 23 24  1  0  0  0  0
 24 55  1  0  0  0  0
 24 56  1  0  0  0  0
 24 57  1  0  0  0  0
 25 26  1  0  0  0  0
 26 27  2  0  0  0  0
 26 58  1  0  0  0  0
 27 28  1  0  0  0  0
M  CHG  1  18   1
M  END
> <s_m_source_file>
AV-unprocessed.smi

> <i_m_source_file_index>
290

> <i_lp_mmshare_version>
43012

> <i_f3d_flags>
0

> <s_epik_input>
W0NIMl0xW0NIMl1PW0NAQEhdKFtDSDNdKVtDQEBdMShbT0hdKVtDSDJdbihbY0hdbjIpYyhjMjMpbltjSF1uYzNONFtDSDJdW0NIMl1bQ0BIXShbQ0BIXTRbQ0gzXSlOKFtDSDNdKVtDSDJdW0NIMl1bT0hd

> <s_epik_cmdline>
J2VwaWtfcHl0aG9uJywgJy1waCcsICc3LjAnLCAnLXRuJywgJzgnLCAnLW1hJywgJzIwMCcsICctbWV0YWxfYmluZGluZycsICctaW1hZScsICc8aW5maWxlLm1hZT4nLCAnLW9tYWUnLCAnPG91dGZpbGUubWFlPic=

> <r_lp_tautomer_probability>
1

> <r_epik_Ionization_Penalty>
0.0036983

> <r_epik_Ionization_Penalty_Charging>
0.0032725

> <r_epik_Ionization_Penalty_Neutral>
0.000425798

> <r_epik_State_Penalty>
-0

> <r_epik_Charging_Adjusted_Penalty>
0.0032725

> <i_epik_Tot_Q>
1

> <i_epik_Tot_abs_Q>
1

> <r_epik_Metal_State_Penalty>
-0

> <b_epik_Metal_Only>
0

> <s_lp_Force_Field>
OPLS_2005

> <r_lp_Energy>
66.2506

> <b_lp_Chiralities_Consistent>
1

> <s_lp_Variant>
AV-unprocessed.smi:290-25

> <Gold.Version>
5.8.1

> <Gold.Id.Protein>
6NUR|6NUR_protein|mol2

> <Gold.PLP.Fitness>
46.0196

> <Gold.PLP.PLP>
-35.5052

> <Gold.PLP.part.hbond>
-3.0000

> <Gold.PLP.part.metal>
0.0000

> <Gold.PLP.part.buried>
-5.2093

> <Gold.PLP.part.nonpolar>
-26.9789

> <Gold.PLP.part.repulsive>
0.0686

> <Gold.PLP.ligand.clash>
0.0000

> <Gold.PLP.ligand.torsion>
0.8393

> <Gold.PLP.Chemscore.Hbond>
3.0000

> <Gold.PLP.Chemscore.CHOScore>
1.0000

> <Gold.PLP.Chemscore.Metal>
0.0000

> <Gold.Chemscore.Hbonds>
donor molecule, donor type, donor heavy atom, donor atom, acceptor molecule, acceptor atom, score
      L1  H    18    59       P1  7948  2.00
      L1  H    22    54       P1 10747  1.00
      L1  C    10    42       P1  8028  1.00

> <Gold.PLP.Chemscore.Internal.Correction>
0.1929

> <Gold.Rescore>
     Score         DG    S(hbond)    S(metal)    S(lipo)     H(rot)  DE(clash)    DE(int)     intcor
     11.66     -14.20       1.98        0.00      91.33       3.35       0.10       2.44       ----

> <Gold.Chemscore.Fitness>
11.6567

> <Gold.Chemscore.DG>
-14.1986

> <Gold.Chemscore.ZeroCoef>
-5.4800

> <Gold.Chemscore.Hbond>
1.9800

> <Gold.Chemscore.Metal>
0.0000

> <Gold.Chemscore.Lipo>
91.3328

> <Gold.Chemscore.Internal_Hbond>
0.0000

> <Gold.Chemscore.DEClash>
0.0987

> <Gold.Chemscore.DEInternal>
2.4432

> <Gold.Chemscore.Rot>
3.3518

> <Gold.Chemscore.Internal.Correction>
   9.000000E+99

> <Gold.Chemscore.Hbonds>
donor molecule, donor type, donor heavy atom, donor atom, acceptor molecule, acceptor atom, score
      L1  H    18    59       P1  7948  1.00
      L1  H    22    54       P1 10747  0.98

> <Gold.Chemscore.Hbond.Weighted>
-6.6132

> <Gold.Chemscore.Metal.Weighted>
-0.0000

> <Gold.Chemscore.Lipo.Weighted>
-10.6859

> <Gold.Chemscore.Internal_Hbond.Weighted>
0.0000

> <Gold.Chemscore.DEClash.Weighted>
0.0987

> <Gold.Chemscore.DEInternal.Weighted>
2.4432

> <Gold.Chemscore.Rot.Weighted>
8.5806

> <Gold.Chemscore.Internal.Correction.Weighted>
   9.000000E+99

> <Gold.Protein.RotatedTorsions>
[ 6907 6896 6895 6894 ] final    7.77 input  -60.11 | X-H torsion
[ 7974 7965 7964 7962 ] final -162.78 input  175.53 | X-H torsion
[ 8008 7997 7996 7995 ] final  111.80 input   59.86 | X-H torsion
[ 10167 10162 10161 10158 ] final  -90.40 input  -65.29 | X-H torsion
[ 10718 10713 10712 10709 ] final  108.33 input   66.30 | X-H torsion
[ 10763 10752 10751 10750 ] final   71.91 input  -60.55 | X-H torsion
[ 11005 11000 10999 10996 ] final  -74.04 input  -57.11 | X-H torsion

> <Gold.Protein.ActiveResidues>
 VAL166  LYS551  ARG553  GLY616  TRP617  ASP618  TYR619  PRO620  LYS621  CYS622 
 ASP623  PHE694  ASN695  SER759  ASP760  ASP761  ALA762  ILE779  LEU786  VAL792 
 PHE793  MET794  SER795  GLU796  ALA797  LYS798  CYS799  TRP800  GLU811  SER814 

> <Gold.Protein.RotatedAtoms>
  151.6952  135.0939  160.0240 H   0  0  0  0  0  0  0  0  0  0  0  0  # atno 6907 bound_to 6896
  152.3754  133.6470  159.6128 H   0  0  0  0  0  0  0  0  0  0  0  0  # atno 6908 bound_to 6896
  150.7705  133.9118  159.3413 H   0  0  0  0  0  0  0  0  0  0  0  0  # atno 6909 bound_to 6896
  144.7346  140.3203  143.6172 H   0  0  0  0  0  0  0  0  0  0  0  0  # atno 7974 bound_to 7965
  156.2149  140.3012  155.9817 H   0  0  0  0  0  0  0  0  0  0  0  0  # atno 8008 bound_to 7997
  155.2631  140.0430  157.3016 H   0  0  0  0  0  0  0  0  0  0  0  0  # atno 8009 bound_to 7997
  154.5753  140.2360  155.8140 H   0  0  0  0  0  0  0  0  0  0  0  0  # atno 8010 bound_to 7997
  140.3553  143.2870  151.9678 H   0  0  0  0  0  0  0  0  0  0  0  0  # atno 10167 bound_to 10162
  157.6591  131.0891  150.6289 H   0  0  0  0  0  0  0  0  0  0  0  0  # atno 10718 bound_to 10713
  153.0427  135.5119  154.7665 H   0  0  0  0  0  0  0  0  0  0  0  0  # atno 10763 bound_to 10752
  154.6589  135.2936  154.9894 H   0  0  0  0  0  0  0  0  0  0  0  0  # atno 10764 bound_to 10752
  154.0752  135.6672  153.4882 H   0  0  0  0  0  0  0  0  0  0  0  0  # atno 10765 bound_to 10752
  141.1630  133.6898  156.7303 H   0  0  0  0  0  0  0  0  0  0  0  0  # atno 11005 bound_to 11000
  145.7575  139.1814  143.2286 LP  0  0  0  0  0  0  0  0  0  0  0  0  # atno 17320 bound_to 7965
  146.1012  140.7541  142.9548 LP  0  0  0  0  0  0  0  0  0  0  0  0  # atno 17321 bound_to 7965
  139.4821  144.6040  151.7554 LP  0  0  0  0  0  0  0  0  0  0  0  0  # atno 17342 bound_to 10162
  140.5180  144.0924  150.6014 LP  0  0  0  0  0  0  0  0  0  0  0  0  # atno 17343 bound_to 10162
  156.6593  130.4507  149.5693 LP  0  0  0  0  0  0  0  0  0  0  0  0  # atno 17370 bound_to 10713
  156.2079  130.6660  151.1238 LP  0  0  0  0  0  0  0  0  0  0  0  0  # atno 17371 bound_to 10713
  140.2750  134.8362  157.3881 LP  0  0  0  0  0  0  0  0  0  0  0  0  # atno 17394 bound_to 11000
  140.1486  134.4879  155.7978 LP  0  0  0  0  0  0  0  0  0  0  0  0  # atno 17395 bound_to 11000

$$$$
