AV-unprocessed.smi:2162|AV-procd|sdf|8803|dock5
  -GOLD-   2272011583D 1   1.00000     0.00000
 Structure written by MMmdl.
 41 42  0  0  0  0  0  0  0  0  1 V2000
  152.9651  142.7287  162.0070 C   0  0  0  0  0  0  0  0  0  0  0  0
  152.4252  143.4473  160.8186 C   0  0  0  0  0  0  0  0  0  0  0  0
  152.2872  142.8849  159.6152 N   0  0  0  0  0  0  0  0  0  0  0  0
  151.7349  143.7584  158.6733 C   0  0  0  0  0  0  0  0  0  0  0  0
  151.4572  143.2797  157.2766 C   0  0  0  0  0  0  0  0  0  0  0  0
  150.6195  141.9852  157.2148 C   0  0  0  0  0  0  0  0  0  0  0  0
  149.7080  141.9662  156.0721 N   0  0  0  0  0  0  0  0  0  0  0  0
  149.8337  141.1738  154.9954 C   0  0  0  0  0  0  0  0  0  0  0  0
  150.7939  140.4234  154.8164 O   0  0  0  0  0  0  0  0  0  0  0  0
  148.6753  141.1982  153.9857 C   0  0  1  0  0  0  0  0  0  0  0  0
  147.9940  139.8231  153.8503 C   0  0  0  0  0  0  0  0  0  0  0  0
  146.6807  139.9977  154.5977 C   0  0  0  0  0  0  0  0  0  0  0  0
  145.9321  139.0554  154.8522 O   0  0  0  0  0  0  0  0  0  0  0  0
  146.4921  141.2762  154.9517 N   0  0  0  0  0  0  0  0  0  0  0  0
  145.3941  141.7835  155.7844 C   0  0  0  0  0  0  0  0  0  0  0  0
  144.5446  142.8444  155.0609 C   0  0  0  0  0  0  0  0  0  0  0  0
  145.9446  142.3042  157.1218 C   0  0  0  0  0  0  0  0  0  0  0  0
  147.5488  142.1427  154.4478 C   0  0  0  0  0  0  0  0  0  0  0  0
  151.4858  145.0107  159.1785 C   0  0  0  0  0  0  0  0  0  0  0  0
  151.9055  145.1271  160.8648 S   0  0  0  0  0  0  0  0  0  0  0  0
  152.9317  141.6501  161.8504 H   0  0  0  0  0  0  0  0  0  0  0  0
  152.3733  142.9699  162.8900 H   0  0  0  0  0  0  0  0  0  0  0  0
  153.9983  143.0270  162.1843 H   0  0  0  0  0  0  0  0  0  0  0  0
  150.9368  144.0608  156.7209 H   0  0  0  0  0  0  0  0  0  0  0  0
  152.3964  143.1211  156.7458 H   0  0  0  0  0  0  0  0  0  0  0  0
  151.2825  141.1231  157.1396 H   0  0  0  0  0  0  0  0  0  0  0  0
  150.0663  141.8584  158.1469 H   0  0  0  0  0  0  0  0  0  0  0  0
  148.8887  142.5529  156.1344 H   0  0  0  0  0  0  0  0  0  0  0  0
  149.0563  141.5220  153.0157 H   0  0  0  0  0  0  0  0  0  0  0  0
  147.7864  139.5898  152.8057 H   0  0  0  0  0  0  0  0  0  0  0  0
  148.5749  139.0001  154.2699 H   0  0  0  0  0  0  0  0  0  0  0  0
  144.7273  140.9480  156.0041 H   0  0  0  0  0  0  0  0  0  0  0  0
  143.6808  143.1244  155.6645 H   0  0  0  0  0  0  0  0  0  0  0  0
  144.1687  142.4669  154.1095 H   0  0  0  0  0  0  0  0  0  0  0  0
  145.1101  143.7556  154.8636 H   0  0  0  0  0  0  0  0  0  0  0  0
  145.1394  142.6519  157.7693 H   0  0  0  0  0  0  0  0  0  0  0  0
  146.6322  143.1363  156.9690 H   0  0  0  0  0  0  0  0  0  0  0  0
  146.4844  141.5238  157.6595 H   0  0  0  0  0  0  0  0  0  0  0  0
  147.8770  142.8428  155.2171 H   0  0  0  0  0  0  0  0  0  0  0  0
  147.1714  142.7268  153.6076 H   0  0  0  0  0  0  0  0  0  0  0  0
  151.0650  145.8634  158.6671 H   0  0  0  0  0  0  0  0  0  0  0  0
  1  2  1  0  0  0  0
  1 21  1  0  0  0  0
  1 22  1  0  0  0  0
  1 23  1  0  0  0  0
  2 20  1  0  0  0  0
  2  3  2  0  0  0  0
  3  4  1  0  0  0  0
  4  5  1  0  0  0  0
  4 19  2  0  0  0  0
  5  6  1  0  0  0  0
  5 24  1  0  0  0  0
  5 25  1  0  0  0  0
  6  7  1  0  0  0  0
  6 26  1  0  0  0  0
  6 27  1  0  0  0  0
  7  8  1  0  0  0  0
  7 28  1  0  0  0  0
  8  9  2  0  0  0  0
  8 10  1  0  0  0  0
 10 18  1  0  0  0  0
 10 11  1  0  0  0  0
 10 29  1  0  0  0  0
 11 12  1  0  0  0  0
 11 30  1  0  0  0  0
 11 31  1  0  0  0  0
 12 13  2  0  0  0  0
 12 14  1  0  0  0  0
 14 15  1  0  0  0  0
 14 18  1  0  0  0  0
 15 16  1  0  0  0  0
 15 17  1  0  0  0  0
 15 32  1  0  0  0  0
 16 33  1  0  0  0  0
 16 34  1  0  0  0  0
 16 35  1  0  0  0  0
 17 36  1  0  0  0  0
 17 37  1  0  0  0  0
 17 38  1  0  0  0  0
 18 39  1  0  0  0  0
 18 40  1  0  0  0  0
 19 20  1  0  0  0  0
 19 41  1  0  0  0  0
M  END
> <s_m_source_file>
AV-unprocessed.smi

> <i_m_source_file_index>
2162

> <i_lp_mmshare_version>
43012

> <i_f3d_flags>
0

> <s_epik_input>
W0NIM11jMW5jKFtjSF1zMSlbQ0gyXVtDSDJdW05IXUMoPU8pW0NAQEhdMltDSDJdQyg9TylOKFtDSDJdMilbQ0hdKFtDSDNdKVtDSDNd

> <s_epik_cmdline>
J2VwaWtfcHl0aG9uJywgJy1waCcsICc3LjAnLCAnLXRuJywgJzgnLCAnLW1hJywgJzIwMCcsICctbWV0YWxfYmluZGluZycsICctaW1hZScsICc8aW5maWxlLm1hZT4nLCAnLW9tYWUnLCAnPG91dGZpbGUubWFlPic=

> <r_epik_Ionization_Penalty>
0.000973993

> <r_epik_Ionization_Penalty_Charging>
0

> <r_epik_Ionization_Penalty_Neutral>
0.000973993

> <r_epik_State_Penalty>
0.000633765

> <r_epik_Charging_Adjusted_Penalty>
0.000633765

> <i_epik_Tot_Q>
0

> <i_epik_Tot_abs_Q>
0

> <r_epik_Metal_State_Penalty>
-0

> <b_epik_Metal_Only>
0

> <s_lp_Force_Field>
OPLS_2005

> <r_lp_Energy>
12.9276

> <b_lp_Chiralities_Consistent>
1

> <s_lp_Variant>
AV-unprocessed.smi:2162-2

> <Gold.Version>
5.8.1

> <Gold.Id.Protein>
6NUR|6NUR_protein|mol2

> <Gold.PLP.Fitness>
46.6709

> <Gold.PLP.PLP>
-43.7707

> <Gold.PLP.part.hbond>
-2.0000

> <Gold.PLP.part.metal>
0.0000

> <Gold.PLP.part.buried>
-2.5840

> <Gold.PLP.part.nonpolar>
-38.8363

> <Gold.PLP.part.repulsive>
0.2675

> <Gold.PLP.ligand.clash>
1.5261

> <Gold.PLP.ligand.torsion>
0.3774

> <Gold.PLP.Chemscore.Hbond>
1.7040

> <Gold.PLP.Chemscore.CHOScore>
0.0000

> <Gold.PLP.Chemscore.Metal>
0.0000

> <Gold.Chemscore.Hbonds>
donor molecule, donor type, donor heavy atom, donor atom, acceptor molecule, acceptor atom, score
      L1  H     7    28       P1  8028  0.26
      P1  H  7989  7998       L1     9  1.00

> <Gold.PLP.Chemscore.Internal.Correction>
0.0691

> <Gold.Rescore>
     Score         DG    S(hbond)    S(metal)    S(lipo)     H(rot)  DE(clash)    DE(int)     intcor
     16.24     -17.52       0.97        0.00     111.39       1.66       0.78       0.49       ----

> <Gold.Chemscore.Fitness>
16.2370

> <Gold.Chemscore.DG>
-17.5151

> <Gold.Chemscore.ZeroCoef>
-5.4800

> <Gold.Chemscore.Hbond>
0.9724

> <Gold.Chemscore.Metal>
0.0000

> <Gold.Chemscore.Lipo>
111.3924

> <Gold.Chemscore.Internal_Hbond>
0.0000

> <Gold.Chemscore.DEClash>
0.7843

> <Gold.Chemscore.DEInternal>
0.4937

> <Gold.Chemscore.Rot>
1.6585

> <Gold.Chemscore.Internal.Correction>
   9.000000E+99

> <Gold.Chemscore.Hbonds>
donor molecule, donor type, donor heavy atom, donor atom, acceptor molecule, acceptor atom, score
      L1  H     7    28       P1  8028  0.26
      P1  H  7989  7998       L1     9  0.72

> <Gold.Chemscore.Hbond.Weighted>
-3.2478

> <Gold.Chemscore.Metal.Weighted>
-0.0000

> <Gold.Chemscore.Lipo.Weighted>
-13.0329

> <Gold.Chemscore.Internal_Hbond.Weighted>
0.0000

> <Gold.Chemscore.DEClash.Weighted>
0.7843

> <Gold.Chemscore.DEInternal.Weighted>
0.4937

> <Gold.Chemscore.Rot.Weighted>
4.2457

> <Gold.Chemscore.Internal.Correction.Weighted>
   9.000000E+99

> <Gold.Protein.RotatedTorsions>
[ 6907 6896 6895 6894 ] final  -77.54 input  -60.11 | X-H torsion
[ 7974 7965 7964 7962 ] final  152.19 input  175.53 | X-H torsion
[ 8008 7997 7996 7995 ] final   36.25 input   59.86 | X-H torsion
[ 10167 10162 10161 10158 ] final -142.28 input  -65.29 | X-H torsion
[ 10718 10713 10712 10709 ] final -143.37 input   66.30 | X-H torsion
[ 10763 10752 10751 10750 ] final  -44.93 input  -60.55 | X-H torsion
[ 11005 11000 10999 10996 ] final  -14.44 input  -57.11 | X-H torsion

> <Gold.Protein.ActiveResidues>
 VAL166  LYS551  ARG553  GLY616  TRP617  ASP618  TYR619  PRO620  LYS621  CYS622 
 ASP623  PHE694  ASN695  SER759  ASP760  ASP761  ALA762  ILE779  LEU786  VAL792 
 PHE793  MET794  SER795  GLU796  ALA797  LYS798  CYS799  TRP800  GLU811  SER814 

> <Gold.Protein.RotatedAtoms>
  150.6996  134.4407  159.5290 H   0  0  0  0  0  0  0  0  0  0  0  0  # atno 6907 bound_to 6896
  152.2117  134.8492  160.0505 H   0  0  0  0  0  0  0  0  0  0  0  0  # atno 6908 bound_to 6896
  151.9375  133.3593  159.3990 H   0  0  0  0  0  0  0  0  0  0  0  0  # atno 6909 bound_to 6896
  144.8240  139.6636  143.6088 H   0  0  0  0  0  0  0  0  0  0  0  0  # atno 7974 bound_to 7965
  155.1843  140.3302  155.4369 H   0  0  0  0  0  0  0  0  0  0  0  0  # atno 8008 bound_to 7997
  156.2465  140.1921  156.6889 H   0  0  0  0  0  0  0  0  0  0  0  0  # atno 8009 bound_to 7997
  154.6250  140.0590  156.9648 H   0  0  0  0  0  0  0  0  0  0  0  0  # atno 8010 bound_to 7997
  139.8104  143.7711  152.2663 H   0  0  0  0  0  0  0  0  0  0  0  0  # atno 10167 bound_to 10162
  156.3571  130.7719  151.1881 H   0  0  0  0  0  0  0  0  0  0  0  0  # atno 10718 bound_to 10713
  154.0201  135.6670  153.4772 H   0  0  0  0  0  0  0  0  0  0  0  0  # atno 10763 bound_to 10752
  153.0584  135.5042  154.8031 H   0  0  0  0  0  0  0  0  0  0  0  0  # atno 10764 bound_to 10752
  154.6942  135.3067  154.9399 H   0  0  0  0  0  0  0  0  0  0  0  0  # atno 10765 bound_to 10752
  140.7864  133.8322  155.9339 H   0  0  0  0  0  0  0  0  0  0  0  0  # atno 11005 bound_to 11000
  146.2545  139.6272  142.9404 LP  0  0  0  0  0  0  0  0  0  0  0  0  # atno 17320 bound_to 7965
  145.5042  141.0437  143.2523 LP  0  0  0  0  0  0  0  0  0  0  0  0  # atno 17321 bound_to 7965
  139.7858  144.7428  151.0024 LP  0  0  0  0  0  0  0  0  0  0  0  0  # atno 17342 bound_to 10162
  140.7818  143.4494  151.0435 LP  0  0  0  0  0  0  0  0  0  0  0  0  # atno 17343 bound_to 10162
  157.7469  131.0411  150.4628 LP  0  0  0  0  0  0  0  0  0  0  0  0  # atno 17370 bound_to 10713
  156.4833  130.4078  149.6449 LP  0  0  0  0  0  0  0  0  0  0  0  0  # atno 17371 bound_to 10713
  140.9432  134.1874  157.4782 LP  0  0  0  0  0  0  0  0  0  0  0  0  # atno 17394 bound_to 11000
  139.8736  134.9880  156.5393 LP  0  0  0  0  0  0  0  0  0  0  0  0  # atno 17395 bound_to 11000

$$$$
