#       Name:                AV-unprocessed.smi:854
#       Creating user name   scv26
#       Creation time:       Fri Mar 27 01:42:37 2020


#       File generated by GOLD software.
#

@<TRIPOS>MOLECULE
AV-unprocessed.smi:854
    30    31     1
SMALL
NO_CHARGES


@<TRIPOS>ATOM
      1 ****        -2.3754  -1.8415  -0.1894 O.2            1 S1                 0.0000
      2 ****        -1.1614  -1.6444  -0.1943 C.2            1 S1                 0.0000
      3 ****        -0.2900  -2.6680  -0.0663 N.am           1 S1                 0.0000
      4 ****        -0.4926  -4.0715   0.0795 C.2            1 S1                 0.0000
      5 ****        -1.6821  -4.6718   0.2147 N.2            1 S1                 0.0000
      6 ****        -1.5633  -6.0571   0.3498 C.2            1 S1                 0.0000
      7 ****        -0.2655  -6.5011   0.3187 C.2            1 S1                 0.0000
      8 ****         0.8644  -5.1888   0.1197 S.3            1 S1                 0.0000
      9 ****        -0.6267  -0.4182  -0.3140 N.am           1 S1                 0.0000
     10 ****        -1.3767   0.8261  -0.4597 C.3            1 S1                 0.0000
     11 ****        -0.4722   1.9434  -1.0160 C.3            1 S1                 0.0000
     12 ****        -0.6664   3.1489  -0.0942 C.3            1 S1                 0.0000
     13 ****        -1.0273   2.5395   1.2566 C.3            1 S1                 0.0000
     14 ****        -1.8976   1.3350   0.8992 C.3            1 S1                 0.0000
     15 ****         0.6801  -2.3881  -0.0643 H              1 S1                 0.0000
     16 ****        -2.4573  -6.6522   0.4648 H              1 S1                 0.0000
     17 ****         0.0929  -7.5165   0.4022 H              1 S1                 0.0000
     18 ****         0.3808  -0.3442  -0.3060 H              1 S1                 0.0000
     19 ****        -2.2177   0.6659  -1.1371 H              1 S1                 0.0000
     20 ****         0.5762   1.6410  -0.9885 H              1 S1                 0.0000
     21 ****        -0.7083   2.1847  -2.0529 H              1 S1                 0.0000
     22 ****         0.2167   3.7869  -0.0456 H              1 S1                 0.0000
     23 ****        -1.4972   3.7571  -0.4542 H              1 S1                 0.0000
     24 ****        -0.1212   2.2023   1.7621 H              1 S1                 0.0000
     25 ****        -1.5359   3.2445   1.9149 H              1 S1                 0.0000
     26 ****        -2.9318   1.6624   0.7850 H              1 S1                 0.0000
     27 ****        -1.8886   0.5765   1.6834 H              1 S1                 0.0000
     28 ****        -2.7306  -2.7710  -0.0895 LP             1 S1                 0.0000
     29 ****        -3.0072  -1.0724  -0.2852 LP             1 S1                 0.0000
     30 ****        -2.5552  -4.1843   0.2185 LP             1 S1                 0.0000
@<TRIPOS>BOND
    1    1    2 2     
    2    2    3 am    
    3    2    9 am    
    4    3    4 1     
    5    3   15 1     
    6    4    8 1     
    7    4    5 2     
    8    5    6 1     
    9    6    7 2     
   10    6   16 1     
   11    7    8 1     
   12    7   17 1     
   13    9   10 1     
   14    9   18 1     
   15   10   14 1     
   16   10   11 1     
   17   10   19 1     
   18   11   12 1     
   19   11   20 1     
   20   11   21 1     
   21   12   13 1     
   22   12   22 1     
   23   12   23 1     
   24   13   14 1     
   25   13   24 1     
   26   13   25 1     
   27   14   26 1     
   28   14   27 1     
   29    1   28 1     
   30    1   29 1     
   31    5   30 1     
@<TRIPOS>SUBSTRUCTURE
      1 S1             1
@<TRIPOS>SET
LONE_PAIRS      STATIC     ATOMS    <user>   **** ""
3 28 29 30
DONOR_HYDROGENS      STATIC     ATOMS    <user>   **** ""
2 15 18
ATOM$BLUE        STATIC     ATOMS    COLORGROUP SYSTEM
3 28 29 30
ATOM$RED        STATIC     ATOMS    COLORGROUP SYSTEM
2 15 18
