AV-unprocessed.smi:1365|AV-procd|sdf|5568|dock1
  -GOLD-   22720 5163D 1   1.00000     0.00000
 Structure written by MMmdl.
 42 43  0  0  0  0  0  0  0  0  2 V2000
  149.0369  141.8476  156.9223 C   0  0  0  0  0  0  0  0  0  0  0  0
  149.2716  140.5607  156.2077 C   0  0  0  0  0  0  0  0  0  0  0  0
  148.4990  139.4501  156.0138 C   0  0  0  0  0  0  0  0  0  0  0  0
  149.3461  138.5994  155.2550 C   0  0  0  0  0  0  0  0  0  0  0  0
  148.9095  137.3134  154.8454 N   0  0  0  0  0  0  0  0  0  0  0  0
  149.4331  136.1241  155.1885 C   0  0  0  0  0  0  0  0  0  0  0  0
  150.4125  135.9628  155.9175 O   0  0  0  0  0  0  0  0  0  0  0  0
  148.7478  135.1106  154.6388 N   0  0  0  0  0  0  0  0  0  0  0  0
  149.0289  133.6969  154.8624 C   0  0  0  0  0  0  0  0  0  0  0  0
  149.0242  132.8951  153.5503 C   0  0  0  0  0  0  0  0  0  0  0  0
  147.9111  131.8340  153.5243 C   0  0  0  0  0  0  0  0  0  0  0  0
  147.1906  131.8017  152.2266 N   0  3  0  0  0  0  0  0  0  0  0  0
  146.0526  130.8446  152.2374 C   0  0  0  0  0  0  0  0  0  0  0  0
  145.4069  130.7293  150.8459 C   0  0  0  0  0  0  0  0  0  0  0  0
  144.9558  132.1032  150.3342 C   0  0  0  0  0  0  0  0  0  0  0  0
  146.1362  133.0826  150.3600 C   0  0  0  0  0  0  0  0  0  0  0  0
  146.7664  133.1498  151.7613 C   0  0  0  0  0  0  0  0  0  0  0  0
  150.5269  139.1435  155.0030 N   0  0  0  0  0  0  0  0  0  0  0  0
  150.4855  140.4029  155.6130 O   0  0  0  0  0  0  0  0  0  0  0  0
  147.9703  142.0313  157.0524 H   0  0  0  0  0  0  0  0  0  0  0  0
  149.4572  142.6845  156.3643 H   0  0  0  0  0  0  0  0  0  0  0  0
  149.5007  141.8305  157.9088 H   0  0  0  0  0  0  0  0  0  0  0  0
  147.4927  139.2759  156.3652 H   0  0  0  0  0  0  0  0  0  0  0  0
  148.0985  137.2975  154.2448 H   0  0  0  0  0  0  0  0  0  0  0  0
  147.9592  135.3323  154.0487 H   0  0  0  0  0  0  0  0  0  0  0  0
  149.9862  133.5883  155.3752 H   0  0  0  0  0  0  0  0  0  0  0  0
  148.2695  133.3047  155.5393 H   0  0  0  0  0  0  0  0  0  0  0  0
  148.9142  133.5866  152.7150 H   0  0  0  0  0  0  0  0  0  0  0  0
  149.9879  132.4013  153.4179 H   0  0  0  0  0  0  0  0  0  0  0  0
  148.3742  130.8620  153.7008 H   0  0  0  0  0  0  0  0  0  0  0  0
  147.2040  131.9888  154.3407 H   0  0  0  0  0  0  0  0  0  0  0  0
  146.4018  129.8594  152.5492 H   0  0  0  0  0  0  0  0  0  0  0  0
  145.3115  131.1661  152.9712 H   0  0  0  0  0  0  0  0  0  0  0  0
  146.1204  130.2928  150.1456 H   0  0  0  0  0  0  0  0  0  0  0  0
  144.5558  130.0485  150.8842 H   0  0  0  0  0  0  0  0  0  0  0  0
  144.5572  132.0178  149.3228 H   0  0  0  0  0  0  0  0  0  0  0  0
  144.1464  132.4828  150.9591 H   0  0  0  0  0  0  0  0  0  0  0  0
  146.8885  132.7702  149.6346 H   0  0  0  0  0  0  0  0  0  0  0  0
  145.8033  134.0747  150.0532 H   0  0  0  0  0  0  0  0  0  0  0  0
  146.0532  133.5728  152.4708 H   0  0  0  0  0  0  0  0  0  0  0  0
  147.6194  133.8268  151.7319 H   0  0  0  0  0  0  0  0  0  0  0  0
  147.8468  131.4463  151.5456 H   0  0  0  0  0  0  0  0  0  0  0  0
  1  2  1  0  0  0  0
  1 20  1  0  0  0  0
  1 21  1  0  0  0  0
  1 22  1  0  0  0  0
  2 19  1  0  0  0  0
  2  3  2  0  0  0  0
  3  4  1  0  0  0  0
  3 23  1  0  0  0  0
  4  5  1  0  0  0  0
  4 18  2  0  0  0  0
  5  6  1  0  0  0  0
  5 24  1  0  0  0  0
  6  7  2  0  0  0  0
  6  8  1  0  0  0  0
  8  9  1  0  0  0  0
  8 25  1  0  0  0  0
  9 10  1  0  0  0  0
  9 26  1  0  0  0  0
  9 27  1  0  0  0  0
 10 11  1  0  0  0  0
 10 28  1  0  0  0  0
 10 29  1  0  0  0  0
 11 12  1  0  0  0  0
 11 30  1  0  0  0  0
 11 31  1  0  0  0  0
 12 17  1  0  0  0  0
 12 13  1  0  0  0  0
 12 42  1  0  0  0  0
 13 14  1  0  0  0  0
 13 32  1  0  0  0  0
 13 33  1  0  0  0  0
 14 15  1  0  0  0  0
 14 34  1  0  0  0  0
 14 35  1  0  0  0  0
 15 16  1  0  0  0  0
 15 36  1  0  0  0  0
 15 37  1  0  0  0  0
 16 17  1  0  0  0  0
 16 38  1  0  0  0  0
 16 39  1  0  0  0  0
 17 40  1  0  0  0  0
 17 41  1  0  0  0  0
 18 19  1  0  0  0  0
M  CHG  1  12   1
M  END
> <s_m_source_file>
AV-unprocessed.smi

> <i_m_source_file_index>
1365

> <i_lp_mmshare_version>
43012

> <i_f3d_flags>
0

> <s_epik_input>
W0NIM11jMVtjSF1jKG5vMSlbTkhdQyg9TylbTkhdW0NIMl1bQ0gyXVtDSDJdTjJbQ0gyXVtDSDJdW0NIMl1bQ0gyXVtDSDJdMg==

> <s_epik_cmdline>
J2VwaWtfcHl0aG9uJywgJy1waCcsICc3LjAnLCAnLXRuJywgJzgnLCAnLW1hJywgJzIwMCcsICctbWV0YWxfYmluZGluZycsICctaW1hZScsICc8aW5maWxlLm1hZT4nLCAnLW9tYWUnLCAnPG91dGZpbGUubWFlPic=

> <r_epik_Ionization_Penalty>
0.000389345

> <r_epik_Ionization_Penalty_Charging>
0.000358942

> <r_epik_Ionization_Penalty_Neutral>
3.04028e-05

> <r_epik_State_Penalty>
0.000218395

> <r_epik_Charging_Adjusted_Penalty>
0.000577337

> <i_epik_Tot_Q>
1

> <i_epik_Tot_abs_Q>
1

> <r_epik_Metal_State_Penalty>
0.0112716

> <b_epik_Metal_Only>
0

> <s_lp_Force_Field>
OPLS_2005

> <r_lp_Energy>
13.5089

> <b_lp_Chiralities_Consistent>
1

> <s_lp_Variant>
AV-unprocessed.smi:1365-1

> <Gold.Version>
5.8.1

> <Gold.Id.Protein>
6NUR|6NUR_protein|mol2

> <Gold.PLP.Fitness>
44.1008

> <Gold.PLP.PLP>
-37.0587

> <Gold.PLP.part.hbond>
-5.3141

> <Gold.PLP.part.metal>
0.0000

> <Gold.PLP.part.buried>
-5.1926

> <Gold.PLP.part.nonpolar>
-26.8417

> <Gold.PLP.part.repulsive>
0.3114

> <Gold.PLP.ligand.clash>
0.0000

> <Gold.PLP.ligand.torsion>
1.3996

> <Gold.PLP.Chemscore.Hbond>
3.2629

> <Gold.PLP.Chemscore.CHOScore>
0.0000

> <Gold.PLP.Chemscore.Metal>
0.0000

> <Gold.Chemscore.Hbonds>
donor molecule, donor type, donor heavy atom, donor atom, acceptor molecule, acceptor atom, score
      L1  H    12    42       P1 10747  1.00

> <Gold.PLP.Chemscore.Internal.Correction>
0.0526

> <Gold.Rescore>
     Score         DG    S(hbond)    S(metal)    S(lipo)     H(rot)  DE(clash)    DE(int)     intcor
     17.09     -18.95       2.56        0.00      81.95       1.82       0.54       1.31       ----

> <Gold.Chemscore.Fitness>
17.0943

> <Gold.Chemscore.DG>
-18.9510

> <Gold.Chemscore.ZeroCoef>
-5.4800

> <Gold.Chemscore.Hbond>
2.5577

> <Gold.Chemscore.Metal>
0.0000

> <Gold.Chemscore.Lipo>
81.9451

> <Gold.Chemscore.Internal_Hbond>
0.0000

> <Gold.Chemscore.DEClash>
0.5428

> <Gold.Chemscore.DEInternal>
1.3139

> <Gold.Chemscore.Rot>
1.8201

> <Gold.Chemscore.Internal.Correction>
   9.000000E+99

> <Gold.Chemscore.Hbonds>
donor molecule, donor type, donor heavy atom, donor atom, acceptor molecule, acceptor atom, score
      L1  H    12    42       P1 10747  1.00

> <Gold.Chemscore.Hbond.Weighted>
-8.5427

> <Gold.Chemscore.Metal.Weighted>
-0.0000

> <Gold.Chemscore.Lipo.Weighted>
-9.5876

> <Gold.Chemscore.Internal_Hbond.Weighted>
0.0000

> <Gold.Chemscore.DEClash.Weighted>
0.5428

> <Gold.Chemscore.DEInternal.Weighted>
1.3139

> <Gold.Chemscore.Rot.Weighted>
4.6593

> <Gold.Chemscore.Internal.Correction.Weighted>
   9.000000E+99

> <Gold.Protein.RotatedTorsions>
[ 6907 6896 6895 6894 ] final  -83.30 input  -60.11 | X-H torsion
[ 7974 7965 7964 7962 ] final  -93.10 input  175.53 | X-H torsion
[ 8008 7997 7996 7995 ] final  -16.25 input   59.86 | X-H torsion
[ 10167 10162 10161 10158 ] final  158.70 input  -65.29 | X-H torsion
[ 10718 10713 10712 10709 ] final  113.10 input   66.30 | X-H torsion
[ 10763 10752 10751 10750 ] final  -53.10 input  -60.55 | X-H torsion
[ 11005 11000 10999 10996 ] final -102.93 input  -57.11 | X-H torsion

> <Gold.Protein.ActiveResidues>
 VAL166  LYS551  ARG553  GLY616  TRP617  ASP618  TYR619  PRO620  LYS621  CYS622 
 ASP623  PHE694  ASN695  SER759  ASP760  ASP761  ALA762  ILE779  LEU786  VAL792 
 PHE793  MET794  SER795  GLU796  ALA797  LYS798  CYS799  TRP800  GLU811  SER814 

> <Gold.Protein.RotatedAtoms>
  150.6887  134.3532  159.4917 H   0  0  0  0  0  0  0  0  0  0  0  0  # atno 6907 bound_to 6896
  152.1371  134.9088  160.0565 H   0  0  0  0  0  0  0  0  0  0  0  0  # atno 6908 bound_to 6896
  152.0236  133.3874  159.4305 H   0  0  0  0  0  0  0  0  0  0  0  0  # atno 6909 bound_to 6896
  145.3910  140.9528  143.2340 H   0  0  0  0  0  0  0  0  0  0  0  0  # atno 7974 bound_to 7965
  154.5067  140.2174  155.9237 H   0  0  0  0  0  0  0  0  0  0  0  0  # atno 8008 bound_to 7997
  156.1502  140.3163  155.8603 H   0  0  0  0  0  0  0  0  0  0  0  0  # atno 8009 bound_to 7997
  155.3952  140.0481  157.3030 H   0  0  0  0  0  0  0  0  0  0  0  0  # atno 8010 bound_to 7997
  139.4828  144.4800  151.8458 H   0  0  0  0  0  0  0  0  0  0  0  0  # atno 10167 bound_to 10162
  157.6356  131.0978  150.6992 H   0  0  0  0  0  0  0  0  0  0  0  0  # atno 10718 bound_to 10713
  154.1534  135.6486  153.4969 H   0  0  0  0  0  0  0  0  0  0  0  0  # atno 10763 bound_to 10752
  153.0131  135.5343  154.6784 H   0  0  0  0  0  0  0  0  0  0  0  0  # atno 10764 bound_to 10752
  154.6078  135.2950  155.0437 H   0  0  0  0  0  0  0  0  0  0  0  0  # atno 10765 bound_to 10752
  141.1168  133.8599  157.1422 H   0  0  0  0  0  0  0  0  0  0  0  0  # atno 11005 bound_to 11000
  144.8440  139.5426  143.6887 LP  0  0  0  0  0  0  0  0  0  0  0  0  # atno 17320 bound_to 7965
  146.2797  139.6846  142.9237 LP  0  0  0  0  0  0  0  0  0  0  0  0  # atno 17321 bound_to 7965
  140.4275  144.2161  150.5887 LP  0  0  0  0  0  0  0  0  0  0  0  0  # atno 17342 bound_to 10162
  140.4813  143.2378  151.8951 LP  0  0  0  0  0  0  0  0  0  0  0  0  # atno 17343 bound_to 10162
  156.7324  130.4714  149.5496 LP  0  0  0  0  0  0  0  0  0  0  0  0  # atno 17370 bound_to 10713
  156.1593  130.6363  151.0698 LP  0  0  0  0  0  0  0  0  0  0  0  0  # atno 17371 bound_to 10713
  140.0095  134.9994  157.0366 LP  0  0  0  0  0  0  0  0  0  0  0  0  # atno 17394 bound_to 11000
  140.4623  134.1471  155.7193 LP  0  0  0  0  0  0  0  0  0  0  0  0  # atno 17395 bound_to 11000

$$$$
