AV-unprocessed.smi:153|AV-procd|sdf|1256|dock6
  -GOLD-   2262018493D 1   1.00000     0.00000
 Structure written by MMmdl.
 60 63  0  0  0  0  0  0  0  0  2 V2000
  150.6903  141.5958  156.0499 C   0  0  0  0  0  0  0  0  0  0  0  0
  150.2895  140.1130  155.9506 C   0  0  2  0  0  0  0  0  0  0  0  0
  151.4545  139.2902  155.9096 O   0  0  0  0  0  0  0  0  0  0  0  0
  151.4903  138.5619  154.6920 C   0  0  0  0  0  0  0  0  0  0  0  0
  150.0221  138.3727  154.3359 C   0  0  0  0  0  0  0  0  0  0  0  0
  149.4103  139.7061  154.7395 C   0  0  2  0  0  0  0  0  0  0  0  0
  149.5850  140.6114  153.6609 O   0  0  0  0  0  0  0  0  0  0  0  0
  147.8976  139.5941  155.0503 C   0  0  0  0  0  0  0  0  0  0  0  0
  147.2314  138.5363  154.3071 N   0  0  0  0  0  0  0  0  0  0  0  0
  146.4113  138.6912  153.2143 C   0  0  0  0  0  0  0  0  0  0  0  0
  145.9544  137.5817  152.7043 N   0  0  0  0  0  0  0  0  0  0  0  0
  146.4801  136.5796  153.5145 C   0  0  0  0  0  0  0  0  0  0  0  0
  146.4077  135.1518  153.5257 C   0  0  0  0  0  0  0  0  0  0  0  0
  145.7202  134.3898  152.6287 N   0  0  0  0  0  0  0  0  0  0  0  0
  145.1998  134.9992  151.4109 C   0  0  0  0  0  0  0  0  0  0  0  0
  145.9166  132.9386  152.6400 C   0  0  0  0  0  0  0  0  0  0  0  0
  145.7242  132.3029  151.2472 C   0  0  1  0  0  0  0  0  0  0  0  0
  146.9154  132.4824  150.5059 O   0  0  0  0  0  0  0  0  0  0  0  0
  145.4698  130.7856  151.3473 C   0  0  0  0  0  0  0  0  0  0  0  0
  146.7127  130.0142  151.6056 N   0  3  0  0  0  0  0  0  0  0  0  0
  147.2047  130.1761  152.9943 C   0  0  0  0  0  0  0  0  0  0  0  0
  148.5294  129.4185  153.1847 C   0  0  0  0  0  0  0  0  0  0  0  0
  148.3424  128.0456  152.8638 O   0  0  0  0  0  0  0  0  0  0  0  0
  147.9497  127.8646  151.5089 C   0  0  0  0  0  0  0  0  0  0  0  0
  146.6084  128.5750  151.2583 C   0  0  0  0  0  0  0  0  0  0  0  0
  147.0945  134.5101  154.5084 N   0  0  0  0  0  0  0  0  0  0  0  0
  147.7972  135.1949  155.4137 C   0  0  0  0  0  0  0  0  0  0  0  0
  147.9563  136.5137  155.5191 N   0  0  0  0  0  0  0  0  0  0  0  0
  147.2792  137.1721  154.5365 C   0  0  0  0  0  0  0  0  0  0  0  0
  149.8144  142.2440  156.0689 H   0  0  0  0  0  0  0  0  0  0  0  0
  151.3158  141.8992  155.2101 H   0  0  0  0  0  0  0  0  0  0  0  0
  151.2575  141.7809  156.9621 H   0  0  0  0  0  0  0  0  0  0  0  0
  149.7754  139.8358  156.8715 H   0  0  0  0  0  0  0  0  0  0  0  0
  151.9999  139.1558  153.9321 H   0  0  0  0  0  0  0  0  0  0  0  0
  152.0235  137.6176  154.8041 H   0  0  0  0  0  0  0  0  0  0  0  0
  149.8643  138.1149  153.2878 H   0  0  0  0  0  0  0  0  0  0  0  0
  149.6096  137.5659  154.9431 H   0  0  0  0  0  0  0  0  0  0  0  0
  149.6093  140.1184  152.8551 H   0  0  0  0  0  0  0  0  0  0  0  0
  147.7387  139.4226  156.1157 H   0  0  0  0  0  0  0  0  0  0  0  0
  147.3960  140.5340  154.8160 H   0  0  0  0  0  0  0  0  0  0  0  0
  146.1737  139.6577  152.7940 H   0  0  0  0  0  0  0  0  0  0  0  0
  144.6636  135.9218  151.6357 H   0  0  0  0  0  0  0  0  0  0  0  0
  144.4995  134.3289  150.9123 H   0  0  0  0  0  0  0  0  0  0  0  0
  146.0072  135.2199  150.7123 H   0  0  0  0  0  0  0  0  0  0  0  0
  146.8746  132.6548  153.0778 H   0  0  0  0  0  0  0  0  0  0  0  0
  145.1687  132.5293  153.3197 H   0  0  0  0  0  0  0  0  0  0  0  0
  144.8986  132.7914  150.7302 H   0  0  0  0  0  0  0  0  0  0  0  0
  147.4131  131.6787  150.5371 H   0  0  0  0  0  0  0  0  0  0  0  0
  144.7546  130.6071  152.1522 H   0  0  0  0  0  0  0  0  0  0  0  0
  145.0003  130.4131  150.4355 H   0  0  0  0  0  0  0  0  0  0  0  0
  147.3544  131.2337  153.2149 H   0  0  0  0  0  0  0  0  0  0  0  0
  146.4556  129.8038  153.6951 H   0  0  0  0  0  0  0  0  0  0  0  0
  149.3165  129.8472  152.5619 H   0  0  0  0  0  0  0  0  0  0  0  0
  148.8634  129.4983  154.2193 H   0  0  0  0  0  0  0  0  0  0  0  0
  148.7229  128.2444  150.8391 H   0  0  0  0  0  0  0  0  0  0  0  0
  147.8524  126.7972  151.3094 H   0  0  0  0  0  0  0  0  0  0  0  0
  145.8243  128.1093  151.8571 H   0  0  0  0  0  0  0  0  0  0  0  0
  146.3277  128.4507  150.2131 H   0  0  0  0  0  0  0  0  0  0  0  0
  148.3086  134.6004  156.1565 H   0  0  0  0  0  0  0  0  0  0  0  0
  147.4218  130.4148  151.0074 H   0  0  0  0  0  0  0  0  0  0  0  0
  1  2  1  0  0  0  0
  1 30  1  0  0  0  0
  1 31  1  0  0  0  0
  1 32  1  0  0  0  0
  2  6  1  0  0  0  0
  2  3  1  0  0  0  0
  2 33  1  0  0  0  0
  3  4  1  0  0  0  0
  4  5  1  0  0  0  0
  4 34  1  0  0  0  0
  4 35  1  0  0  0  0
  5  6  1  0  0  0  0
  5 36  1  0  0  0  0
  5 37  1  0  0  0  0
  6  7  1  0  0  0  0
  6  8  1  0  0  0  0
  7 38  1  0  0  0  0
  8  9  1  0  0  0  0
  8 39  1  0  0  0  0
  8 40  1  0  0  0  0
  9 29  1  0  0  0  0
  9 10  1  0  0  0  0
 10 11  2  0  0  0  0
 10 41  1  0  0  0  0
 11 12  1  0  0  0  0
 12 29  2  0  0  0  0
 12 13  1  0  0  0  0
 13 14  1  0  0  0  0
 13 26  2  0  0  0  0
 14 15  1  0  0  0  0
 14 16  1  0  0  0  0
 15 42  1  0  0  0  0
 15 43  1  0  0  0  0
 15 44  1  0  0  0  0
 16 17  1  0  0  0  0
 16 45  1  0  0  0  0
 16 46  1  0  0  0  0
 17 18  1  0  0  0  0
 17 19  1  0  0  0  0
 17 47  1  0  0  0  0
 18 48  1  0  0  0  0
 19 20  1  0  0  0  0
 19 49  1  0  0  0  0
 19 50  1  0  0  0  0
 20 25  1  0  0  0  0
 20 21  1  0  0  0  0
 20 60  1  0  0  0  0
 21 22  1  0  0  0  0
 21 51  1  0  0  0  0
 21 52  1  0  0  0  0
 22 23  1  0  0  0  0
 22 53  1  0  0  0  0
 22 54  1  0  0  0  0
 23 24  1  0  0  0  0
 24 25  1  0  0  0  0
 24 55  1  0  0  0  0
 24 56  1  0  0  0  0
 25 57  1  0  0  0  0
 25 58  1  0  0  0  0
 26 27  1  0  0  0  0
 27 28  2  0  0  0  0
 27 59  1  0  0  0  0
 28 29  1  0  0  0  0
M  CHG  1  20   1
M  END
> <s_m_source_file>
AV-unprocessed.smi

> <i_m_source_file_index>
153

> <i_lp_mmshare_version>
43012

> <i_f3d_flags>
0

> <s_epik_input>
W0NIMl0xW0NIMl1PW0NAQEhdKFtDSDNdKVtDQEBdMShbT0hdKVtDSDJdbihbY0hdbjIpYyhjMjMpbltjSF1uYzNOKFtDSDNdKVtDSDJdW0NASF0oW09IXSlbQ0gyXU40W0NIMl1bQ0gyXU9bQ0gyXVtDSDJdNA==

> <s_epik_cmdline>
J2VwaWtfcHl0aG9uJywgJy1waCcsICc3LjAnLCAnLXRuJywgJzgnLCAnLW1hJywgJzIwMCcsICctbWV0YWxfYmluZGluZycsICctaW1hZScsICc8aW5maWxlLm1hZT4nLCAnLW9tYWUnLCAnPG91dGZpbGUubWFlPic=

> <r_lp_tautomer_probability>
1

> <r_epik_Ionization_Penalty>
0.403509

> <r_epik_Ionization_Penalty_Charging>
0.40072

> <r_epik_Ionization_Penalty_Neutral>
0.00278876

> <r_epik_State_Penalty>
0.400058

> <r_epik_Charging_Adjusted_Penalty>
0.800778

> <i_epik_Tot_Q>
1

> <i_epik_Tot_abs_Q>
1

> <r_epik_Metal_State_Penalty>
0.400321

> <b_epik_Metal_Only>
0

> <s_lp_Force_Field>
OPLS_2005

> <r_lp_Energy>
47.9216

> <b_lp_Chiralities_Consistent>
1

> <s_lp_Variant>
AV-unprocessed.smi:153-7

> <Gold.Version>
5.8.1

> <Gold.Id.Protein>
6NUR|6NUR_protein|mol2

> <Gold.PLP.Fitness>
53.0401

> <Gold.PLP.PLP>
-42.8641

> <Gold.PLP.part.hbond>
-4.6677

> <Gold.PLP.part.metal>
0.0000

> <Gold.PLP.part.buried>
-5.2118

> <Gold.PLP.part.nonpolar>
-33.4722

> <Gold.PLP.part.repulsive>
0.5496

> <Gold.PLP.ligand.clash>
0.0000

> <Gold.PLP.ligand.torsion>
1.5812

> <Gold.PLP.Chemscore.Hbond>
3.5464

> <Gold.PLP.Chemscore.CHOScore>
0.6761

> <Gold.PLP.Chemscore.Metal>
0.0000

> <Gold.Chemscore.Hbonds>
donor molecule, donor type, donor heavy atom, donor atom, acceptor molecule, acceptor atom, score
      L1  H     7    38       P1  7957  1.00
      L1  H    18    48       P1 10747  0.94
      L1  H    20    60       P1 10747  1.00
      P1  H  7989  7998       L1     7  0.19
      P1  H  8011  8017       L1     7  0.11
      L1  C    10    41       P1 10175  0.62

> <Gold.PLP.Chemscore.Internal.Correction>
0.6708

> <Gold.Rescore>
     Score         DG    S(hbond)    S(metal)    S(lipo)     H(rot)  DE(clash)    DE(int)     intcor
     12.87     -17.22       2.91        0.00      96.42       3.62       0.27       4.07       ----

> <Gold.Chemscore.Fitness>
12.8750

> <Gold.Chemscore.DG>
-17.2161

> <Gold.Chemscore.ZeroCoef>
-5.4800

> <Gold.Chemscore.Hbond>
2.9093

> <Gold.Chemscore.Metal>
0.0000

> <Gold.Chemscore.Lipo>
96.4222

> <Gold.Chemscore.Internal_Hbond>
0.0000

> <Gold.Chemscore.DEClash>
0.2739

> <Gold.Chemscore.DEInternal>
4.0672

> <Gold.Chemscore.Rot>
3.6182

> <Gold.Chemscore.Internal.Correction>
   9.000000E+99

> <Gold.Chemscore.Hbonds>
donor molecule, donor type, donor heavy atom, donor atom, acceptor molecule, acceptor atom, score
      L1  H     7    38       P1  7957  0.95
      L1  H    18    48       P1 10747  0.92
      L1  H    20    60       P1 10747  1.00

> <Gold.Chemscore.Hbond.Weighted>
-9.7171

> <Gold.Chemscore.Metal.Weighted>
-0.0000

> <Gold.Chemscore.Lipo.Weighted>
-11.2814

> <Gold.Chemscore.Internal_Hbond.Weighted>
0.0000

> <Gold.Chemscore.DEClash.Weighted>
0.2739

> <Gold.Chemscore.DEInternal.Weighted>
4.0672

> <Gold.Chemscore.Rot.Weighted>
9.2625

> <Gold.Chemscore.Internal.Correction.Weighted>
   9.000000E+99

> <Gold.Protein.RotatedTorsions>
[ 6907 6896 6895 6894 ] final  138.00 input  -60.11 | X-H torsion
[ 7974 7965 7964 7962 ] final   27.53 input  175.53 | X-H torsion
[ 8008 7997 7996 7995 ] final  -68.58 input   59.86 | X-H torsion
[ 10167 10162 10161 10158 ] final  -39.81 input  -65.29 | X-H torsion
[ 10718 10713 10712 10709 ] final  -86.69 input   66.30 | X-H torsion
[ 10763 10752 10751 10750 ] final  -98.61 input  -60.55 | X-H torsion
[ 11005 11000 10999 10996 ] final  123.46 input  -57.11 | X-H torsion

> <Gold.Protein.ActiveResidues>
 VAL166  LYS551  ARG553  GLY616  TRP617  ASP618  TYR619  PRO620  LYS621  CYS622 
 ASP623  PHE694  ASN695  SER759  ASP760  ASP761  ALA762  ILE779  LEU786  VAL792 
 PHE793  MET794  SER795  GLU796  ALA797  LYS798  CYS799  TRP800  GLU811  SER814 

> <Gold.Protein.RotatedAtoms>
  152.2717  133.5388  159.5442 H   0  0  0  0  0  0  0  0  0  0  0  0  # atno 6907 bound_to 6896
  150.7161  134.0689  159.3866 H   0  0  0  0  0  0  0  0  0  0  0  0  # atno 6908 bound_to 6896
  151.8603  135.0526  160.0519 H   0  0  0  0  0  0  0  0  0  0  0  0  # atno 6909 bound_to 6896
  146.1779  139.7179  142.8921 H   0  0  0  0  0  0  0  0  0  0  0  0  # atno 7974 bound_to 7965
  154.4878  140.0870  156.7525 H   0  0  0  0  0  0  0  0  0  0  0  0  # atno 8008 bound_to 7997
  155.4307  140.3449  155.4261 H   0  0  0  0  0  0  0  0  0  0  0  0  # atno 8009 bound_to 7997
  156.1286  140.1494  156.9087 H   0  0  0  0  0  0  0  0  0  0  0  0  # atno 8010 bound_to 7997
  140.7053  143.3191  151.2835 H   0  0  0  0  0  0  0  0  0  0  0  0  # atno 10167 bound_to 10162
  155.9988  130.4774  150.4753 H   0  0  0  0  0  0  0  0  0  0  0  0  # atno 10718 bound_to 10713
  154.7428  135.5003  153.9152 H   0  0  0  0  0  0  0  0  0  0  0  0  # atno 10763 bound_to 10752
  153.1061  135.6697  153.9592 H   0  0  0  0  0  0  0  0  0  0  0  0  # atno 10764 bound_to 10752
  153.9365  135.3072  155.3423 H   0  0  0  0  0  0  0  0  0  0  0  0  # atno 10765 bound_to 10752
  139.9314  134.9641  156.8263 H   0  0  0  0  0  0  0  0  0  0  0  0  # atno 11005 bound_to 11000
  145.4160  141.0401  143.2991 LP  0  0  0  0  0  0  0  0  0  0  0  0  # atno 17320 bound_to 7965
  144.8266  139.5699  143.6962 LP  0  0  0  0  0  0  0  0  0  0  0  0  # atno 17321 bound_to 7965
  139.6640  144.0139  152.2711 LP  0  0  0  0  0  0  0  0  0  0  0  0  # atno 17342 bound_to 10162
  139.9715  144.6490  150.7984 LP  0  0  0  0  0  0  0  0  0  0  0  0  # atno 17343 bound_to 10162
  157.2764  131.0598  151.2226 LP  0  0  0  0  0  0  0  0  0  0  0  0  # atno 17370 bound_to 10713
  157.3288  130.6974  149.6312 LP  0  0  0  0  0  0  0  0  0  0  0  0  # atno 17371 bound_to 10713
  140.6193  134.0009  155.7611 LP  0  0  0  0  0  0  0  0  0  0  0  0  # atno 17394 bound_to 11000
  141.0904  133.9925  157.3246 LP  0  0  0  0  0  0  0  0  0  0  0  0  # atno 17395 bound_to 11000

$$$$
