#       Name:                AV-unprocessed.smi:1048
#       Creating user name   scv26
#       Creation time:       Fri Mar 27 03:10:20 2020


#       File generated by GOLD software.
#

@<TRIPOS>MOLECULE
AV-unprocessed.smi:1048
    51    52     1
SMALL
NO_CHARGES


@<TRIPOS>ATOM
      1 ****        -4.8265   2.7639   2.7306 C.3            1 S1                 0.0000
      2 ****        -4.0257   3.1120   1.4636 C.3            1 S1                 0.0000
      3 ****        -4.4324   2.2569   0.2497 C.3            1 S1                 0.0000
      4 ****        -3.9057   0.8140   0.3505 C.3            1 S1                 0.0000
      5 ****        -2.4318   0.7937   0.5308 N.4            1 S1                 1.0000
      6 ****        -1.8715  -0.5814   0.4821 C.3            1 S1                 0.0000
      7 ****        -0.4120  -0.6032  -0.0170 C.3            1 S1                 0.0000
      8 ****        -0.4309  -0.1654  -1.3618 O.3            1 S1                 0.0000
      9 ****         0.1800  -2.0268   0.0262 C.3            1 S1                 0.0000
     10 ****         1.6397  -2.0127   0.0314 N.am           1 S1                 0.0000
     11 ****         2.4127  -2.0015  -1.0635 C.2            1 S1                 0.0000
     12 ****         1.9632  -1.9749  -2.2087 O.2            1 S1                 0.0000
     13 ****         3.7169  -1.9981  -0.7394 N.am           1 S1                 0.0000
     14 ****         4.8423  -2.0294  -1.6069 C.ar           1 S1                 0.0000
     15 ****         6.0841  -1.5979  -1.0966 C.ar           1 S1                 0.0000
     16 ****         7.2197  -1.6395  -1.9275 C.ar           1 S1                 0.0000
     17 ****         7.0703  -2.1221  -3.2419 C.ar           1 S1                 0.0000
     18 ****         5.8934  -2.5529  -3.7422 N.ar           1 S1                 0.0000
     19 ****         4.8076  -2.5089  -2.9402 C.ar           1 S1                 0.0000
     20 ****        -2.0163   1.5539   1.7388 C.3            1 S1                 0.0000
     21 ****        -2.5033   3.0126   1.6730 C.3            1 S1                 0.0000
     22 ****        -4.6586   1.7374   3.0552 H              1 S1                 0.0000
     23 ****        -5.8969   2.8840   2.5604 H              1 S1                 0.0000
     24 ****        -4.5530   3.4197   3.5575 H              1 S1                 0.0000
     25 ****        -4.2588   4.1513   1.2282 H              1 S1                 0.0000
     26 ****        -5.5169   2.2532   0.1347 H              1 S1                 0.0000
     27 ****        -4.0347   2.7143  -0.6574 H              1 S1                 0.0000
     28 ****        -4.3854   0.2846   1.1746 H              1 S1                 0.0000
     29 ****        -4.1699   0.2790  -0.5625 H              1 S1                 0.0000
     30 ****        -1.9496  -1.0343   1.4716 H              1 S1                 0.0000
     31 ****        -2.4719  -1.2060  -0.1817 H              1 S1                 0.0000
     32 ****         0.2069   0.0691   0.5771 H              1 S1                 0.0000
     33 ****         0.4371  -0.2698  -1.7241 H              1 S1                 0.0000
     34 ****        -0.1156  -2.5130   0.9564 H              1 S1                 0.0000
     35 ****        -0.2134  -2.6524  -0.7775 H              1 S1                 0.0000
     36 ****         2.0934  -2.0291   0.9332 H              1 S1                 0.0000
     37 ****         3.9312  -1.9267   0.2444 H              1 S1                 0.0000
     38 ****         6.1682  -1.2358  -0.0822 H              1 S1                 0.0000
     39 ****         8.1829  -1.3111  -1.5659 H              1 S1                 0.0000
     40 ****         7.9200  -2.1690  -3.9068 H              1 S1                 0.0000
     41 ****         3.9034  -2.8916  -3.3870 H              1 S1                 0.0000
     42 ****        -2.4047   1.0632   2.6324 H              1 S1                 0.0000
     43 ****        -0.9307   1.5500   1.8307 H              1 S1                 0.0000
     44 ****        -1.9958   3.5162   0.8490 H              1 S1                 0.0000
     45 ****        -2.2108   3.5461   2.5782 H              1 S1                 0.0000
     46 ****        -2.0490   1.2771  -0.2696 H              1 S1                 0.0000
     47 ****        -0.6985   0.7974  -1.3993 LP             1 S1                 0.0000
     48 ****        -1.0832  -0.7132  -1.8857 LP             1 S1                 0.0000
     49 ****         0.9744  -1.9604  -2.3575 LP             1 S1                 0.0000
     50 ****         2.5866  -1.9677  -2.9905 LP             1 S1                 0.0000
     51 ****         5.8271  -2.8948  -4.6796 LP             1 S1                 0.0000
@<TRIPOS>BOND
    1    1    2 1     
    2    1   22 1     
    3    1   23 1     
    4    1   24 1     
    5    2   21 1     
    6    2    3 1     
    7    2   25 1     
    8    3    4 1     
    9    3   26 1     
   10    3   27 1     
   11    4    5 1     
   12    4   28 1     
   13    4   29 1     
   14    5    6 1     
   15    5   20 1     
   16    5   46 1     
   17    6    7 1     
   18    6   30 1     
   19    6   31 1     
   20    7    8 1     
   21    7    9 1     
   22    7   32 1     
   23    8   33 1     
   24    9   10 1     
   25    9   34 1     
   26    9   35 1     
   27   10   11 am    
   28   10   36 1     
   29   11   12 2     
   30   11   13 am    
   31   13   14 1     
   32   13   37 1     
   33   14   19 ar    
   34   14   15 ar    
   35   15   16 ar    
   36   15   38 1     
   37   16   17 ar    
   38   16   39 1     
   39   17   18 ar    
   40   17   40 1     
   41   18   19 ar    
   42   19   41 1     
   43   20   21 1     
   44   20   42 1     
   45   20   43 1     
   46   21   44 1     
   47   21   45 1     
   48    8   47 1     
   49    8   48 1     
   50   12   49 1     
   51   12   50 1     
   52   18   51 1     
@<TRIPOS>SUBSTRUCTURE
      1 S1             1
@<TRIPOS>SET
LONE_PAIRS      STATIC     ATOMS    <user>   **** ""
5 47 48 49 50 51
DONOR_HYDROGENS      STATIC     ATOMS    <user>   **** ""
4 46 33 36 37
ATOM$BLUE        STATIC     ATOMS    COLORGROUP SYSTEM
5 47 48 49 50 51
ATOM$RED        STATIC     ATOMS    COLORGROUP SYSTEM
4 46 33 36 37
