AV-unprocessed.smi:744|AV-procd|sdf|3571|dock2
  -GOLD-   22720 0563D 1   1.00000     0.00000
 Structure written by MMmdl.
 34 35  0  0  0  0  0  0  0  0  1 V2000
  144.4153  136.8173  152.3060 O   0  0  0  0  0  0  0  0  0  0  0  0
  145.6304  136.6663  152.1756 C   0  0  0  0  0  0  0  0  0  0  0  0
  146.5335  137.5763  152.5678 N   0  0  0  0  0  0  0  0  0  0  0  0
  146.2160  138.8678  153.1680 C   0  0  0  0  0  0  0  0  0  0  0  0
  147.4377  139.8098  153.2341 C   0  0  1  0  0  0  0  0  0  0  0  0
  147.0902  141.1875  153.8193 C   0  0  0  0  0  0  0  0  0  0  0  0
  148.3634  141.7120  154.5014 C   0  0  0  0  0  0  0  0  0  0  0  0
  149.4009  140.5887  154.4032 C   0  0  0  0  0  0  0  0  0  0  0  0
  148.5919  139.3217  154.1221 C   0  0  2  0  0  0  0  0  0  0  0  0
  149.3954  138.3431  153.4942 O   0  0  0  0  0  0  0  0  0  0  0  0
  146.2279  135.5941  151.6267 N   0  0  0  0  0  0  0  0  0  0  0  0
  145.6187  134.4351  151.0760 C   0  0  0  0  0  0  0  0  0  0  0  0
  146.5173  133.4796  150.5493 C   0  0  0  0  0  0  0  0  0  0  0  0
  146.0131  132.2961  149.9761 C   0  0  0  0  0  0  0  0  0  0  0  0
  144.6213  132.0979  149.9444 C   0  0  0  0  0  0  0  0  0  0  0  0
  143.7967  133.0978  150.4919 C   0  0  0  0  0  0  0  0  0  0  0  0
  144.2777  134.2329  151.0415 N   0  0  0  0  0  0  0  0  0  0  0  0
  147.5111  137.3724  152.4198 H   0  0  0  0  0  0  0  0  0  0  0  0
  145.4062  139.3408  152.6098 H   0  0  0  0  0  0  0  0  0  0  0  0
  145.8300  138.6858  154.1714 H   0  0  0  0  0  0  0  0  0  0  0  0
  147.8227  139.9734  152.2257 H   0  0  0  0  0  0  0  0  0  0  0  0
  146.7294  141.8692  153.0485 H   0  0  0  0  0  0  0  0  0  0  0  0
  146.2982  141.0962  154.5639 H   0  0  0  0  0  0  0  0  0  0  0  0
  148.7285  142.6234  154.0268 H   0  0  0  0  0  0  0  0  0  0  0  0
  148.1553  141.9494  155.5454 H   0  0  0  0  0  0  0  0  0  0  0  0
  150.0703  140.7972  153.5670 H   0  0  0  0  0  0  0  0  0  0  0  0
  150.0139  140.5030  155.3008 H   0  0  0  0  0  0  0  0  0  0  0  0
  148.2001  138.9219  155.0584 H   0  0  0  0  0  0  0  0  0  0  0  0
  149.6049  138.6418  152.6222 H   0  0  0  0  0  0  0  0  0  0  0  0
  147.2361  135.6137  151.5886 H   0  0  0  0  0  0  0  0  0  0  0  0
  147.5840  133.6482  150.5810 H   0  0  0  0  0  0  0  0  0  0  0  0
  146.6833  131.5543  149.5676 H   0  0  0  0  0  0  0  0  0  0  0  0
  144.1969  131.2037  149.5126 H   0  0  0  0  0  0  0  0  0  0  0  0
  142.7227  132.9844  150.4883 H   0  0  0  0  0  0  0  0  0  0  0  0
  1  2  2  0  0  0  0
  2  3  1  0  0  0  0
  2 11  1  0  0  0  0
  3  4  1  0  0  0  0
  3 18  1  0  0  0  0
  4  5  1  0  0  0  0
  4 19  1  0  0  0  0
  4 20  1  0  0  0  0
  5  9  1  0  0  0  0
  5  6  1  0  0  0  0
  5 21  1  0  0  0  0
  6  7  1  0  0  0  0
  6 22  1  0  0  0  0
  6 23  1  0  0  0  0
  7  8  1  0  0  0  0
  7 24  1  0  0  0  0
  7 25  1  0  0  0  0
  8  9  1  0  0  0  0
  8 26  1  0  0  0  0
  8 27  1  0  0  0  0
  9 10  1  0  0  0  0
  9 28  1  0  0  0  0
 10 29  1  0  0  0  0
 11 12  1  0  0  0  0
 11 30  1  0  0  0  0
 12 17  1  0  0  0  0
 12 13  2  0  0  0  0
 13 14  1  0  0  0  0
 13 31  1  0  0  0  0
 14 15  2  0  0  0  0
 14 32  1  0  0  0  0
 15 16  1  0  0  0  0
 15 33  1  0  0  0  0
 16 17  2  0  0  0  0
 16 34  1  0  0  0  0
M  END
> <s_m_source_file>
AV-unprocessed.smi

> <i_m_source_file_index>
744

> <i_lp_mmshare_version>
43012

> <i_f3d_flags>
0

> <s_epik_input>
bjFbY0hdW2NIXVtjSF1bY0hdYzFbTkhdQyg9TylbTkhdW0NIMl1bQ0BASF0yW0NIMl1bQ0gyXVtDSDJdW0NASF0yW09IXQ==

> <s_epik_cmdline>
J2VwaWtfcHl0aG9uJywgJy1waCcsICc3LjAnLCAnLXRuJywgJzgnLCAnLW1hJywgJzIwMCcsICctbWV0YWxfYmluZGluZycsICctaW1hZScsICc8aW5maWxlLm1hZT4nLCAnLW9tYWUnLCAnPG91dGZpbGUubWFlPic=

> <r_lp_tautomer_probability>
1

> <r_epik_Ionization_Penalty>
5.04769e-05

> <r_epik_Ionization_Penalty_Charging>
0

> <r_epik_Ionization_Penalty_Neutral>
5.04769e-05

> <r_epik_State_Penalty>
-0

> <r_epik_Charging_Adjusted_Penalty>
0

> <i_epik_Tot_Q>
0

> <i_epik_Tot_abs_Q>
0

> <r_epik_Metal_State_Penalty>
-0

> <b_epik_Metal_Only>
0

> <s_lp_Force_Field>
OPLS_2005

> <r_lp_Energy>
24.4032

> <b_lp_Chiralities_Consistent>
1

> <s_lp_Variant>
AV-unprocessed.smi:744-4

> <Gold.Version>
5.8.1

> <Gold.Id.Protein>
6NUR|6NUR_protein|mol2

> <Gold.PLP.Fitness>
45.1406

> <Gold.PLP.PLP>
-33.2827

> <Gold.PLP.part.hbond>
-4.0000

> <Gold.PLP.part.metal>
0.0000

> <Gold.PLP.part.buried>
-0.6751

> <Gold.PLP.part.nonpolar>
-27.6694

> <Gold.PLP.part.repulsive>
0.5594

> <Gold.PLP.ligand.clash>
0.0000

> <Gold.PLP.ligand.torsion>
0.0719

> <Gold.PLP.Chemscore.Hbond>
3.0000

> <Gold.PLP.Chemscore.CHOScore>
1.0000

> <Gold.PLP.Chemscore.Metal>
0.0000

> <Gold.Chemscore.Hbonds>
donor molecule, donor type, donor heavy atom, donor atom, acceptor molecule, acceptor atom, score
      L1  H     3    18       P1  7948  1.00
      L1  H    10    29       P1  7957  1.00
      L1  H    11    30       P1  7948  1.00
      L1  C    16    34       P1 10186  1.00

> <Gold.PLP.Chemscore.Internal.Correction>
0.0018

> <Gold.Rescore>
     Score         DG    S(hbond)    S(metal)    S(lipo)     H(rot)  DE(clash)    DE(int)     intcor
     17.59     -19.35       2.77        0.00      79.05       1.81       0.42       1.35       ----

> <Gold.Chemscore.Fitness>
17.5866

> <Gold.Chemscore.DG>
-19.3535

> <Gold.Chemscore.ZeroCoef>
-5.4800

> <Gold.Chemscore.Hbond>
2.7684

> <Gold.Chemscore.Metal>
0.0000

> <Gold.Chemscore.Lipo>
79.0458

> <Gold.Chemscore.Internal_Hbond>
0.0000

> <Gold.Chemscore.DEClash>
0.4186

> <Gold.Chemscore.DEInternal>
1.3482

> <Gold.Chemscore.Rot>
1.8052

> <Gold.Chemscore.Internal.Correction>
   9.000000E+99

> <Gold.Chemscore.Hbonds>
donor molecule, donor type, donor heavy atom, donor atom, acceptor molecule, acceptor atom, score
      L1  H     3    18       P1  7948  0.97
      L1  H    10    29       P1  7957  0.61
      L1  H    11    30       P1  7948  0.99

> <Gold.Chemscore.Hbond.Weighted>
-9.2463

> <Gold.Chemscore.Metal.Weighted>
-0.0000

> <Gold.Chemscore.Lipo.Weighted>
-9.2484

> <Gold.Chemscore.Internal_Hbond.Weighted>
0.0000

> <Gold.Chemscore.DEClash.Weighted>
0.4186

> <Gold.Chemscore.DEInternal.Weighted>
1.3482

> <Gold.Chemscore.Rot.Weighted>
4.6212

> <Gold.Chemscore.Internal.Correction.Weighted>
   9.000000E+99

> <Gold.Protein.RotatedTorsions>
[ 6907 6896 6895 6894 ] final  104.11 input  -60.11 | X-H torsion
[ 7974 7965 7964 7962 ] final  -96.22 input  175.53 | X-H torsion
[ 8008 7997 7996 7995 ] final   77.14 input   59.86 | X-H torsion
[ 10167 10162 10161 10158 ] final   62.38 input  -65.29 | X-H torsion
[ 10718 10713 10712 10709 ] final   74.22 input   66.30 | X-H torsion
[ 10763 10752 10751 10750 ] final  -48.08 input  -60.55 | X-H torsion
[ 11005 11000 10999 10996 ] final  126.45 input  -57.11 | X-H torsion

> <Gold.Protein.ActiveResidues>
 VAL166  LYS551  ARG553  GLY616  TRP617  ASP618  TYR619  PRO620  LYS621  CYS622 
 ASP623  PHE694  ASN695  SER759  ASP760  ASP761  ALA762  ILE779  LEU786  VAL792 
 PHE793  MET794  SER795  GLU796  ALA797  LYS798  CYS799  TRP800  GLU811  SER814 

> <Gold.Protein.RotatedAtoms>
  152.5274  133.9725  159.7768 H   0  0  0  0  0  0  0  0  0  0  0  0  # atno 6907 bound_to 6896
  150.9994  133.6063  159.2704 H   0  0  0  0  0  0  0  0  0  0  0  0  # atno 6908 bound_to 6896
  151.3177  135.0817  159.9348 H   0  0  0  0  0  0  0  0  0  0  0  0  # atno 6909 bound_to 6896
  145.3497  140.9474  143.2561 H   0  0  0  0  0  0  0  0  0  0  0  0  # atno 7974 bound_to 7965
  155.8374  140.3463  155.5610 H   0  0  0  0  0  0  0  0  0  0  0  0  # atno 8008 bound_to 7997
  155.8178  140.0908  157.1886 H   0  0  0  0  0  0  0  0  0  0  0  0  # atno 8009 bound_to 7997
  154.4004  140.1436  156.3450 H   0  0  0  0  0  0  0  0  0  0  0  0  # atno 8010 bound_to 7997
  140.1445  144.4522  150.6793 H   0  0  0  0  0  0  0  0  0  0  0  0  # atno 10167 bound_to 10162
  157.6583  130.9667  150.1180 H   0  0  0  0  0  0  0  0  0  0  0  0  # atno 10718 bound_to 10713
  154.0720  135.6603  153.4825 H   0  0  0  0  0  0  0  0  0  0  0  0  # atno 10763 bound_to 10752
  153.0387  135.5159  154.7558 H   0  0  0  0  0  0  0  0  0  0  0  0  # atno 10764 bound_to 10752
  154.6626  135.3017  154.9814 H   0  0  0  0  0  0  0  0  0  0  0  0  # atno 10765 bound_to 10752
  139.9457  134.9630  156.8708 H   0  0  0  0  0  0  0  0  0  0  0  0  # atno 11005 bound_to 11000
  144.8727  139.5015  143.6760 LP  0  0  0  0  0  0  0  0  0  0  0  0  # atno 17320 bound_to 7965
  146.2973  139.7317  142.9117 LP  0  0  0  0  0  0  0  0  0  0  0  0  # atno 17321 bound_to 7965
  140.6740  143.2297  151.5553 LP  0  0  0  0  0  0  0  0  0  0  0  0  # atno 17342 bound_to 10162
  139.5456  144.2531  152.1435 LP  0  0  0  0  0  0  0  0  0  0  0  0  # atno 17343 bound_to 10162
  156.2059  130.3663  149.8730 LP  0  0  0  0  0  0  0  0  0  0  0  0  # atno 17370 bound_to 10713
  156.6621  130.8786  151.3549 LP  0  0  0  0  0  0  0  0  0  0  0  0  # atno 17371 bound_to 10713
  140.5842  134.0323  155.7475 LP  0  0  0  0  0  0  0  0  0  0  0  0  # atno 17394 bound_to 11000
  141.1106  133.9623  157.2917 LP  0  0  0  0  0  0  0  0  0  0  0  0  # atno 17395 bound_to 11000

$$$$
