AV-unprocessed.smi:927|AV-procd|sdf|4189|dock4
  -GOLD-   22720 2 93D 1   1.00000     0.00000
 Structure written by MMmdl.
 20 20  0  0  0  0  0  0  0  0  1 V2000
  142.8986  133.7190  147.8002 N   0  0  0  0  0  0  0  0  0  0  0  0
  143.6421  132.5003  148.1571 C   0  0  0  0  0  0  0  0  0  0  0  0
  143.7707  132.3005  149.6776 C   0  0  2  0  0  0  0  0  0  0  0  0
  142.4716  132.2399  150.2321 O   0  0  0  0  0  0  0  0  0  0  0  0
  144.5838  133.4209  150.3076 C   0  0  0  0  0  0  0  0  0  0  0  0
  145.8589  133.1614  150.8527 C   0  0  0  0  0  0  0  0  0  0  0  0
  146.5799  134.2307  151.4205 C   0  0  0  0  0  0  0  0  0  0  0  0
  146.1135  135.4969  151.4701 N   0  0  0  0  0  0  0  0  0  0  0  0
  144.8936  135.7407  150.9455 C   0  0  0  0  0  0  0  0  0  0  0  0
  144.0920  134.7436  150.3546 C   0  0  0  0  0  0  0  0  0  0  0  0
  142.2736  133.5379  147.0161 H   0  0  0  0  0  0  0  0  0  0  0  0
  142.3189  134.0249  148.5803 H   0  0  0  0  0  0  0  0  0  0  0  0
  143.1129  131.6437  147.7381 H   0  0  0  0  0  0  0  0  0  0  0  0
  144.6276  132.5036  147.6898 H   0  0  0  0  0  0  0  0  0  0  0  0
  144.2684  131.3515  149.8828 H   0  0  0  0  0  0  0  0  0  0  0  0
  142.0213  133.0444  150.0256 H   0  0  0  0  0  0  0  0  0  0  0  0
  146.2797  132.1668  150.8370 H   0  0  0  0  0  0  0  0  0  0  0  0
  147.5588  134.0639  151.8453 H   0  0  0  0  0  0  0  0  0  0  0  0
  144.5454  136.7617  150.9962 H   0  0  0  0  0  0  0  0  0  0  0  0
  143.1233  134.9919  149.9461 H   0  0  0  0  0  0  0  0  0  0  0  0
  1  2  1  0  0  0  0
  1 11  1  0  0  0  0
  1 12  1  0  0  0  0
  2  3  1  0  0  0  0
  2 13  1  0  0  0  0
  2 14  1  0  0  0  0
  3  4  1  0  0  0  0
  3  5  1  0  0  0  0
  3 15  1  0  0  0  0
  4 16  1  0  0  0  0
  5 10  1  0  0  0  0
  5  6  2  0  0  0  0
  6  7  1  0  0  0  0
  6 17  1  0  0  0  0
  7  8  2  0  0  0  0
  7 18  1  0  0  0  0
  8  9  1  0  0  0  0
  9 10  2  0  0  0  0
  9 19  1  0  0  0  0
 10 20  1  0  0  0  0
M  END
> <s_m_source_file>
AV-unprocessed.smi

> <i_m_source_file_index>
927

> <i_lp_mmshare_version>
43012

> <i_f3d_flags>
0

> <s_epik_input>
W05IMl1bQ0gyXVtDQEhdKFtPSF0pYzFbY0hdW2NIXW5bY0hdW2NIXTE=

> <s_epik_cmdline>
J2VwaWtfcHl0aG9uJywgJy1waCcsICc3LjAnLCAnLXRuJywgJzgnLCAnLW1hJywgJzIwMCcsICctbWV0YWxfYmluZGluZycsICctaW1hZScsICc8aW5maWxlLm1hZT4nLCAnLW9tYWUnLCAnPG91dGZpbGUubWFlPic=

> <r_epik_Ionization_Penalty>
2.24668

> <r_epik_Ionization_Penalty_Charging>
0

> <r_epik_Ionization_Penalty_Neutral>
2.24668

> <r_epik_State_Penalty>
2.36938

> <r_epik_Charging_Adjusted_Penalty>
2.36938

> <i_epik_Tot_Q>
0

> <i_epik_Tot_abs_Q>
0

> <r_epik_Metal_State_Penalty>
2.3492

> <b_epik_Metal_Only>
0

> <s_lp_Force_Field>
OPLS_2005

> <r_lp_Energy>
12.0251

> <b_lp_Chiralities_Consistent>
1

> <s_lp_Variant>
AV-unprocessed.smi:927-3

> <Gold.Version>
5.8.1

> <Gold.Id.Protein>
6NUR|6NUR_protein|mol2

> <Gold.PLP.Fitness>
38.7475

> <Gold.PLP.PLP>
-26.5222

> <Gold.PLP.part.hbond>
-5.8921

> <Gold.PLP.part.metal>
0.0000

> <Gold.PLP.part.buried>
-2.9899

> <Gold.PLP.part.nonpolar>
-18.7475

> <Gold.PLP.part.repulsive>
1.8060

> <Gold.PLP.ligand.clash>
0.0027

> <Gold.PLP.ligand.torsion>
0.1151

> <Gold.PLP.Chemscore.Hbond>
3.0000

> <Gold.PLP.Chemscore.CHOScore>
1.1519

> <Gold.PLP.Chemscore.Metal>
0.0000

> <Gold.Chemscore.Hbonds>
donor molecule, donor type, donor heavy atom, donor atom, acceptor molecule, acceptor atom, score
      L1  H     1    11       P1 10195  1.00
      L1  H     1    12       P1 10186  1.00
      L1  H     4    16       P1 10186  1.00
      L1  C     7    18       P1  7948  0.56
      L1  C     9    19       P1 10171  1.00

> <Gold.PLP.Chemscore.Internal.Correction>
0.0025

> <Gold.Rescore>
     Score         DG    S(hbond)    S(metal)    S(lipo)     H(rot)  DE(clash)    DE(int)     intcor
     17.01     -17.18       3.00        0.00      54.83       1.85       0.05       0.11       ----

> <Gold.Chemscore.Fitness>
17.0144

> <Gold.Chemscore.DG>
-17.1751

> <Gold.Chemscore.ZeroCoef>
-5.4800

> <Gold.Chemscore.Hbond>
2.9955

> <Gold.Chemscore.Metal>
0.0000

> <Gold.Chemscore.Lipo>
54.8268

> <Gold.Chemscore.Internal_Hbond>
0.0000

> <Gold.Chemscore.DEClash>
0.0545

> <Gold.Chemscore.DEInternal>
0.1062

> <Gold.Chemscore.Rot>
1.8455

> <Gold.Chemscore.Internal.Correction>
   9.000000E+99

> <Gold.Chemscore.Hbonds>
donor molecule, donor type, donor heavy atom, donor atom, acceptor molecule, acceptor atom, score
      L1  H     1    11       P1 10195  0.86
      L1  H     1    12       P1 10186  1.00
      L1  H     4    16       P1 10186  1.00

> <Gold.Chemscore.Hbond.Weighted>
-10.0049

> <Gold.Chemscore.Metal.Weighted>
-0.0000

> <Gold.Chemscore.Lipo.Weighted>
-6.4147

> <Gold.Chemscore.Internal_Hbond.Weighted>
0.0000

> <Gold.Chemscore.DEClash.Weighted>
0.0545

> <Gold.Chemscore.DEInternal.Weighted>
0.1062

> <Gold.Chemscore.Rot.Weighted>
4.7245

> <Gold.Chemscore.Internal.Correction.Weighted>
   9.000000E+99

> <Gold.Protein.RotatedTorsions>
[ 6907 6896 6895 6894 ] final  118.18 input  -60.11 | X-H torsion
[ 7974 7965 7964 7962 ] final  -14.45 input  175.53 | X-H torsion
[ 8008 7997 7996 7995 ] final -175.34 input   59.86 | X-H torsion
[ 10167 10162 10161 10158 ] final   -0.78 input  -65.29 | X-H torsion
[ 10718 10713 10712 10709 ] final  -32.96 input   66.30 | X-H torsion
[ 10763 10752 10751 10750 ] final  102.43 input  -60.55 | X-H torsion
[ 11005 11000 10999 10996 ] final   24.45 input  -57.11 | X-H torsion

> <Gold.Protein.ActiveResidues>
 VAL166  LYS551  ARG553  GLY616  TRP617  ASP618  TYR619  PRO620  LYS621  CYS622 
 ASP623  PHE694  ASN695  SER759  ASP760  ASP761  ALA762  ILE779  LEU786  VAL792 
 PHE793  MET794  SER795  GLU796  ALA797  LYS798  CYS799  TRP800  GLU811  SER814 

> <Gold.Protein.RotatedAtoms>
  152.4561  133.7726  159.6806 H   0  0  0  0  0  0  0  0  0  0  0  0  # atno 6907 bound_to 6896
  150.8488  133.7810  159.3039 H   0  0  0  0  0  0  0  0  0  0  0  0  # atno 6908 bound_to 6896
  151.5412  135.1071  159.9978 H   0  0  0  0  0  0  0  0  0  0  0  0  # atno 6909 bound_to 6896
  146.2073  140.3350  142.8402 H   0  0  0  0  0  0  0  0  0  0  0  0  # atno 7974 bound_to 7965
  155.9814  140.1182  157.0723 H   0  0  0  0  0  0  0  0  0  0  0  0  # atno 8008 bound_to 7997
  154.4184  140.1144  156.5508 H   0  0  0  0  0  0  0  0  0  0  0  0  # atno 8009 bound_to 7997
  155.6465  140.3473  155.4735 H   0  0  0  0  0  0  0  0  0  0  0  0  # atno 8010 bound_to 7997
  140.6782  143.6854  150.8071 H   0  0  0  0  0  0  0  0  0  0  0  0  # atno 10167 bound_to 10162
  156.3685  130.4335  149.7565 H   0  0  0  0  0  0  0  0  0  0  0  0  # atno 10718 bound_to 10713
  153.3395  135.4010  155.1561 H   0  0  0  0  0  0  0  0  0  0  0  0  # atno 10763 bound_to 10752
  154.8640  135.3630  154.5364 H   0  0  0  0  0  0  0  0  0  0  0  0  # atno 10764 bound_to 10752
  153.5808  135.7076  153.5524 H   0  0  0  0  0  0  0  0  0  0  0  0  # atno 10765 bound_to 10752
  140.3586  134.2150  155.7674 H   0  0  0  0  0  0  0  0  0  0  0  0  # atno 11005 bound_to 11000
  144.8825  140.7419  143.5977 LP  0  0  0  0  0  0  0  0  0  0  0  0  # atno 17320 bound_to 7965
  145.3271  139.1771  143.4557 LP  0  0  0  0  0  0  0  0  0  0  0  0  # atno 17321 bound_to 7965
  140.0550  143.5211  152.2655 LP  0  0  0  0  0  0  0  0  0  0  0  0  # atno 17342 bound_to 10162
  139.6087  144.7603  151.3002 LP  0  0  0  0  0  0  0  0  0  0  0  0  # atno 17343 bound_to 10162
  156.4702  130.7993  151.3011 LP  0  0  0  0  0  0  0  0  0  0  0  0  # atno 17370 bound_to 10713
  157.7481  131.0038  150.3053 LP  0  0  0  0  0  0  0  0  0  0  0  0  # atno 17371 bound_to 10713
  141.1991  133.8020  157.0553 LP  0  0  0  0  0  0  0  0  0  0  0  0  # atno 17394 bound_to 11000
  140.0645  134.9737  157.1362 LP  0  0  0  0  0  0  0  0  0  0  0  0  # atno 17395 bound_to 11000

$$$$
