AV-unprocessed.smi:21|AV-procd|sdf|152|dock4
  -GOLD-   2262015373D 1   1.00000     0.00000
 Structure written by MMmdl.
 62 65  0  0  0  0  0  0  0  0  2 V2000
  145.4887  134.0125  150.8940 C   0  0  0  0  0  0  0  0  0  0  0  0
  145.3191  132.9944  151.8670 O   0  0  0  0  0  0  0  0  0  0  0  0
  146.1640  133.1469  152.9977 C   0  0  2  0  0  0  0  0  0  0  0  0
  145.9001  134.4788  153.6856 C   0  0  0  0  0  0  0  0  0  0  0  0
  147.1954  134.7285  154.4641 C   0  0  2  0  0  0  0  0  0  0  0  0
  147.4459  136.2108  154.8059 C   0  0  0  0  0  0  0  0  0  0  0  0
  148.5222  136.3873  155.7842 N   0  0  0  0  0  0  0  0  0  0  0  0
  148.5526  135.4885  156.9315 C   0  0  0  0  0  0  0  0  0  0  0  0
  149.2867  137.5182  155.7799 C   0  0  0  0  0  0  0  0  0  0  0  0
  149.3510  138.2451  154.6321 N   0  0  0  0  0  0  0  0  0  0  0  0
  150.0823  139.3601  154.5630 C   0  0  0  0  0  0  0  0  0  0  0  0
  150.8233  139.9286  155.5129 N   0  0  0  0  0  0  0  0  0  0  0  0
  150.7698  139.2139  156.6716 C   0  0  0  0  0  0  0  0  0  0  0  0
  150.0357  138.0114  156.8943 C   0  0  0  0  0  0  0  0  0  0  0  0
  150.2273  137.5961  158.2092 N   0  0  0  0  0  0  0  0  0  0  0  0
  151.0269  138.4882  158.7248 C   0  0  0  0  0  0  0  0  0  0  0  0
  151.4088  139.4918  157.8665 N   0  0  0  0  0  0  0  0  0  0  0  0
  152.2892  140.6075  158.1678 C   0  0  0  0  0  0  0  0  0  0  0  0
  151.6562  141.9913  157.8751 C   0  0  1  0  0  0  0  0  0  0  0  0
  150.1165  141.9156  158.0045 C   0  0  0  0  0  0  0  0  0  0  0  0
  149.4977  142.1960  156.7663 O   0  0  0  0  0  0  0  0  0  0  0  0
  152.2937  143.1307  158.7192 C   0  0  1  0  0  0  0  0  0  0  0  0
  151.9011  144.5549  158.3233 C   0  0  0  0  0  0  0  0  0  0  0  0
  151.5828  145.2404  159.6536 C   0  0  0  0  0  0  0  0  0  0  0  0
  152.2109  144.4267  160.6316 O   0  0  0  0  0  0  0  0  0  0  0  0
  152.0170  143.0826  160.2259 C   0  0  0  0  0  0  0  0  0  0  0  0
  148.2686  134.1817  153.6001 N   0  3  1  0  0  0  0  0  0  0  0  0
  149.4113  133.6079  154.3440 C   0  0  0  0  0  0  0  0  0  0  0  0
  147.6515  133.2412  152.6343 C   0  0  0  0  0  0  0  0  0  0  0  0
  146.0020  132.3422  153.7175 H   0  0  0  0  0  0  0  0  0  0  0  0
  147.1586  134.1372  155.3812 H   0  0  0  0  0  0  0  0  0  0  0  0
  144.8203  133.8275  150.0530 H   0  0  0  0  0  0  0  0  0  0  0  0
  146.5106  134.0265  150.5131 H   0  0  0  0  0  0  0  0  0  0  0  0
  145.2518  134.9974  151.2976 H   0  0  0  0  0  0  0  0  0  0  0  0
  145.7543  135.2575  152.9352 H   0  0  0  0  0  0  0  0  0  0  0  0
  145.0160  134.4576  154.3240 H   0  0  0  0  0  0  0  0  0  0  0  0
  147.7402  136.7417  153.9002 H   0  0  0  0  0  0  0  0  0  0  0  0
  146.5193  136.6906  155.1209 H   0  0  0  0  0  0  0  0  0  0  0  0
  148.0795  135.9518  157.7976 H   0  0  0  0  0  0  0  0  0  0  0  0
  149.5781  135.2211  157.1882 H   0  0  0  0  0  0  0  0  0  0  0  0
  148.0174  134.5634  156.7159 H   0  0  0  0  0  0  0  0  0  0  0  0
  150.0730  139.8685  153.6101 H   0  0  0  0  0  0  0  0  0  0  0  0
  151.3670  138.4332  159.7489 H   0  0  0  0  0  0  0  0  0  0  0  0
  152.5721  140.5312  159.2181 H   0  0  0  0  0  0  0  0  0  0  0  0
  153.2083  140.4862  157.5929 H   0  0  0  0  0  0  0  0  0  0  0  0
  151.8776  142.2331  156.8343 H   0  0  0  0  0  0  0  0  0  0  0  0
  149.7968  140.9281  158.3377 H   0  0  0  0  0  0  0  0  0  0  0  0
  149.7362  142.6327  158.7302 H   0  0  0  0  0  0  0  0  0  0  0  0
  149.4248  143.1335  156.6716 H   0  0  0  0  0  0  0  0  0  0  0  0
  153.3765  143.0924  158.5969 H   0  0  0  0  0  0  0  0  0  0  0  0
  152.7411  145.0471  157.8315 H   0  0  0  0  0  0  0  0  0  0  0  0
  151.0556  144.6092  157.6388 H   0  0  0  0  0  0  0  0  0  0  0  0
  151.9445  146.2680  159.6949 H   0  0  0  0  0  0  0  0  0  0  0  0
  150.5065  145.2495  159.8326 H   0  0  0  0  0  0  0  0  0  0  0  0
  150.9911  142.7921  160.4517 H   0  0  0  0  0  0  0  0  0  0  0  0
  152.6877  142.4047  160.7542 H   0  0  0  0  0  0  0  0  0  0  0  0
  149.1006  132.7497  154.9414 H   0  0  0  0  0  0  0  0  0  0  0  0
  149.8483  134.3503  155.0122 H   0  0  0  0  0  0  0  0  0  0  0  0
  150.1891  133.2808  153.6533 H   0  0  0  0  0  0  0  0  0  0  0  0
  148.1264  132.2589  152.6314 H   0  0  0  0  0  0  0  0  0  0  0  0
  147.7724  133.6666  151.6373 H   0  0  0  0  0  0  0  0  0  0  0  0
  148.6233  134.9531  153.0527 H   0  0  0  0  0  0  0  0  0  0  0  0
  1  2  1  0  0  0  0
  1 32  1  0  0  0  0
  1 33  1  0  0  0  0
  1 34  1  0  0  0  0
  2  3  1  0  0  0  0
  3 30  1  0  0  0  0
  3 29  1  0  0  0  0
  3  4  1  0  0  0  0
  4  5  1  0  0  0  0
  4 35  1  0  0  0  0
  4 36  1  0  0  0  0
  5 31  1  0  0  0  0
  5  6  1  0  0  0  0
  5 27  1  0  0  0  0
  6  7  1  0  0  0  0
  6 37  1  0  0  0  0
  6 38  1  0  0  0  0
  7  8  1  0  0  0  0
  7  9  1  0  0  0  0
  8 39  1  0  0  0  0
  8 40  1  0  0  0  0
  8 41  1  0  0  0  0
  9 14  1  0  0  0  0
  9 10  2  0  0  0  0
 10 11  1  0  0  0  0
 11 12  2  0  0  0  0
 11 42  1  0  0  0  0
 12 13  1  0  0  0  0
 13 17  1  0  0  0  0
 13 14  2  0  0  0  0
 14 15  1  0  0  0  0
 15 16  2  0  0  0  0
 16 17  1  0  0  0  0
 16 43  1  0  0  0  0
 17 18  1  0  0  0  0
 18 19  1  0  0  0  0
 18 44  1  0  0  0  0
 18 45  1  0  0  0  0
 19 20  1  0  0  0  0
 19 22  1  0  0  0  0
 19 46  1  0  0  0  0
 20 21  1  0  0  0  0
 20 47  1  0  0  0  0
 20 48  1  0  0  0  0
 21 49  1  0  0  0  0
 22 26  1  0  0  0  0
 22 23  1  0  0  0  0
 22 50  1  0  0  0  0
 23 24  1  0  0  0  0
 23 51  1  0  0  0  0
 23 52  1  0  0  0  0
 24 25  1  0  0  0  0
 24 53  1  0  0  0  0
 24 54  1  0  0  0  0
 25 26  1  0  0  0  0
 26 55  1  0  0  0  0
 26 56  1  0  0  0  0
 27 28  1  0  0  0  0
 27 29  1  0  0  0  0
 27 62  1  0  0  0  0
 28 57  1  0  0  0  0
 28 58  1  0  0  0  0
 28 59  1  0  0  0  0
 29 60  1  0  0  0  0
 29 61  1  0  0  0  0
M  CHG  1  27   1
M  END
> <s_m_source_file>
AV-unprocessed.smi

> <i_m_source_file_index>
21

> <i_lp_mmshare_version>
43012

> <i_f3d_flags>
0

> <s_epik_input>
W0NIM11PW0NASF0xW0NIMl1bQ0BIXShOKFtDSDNdKVtDSDJdMSlbQ0gyXU4oW0NIM10pYyhuW2NIXW4yKWMoYzIzKW5bY0hdbjNbQ0gyXVtDQEhdKFtDSDJdW09IXSlbQ0BASF00W0NIMl1bQ0gyXU9bQ0gyXTQ=

> <s_epik_cmdline>
J2VwaWtfcHl0aG9uJywgJy1waCcsICc3LjAnLCAnLXRuJywgJzgnLCAnLW1hJywgJzIwMCcsICctbWV0YWxfYmluZGluZycsICctaW1hZScsICc8aW5maWxlLm1hZT4nLCAnLW9tYWUnLCAnPG91dGZpbGUubWFlPic=

> <r_lp_tautomer_probability>
1

> <r_epik_Ionization_Penalty>
0.0157465

> <r_epik_Ionization_Penalty_Charging>
0.015354

> <r_epik_Ionization_Penalty_Neutral>
0.000392529

> <r_epik_State_Penalty>
0.0120612

> <r_epik_Charging_Adjusted_Penalty>
0.0274152

> <i_epik_Tot_Q>
1

> <i_epik_Tot_abs_Q>
1

> <r_epik_Metal_State_Penalty>
0.0121253

> <b_epik_Metal_Only>
0

> <s_lp_Force_Field>
OPLS_2005

> <r_lp_Energy>
58.5761

> <b_lp_Chiralities_Consistent>
1

> <s_lp_Variant>
AV-unprocessed.smi:21-32

> <Gold.Version>
5.8.1

> <Gold.Id.Protein>
6NUR|6NUR_protein|mol2

> <Gold.PLP.Fitness>
52.4608

> <Gold.PLP.PLP>
-43.2620

> <Gold.PLP.part.hbond>
-2.0967

> <Gold.PLP.part.metal>
0.0000

> <Gold.PLP.part.buried>
-6.2695

> <Gold.PLP.part.nonpolar>
-34.7922

> <Gold.PLP.part.repulsive>
0.4115

> <Gold.PLP.ligand.clash>
0.0000

> <Gold.PLP.ligand.torsion>
1.6657

> <Gold.PLP.Chemscore.Hbond>
3.0000

> <Gold.PLP.Chemscore.CHOScore>
1.0000

> <Gold.PLP.Chemscore.Metal>
0.0000

> <Gold.Chemscore.Hbonds>
donor molecule, donor type, donor heavy atom, donor atom, acceptor molecule, acceptor atom, score
      L1  H    21    49       P1  8028  1.00
      L1  H    27    62       P1  7948  2.00
      L1  C    11    42       P1  7957  1.00

> <Gold.PLP.Chemscore.Internal.Correction>
0.5301

> <Gold.Rescore>
     Score         DG    S(hbond)    S(metal)    S(lipo)     H(rot)  DE(clash)    DE(int)     intcor
     12.15     -15.36       1.87        0.00      98.32       3.08       0.18       3.03       ----

> <Gold.Chemscore.Fitness>
12.1486

> <Gold.Chemscore.DG>
-15.3630

> <Gold.Chemscore.ZeroCoef>
-5.4800

> <Gold.Chemscore.Hbond>
1.8723

> <Gold.Chemscore.Metal>
0.0000

> <Gold.Chemscore.Lipo>
98.3231

> <Gold.Chemscore.Internal_Hbond>
0.0000

> <Gold.Chemscore.DEClash>
0.1817

> <Gold.Chemscore.DEInternal>
3.0327

> <Gold.Chemscore.Rot>
3.0758

> <Gold.Chemscore.Internal.Correction>
   9.000000E+99

> <Gold.Chemscore.Hbonds>
donor molecule, donor type, donor heavy atom, donor atom, acceptor molecule, acceptor atom, score
      L1  H    21    49       P1  8028  0.95
      L1  H    27    62       P1  7948  0.50

> <Gold.Chemscore.Hbond.Weighted>
-6.2533

> <Gold.Chemscore.Metal.Weighted>
-0.0000

> <Gold.Chemscore.Lipo.Weighted>
-11.5038

> <Gold.Chemscore.Internal_Hbond.Weighted>
0.0000

> <Gold.Chemscore.DEClash.Weighted>
0.1817

> <Gold.Chemscore.DEInternal.Weighted>
3.0327

> <Gold.Chemscore.Rot.Weighted>
7.8741

> <Gold.Chemscore.Internal.Correction.Weighted>
   9.000000E+99

> <Gold.Protein.RotatedTorsions>
[ 6907 6896 6895 6894 ] final   87.52 input  -60.11 | X-H torsion
[ 7974 7965 7964 7962 ] final  140.15 input  175.53 | X-H torsion
[ 8008 7997 7996 7995 ] final -148.88 input   59.86 | X-H torsion
[ 10167 10162 10161 10158 ] final   81.07 input  -65.29 | X-H torsion
[ 10718 10713 10712 10709 ] final    2.71 input   66.30 | X-H torsion
[ 10763 10752 10751 10750 ] final  137.59 input  -60.55 | X-H torsion
[ 11005 11000 10999 10996 ] final   43.16 input  -57.11 | X-H torsion

> <Gold.Protein.ActiveResidues>
 VAL166  LYS551  ARG553  GLY616  TRP617  ASP618  TYR619  PRO620  LYS621  CYS622 
 ASP623  PHE694  ASN695  SER759  ASP760  ASP761  ALA762  ILE779  LEU786  VAL792 
 PHE793  MET794  SER795  GLU796  ALA797  LYS798  CYS799  TRP800  GLU811  SER814 

> <Gold.Protein.RotatedAtoms>
  152.5412  134.2263  159.8807 H   0  0  0  0  0  0  0  0  0  0  0  0  # atno 6907 bound_to 6896
  151.2237  133.4481  159.2609 H   0  0  0  0  0  0  0  0  0  0  0  0  # atno 6908 bound_to 6896
  151.0781  134.9854  159.8398 H   0  0  0  0  0  0  0  0  0  0  0  0  # atno 6909 bound_to 6896
  144.9213  139.5164  143.5662 H   0  0  0  0  0  0  0  0  0  0  0  0  # atno 7974 bound_to 7965
  155.5987  140.0660  157.2739 H   0  0  0  0  0  0  0  0  0  0  0  0  # atno 8008 bound_to 7997
  154.4285  140.1822  156.1197 H   0  0  0  0  0  0  0  0  0  0  0  0  # atno 8009 bound_to 7997
  156.0176  140.3320  155.7009 H   0  0  0  0  0  0  0  0  0  0  0  0  # atno 8010 bound_to 7997
  139.9431  144.6076  150.8232 H   0  0  0  0  0  0  0  0  0  0  0  0  # atno 10167 bound_to 10162
  156.8671  130.5607  149.5659 H   0  0  0  0  0  0  0  0  0  0  0  0  # atno 10718 bound_to 10713
  153.8755  135.3050  155.3443 H   0  0  0  0  0  0  0  0  0  0  0  0  # atno 10763 bound_to 10752
  154.7786  135.4848  153.9799 H   0  0  0  0  0  0  0  0  0  0  0  0  # atno 10764 bound_to 10752
  153.1381  135.6818  153.9166 H   0  0  0  0  0  0  0  0  0  0  0  0  # atno 10765 bound_to 10752
  140.1671  134.4268  155.8280 H   0  0  0  0  0  0  0  0  0  0  0  0  # atno 11005 bound_to 11000
  146.3206  139.8095  142.8949 LP  0  0  0  0  0  0  0  0  0  0  0  0  # atno 17320 bound_to 7965
  145.3291  141.0262  143.3456 LP  0  0  0  0  0  0  0  0  0  0  0  0  # atno 17321 bound_to 7965
  140.7605  143.3152  151.2749 LP  0  0  0  0  0  0  0  0  0  0  0  0  # atno 17342 bound_to 10162
  139.6688  144.0057  152.2740 LP  0  0  0  0  0  0  0  0  0  0  0  0  # atno 17343 bound_to 10162
  156.0746  130.5771  150.9449 LP  0  0  0  0  0  0  0  0  0  0  0  0  # atno 17370 bound_to 10713
  157.6217  131.0929  150.8610 LP  0  0  0  0  0  0  0  0  0  0  0  0  # atno 17371 bound_to 10713
  141.2214  133.6939  156.7698 LP  0  0  0  0  0  0  0  0  0  0  0  0  # atno 17394 bound_to 11000
  140.2421  134.8606  157.3583 LP  0  0  0  0  0  0  0  0  0  0  0  0  # atno 17395 bound_to 11000

$$$$
