AV-unprocessed.smi:216|AV-procd|sdf|1659|dock2
  -GOLD-   2262020 53D 1   1.00000     0.00000
 Structure written by MMmdl.
 65 69  0  0  0  0  0  0  0  0  1 V2000
  146.5614  134.9755  162.8024 C   0  0  0  0  0  0  0  0  0  0  0  0
  146.7600  134.6433  161.3076 C   0  0  1  0  0  0  0  0  0  0  0  0
  147.9695  135.4303  160.7639 C   0  0  0  0  0  0  0  0  0  0  0  0
  148.1430  135.2242  159.2569 C   0  0  0  0  0  0  0  0  0  0  0  0
  148.2152  133.8014  158.9386 N   0  0  0  0  0  0  0  0  0  0  0  0
  148.6579  133.4683  157.6984 C   0  0  0  0  0  0  0  0  0  0  0  0
  149.9673  133.6453  157.3738 N   0  0  0  0  0  0  0  0  0  0  0  0
  150.4120  133.3255  156.1554 C   0  0  0  0  0  0  0  0  0  0  0  0
  149.7323  132.8169  155.1268 N   0  0  0  0  0  0  0  0  0  0  0  0
  148.4198  132.6291  155.4456 C   0  0  0  0  0  0  0  0  0  0  0  0
  147.8044  132.9305  156.6937 C   0  0  0  0  0  0  0  0  0  0  0  0
  146.4551  132.6047  156.6430 N   0  0  0  0  0  0  0  0  0  0  0  0
  146.2798  132.1496  155.4330 C   0  0  0  0  0  0  0  0  0  0  0  0
  147.4124  132.1080  154.6514 N   0  0  0  0  0  0  0  0  0  0  0  0
  147.5084  131.6377  153.2767 C   0  0  0  0  0  0  0  0  0  0  0  0
  146.5246  132.3244  152.2821 C   0  0  0  0  0  0  0  0  0  0  0  0
  146.3118  133.8195  152.6570 C   0  0  0  0  0  0  0  0  0  0  0  0
  147.5087  134.4423  153.0794 O   0  0  0  0  0  0  0  0  0  0  0  0
  147.0967  132.1796  150.8495 C   0  0  0  0  0  0  0  0  0  0  0  0
  146.0829  132.5610  149.7554 C   0  0  0  0  0  0  0  0  0  0  0  0
  144.9031  131.7801  149.8936 O   0  0  0  0  0  0  0  0  0  0  0  0
  144.2415  131.9948  151.1331 C   0  0  0  0  0  0  0  0  0  0  0  0
  145.1605  131.5891  152.2998 C   0  0  0  0  0  0  0  0  0  0  0  0
  147.0737  133.0142  159.4059 C   0  0  0  0  0  0  0  0  0  0  0  0
  146.8527  133.1186  160.9453 C   0  0  0  0  0  0  0  0  0  0  0  0
  148.0037  132.4036  161.7161 C   0  0  0  0  0  0  0  0  0  0  0  0
  148.0257  130.8744  161.5299 C   0  0  0  0  0  0  0  0  0  0  0  0
  146.6757  130.2425  161.8908 C   0  0  0  0  0  0  0  0  0  0  0  0
  145.5375  130.8870  161.0898 C   0  0  0  0  0  0  0  0  0  0  0  0
  145.5117  132.4121  161.2975 C   0  0  0  0  0  0  0  0  0  0  0  0
  147.4146  134.6723  163.4081 H   0  0  0  0  0  0  0  0  0  0  0  0
  145.6675  134.5168  163.2207 H   0  0  0  0  0  0  0  0  0  0  0  0
  146.4463  136.0511  162.9393 H   0  0  0  0  0  0  0  0  0  0  0  0
  145.8810  135.0359  160.7936 H   0  0  0  0  0  0  0  0  0  0  0  0
  147.8445  136.4951  160.9642 H   0  0  0  0  0  0  0  0  0  0  0  0
  148.8802  135.1304  161.2829 H   0  0  0  0  0  0  0  0  0  0  0  0
  147.3046  135.6734  158.7225 H   0  0  0  0  0  0  0  0  0  0  0  0
  149.0497  135.7315  158.9237 H   0  0  0  0  0  0  0  0  0  0  0  0
  151.4629  133.5019  155.9798 H   0  0  0  0  0  0  0  0  0  0  0  0
  145.3146  131.8176  155.0794 H   0  0  0  0  0  0  0  0  0  0  0  0
  148.5396  131.7718  152.9472 H   0  0  0  0  0  0  0  0  0  0  0  0
  147.3439  130.5593  153.2829 H   0  0  0  0  0  0  0  0  0  0  0  0
  145.9242  134.3946  151.8179 H   0  0  0  0  0  0  0  0  0  0  0  0
  145.5716  133.9201  153.4507 H   0  0  0  0  0  0  0  0  0  0  0  0
  147.7248  135.1258  152.4635 H   0  0  0  0  0  0  0  0  0  0  0  0
  148.0060  132.7702  150.7345 H   0  0  0  0  0  0  0  0  0  0  0  0
  147.3939  131.1434  150.6821 H   0  0  0  0  0  0  0  0  0  0  0  0
  145.8398  133.6235  149.7835 H   0  0  0  0  0  0  0  0  0  0  0  0
  146.5113  132.3675  148.7719 H   0  0  0  0  0  0  0  0  0  0  0  0
  143.9212  133.0340  151.2149 H   0  0  0  0  0  0  0  0  0  0  0  0
  143.3348  131.3898  151.1505 H   0  0  0  0  0  0  0  0  0  0  0  0
  145.3284  130.5133  152.2356 H   0  0  0  0  0  0  0  0  0  0  0  0
  144.6424  131.7596  153.2442 H   0  0  0  0  0  0  0  0  0  0  0  0
  146.1878  133.3821  158.8861 H   0  0  0  0  0  0  0  0  0  0  0  0
  147.1804  131.9753  159.1006 H   0  0  0  0  0  0  0  0  0  0  0  0
  148.9732  132.8083  161.4258 H   0  0  0  0  0  0  0  0  0  0  0  0
  147.9093  132.5937  162.7842 H   0  0  0  0  0  0  0  0  0  0  0  0
  148.2833  130.6196  160.5038 H   0  0  0  0  0  0  0  0  0  0  0  0
  148.8103  130.4417  162.1510 H   0  0  0  0  0  0  0  0  0  0  0  0
  146.7037  129.1687  161.7035 H   0  0  0  0  0  0  0  0  0  0  0  0
  146.4887  130.3663  162.9583 H   0  0  0  0  0  0  0  0  0  0  0  0
  145.6426  130.6460  160.0319 H   0  0  0  0  0  0  0  0  0  0  0  0
  144.5842  130.4594  161.4017 H   0  0  0  0  0  0  0  0  0  0  0  0
  145.2566  132.5832  162.3418 H   0  0  0  0  0  0  0  0  0  0  0  0
  144.6953  132.8440  160.7176 H   0  0  0  0  0  0  0  0  0  0  0  0
  1  2  1  0  0  0  0
  1 31  1  0  0  0  0
  1 32  1  0  0  0  0
  1 33  1  0  0  0  0
  2 25  1  0  0  0  0
  2  3  1  0  0  0  0
  2 34  1  0  0  0  0
  3  4  1  0  0  0  0
  3 35  1  0  0  0  0
  3 36  1  0  0  0  0
  4  5  1  0  0  0  0
  4 37  1  0  0  0  0
  4 38  1  0  0  0  0
  5  6  1  0  0  0  0
  5 24  1  0  0  0  0
  6 11  1  0  0  0  0
  6  7  2  0  0  0  0
  7  8  1  0  0  0  0
  8  9  2  0  0  0  0
  8 39  1  0  0  0  0
  9 10  1  0  0  0  0
 10 14  1  0  0  0  0
 10 11  2  0  0  0  0
 11 12  1  0  0  0  0
 12 13  2  0  0  0  0
 13 14  1  0  0  0  0
 13 40  1  0  0  0  0
 14 15  1  0  0  0  0
 15 16  1  0  0  0  0
 15 41  1  0  0  0  0
 15 42  1  0  0  0  0
 16 23  1  0  0  0  0
 16 17  1  0  0  0  0
 16 19  1  0  0  0  0
 17 18  1  0  0  0  0
 17 43  1  0  0  0  0
 17 44  1  0  0  0  0
 18 45  1  0  0  0  0
 19 20  1  0  0  0  0
 19 46  1  0  0  0  0
 19 47  1  0  0  0  0
 20 21  1  0  0  0  0
 20 48  1  0  0  0  0
 20 49  1  0  0  0  0
 21 22  1  0  0  0  0
 22 23  1  0  0  0  0
 22 50  1  0  0  0  0
 22 51  1  0  0  0  0
 23 52  1  0  0  0  0
 23 53  1  0  0  0  0
 24 25  1  0  0  0  0
 24 54  1  0  0  0  0
 24 55  1  0  0  0  0
 25 30  1  0  0  0  0
 25 26  1  0  0  0  0
 26 27  1  0  0  0  0
 26 56  1  0  0  0  0
 26 57  1  0  0  0  0
 27 28  1  0  0  0  0
 27 58  1  0  0  0  0
 27 59  1  0  0  0  0
 28 29  1  0  0  0  0
 28 60  1  0  0  0  0
 28 61  1  0  0  0  0
 29 30  1  0  0  0  0
 29 62  1  0  0  0  0
 29 63  1  0  0  0  0
 30 64  1  0  0  0  0
 30 65  1  0  0  0  0
M  END
> <s_m_source_file>
AV-unprocessed.smi

> <i_m_source_file_index>
216

> <i_lp_mmshare_version>
43012

> <i_f3d_flags>
0

> <s_epik_input>
W0NIMl0xW0NIMl1bQ0gyXVtDSDJdW0NIMl1DMTJbQ0BIXShbQ0gzXSlbQ0gyXVtDSDJdTihbQ0gyXTIpYyhuW2NIXW4zKWMoYzM0KW5bY0hdbjRbQ0gyXUM1KFtDSDJdW09IXSlbQ0gyXVtDSDJdT1tDSDJdW0NIMl01

> <s_epik_cmdline>
J2VwaWtfcHl0aG9uJywgJy1waCcsICc3LjAnLCAnLXRuJywgJzgnLCAnLW1hJywgJzIwMCcsICctbWV0YWxfYmluZGluZycsICctaW1hZScsICc8aW5maWxlLm1hZT4nLCAnLW9tYWUnLCAnPG91dGZpbGUubWFlPic=

> <r_lp_tautomer_probability>
1

> <r_epik_Ionization_Penalty>
0.00291566

> <r_epik_Ionization_Penalty_Charging>
0

> <r_epik_Ionization_Penalty_Neutral>
0.00291566

> <r_epik_State_Penalty>
0.00199166

> <r_epik_Charging_Adjusted_Penalty>
0.00199166

> <i_epik_Tot_Q>
0

> <i_epik_Tot_abs_Q>
0

> <r_epik_Metal_State_Penalty>
-0

> <b_epik_Metal_Only>
0

> <s_lp_Force_Field>
OPLS_2005

> <r_lp_Energy>
50.0726

> <b_lp_Chiralities_Consistent>
1

> <s_lp_Variant>
AV-unprocessed.smi:216-2

> <Gold.Version>
5.8.1

> <Gold.Id.Protein>
6NUR|6NUR_protein|mol2

> <Gold.PLP.Fitness>
39.8467

> <Gold.PLP.PLP>
-33.5466

> <Gold.PLP.part.hbond>
-2.2053

> <Gold.PLP.part.metal>
0.0000

> <Gold.PLP.part.buried>
0.1359

> <Gold.PLP.part.nonpolar>
-32.9103

> <Gold.PLP.part.repulsive>
0.1972

> <Gold.PLP.ligand.clash>
0.0000

> <Gold.PLP.ligand.torsion>
1.1996

> <Gold.PLP.Chemscore.Hbond>
1.9750

> <Gold.PLP.Chemscore.CHOScore>
0.8142

> <Gold.PLP.Chemscore.Metal>
0.0000

> <Gold.Chemscore.Hbonds>
donor molecule, donor type, donor heavy atom, donor atom, acceptor molecule, acceptor atom, score
      L1  H    18    45       P1  7948  0.94
      P1  H  6896  6907       L1     7  0.94
      L1  C    13    40       P1 10957  0.69

> <Gold.PLP.Chemscore.Internal.Correction>
0.3316

> <Gold.Rescore>
     Score         DG    S(hbond)    S(metal)    S(lipo)     H(rot)  DE(clash)    DE(int)     intcor
     12.53     -18.26       1.60        0.00     111.76       2.20       1.92       3.81       ----

> <Gold.Chemscore.Fitness>
12.5328

> <Gold.Chemscore.DG>
-18.2566

> <Gold.Chemscore.ZeroCoef>
-5.4800

> <Gold.Chemscore.Hbond>
1.5980

> <Gold.Chemscore.Metal>
0.0000

> <Gold.Chemscore.Lipo>
111.7640

> <Gold.Chemscore.Internal_Hbond>
0.0000

> <Gold.Chemscore.DEClash>
1.9184

> <Gold.Chemscore.DEInternal>
3.8053

> <Gold.Chemscore.Rot>
2.2019

> <Gold.Chemscore.Internal.Correction>
   9.000000E+99

> <Gold.Chemscore.Hbonds>
donor molecule, donor type, donor heavy atom, donor atom, acceptor molecule, acceptor atom, score
      L1  H    18    45       P1  7948  0.89
      P1  H  6896  6907       L1     7  0.26

> <Gold.Chemscore.Hbond.Weighted>
-5.3372

> <Gold.Chemscore.Metal.Weighted>
-0.0000

> <Gold.Chemscore.Lipo.Weighted>
-13.0764

> <Gold.Chemscore.Internal_Hbond.Weighted>
0.0000

> <Gold.Chemscore.DEClash.Weighted>
1.9184

> <Gold.Chemscore.DEInternal.Weighted>
3.8053

> <Gold.Chemscore.Rot.Weighted>
5.6370

> <Gold.Chemscore.Internal.Correction.Weighted>
   9.000000E+99

> <Gold.Protein.RotatedTorsions>
[ 6907 6896 6895 6894 ] final -121.20 input  -60.11 | X-H torsion
[ 7974 7965 7964 7962 ] final  -44.82 input  175.53 | X-H torsion
[ 8008 7997 7996 7995 ] final -110.06 input   59.86 | X-H torsion
[ 10167 10162 10161 10158 ] final   33.26 input  -65.29 | X-H torsion
[ 10718 10713 10712 10709 ] final  172.50 input   66.30 | X-H torsion
[ 10763 10752 10751 10750 ] final  -33.22 input  -60.55 | X-H torsion
[ 11005 11000 10999 10996 ] final  -82.04 input  -57.11 | X-H torsion

> <Gold.Protein.ActiveResidues>
 VAL166  LYS551  ARG553  GLY616  TRP617  ASP618  TYR619  PRO620  LYS621  CYS622 
 ASP623  PHE694  ASN695  SER759  ASP760  ASP761  ALA762  ILE779  LEU786  VAL792 
 PHE793  MET794  SER795  GLU796  ALA797  LYS798  CYS799  TRP800  GLU811  SER814 

> <Gold.Protein.RotatedAtoms>
  150.8462  133.7858  159.3042 H   0  0  0  0  0  0  0  0  0  0  0  0  # atno 6907 bound_to 6896
  151.5544  135.1065  159.9967 H   0  0  0  0  0  0  0  0  0  0  0  0  # atno 6908 bound_to 6896
  152.4515  133.7596  159.6795 H   0  0  0  0  0  0  0  0  0  0  0  0  # atno 6909 bound_to 6896
  145.9883  140.7209  142.9329 H   0  0  0  0  0  0  0  0  0  0  0  0  # atno 7974 bound_to 7965
  154.9688  140.0398  157.2224 H   0  0  0  0  0  0  0  0  0  0  0  0  # atno 8008 bound_to 7997
  154.7821  140.2820  155.6034 H   0  0  0  0  0  0  0  0  0  0  0  0  # atno 8009 bound_to 7997
  156.2937  140.2589  156.2648 H   0  0  0  0  0  0  0  0  0  0  0  0  # atno 8010 bound_to 7997
  140.4424  144.1168  150.6176 H   0  0  0  0  0  0  0  0  0  0  0  0  # atno 10167 bound_to 10162
  156.9780  131.0110  151.2889 H   0  0  0  0  0  0  0  0  0  0  0  0  # atno 10718 bound_to 10713
  153.8267  135.6869  153.4820 H   0  0  0  0  0  0  0  0  0  0  0  0  # atno 10763 bound_to 10752
  153.1536  135.4608  154.9670 H   0  0  0  0  0  0  0  0  0  0  0  0  # atno 10764 bound_to 10752
  154.7904  135.3300  154.7734 H   0  0  0  0  0  0  0  0  0  0  0  0  # atno 10765 bound_to 10752
  141.1664  133.7225  156.8513 H   0  0  0  0  0  0  0  0  0  0  0  0  # atno 11005 bound_to 11000
  144.6881  140.3026  143.7261 LP  0  0  0  0  0  0  0  0  0  0  0  0  # atno 17320 bound_to 7965
  145.7668  139.1843  143.2235 LP  0  0  0  0  0  0  0  0  0  0  0  0  # atno 17321 bound_to 7965
  140.4303  143.2571  151.9604 LP  0  0  0  0  0  0  0  0  0  0  0  0  # atno 17342 bound_to 10162
  139.4790  144.5750  151.8027 LP  0  0  0  0  0  0  0  0  0  0  0  0  # atno 17343 bound_to 10162
  157.5546  130.8205  149.8188 LP  0  0  0  0  0  0  0  0  0  0  0  0  # atno 17370 bound_to 10713
  156.0256  130.3781  150.1834 LP  0  0  0  0  0  0  0  0  0  0  0  0  # atno 17371 bound_to 10713
  140.1914  134.8963  157.3064 LP  0  0  0  0  0  0  0  0  0  0  0  0  # atno 17394 bound_to 11000
  140.2286  134.3936  155.7532 LP  0  0  0  0  0  0  0  0  0  0  0  0  # atno 17395 bound_to 11000

$$$$
