AV-unprocessed.smi:2303|AV-procd|sdf|9243|dock9
  -GOLD-   2272012463D 1   1.00000     0.00000
 Structure written by MMmdl.
 32 33  0  0  0  0  0  0  0  0  2 V2000
  147.7787  141.6882  154.6904 C   0  0  0  0  0  0  0  0  0  0  0  0
  148.8098  140.7089  154.1079 C   0  0  0  0  0  0  0  0  0  0  0  0
  148.1486  139.3910  153.6665 C   0  0  0  0  0  0  0  0  0  0  0  0
  149.9676  140.4806  155.0832 C   0  0  0  0  0  0  0  0  0  0  0  0
  149.8724  140.9807  156.3743 C   0  0  0  0  0  0  0  0  0  0  0  0
  151.0128  140.7401  157.2551 C   0  0  0  0  0  0  0  0  0  0  0  0
  151.0298  141.2526  158.6256 C   0  0  0  0  0  0  0  0  0  0  0  0
  151.0582  140.5252  159.6195 O   0  0  0  0  0  0  0  0  0  0  0  0
  151.0160  142.5985  158.7559 N   0  0  0  0  0  0  0  0  0  0  0  0
  151.0485  143.5921  157.6910 C   0  0  0  0  0  0  0  0  0  0  0  0
  151.4740  144.8680  158.3950 C   0  0  0  0  0  0  0  0  0  0  0  0
  152.2472  144.3373  159.5914 C   0  0  0  0  0  0  0  0  0  0  0  0
  151.5236  143.1705  159.9409 O   0  0  0  0  0  0  0  0  0  0  0  0
  152.1111  140.1049  156.7847 C   0  0  0  0  0  0  0  0  0  0  0  0
  152.1462  139.6045  155.4109 C   0  0  0  0  0  0  0  0  0  0  0  0
  153.1518  139.0169  155.0178 O   0  0  0  0  0  0  0  0  0  0  0  0
  151.0560  139.8075  154.6187 N   0  5  0  0  0  0  0  0  0  0  0  0
  148.2480  142.6353  154.9583 H   0  0  0  0  0  0  0  0  0  0  0  0
  147.3074  141.2852  155.5875 H   0  0  0  0  0  0  0  0  0  0  0  0
  146.9899  141.9032  153.9692 H   0  0  0  0  0  0  0  0  0  0  0  0
  149.2069  141.1720  153.2034 H   0  0  0  0  0  0  0  0  0  0  0  0
  148.8849  138.7062  153.2450 H   0  0  0  0  0  0  0  0  0  0  0  0
  147.3913  139.5712  152.9035 H   0  0  0  0  0  0  0  0  0  0  0  0
  147.6608  138.8849  154.5003 H   0  0  0  0  0  0  0  0  0  0  0  0
  149.0020  141.5272  156.7070 H   0  0  0  0  0  0  0  0  0  0  0  0
  151.7828  143.3042  156.9368 H   0  0  0  0  0  0  0  0  0  0  0  0
  150.0768  143.6939  157.2071 H   0  0  0  0  0  0  0  0  0  0  0  0
  152.0648  145.5317  157.7632 H   0  0  0  0  0  0  0  0  0  0  0  0
  150.5942  145.4144  158.7371 H   0  0  0  0  0  0  0  0  0  0  0  0
  153.2632  144.0606  159.3057 H   0  0  0  0  0  0  0  0  0  0  0  0
  152.2980  145.0465  160.4178 H   0  0  0  0  0  0  0  0  0  0  0  0
  152.9729  139.9479  157.4185 H   0  0  0  0  0  0  0  0  0  0  0  0
  1  2  1  0  0  0  0
  1 18  1  0  0  0  0
  1 19  1  0  0  0  0
  1 20  1  0  0  0  0
  2  3  1  0  0  0  0
  2 21  1  0  0  0  0
  2  4  1  0  0  0  0
  3 22  1  0  0  0  0
  3 23  1  0  0  0  0
  3 24  1  0  0  0  0
  4 17  1  0  0  0  0
  4  5  2  0  0  0  0
  5 25  1  0  0  0  0
  5  6  1  0  0  0  0
  6  7  1  0  0  0  0
  6 14  2  0  0  0  0
  7  8  2  0  0  0  0
  7  9  1  0  0  0  0
  9 13  1  0  0  0  0
  9 10  1  0  0  0  0
 10 11  1  0  0  0  0
 10 26  1  0  0  0  0
 10 27  1  0  0  0  0
 11 12  1  0  0  0  0
 11 28  1  0  0  0  0
 11 29  1  0  0  0  0
 12 13  1  0  0  0  0
 12 30  1  0  0  0  0
 12 31  1  0  0  0  0
 14 15  1  0  0  0  0
 14 32  1  0  0  0  0
 15 16  2  0  0  0  0
 15 17  1  0  0  0  0
M  CHG  1  17  -1
M  END
> <s_m_source_file>
AV-unprocessed.smi

> <i_m_source_file_index>
2303

> <i_lp_mmshare_version>
43012

> <i_f3d_flags>
0

> <s_epik_input>
W0NIM11bQ0hdKFtDSDNdKWMxW2NIXWMoW2NIXWMobjEpW09IXSlDKD1PKU4yW0NIMl1bQ0gyXVtDSDJdTzI=

> <s_epik_cmdline>
J2VwaWtfcHl0aG9uJywgJy1waCcsICc3LjAnLCAnLXRuJywgJzgnLCAnLW1hJywgJzIwMCcsICctbWV0YWxfYmluZGluZycsICctaW1hZScsICc8aW5maWxlLm1hZT4nLCAnLW9tYWUnLCAnPG91dGZpbGUubWFlPic=

> <r_lp_tautomer_probability>
1

> <r_epik_Ionization_Penalty>
5.39588

> <r_epik_Ionization_Penalty_Charging>
0.166011

> <r_epik_Ionization_Penalty_Neutral>
5.22987

> <r_epik_State_Penalty>
5.22978

> <r_epik_Charging_Adjusted_Penalty>
5.39579

> <i_epik_Tot_Q>
-1

> <i_epik_Tot_abs_Q>
1

> <r_epik_Metal_State_Penalty>
1.21816

> <b_epik_Metal_Only>
1

> <s_epik_Chemistry_Notes>
This compound has a N-S or N-O group and may undergo hydrolysis at high or low pH.

> <s_lp_Force_Field>
OPLS_2005

> <r_lp_Energy>
27.9757

> <b_lp_Chiralities_Consistent>
1

> <s_lp_Variant>
AV-unprocessed.smi:2303-2

> <Gold.Version>
5.8.1

> <Gold.Id.Protein>
6NUR|6NUR_protein|mol2

> <Gold.PLP.Fitness>
37.4228

> <Gold.PLP.PLP>
-33.3175

> <Gold.PLP.part.hbond>
-2.7225

> <Gold.PLP.part.metal>
0.0000

> <Gold.PLP.part.buried>
0.7660

> <Gold.PLP.part.nonpolar>
-31.1827

> <Gold.PLP.part.repulsive>
0.0936

> <Gold.PLP.ligand.clash>
0.0000

> <Gold.PLP.ligand.torsion>
1.4725

> <Gold.PLP.Chemscore.Hbond>
1.9417

> <Gold.PLP.Chemscore.CHOScore>
0.0000

> <Gold.PLP.Chemscore.Metal>
0.0000

> <Gold.Chemscore.Hbonds>
donor molecule, donor type, donor heavy atom, donor atom, acceptor molecule, acceptor atom, score
      P1  H  7989  7998       L1    17  1.00
      P1  H  7997  8010       L1    16  0.99

> <Gold.PLP.Chemscore.Internal.Correction>
1.2253

> <Gold.Rescore>
     Score         DG    S(hbond)    S(metal)    S(lipo)     H(rot)  DE(clash)    DE(int)     intcor
     14.02     -15.65       0.97        0.00      81.25       1.00       0.25       1.38       ----

> <Gold.Chemscore.Fitness>
14.0192

> <Gold.Chemscore.DG>
-15.6492

> <Gold.Chemscore.ZeroCoef>
-5.4800

> <Gold.Chemscore.Hbond>
0.9650

> <Gold.Chemscore.Metal>
0.0000

> <Gold.Chemscore.Lipo>
81.2476

> <Gold.Chemscore.Internal_Hbond>
0.0000

> <Gold.Chemscore.DEClash>
0.2463

> <Gold.Chemscore.DEInternal>
1.3837

> <Gold.Chemscore.Rot>
1.0000

> <Gold.Chemscore.Internal.Correction>
   9.000000E+99

> <Gold.Chemscore.Hbonds>
donor molecule, donor type, donor heavy atom, donor atom, acceptor molecule, acceptor atom, score
      P1  H  7989  7998       L1    17  0.12
      P1  H  7997  8010       L1    16  0.31

> <Gold.Chemscore.Hbond.Weighted>
-3.2232

> <Gold.Chemscore.Metal.Weighted>
-0.0000

> <Gold.Chemscore.Lipo.Weighted>
-9.5060

> <Gold.Chemscore.Internal_Hbond.Weighted>
0.0000

> <Gold.Chemscore.DEClash.Weighted>
0.2463

> <Gold.Chemscore.DEInternal.Weighted>
1.3837

> <Gold.Chemscore.Rot.Weighted>
2.5600

> <Gold.Chemscore.Internal.Correction.Weighted>
   9.000000E+99

> <Gold.Protein.RotatedTorsions>
[ 6907 6896 6895 6894 ] final   -2.22 input  -60.11 | X-H torsion
[ 7974 7965 7964 7962 ] final -119.10 input  175.53 | X-H torsion
[ 8008 7997 7996 7995 ] final  121.62 input   59.86 | X-H torsion
[ 10167 10162 10161 10158 ] final  167.42 input  -65.29 | X-H torsion
[ 10718 10713 10712 10709 ] final -176.10 input   66.30 | X-H torsion
[ 10763 10752 10751 10750 ] final   10.34 input  -60.55 | X-H torsion
[ 11005 11000 10999 10996 ] final -116.85 input  -57.11 | X-H torsion

> <Gold.Protein.ActiveResidues>
 VAL166  LYS551  ARG553  GLY616  TRP617  ASP618  TYR619  PRO620  LYS621  CYS622 
 ASP623  PHE694  ASN695  SER759  ASP760  ASP761  ALA762  ILE779  LEU786  VAL792 
 PHE793  MET794  SER795  GLU796  ALA797  LYS798  CYS799  TRP800  GLU811  SER814 

> <Gold.Protein.RotatedAtoms>
  151.5335  135.1068  159.9908 H   0  0  0  0  0  0  0  0  0  0  0  0  # atno 6907 bound_to 6896
  152.4568  133.7735  159.6822 H   0  0  0  0  0  0  0  0  0  0  0  0  # atno 6908 bound_to 6896
  150.8514  133.7715  159.3049 H   0  0  0  0  0  0  0  0  0  0  0  0  # atno 6909 bound_to 6896
  145.0663  140.8327  143.4122 H   0  0  0  0  0  0  0  0  0  0  0  0  # atno 7974 bound_to 7965
  156.2694  140.2804  156.1338 H   0  0  0  0  0  0  0  0  0  0  0  0  # atno 8008 bound_to 7997
  155.1026  140.0390  157.2719 H   0  0  0  0  0  0  0  0  0  0  0  0  # atno 8009 bound_to 7997
  154.6804  140.2607  155.6920 H   0  0  0  0  0  0  0  0  0  0  0  0  # atno 8010 bound_to 7997
  139.4945  144.3923  151.9503 H   0  0  0  0  0  0  0  0  0  0  0  0  # atno 10167 bound_to 10162
  156.8097  130.9582  151.3116 H   0  0  0  0  0  0  0  0  0  0  0  0  # atno 10718 bound_to 10713
  153.2042  135.6860  153.8193 H   0  0  0  0  0  0  0  0  0  0  0  0  # atno 10763 bound_to 10752
  153.7448  135.3232  155.3311 H   0  0  0  0  0  0  0  0  0  0  0  0  # atno 10764 bound_to 10752
  154.8188  135.4667  154.0822 H   0  0  0  0  0  0  0  0  0  0  0  0  # atno 10765 bound_to 10752
  141.0395  133.9858  157.3018 H   0  0  0  0  0  0  0  0  0  0  0  0  # atno 11005 bound_to 11000
  145.1347  139.2610  143.5521 LP  0  0  0  0  0  0  0  0  0  0  0  0  # atno 17320 bound_to 7965
  146.3527  140.1008  142.8608 LP  0  0  0  0  0  0  0  0  0  0  0  0  # atno 17321 bound_to 7965
  140.3361  144.3259  150.5977 LP  0  0  0  0  0  0  0  0  0  0  0  0  # atno 17342 bound_to 10162
  140.5605  143.2193  151.7774 LP  0  0  0  0  0  0  0  0  0  0  0  0  # atno 17343 bound_to 10162
  157.6512  130.8886  149.9637 LP  0  0  0  0  0  0  0  0  0  0  0  0  # atno 17370 bound_to 10713
  156.1052  130.3653  150.0147 LP  0  0  0  0  0  0  0  0  0  0  0  0  # atno 17371 bound_to 10713
  139.9265  135.0201  156.8251 LP  0  0  0  0  0  0  0  0  0  0  0  0  # atno 17394 bound_to 11000
  140.6261  133.9948  155.7640 LP  0  0  0  0  0  0  0  0  0  0  0  0  # atno 17395 bound_to 11000

$$$$
