AV-unprocessed.smi:3320|AV-procd|sdf|12768|dock8
  -GOLD-   2272019113D 1   1.00000     0.00000
 Structure written by MMmdl.
 37 38  0  0  0  0  0  0  0  0  1 V2000
  152.0642  145.1394  160.3838 C   0  0  0  0  0  0  0  0  0  0  0  0
  152.0325  143.8323  161.1891 C   0  0  0  0  0  0  0  0  0  0  0  0
  152.9991  143.8371  162.3820 C   0  0  0  0  0  0  0  0  0  0  0  0
  152.2191  142.6299  160.3179 C   0  0  0  0  0  0  0  0  0  0  0  0
  151.4262  142.3330  159.2837 N   0  0  0  0  0  0  0  0  0  0  0  0
  151.8069  141.1581  158.6288 C   0  0  0  0  0  0  0  0  0  0  0  0
  151.0185  140.6723  157.4509 C   0  0  0  0  0  0  0  0  0  0  0  0
  150.7321  141.7976  156.4431 C   0  0  0  0  0  0  0  0  0  0  0  0
  149.3396  141.7923  156.0099 N   0  0  0  0  0  0  0  0  0  0  0  0
  148.9123  141.4094  154.7974 C   0  0  0  0  0  0  0  0  0  0  0  0
  149.6692  141.0124  153.9105 O   0  0  0  0  0  0  0  0  0  0  0  0
  147.3983  141.4886  154.5609 C   0  0  0  0  0  0  0  0  0  0  0  0
  146.9520  142.6313  153.6312 C   0  0  0  0  0  0  0  0  0  0  0  0
  145.8207  142.9371  154.6173 C   0  0  0  0  0  0  0  0  0  0  0  0
  146.6123  142.1809  155.6885 C   0  0  0  0  0  0  0  0  0  0  0  0
  152.9121  140.5636  159.1842 C   0  0  0  0  0  0  0  0  0  0  0  0
  153.5127  141.4589  160.5526 S   0  0  0  0  0  0  0  0  0  0  0  0
  151.3095  145.1340  159.5968 H   0  0  0  0  0  0  0  0  0  0  0  0
  153.0359  145.2913  159.9127 H   0  0  0  0  0  0  0  0  0  0  0  0
  151.8680  145.9997  161.0240 H   0  0  0  0  0  0  0  0  0  0  0  0
  151.0284  143.7541  161.6079 H   0  0  0  0  0  0  0  0  0  0  0  0
  152.8925  142.9293  162.9767 H   0  0  0  0  0  0  0  0  0  0  0  0
  152.8082  144.6863  163.0387 H   0  0  0  0  0  0  0  0  0  0  0  0
  154.0364  143.8996  162.0519 H   0  0  0  0  0  0  0  0  0  0  0  0
  151.5585  139.8632  156.9575 H   0  0  0  0  0  0  0  0  0  0  0  0
  150.0759  140.2390  157.7878 H   0  0  0  0  0  0  0  0  0  0  0  0
  150.9403  142.7653  156.9002 H   0  0  0  0  0  0  0  0  0  0  0  0
  151.3923  141.7152  155.5779 H   0  0  0  0  0  0  0  0  0  0  0  0
  148.6513  142.1056  156.6790 H   0  0  0  0  0  0  0  0  0  0  0  0
  146.9505  140.5338  154.2776 H   0  0  0  0  0  0  0  0  0  0  0  0
  147.6686  143.4503  153.5463 H   0  0  0  0  0  0  0  0  0  0  0  0
  146.6074  142.3035  152.6500 H   0  0  0  0  0  0  0  0  0  0  0  0
  145.6718  143.9972  154.8249 H   0  0  0  0  0  0  0  0  0  0  0  0
  144.8859  142.4396  154.3543 H   0  0  0  0  0  0  0  0  0  0  0  0
  146.0061  141.5056  156.2932 H   0  0  0  0  0  0  0  0  0  0  0  0
  147.2132  142.8433  156.3145 H   0  0  0  0  0  0  0  0  0  0  0  0
  153.4068  139.6552  158.8738 H   0  0  0  0  0  0  0  0  0  0  0  0
  1  2  1  0  0  0  0
  1 18  1  0  0  0  0
  1 19  1  0  0  0  0
  1 20  1  0  0  0  0
  2  3  1  0  0  0  0
  2  4  1  0  0  0  0
  2 21  1  0  0  0  0
  3 22  1  0  0  0  0
  3 23  1  0  0  0  0
  3 24  1  0  0  0  0
  4 17  1  0  0  0  0
  4  5  2  0  0  0  0
  5  6  1  0  0  0  0
  6  7  1  0  0  0  0
  6 16  2  0  0  0  0
  7  8  1  0  0  0  0
  7 25  1  0  0  0  0
  7 26  1  0  0  0  0
  8  9  1  0  0  0  0
  8 27  1  0  0  0  0
  8 28  1  0  0  0  0
  9 10  1  0  0  0  0
  9 29  1  0  0  0  0
 10 11  2  0  0  0  0
 10 12  1  0  0  0  0
 12 15  1  0  0  0  0
 12 13  1  0  0  0  0
 12 30  1  0  0  0  0
 13 14  1  0  0  0  0
 13 31  1  0  0  0  0
 13 32  1  0  0  0  0
 14 15  1  0  0  0  0
 14 33  1  0  0  0  0
 14 34  1  0  0  0  0
 15 35  1  0  0  0  0
 15 36  1  0  0  0  0
 16 17  1  0  0  0  0
 16 37  1  0  0  0  0
M  END
> <s_m_source_file>
AV-unprocessed.smi

> <i_m_source_file_index>
3320

> <i_lp_mmshare_version>
43012

> <i_f3d_flags>
0

> <s_epik_input>
W0NIM11bQ0hdKFtDSDNdKWMxbmMoW2NIXXMxKVtDSDJdW0NIMl1bTkhdQyg9TylbQ0hdMltDSDJdW0NIMl1bQ0gyXTI=

> <s_epik_cmdline>
J2VwaWtfcHl0aG9uJywgJy1waCcsICc3LjAnLCAnLXRuJywgJzgnLCAnLW1hJywgJzIwMCcsICctbWV0YWxfYmluZGluZycsICctaW1hZScsICc8aW5maWxlLm1hZT4nLCAnLW9tYWUnLCAnPG91dGZpbGUubWFlPic=

> <r_epik_Ionization_Penalty>
0.000842111

> <r_epik_Ionization_Penalty_Charging>
0

> <r_epik_Ionization_Penalty_Neutral>
0.000842111

> <r_epik_State_Penalty>
0.000542609

> <r_epik_Charging_Adjusted_Penalty>
0.000542609

> <i_epik_Tot_Q>
0

> <i_epik_Tot_abs_Q>
0

> <r_epik_Metal_State_Penalty>
-0

> <b_epik_Metal_Only>
0

> <s_lp_Force_Field>
OPLS_2005

> <r_lp_Energy>
-0.445202

> <b_lp_Chiralities_Consistent>
1

> <s_lp_Variant>
AV-unprocessed.smi:3320-1

> <Gold.Version>
5.8.1

> <Gold.Id.Protein>
6NUR|6NUR_protein|mol2

> <Gold.PLP.Fitness>
43.3168

> <Gold.PLP.PLP>
-40.8849

> <Gold.PLP.part.hbond>
-3.0000

> <Gold.PLP.part.metal>
0.0000

> <Gold.PLP.part.buried>
-6.2948

> <Gold.PLP.part.nonpolar>
-33.0664

> <Gold.PLP.part.repulsive>
1.2299

> <Gold.PLP.ligand.clash>
0.0000

> <Gold.PLP.ligand.torsion>
0.7868

> <Gold.PLP.Chemscore.Hbond>
1.1723

> <Gold.PLP.Chemscore.CHOScore>
0.0000

> <Gold.PLP.Chemscore.Metal>
0.0000

> <Gold.Chemscore.Hbonds>
donor molecule, donor type, donor heavy atom, donor atom, acceptor molecule, acceptor atom, score
      P1  H  7989  7998       L1    11  0.40
      P1  H  8011  8017       L1    11  0.71

> <Gold.PLP.Chemscore.Internal.Correction>
0.4886

> <Gold.Rescore>
     Score         DG    S(hbond)    S(metal)    S(lipo)     H(rot)  DE(clash)    DE(int)     intcor
     15.61     -17.58       1.08        0.00     105.02       1.49       1.13       0.83       ----

> <Gold.Chemscore.Fitness>
15.6143

> <Gold.Chemscore.DG>
-17.5763

> <Gold.Chemscore.ZeroCoef>
-5.4800

> <Gold.Chemscore.Hbond>
1.0826

> <Gold.Chemscore.Metal>
0.0000

> <Gold.Chemscore.Lipo>
105.0194

> <Gold.Chemscore.Internal_Hbond>
0.0000

> <Gold.Chemscore.DEClash>
1.1302

> <Gold.Chemscore.DEInternal>
0.8318

> <Gold.Chemscore.Rot>
1.4870

> <Gold.Chemscore.Internal.Correction>
   9.000000E+99

> <Gold.Chemscore.Hbonds>
donor molecule, donor type, donor heavy atom, donor atom, acceptor molecule, acceptor atom, score
      P1  H  7989  7998       L1    11  0.39
      P1  H  8011  8017       L1    11  0.54

> <Gold.Chemscore.Hbond.Weighted>
-3.6157

> <Gold.Chemscore.Metal.Weighted>
-0.0000

> <Gold.Chemscore.Lipo.Weighted>
-12.2873

> <Gold.Chemscore.Internal_Hbond.Weighted>
0.0000

> <Gold.Chemscore.DEClash.Weighted>
1.1302

> <Gold.Chemscore.DEInternal.Weighted>
0.8318

> <Gold.Chemscore.Rot.Weighted>
3.8067

> <Gold.Chemscore.Internal.Correction.Weighted>
   9.000000E+99

> <Gold.Protein.RotatedTorsions>
[ 6907 6896 6895 6894 ] final   -9.57 input  -60.11 | X-H torsion
[ 7974 7965 7964 7962 ] final  169.29 input  175.53 | X-H torsion
[ 8008 7997 7996 7995 ] final   -5.70 input   59.86 | X-H torsion
[ 10167 10162 10161 10158 ] final   63.19 input  -65.29 | X-H torsion
[ 10718 10713 10712 10709 ] final   68.24 input   66.30 | X-H torsion
[ 10763 10752 10751 10750 ] final  -27.65 input  -60.55 | X-H torsion
[ 11005 11000 10999 10996 ] final  -38.44 input  -57.11 | X-H torsion

> <Gold.Protein.ActiveResidues>
 VAL166  LYS551  ARG553  GLY616  TRP617  ASP618  TYR619  PRO620  LYS621  CYS622 
 ASP623  PHE694  ASN695  SER759  ASP760  ASP761  ALA762  ILE779  LEU786  VAL792 
 PHE793  MET794  SER795  GLU796  ALA797  LYS798  CYS799  TRP800  GLU811  SER814 

> <Gold.Protein.RotatedAtoms>
  151.4157  135.0991  159.9598 H   0  0  0  0  0  0  0  0  0  0  0  0  # atno 6907 bound_to 6896
  152.5005  133.8755  159.7330 H   0  0  0  0  0  0  0  0  0  0  0  0  # atno 6908 bound_to 6896
  150.9259  133.6766  159.2849 H   0  0  0  0  0  0  0  0  0  0  0  0  # atno 6909 bound_to 6896
  144.7360  139.9033  143.6410 H   0  0  0  0  0  0  0  0  0  0  0  0  # atno 7974 bound_to 7965
  154.6012  140.2451  155.7790 H   0  0  0  0  0  0  0  0  0  0  0  0  # atno 8008 bound_to 7997
  156.2312  140.2966  156.0145 H   0  0  0  0  0  0  0  0  0  0  0  0  # atno 8009 bound_to 7997
  155.2208  140.0400  157.2938 H   0  0  0  0  0  0  0  0  0  0  0  0  # atno 8010 bound_to 7997
  140.1357  144.4601  150.6839 H   0  0  0  0  0  0  0  0  0  0  0  0  # atno 10167 bound_to 10162
  157.6277  130.9363  150.0350 H   0  0  0  0  0  0  0  0  0  0  0  0  # atno 10718 bound_to 10713
  153.7356  135.6936  153.4979 H   0  0  0  0  0  0  0  0  0  0  0  0  # atno 10763 bound_to 10752
  153.2105  135.4404  155.0373 H   0  0  0  0  0  0  0  0  0  0  0  0  # atno 10764 bound_to 10752
  154.8238  135.3435  154.6884 H   0  0  0  0  0  0  0  0  0  0  0  0  # atno 10765 bound_to 10752
  141.0028  133.6947  156.2054 H   0  0  0  0  0  0  0  0  0  0  0  0  # atno 11005 bound_to 11000
  146.1056  139.4055  143.0320 LP  0  0  0  0  0  0  0  0  0  0  0  0  # atno 17320 bound_to 7965
  145.7517  140.9970  143.1247 LP  0  0  0  0  0  0  0  0  0  0  0  0  # atno 17321 bound_to 7965
  140.6791  143.2318  151.5432 LP  0  0  0  0  0  0  0  0  0  0  0  0  # atno 17342 bound_to 10162
  139.5497  144.2427  152.1508 LP  0  0  0  0  0  0  0  0  0  0  0  0  # atno 17343 bound_to 10162
  156.1460  130.3642  149.9509 LP  0  0  0  0  0  0  0  0  0  0  0  0  # atno 17370 bound_to 10713
  156.7540  130.9126  151.3638 LP  0  0  0  0  0  0  0  0  0  0  0  0  # atno 17371 bound_to 10713
  140.6862  134.4715  157.5589 LP  0  0  0  0  0  0  0  0  0  0  0  0  # atno 17394 bound_to 11000
  139.9047  134.8475  156.1752 LP  0  0  0  0  0  0  0  0  0  0  0  0  # atno 17395 bound_to 11000

$$$$
