AV-unprocessed.smi:2124|AV-procd|sdf|8658|dock2
  -GOLD-   2272011403D 1   1.00000     0.00000
 Structure written by MMmdl.
 47 49  0  0  0  0  0  0  0  0  1 V2000
  148.5401  134.1499  157.4331 C   0  0  0  0  0  0  0  0  0  0  0  0
  149.4179  135.2828  156.9475 C   0  0  0  0  0  0  0  0  0  0  0  0
  148.7294  136.2570  156.2438 N   0  0  0  0  0  0  0  0  0  0  0  0
  149.4436  137.3481  155.7815 C   0  0  0  0  0  0  0  0  0  0  0  0
  148.6090  138.3785  155.0410 C   0  0  0  0  0  0  0  0  0  0  0  0
  150.7799  137.4548  155.9948 C   0  0  0  0  0  0  0  0  0  0  0  0
  151.6012  138.6485  155.5117 C   0  0  0  0  0  0  0  0  0  0  0  0
  151.1237  140.0166  156.0016 C   0  0  0  0  0  0  0  0  0  0  0  0
  150.8960  140.9150  155.1919 O   0  0  0  0  0  0  0  0  0  0  0  0
  150.9746  140.1581  157.3281 N   0  0  0  0  0  0  0  0  0  0  0  0
  150.5243  141.3682  158.0121 C   0  0  2  0  0  0  0  0  0  0  0  0
  149.2158  141.8604  157.3718 C   0  0  0  0  0  0  0  0  0  0  0  0
  151.6463  142.4318  157.9583 C   0  0  2  0  0  0  0  0  0  0  0  0
  152.7223  142.2929  159.0598 C   0  0  0  0  0  0  0  0  0  0  0  0
  152.8259  143.7206  159.6270 C   0  0  2  0  0  0  0  0  0  0  0  0
  151.5824  144.0100  160.4872 C   0  0  0  0  0  0  0  0  0  0  0  0
  150.4730  144.1716  159.4322 C   0  0  0  0  0  0  0  0  0  0  0  0
  151.2197  143.9142  158.1067 C   0  0  1  0  0  0  0  0  0  0  0  0
  152.5627  144.5783  158.3944 C   0  0  0  0  0  0  0  0  0  0  0  0
  151.4661  136.3672  156.7318 C   0  0  0  0  0  0  0  0  0  0  0  0
  152.6796  136.3910  156.9339 O   0  0  0  0  0  0  0  0  0  0  0  0
  150.6918  135.2925  157.1979 N   0  0  0  0  0  0  0  0  0  0  0  0
  147.7365  136.2176  156.0644 H   0  0  0  0  0  0  0  0  0  0  0  0
  149.1222  133.4180  157.9948 H   0  0  0  0  0  0  0  0  0  0  0  0
  148.0746  133.6406  156.5888 H   0  0  0  0  0  0  0  0  0  0  0  0
  147.7540  134.5317  158.0852 H   0  0  0  0  0  0  0  0  0  0  0  0
  148.6510  139.3421  155.5486 H   0  0  0  0  0  0  0  0  0  0  0  0
  147.5622  138.0789  154.9789 H   0  0  0  0  0  0  0  0  0  0  0  0
  148.9785  138.5066  154.0242 H   0  0  0  0  0  0  0  0  0  0  0  0
  151.6406  138.6737  154.4223 H   0  0  0  0  0  0  0  0  0  0  0  0
  152.6371  138.4985  155.8180 H   0  0  0  0  0  0  0  0  0  0  0  0
  151.1864  139.3620  157.9121 H   0  0  0  0  0  0  0  0  0  0  0  0
  150.3270  141.1188  159.0551 H   0  0  0  0  0  0  0  0  0  0  0  0
  148.8203  142.7303  157.8960 H   0  0  0  0  0  0  0  0  0  0  0  0
  148.4465  141.0881  157.4037 H   0  0  0  0  0  0  0  0  0  0  0  0
  149.3648  142.1388  156.3280 H   0  0  0  0  0  0  0  0  0  0  0  0
  152.1444  142.3351  156.9915 H   0  0  0  0  0  0  0  0  0  0  0  0
  152.4498  141.5748  159.8343 H   0  0  0  0  0  0  0  0  0  0  0  0
  153.6709  141.9704  158.6288 H   0  0  0  0  0  0  0  0  0  0  0  0
  153.7674  143.9212  160.1388 H   0  0  0  0  0  0  0  0  0  0  0  0
  151.3709  143.2067  161.1939 H   0  0  0  0  0  0  0  0  0  0  0  0
  151.7075  144.9319  161.0565 H   0  0  0  0  0  0  0  0  0  0  0  0
  149.6308  143.5008  159.5960 H   0  0  0  0  0  0  0  0  0  0  0  0
  150.0807  145.1893  159.4535 H   0  0  0  0  0  0  0  0  0  0  0  0
  150.7032  144.3097  157.2317 H   0  0  0  0  0  0  0  0  0  0  0  0
  152.4815  145.6438  158.6178 H   0  0  0  0  0  0  0  0  0  0  0  0
  153.2989  144.4349  157.6013 H   0  0  0  0  0  0  0  0  0  0  0  0
  1 24  1  0  0  0  0
  1 25  1  0  0  0  0
  1 26  1  0  0  0  0
  1  2  1  0  0  0  0
  2  3  1  0  0  0  0
  2 22  2  0  0  0  0
  3  4  1  0  0  0  0
  3 23  1  0  0  0  0
  4  6  2  0  0  0  0
  4  5  1  0  0  0  0
  5 27  1  0  0  0  0
  5 28  1  0  0  0  0
  5 29  1  0  0  0  0
  6 20  1  0  0  0  0
  6  7  1  0  0  0  0
  7  8  1  0  0  0  0
  7 30  1  0  0  0  0
  7 31  1  0  0  0  0
  8  9  2  0  0  0  0
  8 10  1  0  0  0  0
 10 11  1  0  0  0  0
 10 32  1  0  0  0  0
 11 12  1  0  0  0  0
 11 13  1  0  0  0  0
 11 33  1  0  0  0  0
 12 34  1  0  0  0  0
 12 35  1  0  0  0  0
 12 36  1  0  0  0  0
 13 18  1  0  0  0  0
 13 14  1  0  0  0  0
 13 37  1  0  0  0  0
 14 15  1  0  0  0  0
 14 38  1  0  0  0  0
 14 39  1  0  0  0  0
 15 19  1  0  0  0  0
 15 16  1  0  0  0  0
 15 40  1  0  0  0  0
 16 17  1  0  0  0  0
 16 41  1  0  0  0  0
 16 42  1  0  0  0  0
 17 18  1  0  0  0  0
 17 43  1  0  0  0  0
 17 44  1  0  0  0  0
 18 19  1  0  0  0  0
 18 45  1  0  0  0  0
 19 46  1  0  0  0  0
 19 47  1  0  0  0  0
 20 21  2  0  0  0  0
 20 22  1  0  0  0  0
M  END
> <s_m_source_file>
AV-unprocessed.smi

> <i_m_source_file_index>
2124

> <i_lp_mmshare_version>
43012

> <i_f3d_flags>
0

> <s_epik_input>
W0NIM11jMW5jKFtDSDNdKWMoYyg9TylbbkhdMSlbQ0gyXUMoPU8pW05IXVtDQEhdKFtDSDNdKVtDQEhdKFtDSDJdW0NASF0yMylbQ0BIXShbQ0gyXTMpW0NIMl1bQ0gyXTI=

> <s_epik_cmdline>
J2VwaWtfcHl0aG9uJywgJy1waCcsICc3LjAnLCAnLXRuJywgJzgnLCAnLW1hJywgJzIwMCcsICctbWV0YWxfYmluZGluZycsICctaW1hZScsICc8aW5maWxlLm1hZT4nLCAnLW9tYWUnLCAnPG91dGZpbGUubWFlPic=

> <r_lp_tautomer_probability>
0.156392

> <r_epik_Ionization_Penalty>
0.0139374

> <r_epik_Ionization_Penalty_Charging>
0.0138122

> <r_epik_Ionization_Penalty_Neutral>
0.000125146

> <r_epik_State_Penalty>
1.15342

> <r_epik_Charging_Adjusted_Penalty>
1.16723

> <i_epik_Tot_Q>
0

> <i_epik_Tot_abs_Q>
0

> <r_epik_Metal_State_Penalty>
1.3173

> <b_epik_Metal_Only>
0

> <s_lp_Force_Field>
OPLS_2005

> <r_lp_Energy>
55.868

> <b_lp_Chiralities_Consistent>
1

> <s_lp_Variant>
AV-unprocessed.smi:2124-9

> <Gold.Version>
5.8.1

> <Gold.Id.Protein>
6NUR|6NUR_protein|mol2

> <Gold.PLP.Fitness>
40.4014

> <Gold.PLP.PLP>
-36.4069

> <Gold.PLP.part.hbond>
-3.0000

> <Gold.PLP.part.metal>
0.0000

> <Gold.PLP.part.buried>
-5.1919

> <Gold.PLP.part.nonpolar>
-28.7648

> <Gold.PLP.part.repulsive>
0.1202

> <Gold.PLP.ligand.clash>
0.0000

> <Gold.PLP.ligand.torsion>
0.6896

> <Gold.PLP.Chemscore.Hbond>
1.7840

> <Gold.PLP.Chemscore.CHOScore>
0.0000

> <Gold.PLP.Chemscore.Metal>
0.0000

> <Gold.Chemscore.Hbonds>
donor molecule, donor type, donor heavy atom, donor atom, acceptor molecule, acceptor atom, score
      P1  H  7989  7998       L1     9  0.75
      P1  H 10752 10765       L1    21  0.93

> <Gold.PLP.Chemscore.Internal.Correction>
0.0216

> <Gold.Rescore>
     Score         DG    S(hbond)    S(metal)    S(lipo)     H(rot)  DE(clash)    DE(int)     intcor
     17.26     -19.51       1.87        0.00     102.75       1.65       0.09       2.16       ----

> <Gold.Chemscore.Fitness>
17.2615

> <Gold.Chemscore.DG>
-19.5126

> <Gold.Chemscore.ZeroCoef>
-5.4800

> <Gold.Chemscore.Hbond>
1.8694

> <Gold.Chemscore.Metal>
0.0000

> <Gold.Chemscore.Lipo>
102.7458

> <Gold.Chemscore.Internal_Hbond>
0.0000

> <Gold.Chemscore.DEClash>
0.0932

> <Gold.Chemscore.DEInternal>
2.1578

> <Gold.Chemscore.Rot>
1.6534

> <Gold.Chemscore.Internal.Correction>
   9.000000E+99

> <Gold.Chemscore.Hbonds>
donor molecule, donor type, donor heavy atom, donor atom, acceptor molecule, acceptor atom, score
      P1  H  7989  7998       L1     9  0.75
      P1  H 10752 10765       L1    21  0.27

> <Gold.Chemscore.Hbond.Weighted>
-6.2439

> <Gold.Chemscore.Metal.Weighted>
-0.0000

> <Gold.Chemscore.Lipo.Weighted>
-12.0213

> <Gold.Chemscore.Internal_Hbond.Weighted>
0.0000

> <Gold.Chemscore.DEClash.Weighted>
0.0932

> <Gold.Chemscore.DEInternal.Weighted>
2.1578

> <Gold.Chemscore.Rot.Weighted>
4.2326

> <Gold.Chemscore.Internal.Correction.Weighted>
   9.000000E+99

> <Gold.Protein.RotatedTorsions>
[ 6907 6896 6895 6894 ] final  -39.08 input  -60.11 | X-H torsion
[ 7974 7965 7964 7962 ] final   45.06 input  175.53 | X-H torsion
[ 8008 7997 7996 7995 ] final -155.14 input   59.86 | X-H torsion
[ 10167 10162 10161 10158 ] final   63.47 input  -65.29 | X-H torsion
[ 10718 10713 10712 10709 ] final  140.43 input   66.30 | X-H torsion
[ 10763 10752 10751 10750 ] final -133.31 input  -60.55 | X-H torsion
[ 11005 11000 10999 10996 ] final -170.15 input  -57.11 | X-H torsion

> <Gold.Protein.ActiveResidues>
 VAL166  LYS551  ARG553  GLY616  TRP617  ASP618  TYR619  PRO620  LYS621  CYS622 
 ASP623  PHE694  ASN695  SER759  ASP760  ASP761  ALA762  ILE779  LEU786  VAL792 
 PHE793  MET794  SER795  GLU796  ALA797  LYS798  CYS799  TRP800  GLU811  SER814 

> <Gold.Protein.RotatedAtoms>
  150.9946  134.9273  159.7919 H   0  0  0  0  0  0  0  0  0  0  0  0  # atno 6907 bound_to 6896
  152.5261  134.3235  159.9167 H   0  0  0  0  0  0  0  0  0  0  0  0  # atno 6908 bound_to 6896
  151.3241  133.3986  159.2691 H   0  0  0  0  0  0  0  0  0  0  0  0  # atno 6909 bound_to 6896
  146.0513  139.5005  142.9716 H   0  0  0  0  0  0  0  0  0  0  0  0  # atno 7974 bound_to 7965
  155.6972  140.0762  157.2424 H   0  0  0  0  0  0  0  0  0  0  0  0  # atno 8008 bound_to 7997
  154.4079  140.1654  156.2204 H   0  0  0  0  0  0  0  0  0  0  0  0  # atno 8009 bound_to 7997
  155.9399  140.3385  155.6322 H   0  0  0  0  0  0  0  0  0  0  0  0  # atno 8010 bound_to 7997
  140.1327  144.4628  150.6856 H   0  0  0  0  0  0  0  0  0  0  0  0  # atno 10167 bound_to 10162
  157.4034  131.1019  151.0528 H   0  0  0  0  0  0  0  0  0  0  0  0  # atno 10718 bound_to 10713
  154.8734  135.3770  154.4553 H   0  0  0  0  0  0  0  0  0  0  0  0  # atno 10763 bound_to 10752
  153.5225  135.7028  153.5729 H   0  0  0  0  0  0  0  0  0  0  0  0  # atno 10764 bound_to 10752
  153.3970  135.3958  155.1927 H   0  0  0  0  0  0  0  0  0  0  0  0  # atno 10765 bound_to 10752
  140.5227  134.5693  157.5052 H   0  0  0  0  0  0  0  0  0  0  0  0  # atno 11005 bound_to 11000
  145.6719  141.0214  143.1653 LP  0  0  0  0  0  0  0  0  0  0  0  0  # atno 17320 bound_to 7965
  144.7124  139.8320  143.7410 LP  0  0  0  0  0  0  0  0  0  0  0  0  # atno 17321 bound_to 7965
  140.6807  143.2325  151.5390 LP  0  0  0  0  0  0  0  0  0  0  0  0  # atno 17342 bound_to 10162
  139.5511  144.2392  152.1532 LP  0  0  0  0  0  0  0  0  0  0  0  0  # atno 17343 bound_to 10162
  157.1519  130.6188  149.5585 LP  0  0  0  0  0  0  0  0  0  0  0  0  # atno 17370 bound_to 10713
  155.9829  130.4846  150.6908 LP  0  0  0  0  0  0  0  0  0  0  0  0  # atno 17371 bound_to 10713
  139.9597  134.7474  156.0264 LP  0  0  0  0  0  0  0  0  0  0  0  0  # atno 17394 bound_to 11000
  141.1325  133.6583  156.3504 LP  0  0  0  0  0  0  0  0  0  0  0  0  # atno 17395 bound_to 11000

$$$$
