AV-unprocessed.smi:430|AV-procd|sdf|2546|dock3
  -GOLD-   2262022513D 1   1.00000     0.00000
 Structure written by MMmdl.
 37 38  0  0  0  0  0  0  0  0  1 V2000
  146.9637  139.8679  152.9099 C   0  0  0  0  0  0  0  0  0  0  0  0
  147.5649  139.9143  154.3234 C   0  0  0  0  0  0  0  0  0  0  0  0
  149.0777  140.1565  154.3436 C   0  0  0  0  0  0  0  0  0  0  0  0
  149.5719  141.1408  153.7924 O   0  0  0  0  0  0  0  0  0  0  0  0
  149.8072  139.2354  154.9911 N   0  0  0  0  0  0  0  0  0  0  0  0
  151.2586  139.2711  155.1455 C   0  0  0  0  0  0  0  0  0  0  0  0
  151.7516  139.7152  156.5168 C   0  0  0  0  0  0  0  0  0  0  0  0
  151.1483  140.8162  157.1542 C   0  0  0  0  0  0  0  0  0  0  0  0
  151.6034  141.2103  158.4268 C   0  0  0  0  0  0  0  0  0  0  0  0
  152.6602  140.4889  159.0378 C   0  0  0  0  0  0  0  0  0  0  0  0
  153.1604  140.8247  160.3165 N   0  0  0  0  0  0  0  0  0  0  0  0
  153.0200  142.2010  160.7848 C   0  0  0  0  0  0  0  0  0  0  0  0
  153.3100  142.2912  162.2926 C   0  0  0  0  0  0  0  0  0  0  0  0
  154.5915  141.7380  162.5697 O   0  0  0  0  0  0  0  0  0  0  0  0
  154.6534  140.3585  162.2253 C   0  0  0  0  0  0  0  0  0  0  0  0
  154.4142  140.1856  160.7155 C   0  0  0  0  0  0  0  0  0  0  0  0
  153.2333  139.4265  158.4221 N   0  0  0  0  0  0  0  0  0  0  0  0
  152.7914  139.0521  157.2034 C   0  0  0  0  0  0  0  0  0  0  0  0
  145.8862  139.7102  152.9556 H   0  0  0  0  0  0  0  0  0  0  0  0
  147.3904  139.0544  152.3221 H   0  0  0  0  0  0  0  0  0  0  0  0
  147.1360  140.8008  152.3720 H   0  0  0  0  0  0  0  0  0  0  0  0
  147.0802  140.7040  154.8983 H   0  0  0  0  0  0  0  0  0  0  0  0
  147.3543  138.9767  154.8393 H   0  0  0  0  0  0  0  0  0  0  0  0
  149.3223  138.4576  155.4151 H   0  0  0  0  0  0  0  0  0  0  0  0
  151.6758  138.2907  154.9090 H   0  0  0  0  0  0  0  0  0  0  0  0
  151.6586  139.9613  154.4028 H   0  0  0  0  0  0  0  0  0  0  0  0
  150.3449  141.3560  156.6746 H   0  0  0  0  0  0  0  0  0  0  0  0
  151.1385  142.0619  158.8995 H   0  0  0  0  0  0  0  0  0  0  0  0
  153.7077  142.8419  160.2316 H   0  0  0  0  0  0  0  0  0  0  0  0
  152.0081  142.5632  160.6002 H   0  0  0  0  0  0  0  0  0  0  0  0
  153.2945  143.3322  162.6153 H   0  0  0  0  0  0  0  0  0  0  0  0
  152.5440  141.7688  162.8681 H   0  0  0  0  0  0  0  0  0  0  0  0
  155.6350  139.9695  162.4955 H   0  0  0  0  0  0  0  0  0  0  0  0
  153.9185  139.7943  162.8021 H   0  0  0  0  0  0  0  0  0  0  0  0
  154.4166  139.1210  160.4818 H   0  0  0  0  0  0  0  0  0  0  0  0
  155.2323  140.6373  160.1533 H   0  0  0  0  0  0  0  0  0  0  0  0
  153.2866  138.1938  156.7742 H   0  0  0  0  0  0  0  0  0  0  0  0
  1  2  1  0  0  0  0
  1 19  1  0  0  0  0
  1 20  1  0  0  0  0
  1 21  1  0  0  0  0
  2  3  1  0  0  0  0
  2 22  1  0  0  0  0
  2 23  1  0  0  0  0
  3  4  2  0  0  0  0
  3  5  1  0  0  0  0
  5  6  1  0  0  0  0
  5 24  1  0  0  0  0
  6  7  1  0  0  0  0
  6 25  1  0  0  0  0
  6 26  1  0  0  0  0
  7 18  1  0  0  0  0
  7  8  2  0  0  0  0
  8  9  1  0  0  0  0
  8 27  1  0  0  0  0
  9 10  2  0  0  0  0
  9 28  1  0  0  0  0
 10 11  1  0  0  0  0
 10 17  1  0  0  0  0
 11 16  1  0  0  0  0
 11 12  1  0  0  0  0
 12 13  1  0  0  0  0
 12 29  1  0  0  0  0
 12 30  1  0  0  0  0
 13 14  1  0  0  0  0
 13 31  1  0  0  0  0
 13 32  1  0  0  0  0
 14 15  1  0  0  0  0
 15 16  1  0  0  0  0
 15 33  1  0  0  0  0
 15 34  1  0  0  0  0
 16 35  1  0  0  0  0
 16 36  1  0  0  0  0
 17 18  2  0  0  0  0
 18 37  1  0  0  0  0
M  END
> <s_m_source_file>
AV-unprocessed.smi

> <i_m_source_file_index>
430

> <i_lp_mmshare_version>
43012

> <i_f3d_flags>
0

> <s_epik_input>
W0NIM11bQ0gyXUMoPU8pW05IXVtDSDJdYzFbY0hdW2NIXWMobltjSF0xKU4yW0NIMl1bQ0gyXU9bQ0gyXVtDSDJdMg==

> <s_epik_cmdline>
J2VwaWtfcHl0aG9uJywgJy1waCcsICc3LjAnLCAnLXRuJywgJzgnLCAnLW1hJywgJzIwMCcsICctbWV0YWxfYmluZGluZycsICctaW1hZScsICc8aW5maWxlLm1hZT4nLCAnLW9tYWUnLCAnPG91dGZpbGUubWFlPic=

> <r_lp_tautomer_probability>
1

> <r_epik_Ionization_Penalty>
0.00505548

> <r_epik_Ionization_Penalty_Charging>
0

> <r_epik_Ionization_Penalty_Neutral>
0.00505548

> <r_epik_State_Penalty>
0.00367784

> <r_epik_Charging_Adjusted_Penalty>
0.00367784

> <i_epik_Tot_Q>
0

> <i_epik_Tot_abs_Q>
0

> <r_epik_Metal_State_Penalty>
-0

> <b_epik_Metal_Only>
0

> <s_lp_Force_Field>
OPLS_2005

> <r_lp_Energy>
16.0515

> <b_lp_Chiralities_Consistent>
1

> <s_lp_Variant>
AV-unprocessed.smi:430-1

> <Gold.Version>
5.8.1

> <Gold.Id.Protein>
6NUR|6NUR_protein|mol2

> <Gold.PLP.Fitness>
34.9790

> <Gold.PLP.PLP>
-32.6417

> <Gold.PLP.part.hbond>
-4.0000

> <Gold.PLP.part.metal>
0.0000

> <Gold.PLP.part.buried>
-1.5451

> <Gold.PLP.part.nonpolar>
-28.8296

> <Gold.PLP.part.repulsive>
1.9913

> <Gold.PLP.ligand.clash>
0.0000

> <Gold.PLP.ligand.torsion>
0.8242

> <Gold.PLP.Chemscore.Hbond>
1.1741

> <Gold.PLP.Chemscore.CHOScore>
0.0000

> <Gold.PLP.Chemscore.Metal>
0.0000

> <Gold.Chemscore.Hbonds>
donor molecule, donor type, donor heavy atom, donor atom, acceptor molecule, acceptor atom, score
      P1  H  7989  7998       L1     4  0.28
      P1  H  8011  8017       L1     4  0.90

> <Gold.PLP.Chemscore.Internal.Correction>
0.4635

> <Gold.Rescore>
     Score         DG    S(hbond)    S(metal)    S(lipo)     H(rot)  DE(clash)    DE(int)     intcor
     11.14     -14.48       1.20        0.00      78.11       1.62       2.51       0.83       ----

> <Gold.Chemscore.Fitness>
11.1364

> <Gold.Chemscore.DG>
-14.4771

> <Gold.Chemscore.ZeroCoef>
-5.4800

> <Gold.Chemscore.Hbond>
1.1974

> <Gold.Chemscore.Metal>
0.0000

> <Gold.Chemscore.Lipo>
78.1143

> <Gold.Chemscore.Internal_Hbond>
0.0000

> <Gold.Chemscore.DEClash>
2.5078

> <Gold.Chemscore.DEInternal>
0.8328

> <Gold.Chemscore.Rot>
1.6178

> <Gold.Chemscore.Internal.Correction>
   9.000000E+99

> <Gold.Chemscore.Hbonds>
donor molecule, donor type, donor heavy atom, donor atom, acceptor molecule, acceptor atom, score
      P1  H  7989  7998       L1     4  0.22
      P1  H  8011  8017       L1     4  0.87

> <Gold.Chemscore.Hbond.Weighted>
-3.9993

> <Gold.Chemscore.Metal.Weighted>
-0.0000

> <Gold.Chemscore.Lipo.Weighted>
-9.1394

> <Gold.Chemscore.Internal_Hbond.Weighted>
0.0000

> <Gold.Chemscore.DEClash.Weighted>
2.5078

> <Gold.Chemscore.DEInternal.Weighted>
0.8328

> <Gold.Chemscore.Rot.Weighted>
4.1416

> <Gold.Chemscore.Internal.Correction.Weighted>
   9.000000E+99

> <Gold.Protein.RotatedTorsions>
[ 6907 6896 6895 6894 ] final  176.39 input  -60.11 | X-H torsion
[ 7974 7965 7964 7962 ] final -172.87 input  175.53 | X-H torsion
[ 8008 7997 7996 7995 ] final   30.42 input   59.86 | X-H torsion
[ 10167 10162 10161 10158 ] final   23.48 input  -65.29 | X-H torsion
[ 10718 10713 10712 10709 ] final   15.78 input   66.30 | X-H torsion
[ 10763 10752 10751 10750 ] final -112.52 input  -60.55 | X-H torsion
[ 11005 11000 10999 10996 ] final  123.37 input  -57.11 | X-H torsion

> <Gold.Protein.ActiveResidues>
 VAL166  LYS551  ARG553  GLY616  TRP617  ASP618  TYR619  PRO620  LYS621  CYS622 
 ASP623  PHE694  ASN695  SER759  ASP760  ASP761  ALA762  ILE779  LEU786  VAL792 
 PHE793  MET794  SER795  GLU796  ALA797  LYS798  CYS799  TRP800  GLU811  SER814 

> <Gold.Protein.RotatedAtoms>
  151.7210  133.3314  159.3314 H   0  0  0  0  0  0  0  0  0  0  0  0  # atno 6907 bound_to 6896
  150.7653  134.6448  159.6266 H   0  0  0  0  0  0  0  0  0  0  0  0  # atno 6908 bound_to 6896
  152.3652  134.6817  160.0246 H   0  0  0  0  0  0  0  0  0  0  0  0  # atno 6909 bound_to 6896
  144.7142  140.1707  143.6367 H   0  0  0  0  0  0  0  0  0  0  0  0  # atno 7974 bound_to 7965
  155.0902  140.3219  155.4576 H   0  0  0  0  0  0  0  0  0  0  0  0  # atno 8008 bound_to 7997
  156.2744  140.2079  156.5975 H   0  0  0  0  0  0  0  0  0  0  0  0  # atno 8009 bound_to 7997
  154.6910  140.0516  157.0350 H   0  0  0  0  0  0  0  0  0  0  0  0  # atno 8010 bound_to 7997
  140.5266  143.9913  150.6443 H   0  0  0  0  0  0  0  0  0  0  0  0  # atno 10167 bound_to 10162
  157.0584  130.6299  149.5781 H   0  0  0  0  0  0  0  0  0  0  0  0  # atno 10718 bound_to 10713
  154.8353  135.4488  154.1206 H   0  0  0  0  0  0  0  0  0  0  0  0  # atno 10763 bound_to 10752
  153.2443  135.6920  153.7754 H   0  0  0  0  0  0  0  0  0  0  0  0  # atno 10764 bound_to 10752
  153.7090  135.3359  155.3218 H   0  0  0  0  0  0  0  0  0  0  0  0  # atno 10765 bound_to 10752
  139.9309  134.9641  156.8249 H   0  0  0  0  0  0  0  0  0  0  0  0  # atno 11005 bound_to 11000
  145.8946  139.2395  143.1529 LP  0  0  0  0  0  0  0  0  0  0  0  0  # atno 17320 bound_to 7965
  145.9870  140.8635  143.0085 LP  0  0  0  0  0  0  0  0  0  0  0  0  # atno 17321 bound_to 7965
  140.3276  143.3097  152.0720 LP  0  0  0  0  0  0  0  0  0  0  0  0  # atno 17342 bound_to 10162
  139.4940  144.6531  151.6632 LP  0  0  0  0  0  0  0  0  0  0  0  0  # atno 17343 bound_to 10162
  155.9986  130.5060  150.7576 LP  0  0  0  0  0  0  0  0  0  0  0  0  # atno 17370 bound_to 10713
  157.4974  131.0916  151.0355 LP  0  0  0  0  0  0  0  0  0  0  0  0  # atno 17371 bound_to 10713
  140.6204  133.9999  155.7616 LP  0  0  0  0  0  0  0  0  0  0  0  0  # atno 17394 bound_to 11000
  141.0897  133.9935  157.3256 LP  0  0  0  0  0  0  0  0  0  0  0  0  # atno 17395 bound_to 11000

$$$$
