AV-unprocessed.smi:1914|AV-procd|sdf|7758|dock4
  -GOLD-   22720 9503D 1   1.00000     0.00000
 Structure written by MMmdl.
 44 45  0  0  0  0  0  0  0  0  2 V2000
  147.6228  133.8069  153.2078 C   0  0  0  0  0  0  0  0  0  0  0  0
  146.1943  134.2583  153.5594 C   0  0  2  0  0  0  0  0  0  0  0  0
  145.2470  134.2416  152.3455 C   0  0  0  0  0  0  0  0  0  0  0  0
  145.5404  135.4102  151.3940 C   0  0  0  0  0  0  0  0  0  0  0  0
  145.5263  136.7503  152.1462 C   0  0  0  0  0  0  0  0  0  0  0  0
  146.4820  136.7363  153.2836 N   0  3  1  0  0  0  0  0  0  0  0  0
  146.6014  138.0663  153.9323 C   0  0  0  0  0  0  0  0  0  0  0  0
  146.8167  139.1978  152.9144 C   0  0  0  0  0  0  0  0  0  0  0  0
  147.8449  140.1153  153.3846 N   0  0  0  0  0  0  0  0  0  0  0  0
  147.9343  140.5711  154.6419 C   0  0  0  0  0  0  0  0  0  0  0  0
  147.1487  140.2432  155.5319 O   0  0  0  0  0  0  0  0  0  0  0  0
  149.1033  141.5231  154.9336 C   0  0  0  0  0  0  0  0  0  0  0  0
  150.0584  140.9870  155.9178 N   0  0  0  0  0  0  0  0  0  0  0  0
  149.9873  141.4995  157.2285 C   0  0  0  0  0  0  0  0  0  0  0  0
  150.8108  141.0777  158.2011 C   0  0  0  0  0  0  0  0  0  0  0  0
  151.7918  140.0699  157.8756 C   0  0  0  0  0  0  0  0  0  0  0  0
  151.8704  139.5748  156.6245 C   0  0  0  0  0  0  0  0  0  0  0  0
  150.9722  140.0330  155.5583 C   0  0  0  0  0  0  0  0  0  0  0  0
  151.0361  139.5873  154.4120 O   0  0  0  0  0  0  0  0  0  0  0  0
  146.1733  135.6410  154.2432 C   0  0  0  0  0  0  0  0  0  0  0  0
  148.1077  134.4917  152.5120 H   0  0  0  0  0  0  0  0  0  0  0  0
  147.6197  132.8170  152.7504 H   0  0  0  0  0  0  0  0  0  0  0  0
  148.2455  133.7516  154.1011 H   0  0  0  0  0  0  0  0  0  0  0  0
  145.8117  133.5321  154.2779 H   0  0  0  0  0  0  0  0  0  0  0  0
  145.3201  133.2919  151.8145 H   0  0  0  0  0  0  0  0  0  0  0  0
  144.2160  134.3173  152.6940 H   0  0  0  0  0  0  0  0  0  0  0  0
  146.5092  135.2674  150.9139 H   0  0  0  0  0  0  0  0  0  0  0  0
  144.8027  135.4280  150.5911 H   0  0  0  0  0  0  0  0  0  0  0  0
  145.7884  137.5486  151.4510 H   0  0  0  0  0  0  0  0  0  0  0  0
  144.5222  136.9673  152.5147 H   0  0  0  0  0  0  0  0  0  0  0  0
  145.6833  138.2814  154.4814 H   0  0  0  0  0  0  0  0  0  0  0  0
  147.4047  138.0469  154.6706 H   0  0  0  0  0  0  0  0  0  0  0  0
  147.1222  138.8031  151.9453 H   0  0  0  0  0  0  0  0  0  0  0  0
  145.8850  139.7453  152.7614 H   0  0  0  0  0  0  0  0  0  0  0  0
  148.5297  140.4301  152.7122 H   0  0  0  0  0  0  0  0  0  0  0  0
  149.6051  141.7399  153.9896 H   0  0  0  0  0  0  0  0  0  0  0  0
  148.7165  142.4845  155.2776 H   0  0  0  0  0  0  0  0  0  0  0  0
  149.2316  142.2548  157.3883 H   0  0  0  0  0  0  0  0  0  0  0  0
  150.7438  141.4847  159.1993 H   0  0  0  0  0  0  0  0  0  0  0  0
  152.4674  139.7127  158.6389 H   0  0  0  0  0  0  0  0  0  0  0  0
  152.6116  138.8221  156.3990 H   0  0  0  0  0  0  0  0  0  0  0  0
  145.1896  135.8191  154.6805 H   0  0  0  0  0  0  0  0  0  0  0  0
  146.8821  135.6423  155.0705 H   0  0  0  0  0  0  0  0  0  0  0  0
  147.3873  136.5316  152.8849 H   0  0  0  0  0  0  0  0  0  0  0  0
  1  2  1  0  0  0  0
  1 21  1  0  0  0  0
  1 22  1  0  0  0  0
  1 23  1  0  0  0  0
  2 20  1  0  0  0  0
  2  3  1  0  0  0  0
  2 24  1  0  0  0  0
  3  4  1  0  0  0  0
  3 25  1  0  0  0  0
  3 26  1  0  0  0  0
  4  5  1  0  0  0  0
  4 27  1  0  0  0  0
  4 28  1  0  0  0  0
  5  6  1  0  0  0  0
  5 29  1  0  0  0  0
  5 30  1  0  0  0  0
  6  7  1  0  0  0  0
  6 20  1  0  0  0  0
  6 44  1  0  0  0  0
  7  8  1  0  0  0  0
  7 31  1  0  0  0  0
  7 32  1  0  0  0  0
  8  9  1  0  0  0  0
  8 33  1  0  0  0  0
  8 34  1  0  0  0  0
  9 10  1  0  0  0  0
  9 35  1  0  0  0  0
 10 11  2  0  0  0  0
 10 12  1  0  0  0  0
 12 13  1  0  0  0  0
 12 36  1  0  0  0  0
 12 37  1  0  0  0  0
 13 18  1  0  0  0  0
 13 14  1  0  0  0  0
 14 15  2  0  0  0  0
 14 38  1  0  0  0  0
 15 16  1  0  0  0  0
 15 39  1  0  0  0  0
 16 17  2  0  0  0  0
 16 40  1  0  0  0  0
 17 18  1  0  0  0  0
 17 41  1  0  0  0  0
 18 19  2  0  0  0  0
 20 42  1  0  0  0  0
 20 43  1  0  0  0  0
M  CHG  1   6   1
M  END
> <s_m_source_file>
AV-unprocessed.smi

> <i_m_source_file_index>
1914

> <i_lp_mmshare_version>
43012

> <i_f3d_flags>
0

> <s_epik_input>
W0NIM11bQ0BASF0xW0NIMl1bQ0gyXVtDSDJdTihbQ0gyXTEpW0NIMl1bQ0gyXVtOSF1DKD1PKVtDSDJdbjJbY0hdW2NIXVtjSF1bY0hdYzI9Tw==

> <s_epik_cmdline>
J2VwaWtfcHl0aG9uJywgJy1waCcsICc3LjAnLCAnLXRuJywgJzgnLCAnLW1hJywgJzIwMCcsICctbWV0YWxfYmluZGluZycsICctaW1hZScsICc8aW5maWxlLm1hZT4nLCAnLW9tYWUnLCAnPG91dGZpbGUubWFlPic=

> <r_lp_tautomer_probability>
1

> <r_epik_Ionization_Penalty>
0.00192477

> <r_epik_Ionization_Penalty_Charging>
0.00192469

> <r_epik_Ionization_Penalty_Neutral>
8.16761e-08

> <r_epik_State_Penalty>
0.00131115

> <r_epik_Charging_Adjusted_Penalty>
0.00323584

> <i_epik_Tot_Q>
1

> <i_epik_Tot_abs_Q>
1

> <r_epik_Metal_State_Penalty>
-0

> <b_epik_Metal_Only>
0

> <s_lp_Force_Field>
OPLS_2005

> <r_lp_Energy>
28.3213

> <b_lp_Chiralities_Consistent>
1

> <s_lp_Variant>
AV-unprocessed.smi:1914-3

> <Gold.Version>
5.8.1

> <Gold.Id.Protein>
6NUR|6NUR_protein|mol2

> <Gold.PLP.Fitness>
45.9974

> <Gold.PLP.PLP>
-32.3416

> <Gold.PLP.part.hbond>
-2.9066

> <Gold.PLP.part.metal>
0.0000

> <Gold.PLP.part.buried>
-1.1154

> <Gold.PLP.part.nonpolar>
-27.4504

> <Gold.PLP.part.repulsive>
0.3079

> <Gold.PLP.ligand.clash>
0.0000

> <Gold.PLP.ligand.torsion>
0.6870

> <Gold.PLP.Chemscore.Hbond>
4.0000

> <Gold.PLP.Chemscore.CHOScore>
1.0000

> <Gold.PLP.Chemscore.Metal>
0.0000

> <Gold.Chemscore.Hbonds>
donor molecule, donor type, donor heavy atom, donor atom, acceptor molecule, acceptor atom, score
      L1  H     6    44       P1  7948  2.00
      L1  H     9    35       P1  7957  0.98
      P1  H  7989  7998       L1    19  1.00

> <Gold.PLP.Chemscore.Internal.Correction>
0.0299

> <Gold.Rescore>
     Score         DG    S(hbond)    S(metal)    S(lipo)     H(rot)  DE(clash)    DE(int)     intcor
     14.83     -17.06       2.85        0.00      58.25       1.86       0.03       2.21       ----

> <Gold.Chemscore.Fitness>
14.8289

> <Gold.Chemscore.DG>
-17.0647

> <Gold.Chemscore.ZeroCoef>
-5.4800

> <Gold.Chemscore.Hbond>
2.8525

> <Gold.Chemscore.Metal>
0.0000

> <Gold.Chemscore.Lipo>
58.2517

> <Gold.Chemscore.Internal_Hbond>
0.0000

> <Gold.Chemscore.DEClash>
0.0308

> <Gold.Chemscore.DEInternal>
2.2050

> <Gold.Chemscore.Rot>
1.8586

> <Gold.Chemscore.Internal.Correction>
   9.000000E+99

> <Gold.Chemscore.Hbonds>
donor molecule, donor type, donor heavy atom, donor atom, acceptor molecule, acceptor atom, score
      L1  H     6    44       P1  7948  1.00
      L1  H     9    35       P1  7957  0.92
      P1  H  7989  7998       L1    19  0.50

> <Gold.Chemscore.Hbond.Weighted>
-9.5274

> <Gold.Chemscore.Metal.Weighted>
-0.0000

> <Gold.Chemscore.Lipo.Weighted>
-6.8155

> <Gold.Chemscore.Internal_Hbond.Weighted>
0.0000

> <Gold.Chemscore.DEClash.Weighted>
0.0308

> <Gold.Chemscore.DEInternal.Weighted>
2.2050

> <Gold.Chemscore.Rot.Weighted>
4.7581

> <Gold.Chemscore.Internal.Correction.Weighted>
   9.000000E+99

> <Gold.Protein.RotatedTorsions>
[ 6907 6896 6895 6894 ] final  112.78 input  -60.11 | X-H torsion
[ 7974 7965 7964 7962 ] final  -11.84 input  175.53 | X-H torsion
[ 8008 7997 7996 7995 ] final -153.88 input   59.86 | X-H torsion
[ 10167 10162 10161 10158 ] final   74.46 input  -65.29 | X-H torsion
[ 10718 10713 10712 10709 ] final   31.82 input   66.30 | X-H torsion
[ 10763 10752 10751 10750 ] final -179.51 input  -60.55 | X-H torsion
[ 11005 11000 10999 10996 ] final  -52.05 input  -57.11 | X-H torsion

> <Gold.Protein.ActiveResidues>
 VAL166  LYS551  ARG553  GLY616  TRP617  ASP618  TYR619  PRO620  LYS621  CYS622 
 ASP623  PHE694  ASN695  SER759  ASP760  ASP761  ALA762  ILE779  LEU786  VAL792 
 PHE793  MET794  SER795  GLU796  ALA797  LYS798  CYS799  TRP800  GLU811  SER814 

> <Gold.Protein.RotatedAtoms>
  152.4898  133.8468  159.7180 H   0  0  0  0  0  0  0  0  0  0  0  0  # atno 6907 bound_to 6896
  150.9016  133.7101  159.2884 H   0  0  0  0  0  0  0  0  0  0  0  0  # atno 6908 bound_to 6896
  151.4541  135.1036  159.9758 H   0  0  0  0  0  0  0  0  0  0  0  0  # atno 6909 bound_to 6896
  146.2173  140.2971  142.8372 H   0  0  0  0  0  0  0  0  0  0  0  0  # atno 7974 bound_to 7965
  155.6776  140.0740  157.2496 H   0  0  0  0  0  0  0  0  0  0  0  0  # atno 8008 bound_to 7997
  154.4111  140.1687  156.1999 H   0  0  0  0  0  0  0  0  0  0  0  0  # atno 8009 bound_to 7997
  155.9562  140.3373  155.6454 H   0  0  0  0  0  0  0  0  0  0  0  0  # atno 8010 bound_to 7997
  140.0135  144.5596  150.7639 H   0  0  0  0  0  0  0  0  0  0  0  0  # atno 10167 bound_to 10162
  157.2773  130.7238  149.6537 H   0  0  0  0  0  0  0  0  0  0  0  0  # atno 10718 bound_to 10713
  154.5342  135.2802  155.1153 H   0  0  0  0  0  0  0  0  0  0  0  0  # atno 10763 bound_to 10752
  154.2662  135.6312  153.5296 H   0  0  0  0  0  0  0  0  0  0  0  0  # atno 10764 bound_to 10752
  152.9963  135.5617  154.5863 H   0  0  0  0  0  0  0  0  0  0  0  0  # atno 10765 bound_to 10752
  141.0904  133.6634  156.3967 H   0  0  0  0  0  0  0  0  0  0  0  0  # atno 11005 bound_to 11000
  144.9084  140.7728  143.5823 LP  0  0  0  0  0  0  0  0  0  0  0  0  # atno 17320 bound_to 7965
  145.2900  139.1887  143.4745 LP  0  0  0  0  0  0  0  0  0  0  0  0  # atno 17321 bound_to 7965
  140.7372  143.2762  151.3734 LP  0  0  0  0  0  0  0  0  0  0  0  0  # atno 17342 bound_to 10162
  139.6189  144.0947  152.2372 LP  0  0  0  0  0  0  0  0  0  0  0  0  # atno 17343 bound_to 10162
  155.9664  130.4349  150.5068 LP  0  0  0  0  0  0  0  0  0  0  0  0  # atno 17370 bound_to 10713
  157.3005  131.0644  151.2072 LP  0  0  0  0  0  0  0  0  0  0  0  0  # atno 17371 bound_to 10713
  140.5266  134.6253  157.5336 LP  0  0  0  0  0  0  0  0  0  0  0  0  # atno 17394 bound_to 11000
  139.9728  134.7264  156.0007 LP  0  0  0  0  0  0  0  0  0  0  0  0  # atno 17395 bound_to 11000

$$$$
