AV-unprocessed.smi:265|AV-procd|sdf|2029|dock2
  -GOLD-   2262021233D 1   1.00000     0.00000
 Structure written by MMmdl.
 52 56  0  0  0  0  0  0  0  0  1 V2000
  144.3092  137.4499  154.4485 C   0  0  0  0  0  0  0  0  0  0  0  0
  144.4644  137.2926  152.9279 C   0  0  2  0  0  0  0  0  0  0  0  0
  143.8547  136.0883  152.4656 O   0  0  0  0  0  0  0  0  0  0  0  0
  144.7118  135.4151  151.5505 C   0  0  0  0  0  0  0  0  0  0  0  0
  145.7409  136.4552  151.1198 C   0  0  0  0  0  0  0  0  0  0  0  0
  145.9087  137.2956  152.3784 C   0  0  2  0  0  0  0  0  0  0  0  0
  146.7751  136.6073  153.2651 O   0  0  0  0  0  0  0  0  0  0  0  0
  146.5421  138.6944  152.1601 C   0  0  0  0  0  0  0  0  0  0  0  0
  147.1754  139.2735  153.3348 N   0  0  0  0  0  0  0  0  0  0  0  0
  146.6332  140.2066  154.1914 C   0  0  0  0  0  0  0  0  0  0  0  0
  147.4051  140.5749  155.1776 N   0  0  0  0  0  0  0  0  0  0  0  0
  148.5747  139.8547  154.9732 C   0  0  0  0  0  0  0  0  0  0  0  0
  149.8148  139.7733  155.6574 C   0  0  0  0  0  0  0  0  0  0  0  0
  150.0623  140.4883  156.7747 N   0  0  0  0  0  0  0  0  0  0  0  0
  149.6140  141.8791  156.6923 C   0  0  0  0  0  0  0  0  0  0  0  0
  149.7385  142.5834  158.0568 C   0  0  0  0  0  0  0  0  0  0  0  0
  151.1726  142.4426  158.5856 C   0  0  1  0  0  0  0  0  0  0  0  0
  151.3149  142.9810  159.8914 O   0  0  0  0  0  0  0  0  0  0  0  0
  152.6712  143.0089  160.3508 C   0  0  0  0  0  0  0  0  0  0  0  0
  153.4156  141.6787  160.1045 C   0  0  0  0  0  0  0  0  0  0  0  0
  154.4955  141.4714  160.6533 O   0  0  0  0  0  0  0  0  0  0  0  0
  152.8707  140.7949  159.2523 N   0  0  0  0  0  0  0  0  0  0  0  0
  151.5389  140.9529  158.6838 C   0  0  2  0  0  0  0  0  0  0  0  0
  151.4119  140.2904  157.3026 C   0  0  0  0  0  0  0  0  0  0  0  0
  150.7675  138.9430  155.1580 N   0  0  0  0  0  0  0  0  0  0  0  0
  150.5187  138.2349  154.0516 C   0  0  0  0  0  0  0  0  0  0  0  0
  149.4094  138.2079  153.3089 N   0  0  0  0  0  0  0  0  0  0  0  0
  148.4528  139.0396  153.8140 C   0  0  0  0  0  0  0  0  0  0  0  0
  151.8501  142.9618  157.9040 H   0  0  0  0  0  0  0  0  0  0  0  0
  150.8455  140.4613  159.3688 H   0  0  0  0  0  0  0  0  0  0  0  0
  144.7784  138.3704  154.7960 H   0  0  0  0  0  0  0  0  0  0  0  0
  144.7594  136.6165  154.9881 H   0  0  0  0  0  0  0  0  0  0  0  0
  143.2561  137.4896  154.7269 H   0  0  0  0  0  0  0  0  0  0  0  0
  143.8948  138.0857  152.4461 H   0  0  0  0  0  0  0  0  0  0  0  0
  145.1972  134.5879  152.0696 H   0  0  0  0  0  0  0  0  0  0  0  0
  144.1532  135.0047  150.7089 H   0  0  0  0  0  0  0  0  0  0  0  0
  146.6709  136.0145  150.7587 H   0  0  0  0  0  0  0  0  0  0  0  0
  145.3143  137.0445  150.3091 H   0  0  0  0  0  0  0  0  0  0  0  0
  147.4736  136.2179  152.7619 H   0  0  0  0  0  0  0  0  0  0  0  0
  147.2903  138.6419  151.3677 H   0  0  0  0  0  0  0  0  0  0  0  0
  145.7831  139.3959  151.8108 H   0  0  0  0  0  0  0  0  0  0  0  0
  145.6363  140.6033  154.0647 H   0  0  0  0  0  0  0  0  0  0  0  0
  150.2114  142.4092  155.9489 H   0  0  0  0  0  0  0  0  0  0  0  0
  148.5780  141.9123  156.3522 H   0  0  0  0  0  0  0  0  0  0  0  0
  149.4704  143.6360  157.9629 H   0  0  0  0  0  0  0  0  0  0  0  0
  149.0359  142.1419  158.7649 H   0  0  0  0  0  0  0  0  0  0  0  0
  153.2072  143.8086  159.8381 H   0  0  0  0  0  0  0  0  0  0  0  0
  152.6809  143.2457  161.4149 H   0  0  0  0  0  0  0  0  0  0  0  0
  153.3674  139.9379  159.0567 H   0  0  0  0  0  0  0  0  0  0  0  0
  151.6230  139.2227  157.3797 H   0  0  0  0  0  0  0  0  0  0  0  0
  152.1423  140.7155  156.6125 H   0  0  0  0  0  0  0  0  0  0  0  0
  151.3225  137.5976  153.7136 H   0  0  0  0  0  0  0  0  0  0  0  0
  1  2  1  0  0  0  0
  1 31  1  0  0  0  0
  1 32  1  0  0  0  0
  1 33  1  0  0  0  0
  2  6  1  0  0  0  0
  2  3  1  0  0  0  0
  2 34  1  0  0  0  0
  3  4  1  0  0  0  0
  4  5  1  0  0  0  0
  4 35  1  0  0  0  0
  4 36  1  0  0  0  0
  5  6  1  0  0  0  0
  5 37  1  0  0  0  0
  5 38  1  0  0  0  0
  6  7  1  0  0  0  0
  6  8  1  0  0  0  0
  7 39  1  0  0  0  0
  8  9  1  0  0  0  0
  8 40  1  0  0  0  0
  8 41  1  0  0  0  0
  9 28  1  0  0  0  0
  9 10  1  0  0  0  0
 10 11  2  0  0  0  0
 10 42  1  0  0  0  0
 11 12  1  0  0  0  0
 12 28  2  0  0  0  0
 12 13  1  0  0  0  0
 13 14  1  0  0  0  0
 13 25  2  0  0  0  0
 14 24  1  0  0  0  0
 14 15  1  0  0  0  0
 15 16  1  0  0  0  0
 15 43  1  0  0  0  0
 15 44  1  0  0  0  0
 16 17  1  0  0  0  0
 16 45  1  0  0  0  0
 16 46  1  0  0  0  0
 17 29  1  0  0  0  0
 17 23  1  0  0  0  0
 17 18  1  0  0  0  0
 18 19  1  0  0  0  0
 19 20  1  0  0  0  0
 19 47  1  0  0  0  0
 19 48  1  0  0  0  0
 20 21  2  0  0  0  0
 20 22  1  0  0  0  0
 22 23  1  0  0  0  0
 22 49  1  0  0  0  0
 23 30  1  0  0  0  0
 23 24  1  0  0  0  0
 24 50  1  0  0  0  0
 24 51  1  0  0  0  0
 25 26  1  0  0  0  0
 26 27  2  0  0  0  0
 26 52  1  0  0  0  0
 27 28  1  0  0  0  0
M  END
> <s_m_source_file>
AV-unprocessed.smi

> <i_m_source_file_index>
265

> <i_lp_mmshare_version>
43012

> <i_f3d_flags>
0

> <s_epik_input>
W0NIMl0xW0NIMl1PW0NAQEhdKFtDSDNdKVtDQEBdMShbT0hdKVtDSDJdbihbY0hdbjIpYyhjMjMpbltjSF1uYzNOKFtDSDJdW0NIMl00KVtDSDJdW0NAQEhdKFtDQEhdNDUpW05IXUMoPU8pW0NIMl1PNQ==

> <s_epik_cmdline>
J2VwaWtfcHl0aG9uJywgJy1waCcsICc3LjAnLCAnLXRuJywgJzgnLCAnLW1hJywgJzIwMCcsICctbWV0YWxfYmluZGluZycsICctaW1hZScsICc8aW5maWxlLm1hZT4nLCAnLW9tYWUnLCAnPG91dGZpbGUubWFlPic=

> <r_lp_tautomer_probability>
1

> <r_epik_Ionization_Penalty>
0.00221504

> <r_epik_Ionization_Penalty_Charging>
0

> <r_epik_Ionization_Penalty_Neutral>
0.00221504

> <r_epik_State_Penalty>
-0

> <r_epik_Charging_Adjusted_Penalty>
0

> <i_epik_Tot_Q>
0

> <i_epik_Tot_abs_Q>
0

> <r_epik_Metal_State_Penalty>
-0

> <b_epik_Metal_Only>
0

> <s_lp_Force_Field>
OPLS_2005

> <r_lp_Energy>
49.142

> <b_lp_Chiralities_Consistent>
1

> <s_lp_Variant>
AV-unprocessed.smi:265-15

> <Gold.Version>
5.8.1

> <Gold.Id.Protein>
6NUR|6NUR_protein|mol2

> <Gold.PLP.Fitness>
40.0383

> <Gold.PLP.PLP>
-34.4746

> <Gold.PLP.part.hbond>
-2.1072

> <Gold.PLP.part.metal>
0.0000

> <Gold.PLP.part.buried>
-4.1296

> <Gold.PLP.part.nonpolar>
-35.8995

> <Gold.PLP.part.repulsive>
6.5868

> <Gold.PLP.ligand.clash>
0.0000

> <Gold.PLP.ligand.torsion>
0.9172

> <Gold.PLP.Chemscore.Hbond>
1.0000

> <Gold.PLP.Chemscore.CHOScore>
1.3913

> <Gold.PLP.Chemscore.Metal>
0.0000

> <Gold.Chemscore.Hbonds>
donor molecule, donor type, donor heavy atom, donor atom, acceptor molecule, acceptor atom, score
      L1  H     7    39       P1  7948  1.00
      L1  C    10    42       P1 10175  1.00
      L1  C    26    52       P1  7949  0.40

> <Gold.PLP.Chemscore.Internal.Correction>
0.2240

> <Gold.Rescore>
     Score         DG    S(hbond)    S(metal)    S(lipo)     H(rot)  DE(clash)    DE(int)     intcor
      6.83     -11.60       0.99        0.00      73.18       2.25       1.74       3.03       ----

> <Gold.Chemscore.Fitness>
6.8314

> <Gold.Chemscore.DG>
-11.6028

> <Gold.Chemscore.ZeroCoef>
-5.4800

> <Gold.Chemscore.Hbond>
0.9906

> <Gold.Chemscore.Metal>
0.0000

> <Gold.Chemscore.Lipo>
73.1807

> <Gold.Chemscore.Internal_Hbond>
0.0000

> <Gold.Chemscore.DEClash>
1.7437

> <Gold.Chemscore.DEInternal>
3.0277

> <Gold.Chemscore.Rot>
2.2453

> <Gold.Chemscore.Internal.Correction>
   9.000000E+99

> <Gold.Chemscore.Hbonds>
donor molecule, donor type, donor heavy atom, donor atom, acceptor molecule, acceptor atom, score
      L1  H     7    39       P1  7948  0.98

> <Gold.Chemscore.Hbond.Weighted>
-3.3086

> <Gold.Chemscore.Metal.Weighted>
-0.0000

> <Gold.Chemscore.Lipo.Weighted>
-8.5621

> <Gold.Chemscore.Internal_Hbond.Weighted>
0.0000

> <Gold.Chemscore.DEClash.Weighted>
1.7437

> <Gold.Chemscore.DEInternal.Weighted>
3.0277

> <Gold.Chemscore.Rot.Weighted>
5.7479

> <Gold.Chemscore.Internal.Correction.Weighted>
   9.000000E+99

> <Gold.Protein.RotatedTorsions>
[ 6907 6896 6895 6894 ] final -159.50 input  -60.11 | X-H torsion
[ 7974 7965 7964 7962 ] final -150.95 input  175.53 | X-H torsion
[ 8008 7997 7996 7995 ] final  117.75 input   59.86 | X-H torsion
[ 10167 10162 10161 10158 ] final   85.90 input  -65.29 | X-H torsion
[ 10718 10713 10712 10709 ] final -148.37 input   66.30 | X-H torsion
[ 10763 10752 10751 10750 ] final  169.07 input  -60.55 | X-H torsion
[ 11005 11000 10999 10996 ] final   84.04 input  -57.11 | X-H torsion

> <Gold.Protein.ActiveResidues>
 VAL166  LYS551  ARG553  GLY616  TRP617  ASP618  TYR619  PRO620  LYS621  CYS622 
 ASP623  PHE694  ASN695  SER759  ASP760  ASP761  ALA762  ILE779  LEU786  VAL792 
 PHE793  MET794  SER795  GLU796  ALA797  LYS798  CYS799  TRP800  GLU811  SER814 

> <Gold.Protein.RotatedAtoms>
  151.3346  133.3987  159.2665 H   0  0  0  0  0  0  0  0  0  0  0  0  # atno 6907 bound_to 6896
  150.9928  134.9259  159.7919 H   0  0  0  0  0  0  0  0  0  0  0  0  # atno 6908 bound_to 6896
  152.5252  134.3311  159.9235 H   0  0  0  0  0  0  0  0  0  0  0  0  # atno 6909 bound_to 6896
  144.7878  140.4863  143.5794 H   0  0  0  0  0  0  0  0  0  0  0  0  # atno 7974 bound_to 7965
  156.2510  140.2889  156.0726 H   0  0  0  0  0  0  0  0  0  0  0  0  # atno 8008 bound_to 7997
  155.1654  140.0400  157.2869 H   0  0  0  0  0  0  0  0  0  0  0  0  # atno 8009 bound_to 7997
  154.6363  140.2511  155.7380 H   0  0  0  0  0  0  0  0  0  0  0  0  # atno 8010 bound_to 7997
  139.8930  144.6374  150.8718 H   0  0  0  0  0  0  0  0  0  0  0  0  # atno 10167 bound_to 10162
  156.4194  130.8021  151.2243 H   0  0  0  0  0  0  0  0  0  0  0  0  # atno 10718 bound_to 10713
  154.3778  135.2753  155.2229 H   0  0  0  0  0  0  0  0  0  0  0  0  # atno 10763 bound_to 10752
  154.4348  135.5968  153.6095 H   0  0  0  0  0  0  0  0  0  0  0  0  # atno 10764 bound_to 10752
  152.9835  135.6004  154.4018 H   0  0  0  0  0  0  0  0  0  0  0  0  # atno 10765 bound_to 10752
  139.9012  134.8188  156.2391 H   0  0  0  0  0  0  0  0  0  0  0  0  # atno 11005 bound_to 11000
  145.5876  139.1493  143.3200 LP  0  0  0  0  0  0  0  0  0  0  0  0  # atno 17320 bound_to 7965
  146.2117  140.6003  142.9056 LP  0  0  0  0  0  0  0  0  0  0  0  0  # atno 17321 bound_to 7965
  140.7723  143.3495  151.2042 LP  0  0  0  0  0  0  0  0  0  0  0  0  # atno 17342 bound_to 10162
  139.7093  143.9403  152.2940 LP  0  0  0  0  0  0  0  0  0  0  0  0  # atno 17343 bound_to 10162
  157.7508  131.0233  150.3827 LP  0  0  0  0  0  0  0  0  0  0  0  0  # atno 17370 bound_to 10713
  156.4142  130.3940  149.6870 LP  0  0  0  0  0  0  0  0  0  0  0  0  # atno 17371 bound_to 10713
  141.0297  133.6996  156.1408 LP  0  0  0  0  0  0  0  0  0  0  0  0  # atno 17394 bound_to 11000
  140.7115  134.4456  157.5581 LP  0  0  0  0  0  0  0  0  0  0  0  0  # atno 17395 bound_to 11000

$$$$
