AV-unprocessed.smi:213|AV-procd|sdf|1640|dock2
  -GOLD-   2262020 03D 1   1.00000     0.00000
 Structure written by MMmdl.
 59 62  0  0  0  0  0  0  0  0  2 V2000
  144.4701  136.7931  152.8005 C   0  0  0  0  0  0  0  0  0  0  0  0
  145.9462  136.7899  152.3604 C   0  0  1  0  0  0  0  0  0  0  0  0
  146.1166  136.3422  150.8897 C   0  0  0  0  0  0  0  0  0  0  0  0
  145.8983  134.8860  150.7044 N   0  3  0  0  0  0  0  0  0  0  0  0
  146.7758  134.0675  151.5748 C   0  0  0  0  0  0  0  0  0  0  0  0
  146.5460  132.5688  151.3166 C   0  0  0  0  0  0  0  0  0  0  0  0
  145.1751  132.2535  151.5245 O   0  0  0  0  0  0  0  0  0  0  0  0
  144.3251  132.9656  150.6341 C   0  0  0  0  0  0  0  0  0  0  0  0
  144.4806  134.4774  150.8696 C   0  0  0  0  0  0  0  0  0  0  0  0
  146.5720  138.0986  152.5971 N   0  0  0  0  0  0  0  0  0  0  0  0
  147.0302  138.9006  151.4643 C   0  0  0  0  0  0  0  0  0  0  0  0
  147.1421  138.3669  153.8070 C   0  0  0  0  0  0  0  0  0  0  0  0
  147.5674  137.3361  154.5882 N   0  0  0  0  0  0  0  0  0  0  0  0
  148.1372  137.5654  155.7741 C   0  0  0  0  0  0  0  0  0  0  0  0
  148.3770  138.7328  156.3710 N   0  0  0  0  0  0  0  0  0  0  0  0
  147.9490  139.7745  155.6031 C   0  0  0  0  0  0  0  0  0  0  0  0
  147.3280  139.6850  154.3235 C   0  0  0  0  0  0  0  0  0  0  0  0
  147.0254  140.9634  153.8645 N   0  0  0  0  0  0  0  0  0  0  0  0
  147.4524  141.7575  154.8081 C   0  0  0  0  0  0  0  0  0  0  0  0
  148.0211  141.1254  155.8890 N   0  0  0  0  0  0  0  0  0  0  0  0
  148.5746  141.7543  157.0750 C   0  0  0  0  0  0  0  0  0  0  0  0
  150.1150  141.7245  157.0896 C   0  0  1  0  0  0  0  0  0  0  0  0
  150.6350  142.2749  155.8936 O   0  0  0  0  0  0  0  0  0  0  0  0
  150.7135  142.4336  158.3209 C   0  0  1  0  0  0  0  0  0  0  0  0
  152.2061  142.1869  158.5958 C   0  0  0  0  0  0  0  0  0  0  0  0
  152.7473  143.5654  158.9484 C   0  0  0  0  0  0  0  0  0  0  0  0
  151.4929  144.4097  159.1527 C   0  0  0  0  0  0  0  0  0  0  0  0
  150.5686  143.8451  158.2383 O   0  0  0  0  0  0  0  0  0  0  0  0
  144.0417  135.7922  152.7450 H   0  0  0  0  0  0  0  0  0  0  0  0
  143.8566  137.4448  152.1786 H   0  0  0  0  0  0  0  0  0  0  0  0
  144.3715  137.1292  153.8334 H   0  0  0  0  0  0  0  0  0  0  0  0
  146.4365  136.0691  153.0133 H   0  0  0  0  0  0  0  0  0  0  0  0
  145.4078  136.8948  150.2717 H   0  0  0  0  0  0  0  0  0  0  0  0
  147.1073  136.6010  150.5127 H   0  0  0  0  0  0  0  0  0  0  0  0
  147.8213  134.3144  151.3858 H   0  0  0  0  0  0  0  0  0  0  0  0
  146.5744  134.3023  152.6214 H   0  0  0  0  0  0  0  0  0  0  0  0
  146.8448  132.2969  150.3029 H   0  0  0  0  0  0  0  0  0  0  0  0
  147.1530  131.9730  151.9985 H   0  0  0  0  0  0  0  0  0  0  0  0
  144.5593  132.7055  149.6007 H   0  0  0  0  0  0  0  0  0  0  0  0
  143.2933  132.6620  150.8126 H   0  0  0  0  0  0  0  0  0  0  0  0
  144.1409  134.7322  151.8747 H   0  0  0  0  0  0  0  0  0  0  0  0
  143.8407  135.0168  150.1723 H   0  0  0  0  0  0  0  0  0  0  0  0
  148.0739  139.1948  151.5820 H   0  0  0  0  0  0  0  0  0  0  0  0
  146.4244  139.8024  151.3726 H   0  0  0  0  0  0  0  0  0  0  0  0
  146.9543  138.3541  150.5251 H   0  0  0  0  0  0  0  0  0  0  0  0
  148.4453  136.6879  156.3232 H   0  0  0  0  0  0  0  0  0  0  0  0
  147.3651  142.8322  154.7410 H   0  0  0  0  0  0  0  0  0  0  0  0
  148.2095  142.7809  157.1265 H   0  0  0  0  0  0  0  0  0  0  0  0
  148.1786  141.2382  157.9502 H   0  0  0  0  0  0  0  0  0  0  0  0
  150.4398  140.6839  157.1175 H   0  0  0  0  0  0  0  0  0  0  0  0
  150.1003  143.0140  155.6475 H   0  0  0  0  0  0  0  0  0  0  0  0
  150.1533  142.1186  159.2032 H   0  0  0  0  0  0  0  0  0  0  0  0
  152.3301  141.4860  159.4220 H   0  0  0  0  0  0  0  0  0  0  0  0
  152.7396  141.7781  157.7375 H   0  0  0  0  0  0  0  0  0  0  0  0
  153.3948  143.5574  159.8258 H   0  0  0  0  0  0  0  0  0  0  0  0
  153.3224  143.9595  158.1094 H   0  0  0  0  0  0  0  0  0  0  0  0
  151.1125  144.3030  160.1700 H   0  0  0  0  0  0  0  0  0  0  0  0
  151.6603  145.4688  158.9560 H   0  0  0  0  0  0  0  0  0  0  0  0
  146.1628  134.6723  149.7532 H   0  0  0  0  0  0  0  0  0  0  0  0
  1  2  1  0  0  0  0
  1 29  1  0  0  0  0
  1 30  1  0  0  0  0
  1 31  1  0  0  0  0
  2  3  1  0  0  0  0
  2 10  1  0  0  0  0
  2 32  1  0  0  0  0
  3  4  1  0  0  0  0
  3 33  1  0  0  0  0
  3 34  1  0  0  0  0
  4  9  1  0  0  0  0
  4  5  1  0  0  0  0
  4 59  1  0  0  0  0
  5  6  1  0  0  0  0
  5 35  1  0  0  0  0
  5 36  1  0  0  0  0
  6  7  1  0  0  0  0
  6 37  1  0  0  0  0
  6 38  1  0  0  0  0
  7  8  1  0  0  0  0
  8  9  1  0  0  0  0
  8 39  1  0  0  0  0
  8 40  1  0  0  0  0
  9 41  1  0  0  0  0
  9 42  1  0  0  0  0
 10 11  1  0  0  0  0
 10 12  1  0  0  0  0
 11 43  1  0  0  0  0
 11 44  1  0  0  0  0
 11 45  1  0  0  0  0
 12 17  1  0  0  0  0
 12 13  2  0  0  0  0
 13 14  1  0  0  0  0
 14 15  2  0  0  0  0
 14 46  1  0  0  0  0
 15 16  1  0  0  0  0
 16 20  1  0  0  0  0
 16 17  2  0  0  0  0
 17 18  1  0  0  0  0
 18 19  2  0  0  0  0
 19 20  1  0  0  0  0
 19 47  1  0  0  0  0
 20 21  1  0  0  0  0
 21 22  1  0  0  0  0
 21 48  1  0  0  0  0
 21 49  1  0  0  0  0
 22 23  1  0  0  0  0
 22 24  1  0  0  0  0
 22 50  1  0  0  0  0
 23 51  1  0  0  0  0
 24 28  1  0  0  0  0
 24 25  1  0  0  0  0
 24 52  1  0  0  0  0
 25 26  1  0  0  0  0
 25 53  1  0  0  0  0
 25 54  1  0  0  0  0
 26 27  1  0  0  0  0
 26 55  1  0  0  0  0
 26 56  1  0  0  0  0
 27 28  1  0  0  0  0
 27 57  1  0  0  0  0
 27 58  1  0  0  0  0
M  CHG  1   4   1
M  END
> <s_m_source_file>
AV-unprocessed.smi

> <i_m_source_file_index>
213

> <i_lp_mmshare_version>
43012

> <i_f3d_flags>
0

> <s_epik_input>
W0NIMl0xW0NIMl1PW0NIMl1bQ0gyXU4xW0NIMl1bQ0BASF0oW0NIM10pTihbQ0gzXSljKG5bY0hdbjIpYyhjMjMpbltjSF1uM1tDSDJdW0NASF0oW09IXSlbQ0BASF00W0NIMl1bQ0gyXVtDSDJdTzQ=

> <s_epik_cmdline>
J2VwaWtfcHl0aG9uJywgJy1waCcsICc3LjAnLCAnLXRuJywgJzgnLCAnLW1hJywgJzIwMCcsICctbWV0YWxfYmluZGluZycsICctaW1hZScsICc8aW5maWxlLm1hZT4nLCAnLW9tYWUnLCAnPG91dGZpbGUubWFlPic=

> <r_lp_tautomer_probability>
1

> <r_epik_Ionization_Penalty>
0.399679

> <r_epik_Ionization_Penalty_Charging>
0.399433

> <r_epik_Ionization_Penalty_Neutral>
0.000246213

> <r_epik_State_Penalty>
0.286032

> <r_epik_Charging_Adjusted_Penalty>
0.685465

> <i_epik_Tot_Q>
1

> <i_epik_Tot_abs_Q>
1

> <r_epik_Metal_State_Penalty>
0.286072

> <b_epik_Metal_Only>
0

> <s_lp_Force_Field>
OPLS_2005

> <r_lp_Energy>
46.5476

> <b_lp_Chiralities_Consistent>
1

> <s_lp_Variant>
AV-unprocessed.smi:213-8

> <Gold.Version>
5.8.1

> <Gold.Id.Protein>
6NUR|6NUR_protein|mol2

> <Gold.PLP.Fitness>
49.5174

> <Gold.PLP.PLP>
-42.4721

> <Gold.PLP.part.hbond>
-2.0000

> <Gold.PLP.part.metal>
0.0000

> <Gold.PLP.part.buried>
-1.2205

> <Gold.PLP.part.nonpolar>
-40.4062

> <Gold.PLP.part.repulsive>
0.6463

> <Gold.PLP.ligand.clash>
0.0000

> <Gold.PLP.ligand.torsion>
1.3983

> <Gold.PLP.Chemscore.Hbond>
2.0000

> <Gold.PLP.Chemscore.CHOScore>
1.0000

> <Gold.PLP.Chemscore.Metal>
0.0000

> <Gold.Chemscore.Hbonds>
donor molecule, donor type, donor heavy atom, donor atom, acceptor molecule, acceptor atom, score
      L1  H     4    59       P1  7921  0.80
      L1  H    23    51       P1  8028  0.84
      L1  C    19    47       P1  8028  0.95

> <Gold.PLP.Chemscore.Internal.Correction>
0.8420

> <Gold.Rescore>
     Score         DG    S(hbond)    S(metal)    S(lipo)     H(rot)  DE(clash)    DE(int)     intcor
     14.47     -17.73       1.98        0.00     109.88       2.83       1.70       1.55       ----

> <Gold.Chemscore.Fitness>
14.4735

> <Gold.Chemscore.DG>
-17.7312

> <Gold.Chemscore.ZeroCoef>
-5.4800

> <Gold.Chemscore.Hbond>
1.9845

> <Gold.Chemscore.Metal>
0.0000

> <Gold.Chemscore.Lipo>
109.8801

> <Gold.Chemscore.Internal_Hbond>
0.0000

> <Gold.Chemscore.DEClash>
1.7044

> <Gold.Chemscore.DEInternal>
1.5534

> <Gold.Chemscore.Rot>
2.8254

> <Gold.Chemscore.Internal.Correction>
   9.000000E+99

> <Gold.Chemscore.Hbonds>
donor molecule, donor type, donor heavy atom, donor atom, acceptor molecule, acceptor atom, score
      L1  H     4    59       P1  7921  0.35
      L1  H    23    51       P1  8028  0.84

> <Gold.Chemscore.Hbond.Weighted>
-6.6282

> <Gold.Chemscore.Metal.Weighted>
-0.0000

> <Gold.Chemscore.Lipo.Weighted>
-12.8560

> <Gold.Chemscore.Internal_Hbond.Weighted>
0.0000

> <Gold.Chemscore.DEClash.Weighted>
1.7044

> <Gold.Chemscore.DEInternal.Weighted>
1.5534

> <Gold.Chemscore.Rot.Weighted>
7.2330

> <Gold.Chemscore.Internal.Correction.Weighted>
   9.000000E+99

> <Gold.Protein.RotatedTorsions>
[ 6907 6896 6895 6894 ] final  164.49 input  -60.11 | X-H torsion
[ 7974 7965 7964 7962 ] final   53.28 input  175.53 | X-H torsion
[ 8008 7997 7996 7995 ] final  -42.00 input   59.86 | X-H torsion
[ 10167 10162 10161 10158 ] final -174.34 input  -65.29 | X-H torsion
[ 10718 10713 10712 10709 ] final -106.97 input   66.30 | X-H torsion
[ 10763 10752 10751 10750 ] final  -15.36 input  -60.55 | X-H torsion
[ 11005 11000 10999 10996 ] final   83.91 input  -57.11 | X-H torsion

> <Gold.Protein.ActiveResidues>
 VAL166  LYS551  ARG553  GLY616  TRP617  ASP618  TYR619  PRO620  LYS621  CYS622 
 ASP623  PHE694  ASN695  SER759  ASP760  ASP761  ALA762  ILE779  LEU786  VAL792 
 PHE793  MET794  SER795  GLU796  ALA797  LYS798  CYS799  TRP800  GLU811  SER814 

> <Gold.Protein.RotatedAtoms>
  151.9091  133.3556  159.3856 H   0  0  0  0  0  0  0  0  0  0  0  0  # atno 6907 bound_to 6896
  150.7062  134.4751  159.5453 H   0  0  0  0  0  0  0  0  0  0  0  0  # atno 6908 bound_to 6896
  152.2353  134.8282  160.0519 H   0  0  0  0  0  0  0  0  0  0  0  0  # atno 6909 bound_to 6896
  145.9728  139.4166  143.0179 H   0  0  0  0  0  0  0  0  0  0  0  0  # atno 7974 bound_to 7965
  154.4001  140.1485  156.3283 H   0  0  0  0  0  0  0  0  0  0  0  0  # atno 8008 bound_to 7997
  155.8467  140.3459  155.5645 H   0  0  0  0  0  0  0  0  0  0  0  0  # atno 8009 bound_to 7997
  155.8029  140.0873  157.1938 H   0  0  0  0  0  0  0  0  0  0  0  0  # atno 8010 bound_to 7997
  139.5639  144.1802  152.1282 H   0  0  0  0  0  0  0  0  0  0  0  0  # atno 10167 bound_to 10162
  156.0414  130.5639  150.7755 H   0  0  0  0  0  0  0  0  0  0  0  0  # atno 10718 bound_to 10713
  153.5421  135.7013  153.5631 H   0  0  0  0  0  0  0  0  0  0  0  0  # atno 10763 bound_to 10752
  153.3592  135.3974  155.1705 H   0  0  0  0  0  0  0  0  0  0  0  0  # atno 10764 bound_to 10752
  154.8672  135.3784  154.4926 H   0  0  0  0  0  0  0  0  0  0  0  0  # atno 10765 bound_to 10752
  139.9016  134.8178  156.2373 H   0  0  0  0  0  0  0  0  0  0  0  0  # atno 11005 bound_to 11000
  145.7881  140.9826  143.1063 LP  0  0  0  0  0  0  0  0  0  0  0  0  # atno 17320 bound_to 7965
  144.6841  139.9649  143.7481 LP  0  0  0  0  0  0  0  0  0  0  0  0  # atno 17321 bound_to 7965
  140.1321  144.5278  150.6796 LP  0  0  0  0  0  0  0  0  0  0  0  0  # atno 17342 bound_to 10162
  140.6921  143.2382  151.5101 LP  0  0  0  0  0  0  0  0  0  0  0  0  # atno 17343 bound_to 10162
  157.5237  131.0933  151.0045 LP  0  0  0  0  0  0  0  0  0  0  0  0  # atno 17370 bound_to 10713
  157.0369  130.5733  149.5350 LP  0  0  0  0  0  0  0  0  0  0  0  0  # atno 17371 bound_to 10713
  141.0307  133.6990  156.1426 LP  0  0  0  0  0  0  0  0  0  0  0  0  # atno 17394 bound_to 11000
  140.7100  134.4472  157.5582 LP  0  0  0  0  0  0  0  0  0  0  0  0  # atno 17395 bound_to 11000

$$$$
