AV-unprocessed.smi:1724|AV-procd|sdf|6949|dock3
  -GOLD-   22720 8163D 1   1.00000     0.00000
 Structure written by MMmdl.
 38 39  0  0  0  0  0  0  0  0  1 V2000
  149.6696  133.2041  155.3305 O   0  0  0  0  0  0  0  0  0  0  0  0
  149.1879  134.0670  154.5973 C   0  0  0  0  0  0  0  0  0  0  0  0
  149.5057  135.3671  154.6836 N   0  0  0  0  0  0  0  0  0  0  0  0
  150.4354  135.9532  155.6458 C   0  0  0  0  0  0  0  0  0  0  0  0
  150.0943  137.4213  155.9757 C   0  0  2  0  0  0  0  0  0  0  0  0
  148.5990  137.6424  156.2740 C   0  0  0  0  0  0  0  0  0  0  0  0
  148.3154  139.1325  156.4953 C   0  0  0  0  0  0  0  0  0  0  0  0
  148.8511  139.9625  155.3195 C   0  0  0  0  0  0  0  0  0  0  0  0
  150.2418  139.7134  155.1512 O   0  0  0  0  0  0  0  0  0  0  0  0
  150.5282  138.3566  154.8281 C   0  0  0  0  0  0  0  0  0  0  0  0
  148.3059  133.8549  153.6029 N   0  0  0  0  0  0  0  0  0  0  0  0
  147.7031  132.6563  153.1834 C   0  0  0  0  0  0  0  0  0  0  0  0
  148.2447  131.4184  153.3284 C   0  0  0  0  0  0  0  0  0  0  0  0
  147.5588  130.2181  152.8793 C   0  0  0  0  0  0  0  0  0  0  0  0
  148.2098  128.8466  152.9697 C   0  0  0  0  0  0  0  0  0  0  0  0
  148.3338  128.2902  151.7639 F   0  0  0  0  0  0  0  0  0  0  0  0
  149.4212  128.9259  153.5207 F   0  0  0  0  0  0  0  0  0  0  0  0
  147.4635  128.0405  153.7236 F   0  0  0  0  0  0  0  0  0  0  0  0
  146.3556  130.3945  152.3030 C   0  0  0  0  0  0  0  0  0  0  0  0
  145.7815  131.6606  152.1708 N   0  0  0  0  0  0  0  0  0  0  0  0
  146.3716  132.8085  152.5727 C   0  0  0  0  0  0  0  0  0  0  0  0
  145.7994  133.8870  152.4192 O   0  0  0  0  0  0  0  0  0  0  0  0
  144.8680  131.7079  151.7427 H   0  0  0  0  0  0  0  0  0  0  0  0
  149.0676  136.0043  154.0345 H   0  0  0  0  0  0  0  0  0  0  0  0
  150.3792  135.3537  156.5549 H   0  0  0  0  0  0  0  0  0  0  0  0
  151.4662  135.8725  155.2964 H   0  0  0  0  0  0  0  0  0  0  0  0
  150.6605  137.7059  156.8641 H   0  0  0  0  0  0  0  0  0  0  0  0
  147.9976  137.2747  155.4417 H   0  0  0  0  0  0  0  0  0  0  0  0
  148.2902  137.0803  157.1554 H   0  0  0  0  0  0  0  0  0  0  0  0
  147.2446  139.2982  156.6176 H   0  0  0  0  0  0  0  0  0  0  0  0
  148.7909  139.4625  157.4197 H   0  0  0  0  0  0  0  0  0  0  0  0
  148.3138  139.7282  154.3992 H   0  0  0  0  0  0  0  0  0  0  0  0
  148.7038  141.0253  155.5125 H   0  0  0  0  0  0  0  0  0  0  0  0
  151.6007  138.2659  154.6545 H   0  0  0  0  0  0  0  0  0  0  0  0
  150.0337  138.0852  153.8940 H   0  0  0  0  0  0  0  0  0  0  0  0
  148.0558  134.6621  153.0500 H   0  0  0  0  0  0  0  0  0  0  0  0
  149.2020  131.2816  153.8036 H   0  0  0  0  0  0  0  0  0  0  0  0
  145.7513  129.5952  151.9000 H   0  0  0  0  0  0  0  0  0  0  0  0
  1  2  2  0  0  0  0
  2  3  1  0  0  0  0
  2 11  1  0  0  0  0
  3  4  1  0  0  0  0
  3 24  1  0  0  0  0
  4  5  1  0  0  0  0
  4 25  1  0  0  0  0
  4 26  1  0  0  0  0
  5 10  1  0  0  0  0
  5  6  1  0  0  0  0
  5 27  1  0  0  0  0
  6  7  1  0  0  0  0
  6 28  1  0  0  0  0
  6 29  1  0  0  0  0
  7  8  1  0  0  0  0
  7 30  1  0  0  0  0
  7 31  1  0  0  0  0
  8  9  1  0  0  0  0
  8 32  1  0  0  0  0
  8 33  1  0  0  0  0
  9 10  1  0  0  0  0
 10 34  1  0  0  0  0
 10 35  1  0  0  0  0
 11 12  1  0  0  0  0
 11 36  1  0  0  0  0
 12 21  1  0  0  0  0
 12 13  2  0  0  0  0
 13 14  1  0  0  0  0
 13 37  1  0  0  0  0
 14 15  1  0  0  0  0
 14 19  2  0  0  0  0
 15 16  1  0  0  0  0
 15 17  1  0  0  0  0
 15 18  1  0  0  0  0
 19 20  1  0  0  0  0
 19 38  1  0  0  0  0
 20 23  1  0  0  0  0
 20 21  1  0  0  0  0
 21 22  2  0  0  0  0
M  END
> <s_m_source_file>
AV-unprocessed.smi

> <i_m_source_file_index>
1724

> <i_lp_mmshare_version>
43012

> <i_f3d_flags>
0

> <s_epik_input>
Tz1jMVtuSF1bY0hdYyhDKEYpKEYpRilbY0hdYzFbTkhdQyg9TylbTkhdW0NIMl1bQ0BASF0yW0NIMl1bQ0gyXVtDSDJdT1tDSDJdMg==

> <s_epik_cmdline>
J2VwaWtfcHl0aG9uJywgJy1waCcsICc3LjAnLCAnLXRuJywgJzgnLCAnLW1hJywgJzIwMCcsICctbWV0YWxfYmluZGluZycsICctaW1hZScsICc8aW5maWxlLm1hZT4nLCAnLW9tYWUnLCAnPG91dGZpbGUubWFlPic=

> <r_lp_tautomer_probability>
1

> <r_epik_Ionization_Penalty>
0.00384958

> <r_epik_Ionization_Penalty_Charging>
0.00382926

> <r_epik_Ionization_Penalty_Neutral>
2.03186e-05

> <r_epik_State_Penalty>
-0

> <r_epik_Charging_Adjusted_Penalty>
0.00382926

> <i_epik_Tot_Q>
0

> <i_epik_Tot_abs_Q>
0

> <r_epik_Metal_State_Penalty>
0.371494

> <b_epik_Metal_Only>
0

> <s_lp_Force_Field>
OPLS_2005

> <r_lp_Energy>
21.9541

> <b_lp_Chiralities_Consistent>
1

> <s_lp_Variant>
AV-unprocessed.smi:1724-1

> <Gold.Version>
5.8.1

> <Gold.Id.Protein>
6NUR|6NUR_protein|mol2

> <Gold.PLP.Fitness>
40.9257

> <Gold.PLP.PLP>
-32.8405

> <Gold.PLP.part.hbond>
-3.2328

> <Gold.PLP.part.metal>
0.0000

> <Gold.PLP.part.buried>
-3.8546

> <Gold.PLP.part.nonpolar>
-25.5854

> <Gold.PLP.part.repulsive>
0.3184

> <Gold.PLP.ligand.clash>
0.0000

> <Gold.PLP.ligand.torsion>
0.4802

> <Gold.PLP.Chemscore.Hbond>
3.0000

> <Gold.PLP.Chemscore.CHOScore>
0.0000

> <Gold.PLP.Chemscore.Metal>
0.0000

> <Gold.Chemscore.Hbonds>
donor molecule, donor type, donor heavy atom, donor atom, acceptor molecule, acceptor atom, score
      L1  H     3    24       P1  7948  0.47
      L1  H    11    36       P1  7948  0.60

> <Gold.PLP.Chemscore.Internal.Correction>
0.0455

> <Gold.Rescore>
     Score         DG    S(hbond)    S(metal)    S(lipo)     H(rot)  DE(clash)    DE(int)     intcor
     14.39     -15.91       2.09        0.00      58.58       1.33       0.03       1.50       ----

> <Gold.Chemscore.Fitness>
14.3881

> <Gold.Chemscore.DG>
-15.9125

> <Gold.Chemscore.ZeroCoef>
-5.4800

> <Gold.Chemscore.Hbond>
2.0941

> <Gold.Chemscore.Metal>
0.0000

> <Gold.Chemscore.Lipo>
58.5819

> <Gold.Chemscore.Internal_Hbond>
0.0000

> <Gold.Chemscore.DEClash>
0.0291

> <Gold.Chemscore.DEInternal>
1.4953

> <Gold.Chemscore.Rot>
1.3344

> <Gold.Chemscore.Internal.Correction>
   9.000000E+99

> <Gold.Chemscore.Hbonds>
donor molecule, donor type, donor heavy atom, donor atom, acceptor molecule, acceptor atom, score
      L1  H     3    24       P1  7948  0.45
      L1  H    11    36       P1  7948  0.47
      P1  H  7989  7998       L1     9  0.01

> <Gold.Chemscore.Hbond.Weighted>
-6.9944

> <Gold.Chemscore.Metal.Weighted>
-0.0000

> <Gold.Chemscore.Lipo.Weighted>
-6.8541

> <Gold.Chemscore.Internal_Hbond.Weighted>
0.0000

> <Gold.Chemscore.DEClash.Weighted>
0.0291

> <Gold.Chemscore.DEInternal.Weighted>
1.4953

> <Gold.Chemscore.Rot.Weighted>
3.4160

> <Gold.Chemscore.Internal.Correction.Weighted>
   9.000000E+99

> <Gold.Protein.RotatedTorsions>
[ 6907 6896 6895 6894 ] final  100.10 input  -60.11 | X-H torsion
[ 7974 7965 7964 7962 ] final   83.86 input  175.53 | X-H torsion
[ 8008 7997 7996 7995 ] final   -6.97 input   59.86 | X-H torsion
[ 10167 10162 10161 10158 ] final  -32.99 input  -65.29 | X-H torsion
[ 10718 10713 10712 10709 ] final -117.33 input   66.30 | X-H torsion
[ 10763 10752 10751 10750 ] final   -7.48 input  -60.55 | X-H torsion
[ 11005 11000 10999 10996 ] final  -52.10 input  -57.11 | X-H torsion

> <Gold.Protein.ActiveResidues>
 VAL166  LYS551  ARG553  GLY616  TRP617  ASP618  TYR619  PRO620  LYS621  CYS622 
 ASP623  PHE694  ASN695  SER759  ASP760  ASP761  ALA762  ILE779  LEU786  VAL792 
 PHE793  MET794  SER795  GLU796  ALA797  LYS798  CYS799  TRP800  GLU811  SER814 

> <Gold.Protein.RotatedAtoms>
  152.5379  134.0327  159.8031 H   0  0  0  0  0  0  0  0  0  0  0  0  # atno 6907 bound_to 6896
  151.0496  133.5628  159.2651 H   0  0  0  0  0  0  0  0  0  0  0  0  # atno 6908 bound_to 6896
  151.2567  135.0648  159.9136 H   0  0  0  0  0  0  0  0  0  0  0  0  # atno 6909 bound_to 6896
  145.6063  139.2361  143.2217 H   0  0  0  0  0  0  0  0  0  0  0  0  # atno 7974 bound_to 7965
  154.5884  140.2419  155.7954 H   0  0  0  0  0  0  0  0  0  0  0  0  # atno 8008 bound_to 7997
  156.2230  140.2991  155.9953 H   0  0  0  0  0  0  0  0  0  0  0  0  # atno 8009 bound_to 7997
  155.2417  140.0407  157.2966 H   0  0  0  0  0  0  0  0  0  0  0  0  # atno 8010 bound_to 7997
  140.7212  143.3653  151.1883 H   0  0  0  0  0  0  0  0  0  0  0  0  # atno 10167 bound_to 10162
  156.1026  130.6184  150.9150 H   0  0  0  0  0  0  0  0  0  0  0  0  # atno 10718 bound_to 10713
  153.4270  135.7011  153.6256 H   0  0  0  0  0  0  0  0  0  0  0  0  # atno 10763 bound_to 10752
  153.4687  135.3720  155.2379 H   0  0  0  0  0  0  0  0  0  0  0  0  # atno 10764 bound_to 10752
  154.8724  135.4037  154.3647 H   0  0  0  0  0  0  0  0  0  0  0  0  # atno 10765 bound_to 10752
  141.0906  133.6633  156.3975 H   0  0  0  0  0  0  0  0  0  0  0  0  # atno 11005 bound_to 11000
  146.1538  140.6887  142.9309 LP  0  0  0  0  0  0  0  0  0  0  0  0  # atno 17320 bound_to 7965
  144.7288  140.4609  143.6953 LP  0  0  0  0  0  0  0  0  0  0  0  0  # atno 17321 bound_to 7965
  139.7213  143.9218  152.2986 LP  0  0  0  0  0  0  0  0  0  0  0  0  # atno 17342 bound_to 10162
  139.8976  144.6930  150.8701 LP  0  0  0  0  0  0  0  0  0  0  0  0  # atno 17343 bound_to 10162
  157.6198  131.0930  150.8643 LP  0  0  0  0  0  0  0  0  0  0  0  0  # atno 17370 bound_to 10713
  156.8768  130.5165  149.5293 LP  0  0  0  0  0  0  0  0  0  0  0  0  # atno 17371 bound_to 10713
  140.5260  134.6258  157.5334 LP  0  0  0  0  0  0  0  0  0  0  0  0  # atno 17394 bound_to 11000
  139.9732  134.7259  156.0001 LP  0  0  0  0  0  0  0  0  0  0  0  0  # atno 17395 bound_to 11000

$$$$
