#       Name:                AV-unprocessed.smi:3272
#       Creating user name   scv26
#       Creation time:       Fri Mar 27 18:43:06 2020


#       File generated by GOLD software.
#

@<TRIPOS>MOLECULE
AV-unprocessed.smi:3272
    40    41     1
SMALL
NO_CHARGES


@<TRIPOS>ATOM
      1 ****        -6.0261   0.3825  -1.4104 C.3            1 S1                 0.0000
      2 ****        -5.2670   0.1753  -0.0944 C.3            1 S1                 0.0000
      3 ****        -3.9859   0.8539  -0.1015 N.pl3          1 S1                 0.0000
      4 ****        -2.7331   0.3104  -0.3061 C.2            1 S1                 0.0000
      5 ****        -1.8592   1.3575  -0.2254 C.2            1 S1                 0.0000
      6 ****        -0.4487   1.3657  -0.3688 N.am           1 S1                 0.0000
      7 ****         0.3577   0.3094  -0.5623 C.2            1 S1                 0.0000
      8 ****        -0.0135  -0.8629  -0.6199 O.2            1 S1                 0.0000
      9 ****         1.6377   0.6913  -0.6777 N.am           1 S1                 0.0000
     10 ****         2.7750  -0.2013  -0.8769 C.3            1 S1                 0.0000
     11 ****         3.5221  -0.4731   0.4417 C.3            1 S1                 0.0000
     12 ****         4.7466  -1.3505   0.2827 C.3            1 S1                 0.0000
     13 ****         4.9904  -1.8193   1.7143 C.3            1 S1                 0.0000
     14 ****         3.7094  -1.8586   2.3372 O.3            1 S1                 0.0000
     15 ****         2.7335  -1.2654   1.4860 C.3            1 S1                 0.0000
     16 ****        -2.6529   2.5057   0.0301 C.2            1 S1                 0.0000
     17 ****        -3.9375   2.1931   0.1059 N.2            1 S1                 0.0000
     18 ****        -6.9803  -0.1442  -1.3946 H              1 S1                 0.0000
     19 ****        -5.4521   0.0076  -2.2583 H              1 S1                 0.0000
     20 ****        -6.2327   1.4388  -1.5853 H              1 S1                 0.0000
     21 ****        -5.8559   0.5434   0.7468 H              1 S1                 0.0000
     22 ****        -5.0972  -0.8880   0.0786 H              1 S1                 0.0000
     23 ****        -2.5878  -0.7439  -0.4901 H              1 S1                 0.0000
     24 ****        -0.0076   2.2724  -0.3200 H              1 S1                 0.0000
     25 ****         1.8438   1.6776  -0.6170 H              1 S1                 0.0000
     26 ****         2.4629  -1.1376  -1.3432 H              1 S1                 0.0000
     27 ****         3.4507   0.2789  -1.5850 H              1 S1                 0.0000
     28 ****         3.8341   0.4748   0.8838 H              1 S1                 0.0000
     29 ****         4.5221  -2.2057  -0.3567 H              1 S1                 0.0000
     30 ****         5.6011  -0.8226  -0.1415 H              1 S1                 0.0000
     31 ****         5.4831  -2.7911   1.7546 H              1 S1                 0.0000
     32 ****         5.6133  -1.1015   2.2494 H              1 S1                 0.0000
     33 ****         2.0411  -0.6411   2.0513 H              1 S1                 0.0000
     34 ****         2.1597  -2.0637   1.0133 H              1 S1                 0.0000
     35 ****        -2.3473   3.5335   0.1599 H              1 S1                 0.0000
     36 ****        -0.9831  -1.0859  -0.5193 LP             1 S1                 0.0000
     37 ****         0.6546  -1.5923  -0.7673 LP             1 S1                 0.0000
     38 ****         3.7456  -1.3550   3.2003 LP             1 S1                 0.0000
     39 ****         3.4578  -2.8097   2.5166 LP             1 S1                 0.0000
     40 ****        -4.7050   2.8104   0.2785 LP             1 S1                 0.0000
@<TRIPOS>BOND
    1    1    2 1     
    2    1   18 1     
    3    1   19 1     
    4    1   20 1     
    5    2    3 1     
    6    2   21 1     
    7    2   22 1     
    8    3   17 1     
    9    3    4 1     
   10    4    5 2     
   11    4   23 1     
   12    5    6 1     
   13    5   16 1     
   14    6    7 am    
   15    6   24 1     
   16    7    8 2     
   17    7    9 am    
   18    9   10 1     
   19    9   25 1     
   20   10   11 1     
   21   10   26 1     
   22   10   27 1     
   23   11   15 1     
   24   11   12 1     
   25   11   28 1     
   26   12   13 1     
   27   12   29 1     
   28   12   30 1     
   29   13   14 1     
   30   13   31 1     
   31   13   32 1     
   32   14   15 1     
   33   15   33 1     
   34   15   34 1     
   35   16   17 2     
   36   16   35 1     
   37    8   36 1     
   38    8   37 1     
   39   14   38 1     
   40   14   39 1     
   41   17   40 1     
@<TRIPOS>SUBSTRUCTURE
      1 S1             1
@<TRIPOS>SET
LONE_PAIRS      STATIC     ATOMS    <user>   **** ""
5 36 37 38 39 40
DONOR_HYDROGENS      STATIC     ATOMS    <user>   **** ""
2 24 25
ATOM$BLUE        STATIC     ATOMS    COLORGROUP SYSTEM
5 36 37 38 39 40
ATOM$RED        STATIC     ATOMS    COLORGROUP SYSTEM
2 24 25
