AV-unprocessed.smi:36|AV-procd|sdf|290|dock10
  -GOLD-   2262016 83D 1   1.00000     0.00000
 Structure written by MMmdl.
 64 67  0  0  0  0  0  0  0  0  1 V2000
  150.3456  130.4213  154.8168 C   0  0  0  0  0  0  0  0  0  0  0  0
  151.3660  129.8486  155.8144 C   0  0  0  0  0  0  0  0  0  0  0  0
  151.9048  128.5042  155.2977 C   0  0  0  0  0  0  0  0  0  0  0  0
  152.5302  130.8366  155.9970 C   0  0  0  0  0  0  0  0  0  0  0  0
  150.5174  129.5715  157.5037 Si  0  0  0  0  0  0  0  0  0  0  0  0
  149.1005  128.3132  157.3580 C   0  0  0  0  0  0  0  0  0  0  0  0
  151.7642  128.9888  158.8137 C   0  0  0  0  0  0  0  0  0  0  0  0
  149.8710  131.0504  158.0086 O   0  0  0  0  0  0  0  0  0  0  0  0
  149.0945  131.2028  159.1778 C   0  0  0  0  0  0  0  0  0  0  0  0
  148.5103  132.6222  159.2038 C   0  0  1  0  0  0  0  0  0  0  0  0
  149.2016  133.4830  158.2985 O   0  0  0  0  0  0  0  0  0  0  0  0
  148.3127  134.3853  157.7107 C   0  0  2  0  0  0  0  0  0  0  0  0
  148.8200  135.7750  157.9243 N   0  0  0  0  0  0  0  0  0  0  0  0
  148.8925  136.4206  159.1033 C   0  0  0  0  0  0  0  0  0  0  0  0
  149.3829  137.6559  159.0492 N   0  0  0  0  0  0  0  0  0  0  0  0
  149.6464  137.8190  157.6932 C   0  0  0  0  0  0  0  0  0  0  0  0
  150.2067  138.9765  156.9628 C   0  0  0  0  0  0  0  0  0  0  0  0
  150.5346  140.0249  157.6558 N   0  0  0  0  0  0  0  0  0  0  0  0
  151.0643  141.1418  157.0229 C   0  0  0  0  0  0  0  0  0  0  0  0
  151.1946  141.3572  155.8146 O   0  0  0  0  0  0  0  0  0  0  0  0
  151.5744  142.1732  157.9762 C   0  0  0  0  0  0  0  0  0  0  0  0
  152.0370  141.7885  159.2527 C   0  0  0  0  0  0  0  0  0  0  0  0
  152.5125  142.7607  160.1544 C   0  0  0  0  0  0  0  0  0  0  0  0
  152.5246  144.1196  159.7838 C   0  0  0  0  0  0  0  0  0  0  0  0
  152.0598  144.5070  158.5119 C   0  0  0  0  0  0  0  0  0  0  0  0
  151.5845  143.5358  157.6089 C   0  0  0  0  0  0  0  0  0  0  0  0
  150.2784  138.6858  155.5943 N   0  0  0  0  0  0  0  0  0  0  0  0
  149.8964  137.4793  154.9883 C   0  0  0  0  0  0  0  0  0  0  0  0
  149.4105  136.4463  155.6230 N   0  0  0  0  0  0  0  0  0  0  0  0
  149.3070  136.6848  156.9867 C   0  0  0  0  0  0  0  0  0  0  0  0
  146.9475  134.1904  158.3732 C   0  0  0  0  0  0  0  0  0  0  0  0
  147.0301  132.7447  158.8164 C   0  0  1  0  0  0  0  0  0  0  0  0
  146.6807  131.8724  157.7577 O   0  0  0  0  0  0  0  0  0  0  0  0
  150.7983  130.5867  153.8386 H   0  0  0  0  0  0  0  0  0  0  0  0
  149.9476  131.3766  155.1598 H   0  0  0  0  0  0  0  0  0  0  0  0
  149.5025  129.7444  154.6777 H   0  0  0  0  0  0  0  0  0  0  0  0
  151.1008  127.7820  155.1540 H   0  0  0  0  0  0  0  0  0  0  0  0
  152.6173  128.0680  155.9985 H   0  0  0  0  0  0  0  0  0  0  0  0
  152.4141  128.6224  154.3407 H   0  0  0  0  0  0  0  0  0  0  0  0
  153.0550  131.0098  155.0568 H   0  0  0  0  0  0  0  0  0  0  0  0
  153.2586  130.4616  156.7169 H   0  0  0  0  0  0  0  0  0  0  0  0
  152.1786  131.8031  156.3587 H   0  0  0  0  0  0  0  0  0  0  0  0
  149.4550  127.3516  156.9881 H   0  0  0  0  0  0  0  0  0  0  0  0
  148.3261  128.6603  156.6744 H   0  0  0  0  0  0  0  0  0  0  0  0
  148.6244  128.1327  158.3214 H   0  0  0  0  0  0  0  0  0  0  0  0
  152.2386  128.0508  158.5269 H   0  0  0  0  0  0  0  0  0  0  0  0
  151.2825  128.8269  159.7777 H   0  0  0  0  0  0  0  0  0  0  0  0
  152.5563  129.7213  158.9669 H   0  0  0  0  0  0  0  0  0  0  0  0
  148.3046  130.4523  159.2129 H   0  0  0  0  0  0  0  0  0  0  0  0
  149.7400  131.0439  160.0423 H   0  0  0  0  0  0  0  0  0  0  0  0
  148.6269  133.0369  160.2061 H   0  0  0  0  0  0  0  0  0  0  0  0
  148.2943  134.2399  156.6297 H   0  0  0  0  0  0  0  0  0  0  0  0
  148.5792  135.9686  160.0329 H   0  0  0  0  0  0  0  0  0  0  0  0
  152.0299  140.7479  159.5448 H   0  0  0  0  0  0  0  0  0  0  0  0
  152.8671  142.4642  161.1307 H   0  0  0  0  0  0  0  0  0  0  0  0
  152.8887  144.8645  160.4759 H   0  0  0  0  0  0  0  0  0  0  0  0
  152.0666  145.5494  158.2293 H   0  0  0  0  0  0  0  0  0  0  0  0
  151.2275  143.8409  156.6357 H   0  0  0  0  0  0  0  0  0  0  0  0
  150.0393  137.4611  153.9069 H   0  0  0  0  0  0  0  0  0  0  0  0
  146.8578  134.8428  159.2430 H   0  0  0  0  0  0  0  0  0  0  0  0
  146.1320  134.4082  157.6827 H   0  0  0  0  0  0  0  0  0  0  0  0
  146.3725  132.5409  159.6620 H   0  0  0  0  0  0  0  0  0  0  0  0
  146.0900  131.2164  158.0951 H   0  0  0  0  0  0  0  0  0  0  0  0
  150.6433  139.4090  154.9910 H   0  0  0  0  0  0  0  0  0  0  0  0
  1  2  1  0  0  0  0
  1 34  1  0  0  0  0
  1 35  1  0  0  0  0
  1 36  1  0  0  0  0
  2  3  1  0  0  0  0
  2  4  1  0  0  0  0
  2  5  1  0  0  0  0
  3 37  1  0  0  0  0
  3 38  1  0  0  0  0
  3 39  1  0  0  0  0
  4 40  1  0  0  0  0
  4 41  1  0  0  0  0
  4 42  1  0  0  0  0
  5  6  1  0  0  0  0
  5  7  1  0  0  0  0
  5  8  1  0  0  0  0
  6 43  1  0  0  0  0
  6 44  1  0  0  0  0
  6 45  1  0  0  0  0
  7 46  1  0  0  0  0
  7 47  1  0  0  0  0
  7 48  1  0  0  0  0
  8  9  1  0  0  0  0
  9 10  1  0  0  0  0
  9 49  1  0  0  0  0
  9 50  1  0  0  0  0
 10 32  1  0  0  0  0
 10 11  1  0  0  0  0
 10 51  1  0  0  0  0
 11 12  1  0  0  0  0
 12 13  1  0  0  0  0
 12 31  1  0  0  0  0
 12 52  1  0  0  0  0
 13 30  1  0  0  0  0
 13 14  1  0  0  0  0
 14 15  2  0  0  0  0
 14 53  1  0  0  0  0
 15 16  1  0  0  0  0
 16 30  2  0  0  0  0
 16 17  1  0  0  0  0
 17 18  2  0  0  0  0
 17 27  1  0  0  0  0
 18 19  1  0  0  0  0
 19 20  2  0  0  0  0
 19 21  1  0  0  0  0
 21 26  1  0  0  0  0
 21 22  2  0  0  0  0
 22 23  1  0  0  0  0
 22 54  1  0  0  0  0
 23 24  2  0  0  0  0
 23 55  1  0  0  0  0
 24 25  1  0  0  0  0
 24 56  1  0  0  0  0
 25 26  2  0  0  0  0
 25 57  1  0  0  0  0
 26 58  1  0  0  0  0
 27 28  1  0  0  0  0
 27 64  1  0  0  0  0
 28 29  2  0  0  0  0
 28 59  1  0  0  0  0
 29 30  1  0  0  0  0
 31 32  1  0  0  0  0
 31 60  1  0  0  0  0
 31 61  1  0  0  0  0
 32 33  1  0  0  0  0
 32 62  1  0  0  0  0
 33 63  1  0  0  0  0
M  END
> <s_m_source_file>
AV-unprocessed.smi

> <i_m_source_file_index>
36

> <i_lp_mmshare_version>
43012

> <i_f3d_flags>
0

> <s_epik_input>
W0NIM11DKFtDSDNdKShbQ0gzXSlbU2ldKFtDSDNdKShbQ0gzXSlPW0NIMl1bQ0BASF0xT1tDQEhdKFtDSDJdW0NASF0xW09IXSluKFtjSF1uMiljKGMyMyluW2NIXW5jM1tOSF1DKD1PKWM0W2NIXVtjSF1bY0hdW2NIXVtjSF00

> <s_epik_cmdline>
J2VwaWtfcHl0aG9uJywgJy1waCcsICc3LjAnLCAnLXRuJywgJzgnLCAnLW1hJywgJzIwMCcsICctbWV0YWxfYmluZGluZycsICctaW1hZScsICc8aW5maWxlLm1hZT4nLCAnLW9tYWUnLCAnPG91dGZpbGUubWFlPic=

> <r_epik_Ionization_Penalty>
0.0850405

> <r_epik_Ionization_Penalty_Charging>
0.0850403

> <r_epik_Ionization_Penalty_Neutral>
1.47497e-07

> <r_epik_State_Penalty>
2.6133

> <r_epik_Charging_Adjusted_Penalty>
2.69834

> <i_epik_Tot_Q>
0

> <i_epik_Tot_abs_Q>
0

> <r_epik_Metal_State_Penalty>
2.92945

> <b_epik_Metal_Only>
0

> <s_epik_Chemistry_Notes>
This compound contains an acetal/aminal-like group ( X-CH(R)-Y where X, Y are N, S, or O) that may be acid/base labile, releasing an aldehyde.

> <s_lp_Force_Field>
OPLS_2005

> <r_lp_Energy>
50.4083

> <b_lp_Chiralities_Consistent>
1

> <s_lp_Variant>
AV-unprocessed.smi:36-12

> <Gold.Version>
5.8.1

> <Gold.Id.Protein>
6NUR|6NUR_protein|mol2

> <Gold.PLP.Fitness>
42.7345

> <Gold.PLP.PLP>
-39.1312

> <Gold.PLP.part.hbond>
-1.8583

> <Gold.PLP.part.metal>
0.0000

> <Gold.PLP.part.buried>
-5.1244

> <Gold.PLP.part.nonpolar>
-33.0135

> <Gold.PLP.part.repulsive>
0.1675

> <Gold.PLP.ligand.clash>
0.0000

> <Gold.PLP.ligand.torsion>
1.1776

> <Gold.PLP.Chemscore.Hbond>
0.9500

> <Gold.PLP.Chemscore.CHOScore>
1.0000

> <Gold.PLP.Chemscore.Metal>
0.0000

> <Gold.Chemscore.Hbonds>
donor molecule, donor type, donor heavy atom, donor atom, acceptor molecule, acceptor atom, score
      P1  H  6896  6907       L1    11  1.00
      P1  H  7989  7998       L1    20  0.06
      L1  C    28    59       P1  7948  0.87

> <Gold.PLP.Chemscore.Internal.Correction>
0.1085

> <Gold.Rescore>
     Score         DG    S(hbond)    S(metal)    S(lipo)     H(rot)  DE(clash)    DE(int)     intcor
     13.05     -14.38       1.46        0.00      93.56       2.70       0.12       1.21       ----

> <Gold.Chemscore.Fitness>
13.0506

> <Gold.Chemscore.DG>
-14.3832

> <Gold.Chemscore.ZeroCoef>
-5.4800

> <Gold.Chemscore.Hbond>
1.4609

> <Gold.Chemscore.Metal>
0.0000

> <Gold.Chemscore.Lipo>
93.5576

> <Gold.Chemscore.Internal_Hbond>
0.0000

> <Gold.Chemscore.DEClash>
0.1187

> <Gold.Chemscore.DEInternal>
1.2139

> <Gold.Chemscore.Rot>
2.7041

> <Gold.Chemscore.Internal.Correction>
   9.000000E+99

> <Gold.Chemscore.Hbonds>
donor molecule, donor type, donor heavy atom, donor atom, acceptor molecule, acceptor atom, score
      P1  H  6896  6907       L1    11  0.30
      P1  H  7989  7998       L1    20  0.07

> <Gold.Chemscore.Hbond.Weighted>
-4.8794

> <Gold.Chemscore.Metal.Weighted>
-0.0000

> <Gold.Chemscore.Lipo.Weighted>
-10.9462

> <Gold.Chemscore.Internal_Hbond.Weighted>
0.0000

> <Gold.Chemscore.DEClash.Weighted>
0.1187

> <Gold.Chemscore.DEInternal.Weighted>
1.2139

> <Gold.Chemscore.Rot.Weighted>
6.9225

> <Gold.Chemscore.Internal.Correction.Weighted>
   9.000000E+99

> <Gold.Protein.RotatedTorsions>
[ 6907 6896 6895 6894 ] final -107.33 input  -60.11 | X-H torsion
[ 7974 7965 7964 7962 ] final  -14.04 input  175.53 | X-H torsion
[ 8008 7997 7996 7995 ] final  -66.46 input   59.86 | X-H torsion
[ 10167 10162 10161 10158 ] final -158.09 input  -65.29 | X-H torsion
[ 10718 10713 10712 10709 ] final  108.91 input   66.30 | X-H torsion
[ 10763 10752 10751 10750 ] final   25.39 input  -60.55 | X-H torsion
[ 11005 11000 10999 10996 ] final  127.44 input  -57.11 | X-H torsion

> <Gold.Protein.ActiveResidues>
 VAL166  LYS551  ARG553  GLY616  TRP617  ASP618  TYR619  PRO620  LYS621  CYS622 
 ASP623  PHE694  ASN695  SER759  ASP760  ASP761  ALA762  ILE779  LEU786  VAL792 
 PHE793  MET794  SER795  GLU796  ALA797  LYS798  CYS799  TRP800  GLU811  SER814 

> <Gold.Protein.RotatedAtoms>
  150.7438  133.9843  159.3586 H   0  0  0  0  0  0  0  0  0  0  0  0  # atno 6907 bound_to 6896
  151.7786  135.0765  160.0380 H   0  0  0  0  0  0  0  0  0  0  0  0  # atno 6908 bound_to 6896
  152.3289  133.5900  159.5832 H   0  0  0  0  0  0  0  0  0  0  0  0  # atno 6909 bound_to 6896
  146.2090  140.3291  142.8397 H   0  0  0  0  0  0  0  0  0  0  0  0  # atno 7974 bound_to 7965
  154.4736  140.0912  156.7206 H   0  0  0  0  0  0  0  0  0  0  0  0  # atno 8008 bound_to 7997
  155.4657  140.3462  155.4300 H   0  0  0  0  0  0  0  0  0  0  0  0  # atno 8009 bound_to 7997
  156.1079  140.1440  156.9367 H   0  0  0  0  0  0  0  0  0  0  0  0  # atno 8010 bound_to 7997
  139.6719  143.9729  152.2289 H   0  0  0  0  0  0  0  0  0  0  0  0  # atno 10167 bound_to 10162
  157.6565  131.0903  150.6375 H   0  0  0  0  0  0  0  0  0  0  0  0  # atno 10718 bound_to 10713
  153.0695  135.6584  154.0279 H   0  0  0  0  0  0  0  0  0  0  0  0  # atno 10763 bound_to 10752
  153.9928  135.2944  155.3412 H   0  0  0  0  0  0  0  0  0  0  0  0  # atno 10764 bound_to 10752
  154.7065  135.5223  153.8672 H   0  0  0  0  0  0  0  0  0  0  0  0  # atno 10765 bound_to 10752
  139.9507  134.9622  156.8855 H   0  0  0  0  0  0  0  0  0  0  0  0  # atno 11005 bound_to 11000
  144.8865  140.7469  143.5953 LP  0  0  0  0  0  0  0  0  0  0  0  0  # atno 17320 bound_to 7965
  145.3212  139.1788  143.4587 LP  0  0  0  0  0  0  0  0  0  0  0  0  # atno 17321 bound_to 7965
  139.9496  144.6629  150.8185 LP  0  0  0  0  0  0  0  0  0  0  0  0  # atno 17342 bound_to 10162
  140.7621  143.3191  151.2664 LP  0  0  0  0  0  0  0  0  0  0  0  0  # atno 17343 bound_to 10162
  156.6682  130.4532  149.5666 LP  0  0  0  0  0  0  0  0  0  0  0  0  # atno 17370 bound_to 10713
  156.2017  130.6624  151.1175 LP  0  0  0  0  0  0  0  0  0  0  0  0  # atno 17371 bound_to 10713
  140.5725  134.0429  155.7435 LP  0  0  0  0  0  0  0  0  0  0  0  0  # atno 17394 bound_to 11000
  141.1169  133.9525  157.2804 LP  0  0  0  0  0  0  0  0  0  0  0  0  # atno 17395 bound_to 11000

$$$$
