AV-unprocessed.smi:922|AV-procd|sdf|4174|dock8
  -GOLD-   22720 2 83D 1   1.00000     0.00000
 Structure written by MMmdl.
 32 33  0  0  0  0  0  0  0  0  2 V2000
  153.7002  142.0496  161.2918 C   0  0  0  0  0  0  0  0  0  0  0  0
  152.9614  142.0925  159.9506 C   0  0  1  0  0  0  0  0  0  0  0  0
  152.3302  140.7324  159.5995 C   0  0  0  0  0  0  0  0  0  0  0  0
  151.5401  140.8393  158.3803 N   0  0  0  0  0  0  0  0  0  0  0  0
  151.6703  140.0145  157.2619 C   0  0  0  0  0  0  0  0  0  0  0  0
  151.5939  140.6116  155.9054 C   0  0  0  0  0  0  0  0  0  0  0  0
  151.7024  139.9223  154.8401 N   0  0  0  0  0  0  0  0  0  0  0  0
  151.9037  138.4929  154.8984 N   0  5  0  0  0  0  0  0  0  0  0  0
  151.9970  137.8623  156.1076 C   0  0  0  0  0  0  0  0  0  0  0  0
  152.1784  136.6489  156.1957 O   0  0  0  0  0  0  0  0  0  0  0  0
  151.8745  138.6683  157.3299 C   0  0  0  0  0  0  0  0  0  0  0  0
  152.0585  137.8408  158.8427 Cl  0  0  0  0  0  0  0  0  0  0  0  0
  150.4992  141.8506  158.5210 C   0  0  0  0  0  0  0  0  0  0  0  0
  151.1059  143.2256  158.8828 C   0  0  0  0  0  0  0  0  0  0  0  0
  151.8960  143.8375  157.7058 C   0  0  0  0  0  0  0  0  0  0  0  0
  149.9860  144.1923  159.2971 C   0  0  0  0  0  0  0  0  0  0  0  0
  151.9351  143.0818  160.0424 O   0  0  0  0  0  0  0  0  0  0  0  0
  154.5086  141.3183  161.2702 H   0  0  0  0  0  0  0  0  0  0  0  0
  153.0263  141.7811  162.1058 H   0  0  0  0  0  0  0  0  0  0  0  0
  154.1367  143.0207  161.5267 H   0  0  0  0  0  0  0  0  0  0  0  0
  153.6786  142.3827  159.1841 H   0  0  0  0  0  0  0  0  0  0  0  0
  153.0962  139.9635  159.4984 H   0  0  0  0  0  0  0  0  0  0  0  0
  151.6752  140.4054  160.4080 H   0  0  0  0  0  0  0  0  0  0  0  0
  151.4329  141.6921  155.8688 H   0  0  0  0  0  0  0  0  0  0  0  0
  149.9194  141.9369  157.6012 H   0  0  0  0  0  0  0  0  0  0  0  0
  149.8068  141.5242  159.2980 H   0  0  0  0  0  0  0  0  0  0  0  0
  151.2374  144.0478  156.8627 H   0  0  0  0  0  0  0  0  0  0  0  0
  152.6768  143.1735  157.3365 H   0  0  0  0  0  0  0  0  0  0  0  0
  152.3699  144.7753  157.9961 H   0  0  0  0  0  0  0  0  0  0  0  0
  149.2817  144.3565  158.4807 H   0  0  0  0  0  0  0  0  0  0  0  0
  150.3894  145.1628  159.5879 H   0  0  0  0  0  0  0  0  0  0  0  0
  149.4232  143.8038  160.1464 H   0  0  0  0  0  0  0  0  0  0  0  0
  1  2  1  0  0  0  0
  1 18  1  0  0  0  0
  1 19  1  0  0  0  0
  1 20  1  0  0  0  0
  2 17  1  0  0  0  0
  2  3  1  0  0  0  0
  2 21  1  0  0  0  0
  3  4  1  0  0  0  0
  3 22  1  0  0  0  0
  3 23  1  0  0  0  0
  4  5  1  0  0  0  0
  4 13  1  0  0  0  0
  5 11  2  0  0  0  0
  5  6  1  0  0  0  0
  6  7  2  0  0  0  0
  6 24  1  0  0  0  0
  7  8  1  0  0  0  0
  8  9  1  0  0  0  0
  9 10  2  0  0  0  0
  9 11  1  0  0  0  0
 11 12  1  0  0  0  0
 13 14  1  0  0  0  0
 13 25  1  0  0  0  0
 13 26  1  0  0  0  0
 14 15  1  0  0  0  0
 14 16  1  0  0  0  0
 14 17  1  0  0  0  0
 15 27  1  0  0  0  0
 15 28  1  0  0  0  0
 15 29  1  0  0  0  0
 16 30  1  0  0  0  0
 16 31  1  0  0  0  0
 16 32  1  0  0  0  0
M  CHG  1   8  -1
M  END
> <s_m_source_file>
AV-unprocessed.smi

> <i_m_source_file_index>
922

> <i_lp_mmshare_version>
43012

> <i_f3d_flags>
0

> <s_epik_input>
W0NIM11bQ0BASF0oTzEpW0NIMl1OKFtDSDJdQzEoW0NIM10pW0NIM10pYzJbY0hdbltuSF1jKD1PKWMyQ2w=

> <s_epik_cmdline>
J2VwaWtfcHl0aG9uJywgJy1waCcsICc3LjAnLCAnLXRuJywgJzgnLCAnLW1hJywgJzIwMCcsICctbWV0YWxfYmluZGluZycsICctaW1hZScsICc8aW5maWxlLm1hZT4nLCAnLW9tYWUnLCAnPG91dGZpbGUubWFlPic=

> <r_lp_tautomer_probability>
1

> <r_epik_Ionization_Penalty>
2.48086

> <r_epik_Ionization_Penalty_Charging>
0.00187014

> <r_epik_Ionization_Penalty_Neutral>
2.47899

> <r_epik_State_Penalty>
0.0455822

> <r_epik_Charging_Adjusted_Penalty>
0.0474524

> <i_epik_Tot_Q>
-1

> <i_epik_Tot_abs_Q>
1

> <r_epik_Metal_State_Penalty>
0.000768086

> <b_epik_Metal_Only>
0

> <s_lp_Force_Field>
OPLS_2005

> <r_lp_Energy>
41.3096

> <b_lp_Chiralities_Consistent>
1

> <s_lp_Variant>
AV-unprocessed.smi:922-2

> <Gold.Version>
5.8.1

> <Gold.Id.Protein>
6NUR|6NUR_protein|mol2

> <Gold.PLP.Fitness>
37.1039

> <Gold.PLP.PLP>
-31.5596

> <Gold.PLP.part.hbond>
-2.0000

> <Gold.PLP.part.metal>
0.0000

> <Gold.PLP.part.buried>
-5.9552

> <Gold.PLP.part.nonpolar>
-23.2995

> <Gold.PLP.part.repulsive>
0.1383

> <Gold.PLP.ligand.clash>
0.0000

> <Gold.PLP.ligand.torsion>
0.7082

> <Gold.PLP.Chemscore.Hbond>
2.0000

> <Gold.PLP.Chemscore.CHOScore>
0.0000

> <Gold.PLP.Chemscore.Metal>
0.0000

> <Gold.Chemscore.Hbonds>
donor molecule, donor type, donor heavy atom, donor atom, acceptor molecule, acceptor atom, score
      P1  H  7989  7998       L1     7  1.00
      P1  H 10752 10764       L1    10  1.00

> <Gold.PLP.Chemscore.Internal.Correction>
0.9607

> <Gold.Rescore>
     Score         DG    S(hbond)    S(metal)    S(lipo)     H(rot)  DE(clash)    DE(int)     intcor
     20.05     -21.68       1.88        0.00      84.82       0.00       0.05       1.59       ----

> <Gold.Chemscore.Fitness>
20.0471

> <Gold.Chemscore.DG>
-21.6828

> <Gold.Chemscore.ZeroCoef>
-5.4800

> <Gold.Chemscore.Hbond>
1.8799

> <Gold.Chemscore.Metal>
0.0000

> <Gold.Chemscore.Lipo>
84.8207

> <Gold.Chemscore.Internal_Hbond>
0.0000

> <Gold.Chemscore.DEClash>
0.0462

> <Gold.Chemscore.DEInternal>
1.5895

> <Gold.Chemscore.Rot>
0.0000

> <Gold.Chemscore.Internal.Correction>
   9.000000E+99

> <Gold.Chemscore.Hbonds>
donor molecule, donor type, donor heavy atom, donor atom, acceptor molecule, acceptor atom, score
      P1  H  7989  7998       L1     7  0.79
      P1  H 10752 10764       L1    10  0.98

> <Gold.Chemscore.Hbond.Weighted>
-6.2788

> <Gold.Chemscore.Metal.Weighted>
-0.0000

> <Gold.Chemscore.Lipo.Weighted>
-9.9240

> <Gold.Chemscore.Internal_Hbond.Weighted>
0.0000

> <Gold.Chemscore.DEClash.Weighted>
0.0462

> <Gold.Chemscore.DEInternal.Weighted>
1.5895

> <Gold.Chemscore.Rot.Weighted>
0.0000

> <Gold.Chemscore.Internal.Correction.Weighted>
   9.000000E+99

> <Gold.Protein.RotatedTorsions>
[ 6907 6896 6895 6894 ] final  113.90 input  -60.11 | X-H torsion
[ 7974 7965 7964 7962 ] final  147.48 input  175.53 | X-H torsion
[ 8008 7997 7996 7995 ] final -159.90 input   59.86 | X-H torsion
[ 10167 10162 10161 10158 ] final -148.65 input  -65.29 | X-H torsion
[ 10718 10713 10712 10709 ] final  -82.34 input   66.30 | X-H torsion
[ 10763 10752 10751 10750 ] final  -23.04 input  -60.55 | X-H torsion
[ 11005 11000 10999 10996 ] final   13.46 input  -57.11 | X-H torsion

> <Gold.Protein.ActiveResidues>
 VAL166  LYS551  ARG553  GLY616  TRP617  ASP618  TYR619  PRO620  LYS621  CYS622 
 ASP623  PHE694  ASN695  SER759  ASP760  ASP761  ALA762  ILE779  LEU786  VAL792 
 PHE793  MET794  SER795  GLU796  ALA797  LYS798  CYS799  TRP800  GLU811  SER814 

> <Gold.Protein.RotatedAtoms>
  152.4834  133.8311  159.7103 H   0  0  0  0  0  0  0  0  0  0  0  0  # atno 6907 bound_to 6896
  150.8901  133.7245  159.2913 H   0  0  0  0  0  0  0  0  0  0  0  0  # atno 6908 bound_to 6896
  151.4721  135.1050  159.9806 H   0  0  0  0  0  0  0  0  0  0  0  0  # atno 6909 bound_to 6896
  144.8588  139.6034  143.5940 H   0  0  0  0  0  0  0  0  0  0  0  0  # atno 7974 bound_to 7965
  155.7695  140.0850  157.2115 H   0  0  0  0  0  0  0  0  0  0  0  0  # atno 8008 bound_to 7997
  154.3997  140.1528  156.2982 H   0  0  0  0  0  0  0  0  0  0  0  0  # atno 8009 bound_to 7997
  155.8761  140.3423  155.5857 H   0  0  0  0  0  0  0  0  0  0  0  0  # atno 8010 bound_to 7997
  139.7512  143.8515  152.2587 H   0  0  0  0  0  0  0  0  0  0  0  0  # atno 10167 bound_to 10162
  156.0035  130.4631  150.4089 H   0  0  0  0  0  0  0  0  0  0  0  0  # atno 10718 bound_to 10713
  153.6616  135.6976  153.5176 H   0  0  0  0  0  0  0  0  0  0  0  0  # atno 10763 bound_to 10752
  153.2627  135.4239  155.0910 H   0  0  0  0  0  0  0  0  0  0  0  0  # atno 10764 bound_to 10752
  154.8450  135.3559  154.6160 H   0  0  0  0  0  0  0  0  0  0  0  0  # atno 10765 bound_to 10752
  140.4805  134.0940  155.7750 H   0  0  0  0  0  0  0  0  0  0  0  0  # atno 11005 bound_to 11000
  146.2844  139.6965  142.9206 LP  0  0  0  0  0  0  0  0  0  0  0  0  # atno 17320 bound_to 7965
  145.4352  141.0418  143.2888 LP  0  0  0  0  0  0  0  0  0  0  0  0  # atno 17321 bound_to 7965
  139.8494  144.7172  150.9233 LP  0  0  0  0  0  0  0  0  0  0  0  0  # atno 17342 bound_to 10162
  140.7798  143.3913  151.1306 LP  0  0  0  0  0  0  0  0  0  0  0  0  # atno 17343 bound_to 10162
  157.2153  131.0470  151.2576 LP  0  0  0  0  0  0  0  0  0  0  0  0  # atno 17370 bound_to 10713
  157.3851  130.7252  149.6657 LP  0  0  0  0  0  0  0  0  0  0  0  0  # atno 17371 bound_to 10713
  141.1533  133.8928  157.2041 LP  0  0  0  0  0  0  0  0  0  0  0  0  # atno 17394 bound_to 11000
  139.9829  135.0092  156.9793 LP  0  0  0  0  0  0  0  0  0  0  0  0  # atno 17395 bound_to 11000

$$$$
