#       Name:                AV-unprocessed.smi:203
#       Creating user name   scv26
#       Creation time:       Thu Mar 26 19:49:40 2020


#       File generated by GOLD software.
#

@<TRIPOS>MOLECULE
AV-unprocessed.smi:203
    67    71     1
SMALL
NO_CHARGES


@<TRIPOS>ATOM
      1 ****        -5.4176   2.0685  -3.1149 O.2            1 S1                 0.0000
      2 ****        -4.5605   1.2991  -2.6871 C.2            1 S1                 0.0000
      3 ****        -3.5647   1.6713  -1.6020 C.3            1 S1                 0.0000
      4 ****        -2.8916   0.3284  -1.2512 C.3            1 S1                 0.0000
      5 ****        -3.2588  -0.2313   0.1601 C.3            1 S1                 0.0000
      6 ****        -4.7784  -0.5018   0.3227 C.3            1 S1                 0.0000
      7 ****        -5.1122  -1.0546   1.7145 C.3            1 S1                 0.0000
      8 ****        -4.5924  -0.0989   2.7936 C.3            1 S1                 0.0000
      9 ****        -3.0884   0.1440   2.6110 C.3            1 S1                 0.0000
     10 ****        -2.7860   0.6251   1.2632 N.3            1 S1                 0.0000
     11 ****        -1.5037   1.0470   1.1916 C.ar           1 S1                 0.0000
     12 ****        -1.2924   2.3858   1.1913 N.ar           1 S1                 0.0000
     13 ****        -0.0472   2.8644   1.1099 C.ar           1 S1                 0.0000
     14 ****         1.1028   2.1915   1.0259 N.ar           1 S1                 0.0000
     15 ****         0.8913   0.8441   1.0353 C.ar           1 S1                 0.0000
     16 ****        -0.3697   0.1898   1.1168 C.ar           1 S1                 0.0000
     17 ****        -0.1914  -1.1885   1.0999 N.2            1 S1                 0.0000
     18 ****         1.1017  -1.3404   1.0089 C.2            1 S1                 0.0000
     19 ****         1.8273  -0.1720   0.9605 N.pl3          1 S1                 0.0000
     20 ****         3.2713  -0.0545   0.8528 C.3            1 S1                 0.0000
     21 ****         3.7714  -0.2687  -0.5919 C.3            1 S1                 0.0000
     22 ****         3.1703   0.7126  -1.4150 O.3            1 S1                 0.0000
     23 ****         5.3006  -0.1286  -0.7341 C.3            1 S1                 0.0000
     24 ****         6.1189  -0.9728   0.2457 C.3            1 S1                 0.0000
     25 ****         7.4507  -1.1565  -0.4626 C.3            1 S1                 0.0000
     26 ****         7.1356  -0.8335  -1.9247 C.3            1 S1                 0.0000
     27 ****         5.7243  -0.6768  -1.9739 O.3            1 S1                 0.0000
     28 ****        -3.2807  -0.6224  -2.4036 C.3            1 S1                 0.0000
     29 ****        -4.3670   0.0460  -3.0934 N.am           1 S1                 0.0000
     30 ****        -2.8405   2.3779  -2.0085 H              1 S1                 0.0000
     31 ****        -4.0571   2.1450  -0.7523 H              1 S1                 0.0000
     32 ****        -1.8106   0.4573  -1.3114 H              1 S1                 0.0000
     33 ****        -2.7536  -1.1917   0.2681 H              1 S1                 0.0000
     34 ****        -5.3449   0.4166   0.1680 H              1 S1                 0.0000
     35 ****        -5.1315  -1.2068  -0.4290 H              1 S1                 0.0000
     36 ****        -6.1893  -1.1890   1.8177 H              1 S1                 0.0000
     37 ****        -4.6587  -2.0385   1.8405 H              1 S1                 0.0000
     38 ****        -5.1276   0.8500   2.7358 H              1 S1                 0.0000
     39 ****        -4.7884  -0.5083   3.7849 H              1 S1                 0.0000
     40 ****        -2.7455   0.8682   3.3516 H              1 S1                 0.0000
     41 ****        -2.5422  -0.7822   2.7961 H              1 S1                 0.0000
     42 ****         0.0399   3.9409   1.1103 H              1 S1                 0.0000
     43 ****         1.5661  -2.3153   0.9700 H              1 S1                 0.0000
     44 ****         3.5753   0.9259   1.2221 H              1 S1                 0.0000
     45 ****         3.7121  -0.7899   1.5261 H              1 S1                 0.0000
     46 ****         3.4602  -1.2556  -0.9369 H              1 S1                 0.0000
     47 ****         2.2317   0.6412  -1.3306 H              1 S1                 0.0000
     48 ****         5.6088   0.9168  -0.6653 H              1 S1                 0.0000
     49 ****         6.2240  -0.5031   1.2241 H              1 S1                 0.0000
     50 ****         5.6467  -1.9461   0.3872 H              1 S1                 0.0000
     51 ****         8.2047  -0.4704  -0.0751 H              1 S1                 0.0000
     52 ****         7.8249  -2.1733  -0.3401 H              1 S1                 0.0000
     53 ****         7.6131   0.1005  -2.2244 H              1 S1                 0.0000
     54 ****         7.4640  -1.6186  -2.6062 H              1 S1                 0.0000
     55 ****        -2.4504  -0.7472  -3.0999 H              1 S1                 0.0000
     56 ****        -3.5755  -1.6154  -2.0643 H              1 S1                 0.0000
     57 ****        -4.9175  -0.4075  -3.8083 H              1 S1                 0.0000
     58 ****        -6.0465   1.7678  -3.8319 LP             1 S1                 0.0000
     59 ****        -5.4864   2.9955  -2.7461 LP             1 S1                 0.0000
     60 ****        -3.3544   1.4317   1.1008 LP             1 S1                 0.0000
     61 ****        -2.0674   3.0149   1.2519 LP             1 S1                 0.0000
     62 ****         2.0040   2.6205   0.9640 LP             1 S1                 0.0000
     63 ****        -0.8925  -1.9000   1.1467 LP             1 S1                 0.0000
     64 ****         3.4356   0.5626  -2.3674 LP             1 S1                 0.0000
     65 ****         3.4666   1.6229  -1.1259 LP             1 S1                 0.0000
     66 ****         5.4772  -0.0590  -2.7204 LP             1 S1                 0.0000
     67 ****         5.2889  -1.5653  -2.1186 LP             1 S1                 0.0000
@<TRIPOS>BOND
    1    1    2 2     
    2    2   29 am    
    3    2    3 1     
    4    3    4 1     
    5    3   30 1     
    6    3   31 1     
    7    4    5 1     
    8    4   28 1     
    9    4   32 1     
   10    5   10 1     
   11    5    6 1     
   12    5   33 1     
   13    6    7 1     
   14    6   34 1     
   15    6   35 1     
   16    7    8 1     
   17    7   36 1     
   18    7   37 1     
   19    8    9 1     
   20    8   38 1     
   21    8   39 1     
   22    9   10 1     
   23    9   40 1     
   24    9   41 1     
   25   10   11 1     
   26   11   16 ar    
   27   11   12 ar    
   28   12   13 ar    
   29   13   14 ar    
   30   13   42 1     
   31   14   15 ar    
   32   15   19 1     
   33   15   16 ar    
   34   16   17 1     
   35   17   18 2     
   36   18   19 1     
   37   18   43 1     
   38   19   20 1     
   39   20   21 1     
   40   20   44 1     
   41   20   45 1     
   42   21   22 1     
   43   21   23 1     
   44   21   46 1     
   45   22   47 1     
   46   23   27 1     
   47   23   24 1     
   48   23   48 1     
   49   24   25 1     
   50   24   49 1     
   51   24   50 1     
   52   25   26 1     
   53   25   51 1     
   54   25   52 1     
   55   26   27 1     
   56   26   53 1     
   57   26   54 1     
   58   28   29 1     
   59   28   55 1     
   60   28   56 1     
   61   29   57 1     
   62    1   58 1     
   63    1   59 1     
   64   10   60 1     
   65   12   61 1     
   66   14   62 1     
   67   17   63 1     
   68   22   64 1     
   69   22   65 1     
   70   27   66 1     
   71   27   67 1     
@<TRIPOS>SUBSTRUCTURE
      1 S1             1
@<TRIPOS>SET
LONE_PAIRS      STATIC     ATOMS    <user>   **** ""
10 58 59 60 61 62 63 64 65 66 67
DONOR_HYDROGENS      STATIC     ATOMS    <user>   **** ""
2 47 57
ATOM$BLUE        STATIC     ATOMS    COLORGROUP SYSTEM
10 58 59 60 61 62 63 64 65 66 67
ATOM$RED        STATIC     ATOMS    COLORGROUP SYSTEM
2 47 57
