#       Name:                AV-unprocessed.smi:290
#       Creating user name   scv26
#       Creation time:       Thu Mar 26 22:06:44 2020


#       File generated by GOLD software.
#

@<TRIPOS>MOLECULE
AV-unprocessed.smi:290
    69    72     1
SMALL
NO_CHARGES


@<TRIPOS>ATOM
      1 ****        -3.3471  -1.2931   3.3576 C.3            1 S1                 0.0000
      2 ****        -4.4725  -1.5385   2.3383 C.3            1 S1                 0.0000
      3 ****        -5.7403  -1.5367   2.9939 O.3            1 S1                 0.0000
      4 ****        -6.3943  -2.7804   2.7922 C.3            1 S1                 0.0000
      5 ****        -5.8572  -3.2673   1.4532 C.3            1 S1                 0.0000
      6 ****        -4.3961  -2.8471   1.5113 C.3            1 S1                 0.0000
      7 ****        -3.6779  -3.8522   2.2102 O.3            1 S1                 0.0000
      8 ****        -3.7717  -2.6852   0.1046 C.3            1 S1                 0.0000
      9 ****        -2.4065  -2.1836   0.1280 N.pl3          1 S1                 0.0000
     10 ****        -1.2601  -2.9206   0.3288 C.2            1 S1                 0.0000
     11 ****        -0.1463  -2.2399   0.3016 N.2            1 S1                 0.0000
     12 ****        -0.5576  -0.9362   0.0602 C.ar           1 S1                 0.0000
     13 ****         0.1241   0.2979  -0.0970 C.ar           1 S1                 0.0000
     14 ****         1.4722   0.3781  -0.0259 N.3            1 S1                 0.0000
     15 ****         1.9646   1.0534   1.1593 C.3            1 S1                 0.0000
     16 ****         3.4114   1.4382   0.8460 C.3            1 S1                 0.0000
     17 ****         3.5960   1.2266  -0.6718 C.3            1 S1                 0.0000
     18 ****         4.3246   2.3776  -1.2944 N.4            1 S1                 1.0000
     19 ****         5.7474   2.4018  -0.8654 C.3            1 S1                 0.0000
     20 ****         4.1757   2.5043  -2.7726 C.3            1 S1                 0.0000
     21 ****         4.7742   3.7980  -3.3573 C.3            1 S1                 0.0000
     22 ****         4.1048   4.9275  -2.8373 O.3            1 S1                 0.0000
     23 ****         2.1562   0.9611  -1.1742 C.3            1 S1                 0.0000
     24 ****         2.0674  -0.0020  -2.3793 C.3            1 S1                 0.0000
     25 ****        -0.6188   1.4114  -0.3340 N.ar           1 S1                 0.0000
     26 ****        -1.9499   1.3188  -0.4147 C.ar           1 S1                 0.0000
     27 ****        -2.7202   0.2348  -0.2962 N.ar           1 S1                 0.0000
     28 ****        -1.9742  -0.8816  -0.0555 C.ar           1 S1                 0.0000
     29 ****         4.1802   0.3169  -0.8254 H              1 S1                 0.0000
     30 ****         1.6792   1.9113  -1.4191 H              1 S1                 0.0000
     31 ****        -2.3676  -1.3052   2.8798 H              1 S1                 0.0000
     32 ****        -3.3479  -2.0466   4.1454 H              1 S1                 0.0000
     33 ****        -3.4683  -0.3210   3.8356 H              1 S1                 0.0000
     34 ****        -4.5055  -0.6906   1.6543 H              1 S1                 0.0000
     35 ****        -6.1154  -3.4665   3.5932 H              1 S1                 0.0000
     36 ****        -7.4788  -2.6696   2.7979 H              1 S1                 0.0000
     37 ****        -6.0025  -4.3369   1.2956 H              1 S1                 0.0000
     38 ****        -6.3726  -2.7390   0.6496 H              1 S1                 0.0000
     39 ****        -3.7568  -4.6641   1.7336 H              1 S1                 0.0000
     40 ****        -3.7762  -3.6394  -0.4241 H              1 S1                 0.0000
     41 ****        -4.3734  -2.0034  -0.4978 H              1 S1                 0.0000
     42 ****        -1.2770  -3.9870   0.5007 H              1 S1                 0.0000
     43 ****         1.3733   1.9452   1.3739 H              1 S1                 0.0000
     44 ****         1.9072   0.3958   2.0275 H              1 S1                 0.0000
     45 ****         3.5864   2.4718   1.1482 H              1 S1                 0.0000
     46 ****         4.1100   0.8134   1.4038 H              1 S1                 0.0000
     47 ****         6.3176   1.6180  -1.3655 H              1 S1                 0.0000
     48 ****         5.8502   2.2524   0.2091 H              1 S1                 0.0000
     49 ****         6.2154   3.3610  -1.0816 H              1 S1                 0.0000
     50 ****         4.6315   1.6378  -3.2535 H              1 S1                 0.0000
     51 ****         3.1218   2.5054  -3.0449 H              1 S1                 0.0000
     52 ****         5.8455   3.8815  -3.1794 H              1 S1                 0.0000
     53 ****         4.6477   3.8012  -4.4403 H              1 S1                 0.0000
     54 ****         3.2095   4.9171  -3.1416 H              1 S1                 0.0000
     55 ****         2.6076   0.3545  -3.2531 H              1 S1                 0.0000
     56 ****         1.0321  -0.1500  -2.6881 H              1 S1                 0.0000
     57 ****         2.4748  -0.9818  -2.1272 H              1 S1                 0.0000
     58 ****        -2.4730   2.2451  -0.6019 H              1 S1                 0.0000
     59 ****         3.8959   3.2084  -0.9114 H              1 S1                 0.0000
     60 ****        -6.3052  -0.8012   2.6198 LP             1 S1                 0.0000
     61 ****        -5.6060  -1.3885   3.9736 LP             1 S1                 0.0000
     62 ****        -4.0585  -3.9619   3.1283 LP             1 S1                 0.0000
     63 ****        -2.7144  -3.5930   2.2775 LP             1 S1                 0.0000
     64 ****         0.7863  -2.5789   0.4257 LP             1 S1                 0.0000
     65 ****         1.6995  -0.5953   0.0016 LP             1 S1                 0.0000
     66 ****         4.5575   5.7615  -3.1528 LP             1 S1                 0.0000
     67 ****         4.1207   4.8972  -1.8379 LP             1 S1                 0.0000
     68 ****        -0.1704   2.2980  -0.4478 LP             1 S1                 0.0000
     69 ****        -3.7171   0.2405  -0.3740 LP             1 S1                 0.0000
@<TRIPOS>BOND
    1    1    2 1     
    2    1   31 1     
    3    1   32 1     
    4    1   33 1     
    5    2    6 1     
    6    2    3 1     
    7    2   34 1     
    8    3    4 1     
    9    4    5 1     
   10    4   35 1     
   11    4   36 1     
   12    5    6 1     
   13    5   37 1     
   14    5   38 1     
   15    6    7 1     
   16    6    8 1     
   17    7   39 1     
   18    8    9 1     
   19    8   40 1     
   20    8   41 1     
   21    9   28 1     
   22    9   10 1     
   23   10   11 2     
   24   10   42 1     
   25   11   12 1     
   26   12   28 ar    
   27   12   13 ar    
   28   13   14 1     
   29   13   25 ar    
   30   14   23 1     
   31   14   15 1     
   32   15   16 1     
   33   15   43 1     
   34   15   44 1     
   35   16   17 1     
   36   16   45 1     
   37   16   46 1     
   38   17   29 1     
   39   17   18 1     
   40   17   23 1     
   41   18   19 1     
   42   18   20 1     
   43   18   59 1     
   44   19   47 1     
   45   19   48 1     
   46   19   49 1     
   47   20   21 1     
   48   20   50 1     
   49   20   51 1     
   50   21   22 1     
   51   21   52 1     
   52   21   53 1     
   53   22   54 1     
   54   23   30 1     
   55   23   24 1     
   56   24   55 1     
   57   24   56 1     
   58   24   57 1     
   59   25   26 ar    
   60   26   27 ar    
   61   26   58 1     
   62   27   28 ar    
   63    3   60 1     
   64    3   61 1     
   65    7   62 1     
   66    7   63 1     
   67   11   64 1     
   68   14   65 1     
   69   22   66 1     
   70   22   67 1     
   71   25   68 1     
   72   27   69 1     
@<TRIPOS>SUBSTRUCTURE
      1 S1             1
@<TRIPOS>SET
LONE_PAIRS      STATIC     ATOMS    <user>   **** ""
10 60 61 62 63 64 65 66 67 68 69
DONOR_HYDROGENS      STATIC     ATOMS    <user>   **** ""
3 39 59 54
ATOM$BLUE        STATIC     ATOMS    COLORGROUP SYSTEM
10 60 61 62 63 64 65 66 67 68 69
ATOM$RED        STATIC     ATOMS    COLORGROUP SYSTEM
3 39 59 54
