AV-unprocessed.smi:1900|AV-procd|sdf|7712|dock4
  -GOLD-   22720 9453D 1   1.00000     0.00000
 Structure written by MMmdl.
 44 45  0  0  0  0  0  0  0  0  2 V2000
  150.8690  141.8679  156.2332 C   0  0  0  0  0  0  0  0  0  0  0  0
  150.1910  140.5941  155.7165 C   0  0  1  0  0  0  0  0  0  0  0  0
  148.9581  140.9070  154.8493 C   0  0  0  0  0  0  0  0  0  0  0  0
  148.3825  139.6598  154.2950 N   0  3  1  0  0  0  0  0  0  0  0  0
  147.1311  139.9027  153.5340 C   0  0  0  0  0  0  0  0  0  0  0  0
  146.8010  138.7576  152.5611 C   0  0  0  0  0  0  0  0  0  0  0  0
  146.0322  137.6152  153.2463 C   0  0  0  0  0  0  0  0  0  0  0  0
  146.0719  136.3858  152.4619 N   0  0  0  0  0  0  0  0  0  0  0  0
  144.9951  135.6822  152.0829 C   0  0  0  0  0  0  0  0  0  0  0  0
  143.8391  136.0211  152.3369 O   0  0  0  0  0  0  0  0  0  0  0  0
  145.3450  134.5771  151.4042 N   0  0  0  0  0  0  0  0  0  0  0  0
  144.4823  133.5884  150.8667 C   0  0  0  0  0  0  0  0  0  0  0  0
  144.6269  133.0002  149.5807 C   0  0  0  0  0  0  0  0  0  0  0  0
  143.6762  132.1065  149.3478 N   0  0  0  0  0  0  0  0  0  0  0  0
  142.9241  132.1210  150.4712 N   0  0  0  0  0  0  0  0  0  0  0  0
  143.3767  133.0083  151.4226 C   0  0  0  0  0  0  0  0  0  0  0  0
  149.4111  138.9190  153.5235 C   0  0  0  0  0  0  0  0  0  0  0  0
  150.6652  138.6536  154.3792 C   0  0  2  0  0  0  0  0  0  0  0  0
  150.4632  137.5597  155.4430 C   0  0  0  0  0  0  0  0  0  0  0  0
  151.1463  139.8742  154.9417 O   0  0  0  0  0  0  0  0  0  0  0  0
  142.1148  131.5250  150.5734 H   0  0  0  0  0  0  0  0  0  0  0  0
  150.1848  142.4581  156.8434 H   0  0  0  0  0  0  0  0  0  0  0  0
  151.2109  142.4960  155.4099 H   0  0  0  0  0  0  0  0  0  0  0  0
  151.7359  141.6250  156.8482 H   0  0  0  0  0  0  0  0  0  0  0  0
  149.8915  139.9983  156.5789 H   0  0  0  0  0  0  0  0  0  0  0  0
  148.2104  141.4223  155.4539 H   0  0  0  0  0  0  0  0  0  0  0  0
  149.2273  141.5785  154.0322 H   0  0  0  0  0  0  0  0  0  0  0  0
  146.3015  139.9979  154.2360 H   0  0  0  0  0  0  0  0  0  0  0  0
  147.1975  140.8545  153.0044 H   0  0  0  0  0  0  0  0  0  0  0  0
  146.2087  139.1344  151.7279 H   0  0  0  0  0  0  0  0  0  0  0  0
  147.7244  138.3664  152.1318 H   0  0  0  0  0  0  0  0  0  0  0  0
  146.4690  137.4064  154.2234 H   0  0  0  0  0  0  0  0  0  0  0  0
  144.9957  137.9058  153.4261 H   0  0  0  0  0  0  0  0  0  0  0  0
  146.9839  136.0339  152.2091 H   0  0  0  0  0  0  0  0  0  0  0  0
  146.3328  134.4157  151.2731 H   0  0  0  0  0  0  0  0  0  0  0  0
  145.3763  133.1861  148.8254 H   0  0  0  0  0  0  0  0  0  0  0  0
  142.8830  133.1367  152.3744 H   0  0  0  0  0  0  0  0  0  0  0  0
  149.0170  137.9724  153.1554 H   0  0  0  0  0  0  0  0  0  0  0  0
  149.6869  139.5055  152.6456 H   0  0  0  0  0  0  0  0  0  0  0  0
  151.4518  138.3000  153.7120 H   0  0  0  0  0  0  0  0  0  0  0  0
  150.2265  136.6044  154.9740 H   0  0  0  0  0  0  0  0  0  0  0  0
  149.6494  137.7926  156.1289 H   0  0  0  0  0  0  0  0  0  0  0  0
  151.3694  137.4201  156.0330 H   0  0  0  0  0  0  0  0  0  0  0  0
  148.1330  139.0857  155.0878 H   0  0  0  0  0  0  0  0  0  0  0  0
  1  2  1  0  0  0  0
  1 22  1  0  0  0  0
  1 23  1  0  0  0  0
  1 24  1  0  0  0  0
  2 20  1  0  0  0  0
  2  3  1  0  0  0  0
  2 25  1  0  0  0  0
  3  4  1  0  0  0  0
  3 26  1  0  0  0  0
  3 27  1  0  0  0  0
  4  5  1  0  0  0  0
  4 17  1  0  0  0  0
  4 44  1  0  0  0  0
  5  6  1  0  0  0  0
  5 28  1  0  0  0  0
  5 29  1  0  0  0  0
  6  7  1  0  0  0  0
  6 30  1  0  0  0  0
  6 31  1  0  0  0  0
  7  8  1  0  0  0  0
  7 32  1  0  0  0  0
  7 33  1  0  0  0  0
  8  9  1  0  0  0  0
  8 34  1  0  0  0  0
  9 10  2  0  0  0  0
  9 11  1  0  0  0  0
 11 12  1  0  0  0  0
 11 35  1  0  0  0  0
 12 16  2  0  0  0  0
 12 13  1  0  0  0  0
 13 14  2  0  0  0  0
 13 36  1  0  0  0  0
 14 15  1  0  0  0  0
 15 21  1  0  0  0  0
 15 16  1  0  0  0  0
 16 37  1  0  0  0  0
 17 18  1  0  0  0  0
 17 38  1  0  0  0  0
 17 39  1  0  0  0  0
 18 19  1  0  0  0  0
 18 20  1  0  0  0  0
 18 40  1  0  0  0  0
 19 41  1  0  0  0  0
 19 42  1  0  0  0  0
 19 43  1  0  0  0  0
M  CHG  1   4   1
M  END
> <s_m_source_file>
AV-unprocessed.smi

> <i_m_source_file_index>
1900

> <i_lp_mmshare_version>
43012

> <i_f3d_flags>
0

> <s_epik_input>
W0NIM11bQ0BASF0xW0NIMl1OKFtDSDJdW0NASF0oTzEpW0NIM10pW0NIMl1bQ0gyXVtDSDJdW05IXUMoPU8pW05IXWMyW2NIXW5bbkhdW2NIXTI=

> <s_epik_cmdline>
J2VwaWtfcHl0aG9uJywgJy1waCcsICc3LjAnLCAnLXRuJywgJzgnLCAnLW1hJywgJzIwMCcsICctbWV0YWxfYmluZGluZycsICctaW1hZScsICc8aW5maWxlLm1hZT4nLCAnLW9tYWUnLCAnPG91dGZpbGUubWFlPic=

> <r_lp_tautomer_probability>
0.5

> <r_epik_Ionization_Penalty>
0.270543

> <r_epik_Ionization_Penalty_Charging>
0.270496

> <r_epik_Ionization_Penalty_Neutral>
4.67091e-05

> <r_epik_State_Penalty>
0.262618

> <r_epik_Charging_Adjusted_Penalty>
0.533114

> <i_epik_Tot_Q>
1

> <i_epik_Tot_abs_Q>
1

> <r_epik_Metal_State_Penalty>
0.262618

> <b_epik_Metal_Only>
0

> <s_lp_Force_Field>
OPLS_2005

> <r_lp_Energy>
21.5788

> <b_lp_Chiralities_Consistent>
1

> <s_lp_Variant>
AV-unprocessed.smi:1900-4

> <Gold.Version>
5.8.1

> <Gold.Id.Protein>
6NUR|6NUR_protein|mol2

> <Gold.PLP.Fitness>
45.7516

> <Gold.PLP.PLP>
-32.3779

> <Gold.PLP.part.hbond>
-4.6587

> <Gold.PLP.part.metal>
0.0000

> <Gold.PLP.part.buried>
-3.1555

> <Gold.PLP.part.nonpolar>
-26.5316

> <Gold.PLP.part.repulsive>
0.6434

> <Gold.PLP.ligand.clash>
0.0000

> <Gold.PLP.ligand.torsion>
0.8256

> <Gold.PLP.Chemscore.Hbond>
3.4939

> <Gold.PLP.Chemscore.CHOScore>
1.5088

> <Gold.PLP.Chemscore.Metal>
0.0000

> <Gold.Chemscore.Hbonds>
donor molecule, donor type, donor heavy atom, donor atom, acceptor molecule, acceptor atom, score
      L1  H     8    34       P1  7948  1.00
      L1  H    15    21       P1 10952  0.85
      P1  H  7989  7998       L1    20  1.00
      P1  H 10785 10796       L1    14  0.61
      L1  C    13    36       P1  7921  0.92
      L1  C    16    37       P1 10957  0.43

> <Gold.PLP.Chemscore.Internal.Correction>
0.0166

> <Gold.Rescore>
     Score         DG    S(hbond)    S(metal)    S(lipo)     H(rot)  DE(clash)    DE(int)     intcor
     15.03     -17.57       2.02        0.00      87.85       1.93       1.86       0.68       ----

> <Gold.Chemscore.Fitness>
15.0293

> <Gold.Chemscore.DG>
-17.5683

> <Gold.Chemscore.ZeroCoef>
-5.4800

> <Gold.Chemscore.Hbond>
2.0247

> <Gold.Chemscore.Metal>
0.0000

> <Gold.Chemscore.Lipo>
87.8514

> <Gold.Chemscore.Internal_Hbond>
0.0000

> <Gold.Chemscore.DEClash>
1.8585

> <Gold.Chemscore.DEInternal>
0.6805

> <Gold.Chemscore.Rot>
1.9347

> <Gold.Chemscore.Internal.Correction>
   9.000000E+99

> <Gold.Chemscore.Hbonds>
donor molecule, donor type, donor heavy atom, donor atom, acceptor molecule, acceptor atom, score
      L1  H     8    34       P1  7948  0.94
      L1  H    15    21       P1 10952  0.18
      P1  H  7989  7998       L1    20  0.33
      P1  H 10785 10796       L1    14  0.10

> <Gold.Chemscore.Hbond.Weighted>
-6.7626

> <Gold.Chemscore.Metal.Weighted>
-0.0000

> <Gold.Chemscore.Lipo.Weighted>
-10.2786

> <Gold.Chemscore.Internal_Hbond.Weighted>
0.0000

> <Gold.Chemscore.DEClash.Weighted>
1.8585

> <Gold.Chemscore.DEInternal.Weighted>
0.6805

> <Gold.Chemscore.Rot.Weighted>
4.9528

> <Gold.Chemscore.Internal.Correction.Weighted>
   9.000000E+99

> <Gold.Protein.RotatedTorsions>
[ 6907 6896 6895 6894 ] final -120.43 input  -60.11 | X-H torsion
[ 7974 7965 7964 7962 ] final   56.72 input  175.53 | X-H torsion
[ 8008 7997 7996 7995 ] final   57.77 input   59.86 | X-H torsion
[ 10167 10162 10161 10158 ] final  -60.34 input  -65.29 | X-H torsion
[ 10718 10713 10712 10709 ] final  176.16 input   66.30 | X-H torsion
[ 10763 10752 10751 10750 ] final   57.55 input  -60.55 | X-H torsion
[ 11005 11000 10999 10996 ] final   -8.34 input  -57.11 | X-H torsion

> <Gold.Protein.ActiveResidues>
 VAL166  LYS551  ARG553  GLY616  TRP617  ASP618  TYR619  PRO620  LYS621  CYS622 
 ASP623  PHE694  ASN695  SER759  ASP760  ASP761  ALA762  ILE779  LEU786  VAL792 
 PHE793  MET794  SER795  GLU796  ALA797  LYS798  CYS799  TRP800  GLU811  SER814 

> <Gold.Protein.RotatedAtoms>
  150.8393  133.7962  159.3066 H   0  0  0  0  0  0  0  0  0  0  0  0  # atno 6907 bound_to 6896
  151.5668  135.1062  159.9995 H   0  0  0  0  0  0  0  0  0  0  0  0  # atno 6908 bound_to 6896
  152.4460  133.7494  159.6742 H   0  0  0  0  0  0  0  0  0  0  0  0  # atno 6909 bound_to 6896
  145.9367  139.3854  143.0388 H   0  0  0  0  0  0  0  0  0  0  0  0  # atno 7974 bound_to 7965
  155.5392  140.3484  155.4443 H   0  0  0  0  0  0  0  0  0  0  0  0  # atno 8008 bound_to 7997
  156.0663  140.1352  156.9908 H   0  0  0  0  0  0  0  0  0  0  0  0  # atno 8009 bound_to 7997
  154.4505  140.0975  156.6577 H   0  0  0  0  0  0  0  0  0  0  0  0  # atno 8010 bound_to 7997
  140.6078  143.2378  151.5781 H   0  0  0  0  0  0  0  0  0  0  0  0  # atno 10167 bound_to 10162
  156.9242  130.9950  151.2999 H   0  0  0  0  0  0  0  0  0  0  0  0  # atno 10718 bound_to 10713
  152.9852  135.5637  154.5409 H   0  0  0  0  0  0  0  0  0  0  0  0  # atno 10763 bound_to 10752
  154.4864  135.2791  155.1533 H   0  0  0  0  0  0  0  0  0  0  0  0  # atno 10764 bound_to 10752
  154.3020  135.6305  153.5482 H   0  0  0  0  0  0  0  0  0  0  0  0  # atno 10765 bound_to 10752
  140.7224  133.8817  155.8831 H   0  0  0  0  0  0  0  0  0  0  0  0  # atno 11005 bound_to 11000
  145.8354  140.9609  143.0827 LP  0  0  0  0  0  0  0  0  0  0  0  0  # atno 17320 bound_to 7965
  144.6773  140.0215  143.7483 LP  0  0  0  0  0  0  0  0  0  0  0  0  # atno 17321 bound_to 7965
  139.5338  144.2840  152.1206 LP  0  0  0  0  0  0  0  0  0  0  0  0  # atno 17342 bound_to 10162
  140.2033  144.4636  150.6421 LP  0  0  0  0  0  0  0  0  0  0  0  0  # atno 17343 bound_to 10162
  157.5888  130.8429  149.8629 LP  0  0  0  0  0  0  0  0  0  0  0  0  # atno 17370 bound_to 10713
  156.0477  130.3724  150.1277 LP  0  0  0  0  0  0  0  0  0  0  0  0  # atno 17371 bound_to 10713
  140.9992  134.1173  157.4334 LP  0  0  0  0  0  0  0  0  0  0  0  0  # atno 17394 bound_to 11000
  139.8845  135.0063  156.6373 LP  0  0  0  0  0  0  0  0  0  0  0  0  # atno 17395 bound_to 11000

$$$$
