AV-unprocessed.smi:2997|AV-procd|sdf|11415|dock8
  -GOLD-   2272016343D 1   1.00000     0.00000
 Structure written by MMmdl.
 39 41  0  0  0  0  0  0  0  0  2 V2000
  151.9336  145.4743  160.5105 C   0  0  0  0  0  0  0  0  0  0  0  0
  151.8354  144.2417  159.6278 C   0  0  0  0  0  0  0  0  0  0  0  0
  151.1668  144.3520  158.3874 C   0  0  0  0  0  0  0  0  0  0  0  0
  151.0910  143.2065  157.6039 C   0  0  0  0  0  0  0  0  0  0  0  0
  150.5085  142.9888  156.3533 N   0  3  0  0  0  0  0  0  0  0  0  0
  150.6892  141.6892  155.9877 C   0  0  0  0  0  0  0  0  0  0  0  0
  151.3797  141.0751  156.9865 N   0  0  0  0  0  0  0  0  0  0  0  0
  151.8310  139.6829  157.1094 C   0  0  0  0  0  0  0  0  0  0  0  0
  151.3269  138.7921  155.9582 C   0  0  1  0  0  0  0  0  0  0  0  0
  151.9035  139.2239  154.7392 O   0  0  0  0  0  0  0  0  0  0  0  0
  151.6489  137.3043  156.1956 C   0  0  0  0  0  0  0  0  0  0  0  0
  150.5842  136.4243  155.7478 N   0  0  0  0  0  0  0  0  0  0  0  0
  149.2256  136.5490  155.9485 C   0  0  0  0  0  0  0  0  0  0  0  0
  148.6260  135.4828  155.3417 C   0  0  0  0  0  0  0  0  0  0  0  0
  149.7148  134.7531  154.7875 C   0  0  0  0  0  0  0  0  0  0  0  0
  150.8854  135.3211  155.0289 N   0  0  0  0  0  0  0  0  0  0  0  0
  151.6522  141.9824  158.0153 C   0  0  0  0  0  0  0  0  0  0  0  0
  152.3144  141.8557  159.2337 C   0  0  0  0  0  0  0  0  0  0  0  0
  152.4018  143.0092  160.0454 C   0  0  0  0  0  0  0  0  0  0  0  0
  153.1166  142.9016  161.3819 C   0  0  0  0  0  0  0  0  0  0  0  0
  151.4775  146.3430  160.0347 H   0  0  0  0  0  0  0  0  0  0  0  0
  152.9762  145.7175  160.7163 H   0  0  0  0  0  0  0  0  0  0  0  0
  151.4224  145.3059  161.4586 H   0  0  0  0  0  0  0  0  0  0  0  0
  150.7321  145.2863  158.0636 H   0  0  0  0  0  0  0  0  0  0  0  0
  150.3428  141.2284  155.0740 H   0  0  0  0  0  0  0  0  0  0  0  0
  152.9216  139.6906  157.1364 H   0  0  0  0  0  0  0  0  0  0  0  0
  151.4999  139.2987  158.0750 H   0  0  0  0  0  0  0  0  0  0  0  0
  150.2461  138.9075  155.8679 H   0  0  0  0  0  0  0  0  0  0  0  0
  152.8398  139.2812  154.8527 H   0  0  0  0  0  0  0  0  0  0  0  0
  152.5701  137.0260  155.6819 H   0  0  0  0  0  0  0  0  0  0  0  0
  151.8175  137.1208  157.2578 H   0  0  0  0  0  0  0  0  0  0  0  0
  148.8034  137.3749  156.5017 H   0  0  0  0  0  0  0  0  0  0  0  0
  147.5706  135.2581  155.3001 H   0  0  0  0  0  0  0  0  0  0  0  0
  149.6893  133.8347  154.2197 H   0  0  0  0  0  0  0  0  0  0  0  0
  152.7428  140.9165  159.5516 H   0  0  0  0  0  0  0  0  0  0  0  0
  153.4923  141.8924  161.5534 H   0  0  0  0  0  0  0  0  0  0  0  0
  152.4384  143.1474  162.1993 H   0  0  0  0  0  0  0  0  0  0  0  0
  153.9665  143.5833  161.4184 H   0  0  0  0  0  0  0  0  0  0  0  0
  150.0203  143.6734  155.7902 H   0  0  0  0  0  0  0  0  0  0  0  0
  1  2  1  0  0  0  0
  1 21  1  0  0  0  0
  1 22  1  0  0  0  0
  1 23  1  0  0  0  0
  2 19  1  0  0  0  0
  2  3  2  0  0  0  0
  3  4  1  0  0  0  0
  3 24  1  0  0  0  0
  4 17  2  0  0  0  0
  4  5  1  0  0  0  0
  5  6  2  0  0  0  0
  5 39  1  0  0  0  0
  6  7  1  0  0  0  0
  6 25  1  0  0  0  0
  7  8  1  0  0  0  0
  7 17  1  0  0  0  0
  8  9  1  0  0  0  0
  8 26  1  0  0  0  0
  8 27  1  0  0  0  0
  9 10  1  0  0  0  0
  9 11  1  0  0  0  0
  9 28  1  0  0  0  0
 10 29  1  0  0  0  0
 11 12  1  0  0  0  0
 11 30  1  0  0  0  0
 11 31  1  0  0  0  0
 12 16  1  0  0  0  0
 12 13  1  0  0  0  0
 13 14  2  0  0  0  0
 13 32  1  0  0  0  0
 14 15  1  0  0  0  0
 14 33  1  0  0  0  0
 15 16  2  0  0  0  0
 15 34  1  0  0  0  0
 17 18  1  0  0  0  0
 18 19  2  0  0  0  0
 18 35  1  0  0  0  0
 19 20  1  0  0  0  0
 20 36  1  0  0  0  0
 20 37  1  0  0  0  0
 20 38  1  0  0  0  0
M  CHG  1   5   1
M  END
> <s_m_source_file>
AV-unprocessed.smi

> <i_m_source_file_index>
2997

> <i_lp_mmshare_version>
43012

> <i_f3d_flags>
0

> <s_epik_input>
W0NIM11jKFtjSF0xKWMoW0NIM10pW2NIXWMoYzEyKW4oW2NIXW4yKVtDSDJdW0NASF0oW09IXSlbQ0gyXW4zW2NIXVtjSF1bY0hdbjM=

> <s_epik_cmdline>
J2VwaWtfcHl0aG9uJywgJy1waCcsICc3LjAnLCAnLXRuJywgJzgnLCAnLW1hJywgJzIwMCcsICctbWV0YWxfYmluZGluZycsICctaW1hZScsICc8aW5maWxlLm1hZT4nLCAnLW9tYWUnLCAnPG91dGZpbGUubWFlPic=

> <r_lp_tautomer_probability>
1

> <r_epik_Ionization_Penalty>
1.09215

> <r_epik_Ionization_Penalty_Charging>
1.09214

> <r_epik_Ionization_Penalty_Neutral>
1.42327e-05

> <r_epik_State_Penalty>
1.14852

> <r_epik_Charging_Adjusted_Penalty>
2.24066

> <i_epik_Tot_Q>
1

> <i_epik_Tot_abs_Q>
1

> <r_epik_Metal_State_Penalty>
1.23686

> <b_epik_Metal_Only>
0

> <s_lp_Force_Field>
OPLS_2005

> <r_lp_Energy>
12.1799

> <b_lp_Chiralities_Consistent>
1

> <s_lp_Variant>
AV-unprocessed.smi:2997-4

> <Gold.Version>
5.8.1

> <Gold.Id.Protein>
6NUR|6NUR_protein|mol2

> <Gold.PLP.Fitness>
52.2155

> <Gold.PLP.PLP>
-41.9026

> <Gold.PLP.part.hbond>
-2.7838

> <Gold.PLP.part.metal>
0.0000

> <Gold.PLP.part.buried>
-4.6668

> <Gold.PLP.part.nonpolar>
-33.7154

> <Gold.PLP.part.repulsive>
0.2438

> <Gold.PLP.ligand.clash>
0.0000

> <Gold.PLP.ligand.torsion>
0.7392

> <Gold.PLP.Chemscore.Hbond>
3.9280

> <Gold.PLP.Chemscore.CHOScore>
0.0000

> <Gold.PLP.Chemscore.Metal>
0.0000

> <Gold.Chemscore.Hbonds>
donor molecule, donor type, donor heavy atom, donor atom, acceptor molecule, acceptor atom, score
      L1  H     5    39       P1  8028  1.98
      P1  H  7989  7998       L1    10  0.80
      P1  H 10752 10764       L1    16  0.83

> <Gold.PLP.Chemscore.Internal.Correction>
0.0073

> <Gold.Rescore>
     Score         DG    S(hbond)    S(metal)    S(lipo)     H(rot)  DE(clash)    DE(int)     intcor
     18.05     -19.40       1.81        0.00     115.83       2.21       0.32       1.02       ----

> <Gold.Chemscore.Fitness>
18.0524

> <Gold.Chemscore.DG>
-19.3983

> <Gold.Chemscore.ZeroCoef>
-5.4800

> <Gold.Chemscore.Hbond>
1.8058

> <Gold.Chemscore.Metal>
0.0000

> <Gold.Chemscore.Lipo>
115.8268

> <Gold.Chemscore.Internal_Hbond>
0.0000

> <Gold.Chemscore.DEClash>
0.3215

> <Gold.Chemscore.DEInternal>
1.0244

> <Gold.Chemscore.Rot>
2.2129

> <Gold.Chemscore.Internal.Correction>
   9.000000E+99

> <Gold.Chemscore.Hbonds>
donor molecule, donor type, donor heavy atom, donor atom, acceptor molecule, acceptor atom, score
      L1  H     5    39       P1  8028  0.89
      P1  H  7989  7998       L1    10  0.15
      P1  H 10752 10764       L1    16  0.31

> <Gold.Chemscore.Hbond.Weighted>
-6.0315

> <Gold.Chemscore.Metal.Weighted>
-0.0000

> <Gold.Chemscore.Lipo.Weighted>
-13.5517

> <Gold.Chemscore.Internal_Hbond.Weighted>
0.0000

> <Gold.Chemscore.DEClash.Weighted>
0.3215

> <Gold.Chemscore.DEInternal.Weighted>
1.0244

> <Gold.Chemscore.Rot.Weighted>
5.6649

> <Gold.Chemscore.Internal.Correction.Weighted>
   9.000000E+99

> <Gold.Protein.RotatedTorsions>
[ 6907 6896 6895 6894 ] final  125.51 input  -60.11 | X-H torsion
[ 7974 7965 7964 7962 ] final  -78.90 input  175.53 | X-H torsion
[ 8008 7997 7996 7995 ] final   21.68 input   59.86 | X-H torsion
[ 10167 10162 10161 10158 ] final  -79.71 input  -65.29 | X-H torsion
[ 10718 10713 10712 10709 ] final -126.52 input   66.30 | X-H torsion
[ 10763 10752 10751 10750 ] final  -53.67 input  -60.55 | X-H torsion
[ 11005 11000 10999 10996 ] final -154.61 input  -57.11 | X-H torsion

> <Gold.Protein.ActiveResidues>
 VAL166  LYS551  ARG553  GLY616  TRP617  ASP618  TYR619  PRO620  LYS621  CYS622 
 ASP623  PHE694  ASN695  SER759  ASP760  ASP761  ALA762  ILE779  LEU786  VAL792 
 PHE793  MET794  SER795  GLU796  ALA797  LYS798  CYS799  TRP800  GLU811  SER814 

> <Gold.Protein.RotatedAtoms>
  152.3986  133.6783  159.6296 H   0  0  0  0  0  0  0  0  0  0  0  0  # atno 6907 bound_to 6896
  150.7880  133.8831  159.3300 H   0  0  0  0  0  0  0  0  0  0  0  0  # atno 6908 bound_to 6896
  151.6602  135.0992  160.0229 H   0  0  0  0  0  0  0  0  0  0  0  0  # atno 6909 bound_to 6896
  145.5803  140.9449  143.1347 H   0  0  0  0  0  0  0  0  0  0  0  0  # atno 7974 bound_to 7965
  154.9543  140.3070  155.5060 H   0  0  0  0  0  0  0  0  0  0  0  0  # atno 8008 bound_to 7997
  156.2984  140.2313  156.4561 H   0  0  0  0  0  0  0  0  0  0  0  0  # atno 8009 bound_to 7997
  154.8025  140.0433  157.1271 H   0  0  0  0  0  0  0  0  0  0  0  0  # atno 8010 bound_to 7997
  140.4568  143.2466  151.8407 H   0  0  0  0  0  0  0  0  0  0  0  0  # atno 10167 bound_to 10162
  156.1772  130.6708  151.0258 H   0  0  0  0  0  0  0  0  0  0  0  0  # atno 10718 bound_to 10713
  154.1625  135.6472  153.4989 H   0  0  0  0  0  0  0  0  0  0  0  0  # atno 10763 bound_to 10752
  153.0106  135.5364  154.6696 H   0  0  0  0  0  0  0  0  0  0  0  0  # atno 10764 bound_to 10752
  154.6013  135.2944  155.0504 H   0  0  0  0  0  0  0  0  0  0  0  0  # atno 10765 bound_to 10752
  140.6954  134.3995  157.5215 H   0  0  0  0  0  0  0  0  0  0  0  0  # atno 11005 bound_to 11000
  144.7397  139.7485  143.7315 LP  0  0  0  0  0  0  0  0  0  0  0  0  # atno 17320 bound_to 7965
  146.1721  139.4875  142.9921 LP  0  0  0  0  0  0  0  0  0  0  0  0  # atno 17321 bound_to 7965
  139.4802  144.5055  151.9003 LP  0  0  0  0  0  0  0  0  0  0  0  0  # atno 17342 bound_to 10162
  140.4141  144.2330  150.5888 LP  0  0  0  0  0  0  0  0  0  0  0  0  # atno 17343 bound_to 10162
  157.6844  131.0829  150.7283 LP  0  0  0  0  0  0  0  0  0  0  0  0  # atno 17370 bound_to 10713
  156.7341  130.4718  149.5493 LP  0  0  0  0  0  0  0  0  0  0  0  0  # atno 17371 bound_to 10713
  139.8911  134.8787  156.2334 LP  0  0  0  0  0  0  0  0  0  0  0  0  # atno 17394 bound_to 11000
  141.0207  133.7043  156.1263 LP  0  0  0  0  0  0  0  0  0  0  0  0  # atno 17395 bound_to 11000

$$$$
