#       Name:                AV-unprocessed.smi:3314
#       Creating user name   scv26
#       Creation time:       Fri Mar 27 19:08:01 2020


#       File generated by GOLD software.
#

@<TRIPOS>MOLECULE
AV-unprocessed.smi:3314
    43    44     1
SMALL
NO_CHARGES


@<TRIPOS>ATOM
      1 ****        -4.5621   3.0616  -0.5333 C.3            1 S1                 0.0000
      2 ****        -3.8660   1.7179  -0.4789 C.ar           1 S1                 0.0000
      3 ****        -4.6064   0.5203  -0.4651 C.ar           1 S1                 0.0000
      4 ****        -3.8999  -0.6972  -0.4164 C.ar           1 S1                 0.0000
      5 ****        -4.6309  -2.0230  -0.3995 C.3            1 S1                 0.0000
      6 ****        -2.5521  -0.7662  -0.3836 N.ar           1 S1                 0.0000
      7 ****        -1.8283   0.3805  -0.3968 C.ar           1 S1                 0.0000
      8 ****        -0.4092   0.4158  -0.3666 N.am           1 S1                 0.0000
      9 ****         0.4536  -0.6185  -0.3492 C.2            1 S1                 0.0000
     10 ****         0.1177  -1.8033  -0.3764 O.2            1 S1                 0.0000
     11 ****         1.9418  -0.2415  -0.3204 C.3            1 S1                 0.0000
     12 ****         2.8515  -1.4068   0.1330 C.3            1 S1                 0.0000
     13 ****         4.2497  -1.0033   0.2174 N.3            1 S1                 0.0000
     14 ****         5.0998  -2.1024   0.6494 C.3            1 S1                 0.0000
     15 ****         4.3753   0.1513   1.0963 C.3            1 S1                 0.0000
     16 ****         3.4717   1.3095   0.6418 C.3            1 S1                 0.0000
     17 ****         2.1218   0.8612   0.5699 O.3            1 S1                 0.0000
     18 ****        -2.4587   1.6443  -0.4429 C.ar           1 S1                 0.0000
     19 ****        -5.6464   2.9471  -0.5426 H              1 S1                 0.0000
     20 ****        -4.2690   3.6020  -1.4336 H              1 S1                 0.0000
     21 ****        -4.2903   3.6638   0.3338 H              1 S1                 0.0000
     22 ****        -5.6863   0.5343  -0.4916 H              1 S1                 0.0000
     23 ****        -5.7117  -1.8793  -0.3902 H              1 S1                 0.0000
     24 ****        -4.3563  -2.5965   0.4861 H              1 S1                 0.0000
     25 ****        -4.3723  -2.6083  -1.2823 H              1 S1                 0.0000
     26 ****         0.0034   1.3371  -0.3516 H              1 S1                 0.0000
     27 ****         2.2217   0.0692  -1.3285 H              1 S1                 0.0000
     28 ****         2.5161  -1.7765   1.1037 H              1 S1                 0.0000
     29 ****         2.7571  -2.2385  -0.5668 H              1 S1                 0.0000
     30 ****         6.1461  -1.7961   0.6725 H              1 S1                 0.0000
     31 ****         5.0166  -2.9470  -0.0354 H              1 S1                 0.0000
     32 ****         4.8241  -2.4462   1.6472 H              1 S1                 0.0000
     33 ****         4.1139  -0.1304   2.1175 H              1 S1                 0.0000
     34 ****         5.4124   0.4874   1.1205 H              1 S1                 0.0000
     35 ****         3.5350   2.1392   1.3458 H              1 S1                 0.0000
     36 ****         3.7883   1.6885  -0.3311 H              1 S1                 0.0000
     37 ****        -1.8703   2.5506  -0.4528 H              1 S1                 0.0000
     38 ****        -2.0923  -1.6536  -0.3499 LP             1 S1                 0.0000
     39 ****        -0.8513  -2.0476  -0.4140 LP             1 S1                 0.0000
     40 ****         0.8140  -2.5209  -0.3608 LP             1 S1                 0.0000
     41 ****         4.5628  -0.7437  -0.6961 LP             1 S1                 0.0000
     42 ****         1.8305   0.5818   1.4849 LP             1 S1                 0.0000
     43 ****         1.5512   1.6199   0.2556 LP             1 S1                 0.0000
@<TRIPOS>BOND
    1    1    2 1     
    2    1   19 1     
    3    1   20 1     
    4    1   21 1     
    5    2   18 ar    
    6    2    3 ar    
    7    3    4 ar    
    8    3   22 1     
    9    4    5 1     
   10    4    6 ar    
   11    5   23 1     
   12    5   24 1     
   13    5   25 1     
   14    6    7 ar    
   15    7    8 1     
   16    7   18 ar    
   17    8    9 am    
   18    8   26 1     
   19    9   10 2     
   20    9   11 1     
   21   11   17 1     
   22   11   12 1     
   23   11   27 1     
   24   12   13 1     
   25   12   28 1     
   26   12   29 1     
   27   13   14 1     
   28   13   15 1     
   29   14   30 1     
   30   14   31 1     
   31   14   32 1     
   32   15   16 1     
   33   15   33 1     
   34   15   34 1     
   35   16   17 1     
   36   16   35 1     
   37   16   36 1     
   38   18   37 1     
   39    6   38 1     
   40   10   39 1     
   41   10   40 1     
   42   13   41 1     
   43   17   42 1     
   44   17   43 1     
@<TRIPOS>SUBSTRUCTURE
      1 S1             1
@<TRIPOS>SET
LONE_PAIRS      STATIC     ATOMS    <user>   **** ""
6 38 39 40 41 42 43
DONOR_HYDROGENS      STATIC     ATOMS    <user>   **** ""
1 26
ATOM$BLUE        STATIC     ATOMS    COLORGROUP SYSTEM
6 38 39 40 41 42 43
ATOM$RED        STATIC     ATOMS    COLORGROUP SYSTEM
1 26
