#       Name:                AV-unprocessed.smi:3116
#       Creating user name   scv26
#       Creation time:       Fri Mar 27 17:26:00 2020


#       File generated by GOLD software.
#

@<TRIPOS>MOLECULE
AV-unprocessed.smi:3116
    37    37     1
SMALL
NO_CHARGES


@<TRIPOS>ATOM
      1 ****        -2.8937   0.6839  -0.6549 C.3            1 S1                 0.0000
      2 ****        -1.3704   0.8069  -0.8124 C.3            1 S1                 0.0000
      3 ****        -0.7769  -0.5344  -0.9575 N.3            1 S1                 0.0000
      4 ****         0.6849  -0.5809  -0.8801 C.3            1 S1                 0.0000
      5 ****         1.1608  -1.3300  -2.1366 C.3            1 S1                 0.0000
      6 ****         1.1154  -1.2743   0.4424 C.3            1 S1                 0.0000
      7 ****         2.6430  -1.4347   0.5703 C.3            1 S1                 0.0000
      8 ****         0.5875  -0.5783   1.6114 N.pl3          1 S1                 0.0000
      9 ****        -0.4049  -0.9972   2.4739 C.2            1 S1                 0.0000
     10 ****        -0.5887  -0.0090   3.3978 C.2            1 S1                 0.0000
     11 ****         0.3479   0.9905   3.0141 C.2            1 S1                 0.0000
     12 ****         1.0480   0.6497   1.9445 N.2            1 S1                 0.0000
     13 ****        -1.0212   1.7421  -1.9817 C.2            1 S1                 0.0000
     14 ****        -0.2605   2.8044  -1.7063 N.am           1 S1                 0.0000
     15 ****        -1.4175   1.4998  -3.1202 O.2            1 S1                 0.0000
     16 ****        -3.3609   1.6629  -0.5410 H              1 S1                 0.0000
     17 ****        -3.1470   0.0988   0.2298 H              1 S1                 0.0000
     18 ****        -3.3504   0.1947  -1.5165 H              1 S1                 0.0000
     19 ****        -0.9928   1.2513   0.1091 H              1 S1                 0.0000
     20 ****        -1.1715  -1.1939  -0.3028 H              1 S1                 0.0000
     21 ****         1.1154   0.4206  -0.9084 H              1 S1                 0.0000
     22 ****         2.2476  -1.3331  -2.2148 H              1 S1                 0.0000
     23 ****         0.7814  -0.8560  -3.0428 H              1 S1                 0.0000
     24 ****         0.8219  -2.3665  -2.1370 H              1 S1                 0.0000
     25 ****         0.6870  -2.2780   0.4543 H              1 S1                 0.0000
     26 ****         3.0418  -2.1065  -0.1892 H              1 S1                 0.0000
     27 ****         2.9112  -1.8566   1.5395 H              1 S1                 0.0000
     28 ****         3.1566  -0.4779   0.4713 H              1 S1                 0.0000
     29 ****        -0.8966  -1.9518   2.3568 H              1 S1                 0.0000
     30 ****        -1.2877  -0.0008   4.2208 H              1 S1                 0.0000
     31 ****         0.5366   1.9482   3.4761 H              1 S1                 0.0000
     32 ****        -0.0100   3.4493  -2.4418 H              1 S1                 0.0000
     33 ****         0.0568   2.9606  -0.7608 H              1 S1                 0.0000
     34 ****        -1.0160  -0.7974  -1.8922 LP             1 S1                 0.0000
     35 ****         1.7592   1.1813   1.4845 LP             1 S1                 0.0000
     36 ****        -1.9735   0.6869  -3.2937 LP             1 S1                 0.0000
     37 ****        -1.1839   2.1157  -3.8727 LP             1 S1                 0.0000
@<TRIPOS>BOND
    1    1    2 1     
    2    1   16 1     
    3    1   17 1     
    4    1   18 1     
    5    2    3 1     
    6    2   13 1     
    7    2   19 1     
    8    3    4 1     
    9    3   20 1     
   10    4    5 1     
   11    4    6 1     
   12    4   21 1     
   13    5   22 1     
   14    5   23 1     
   15    5   24 1     
   16    6    7 1     
   17    6    8 1     
   18    6   25 1     
   19    7   26 1     
   20    7   27 1     
   21    7   28 1     
   22    8   12 1     
   23    8    9 1     
   24    9   10 2     
   25    9   29 1     
   26   10   11 1     
   27   10   30 1     
   28   11   12 2     
   29   11   31 1     
   30   13   14 am    
   31   13   15 2     
   32   14   32 1     
   33   14   33 1     
   34    3   34 1     
   35   12   35 1     
   36   15   36 1     
   37   15   37 1     
@<TRIPOS>SUBSTRUCTURE
      1 S1             1
@<TRIPOS>SET
LONE_PAIRS      STATIC     ATOMS    <user>   **** ""
4 34 35 36 37
DONOR_HYDROGENS      STATIC     ATOMS    <user>   **** ""
3 20 32 33
ATOM$BLUE        STATIC     ATOMS    COLORGROUP SYSTEM
4 34 35 36 37
ATOM$RED        STATIC     ATOMS    COLORGROUP SYSTEM
3 20 32 33
