AV-unprocessed.smi:1372|AV-procd|sdf|5583|dock6
  -GOLD-   22720 5183D 1   1.00000     0.00000
 Structure written by MMmdl.
 41 43  0  0  0  0  0  0  0  0  1 V2000
  150.9433  136.7332  154.9418 C   0  0  0  0  0  0  0  0  0  0  0  0
  151.8877  137.4764  156.3338 S   0  0  0  0  0  0  0  0  0  0  0  0
  151.0008  137.5426  157.5055 O   0  0  0  0  0  0  0  0  0  0  0  0
  153.1806  136.7830  156.4396 O   0  0  0  0  0  0  0  0  0  0  0  0
  152.1831  139.1914  155.7129 C   0  0  0  0  0  0  0  0  0  0  0  0
  150.8853  139.8733  155.3800 C   0  0  0  0  0  0  0  0  0  0  0  0
  150.2604  139.6612  154.2201 N   0  0  0  0  0  0  0  0  0  0  0  0
  149.1326  140.4490  154.3258 C   0  0  0  0  0  0  0  0  0  0  0  0
  148.0630  140.6487  153.4240 C   0  0  0  0  0  0  0  0  0  0  0  0
  147.0025  141.5172  153.7559 C   0  0  0  0  0  0  0  0  0  0  0  0
  146.9971  142.1970  154.9911 C   0  0  0  0  0  0  0  0  0  0  0  0
  148.0546  142.0132  155.9028 C   0  0  0  0  0  0  0  0  0  0  0  0
  149.1106  141.1449  155.5663 C   0  0  0  0  0  0  0  0  0  0  0  0
  150.2763  140.7543  156.2184 N   0  0  0  0  0  0  0  0  0  0  0  0
  150.7048  141.2298  157.5284 C   0  0  0  0  0  0  0  0  0  0  0  0
  151.5945  142.4863  157.4477 C   0  0  1  0  0  0  0  0  0  0  0  0
  151.0344  143.4253  156.5515 O   0  0  0  0  0  0  0  0  0  0  0  0
  151.8306  143.0813  158.8267 C   0  0  0  0  0  0  0  0  0  0  0  0
  151.4858  144.4259  159.0823 C   0  0  0  0  0  0  0  0  0  0  0  0
  151.7112  144.9871  160.3544 C   0  0  0  0  0  0  0  0  0  0  0  0
  152.2846  144.2077  161.3774 C   0  0  0  0  0  0  0  0  0  0  0  0
  152.6336  142.8667  161.1276 C   0  0  0  0  0  0  0  0  0  0  0  0
  152.4087  142.3050  159.8556 C   0  0  0  0  0  0  0  0  0  0  0  0
  150.7005  135.6982  155.1819 H   0  0  0  0  0  0  0  0  0  0  0  0
  151.5474  136.7617  154.0351 H   0  0  0  0  0  0  0  0  0  0  0  0
  150.0221  137.2939  154.7848 H   0  0  0  0  0  0  0  0  0  0  0  0
  152.7355  139.7243  156.4831 H   0  0  0  0  0  0  0  0  0  0  0  0
  152.8098  139.1388  154.8229 H   0  0  0  0  0  0  0  0  0  0  0  0
  148.0589  140.1318  152.4759 H   0  0  0  0  0  0  0  0  0  0  0  0
  146.1896  141.6622  153.0595 H   0  0  0  0  0  0  0  0  0  0  0  0
  146.1809  142.8602  155.2380 H   0  0  0  0  0  0  0  0  0  0  0  0
  148.0531  142.5330  156.8494 H   0  0  0  0  0  0  0  0  0  0  0  0
  149.8374  141.3951  158.1664 H   0  0  0  0  0  0  0  0  0  0  0  0
  151.2631  140.4234  158.0058 H   0  0  0  0  0  0  0  0  0  0  0  0
  152.5615  142.2006  157.0309 H   0  0  0  0  0  0  0  0  0  0  0  0
  150.2830  143.8225  156.9648 H   0  0  0  0  0  0  0  0  0  0  0  0
  151.0488  145.0333  158.3031 H   0  0  0  0  0  0  0  0  0  0  0  0
  151.4452  146.0164  160.5450 H   0  0  0  0  0  0  0  0  0  0  0  0
  152.4579  144.6384  162.3527 H   0  0  0  0  0  0  0  0  0  0  0  0
  153.0748  142.2692  161.9115 H   0  0  0  0  0  0  0  0  0  0  0  0
  152.6834  141.2765  159.6714 H   0  0  0  0  0  0  0  0  0  0  0  0
  1  2  1  0  0  0  0
  1 24  1  0  0  0  0
  1 25  1  0  0  0  0
  1 26  1  0  0  0  0
  2  3  2  0  0  0  0
  2  4  2  0  0  0  0
  2  5  1  0  0  0  0
  5  6  1  0  0  0  0
  5 27  1  0  0  0  0
  5 28  1  0  0  0  0
  6 14  1  0  0  0  0
  6  7  2  0  0  0  0
  7  8  1  0  0  0  0
  8 13  2  0  0  0  0
  8  9  1  0  0  0  0
  9 10  2  0  0  0  0
  9 29  1  0  0  0  0
 10 11  1  0  0  0  0
 10 30  1  0  0  0  0
 11 12  2  0  0  0  0
 11 31  1  0  0  0  0
 12 13  1  0  0  0  0
 12 32  1  0  0  0  0
 13 14  1  0  0  0  0
 14 15  1  0  0  0  0
 15 16  1  0  0  0  0
 15 33  1  0  0  0  0
 15 34  1  0  0  0  0
 16 17  1  0  0  0  0
 16 18  1  0  0  0  0
 16 35  1  0  0  0  0
 17 36  1  0  0  0  0
 18 23  1  0  0  0  0
 18 19  2  0  0  0  0
 19 20  1  0  0  0  0
 19 37  1  0  0  0  0
 20 21  2  0  0  0  0
 20 38  1  0  0  0  0
 21 22  1  0  0  0  0
 21 39  1  0  0  0  0
 22 23  2  0  0  0  0
 22 40  1  0  0  0  0
 23 41  1  0  0  0  0
M  END
> <s_m_source_file>
AV-unprocessed.smi

> <i_m_source_file_index>
1372

> <i_lp_mmshare_version>
43012

> <i_f3d_flags>
0

> <s_epik_input>
W2NIXTFbY0hdW2NIXVtjSF1jKGMxMiluKGMobjIpW0NIMl1TKD1PKSg9TylbQ0gzXSlbQ0gyXVtDQEhdKFtPSF0pYzNbY0hdW2NIXVtjSF1bY0hdW2NIXTM=

> <s_epik_cmdline>
J2VwaWtfcHl0aG9uJywgJy1waCcsICc3LjAnLCAnLXRuJywgJzgnLCAnLW1hJywgJzIwMCcsICctbWV0YWxfYmluZGluZycsICctaW1hZScsICc8aW5maWxlLm1hZT4nLCAnLW9tYWUnLCAnPG91dGZpbGUubWFlPic=

> <r_epik_Ionization_Penalty>
0.0151431

> <r_epik_Ionization_Penalty_Charging>
0

> <r_epik_Ionization_Penalty_Neutral>
0.0151431

> <r_epik_State_Penalty>
0.0118835

> <r_epik_Charging_Adjusted_Penalty>
0.0118835

> <i_epik_Tot_Q>
0

> <i_epik_Tot_abs_Q>
0

> <r_epik_Metal_State_Penalty>
1.20034e-05

> <b_epik_Metal_Only>
0

> <s_lp_Force_Field>
OPLS_2005

> <r_lp_Energy>
10.2865

> <b_lp_Chiralities_Consistent>
1

> <s_lp_Variant>
AV-unprocessed.smi:1372-2

> <Gold.Version>
5.8.1

> <Gold.Id.Protein>
6NUR|6NUR_protein|mol2

> <Gold.PLP.Fitness>
51.4875

> <Gold.PLP.PLP>
-48.5358

> <Gold.PLP.part.hbond>
-3.0000

> <Gold.PLP.part.metal>
0.0000

> <Gold.PLP.part.buried>
-1.0639

> <Gold.PLP.part.nonpolar>
-45.6742

> <Gold.PLP.part.repulsive>
0.1512

> <Gold.PLP.ligand.clash>
0.0000

> <Gold.PLP.ligand.torsion>
0.8016

> <Gold.PLP.Chemscore.Hbond>
1.4592

> <Gold.PLP.Chemscore.CHOScore>
0.0000

> <Gold.PLP.Chemscore.Metal>
0.0000

> <Gold.Chemscore.Hbonds>
donor molecule, donor type, donor heavy atom, donor atom, acceptor molecule, acceptor atom, score
      L1  H    17    36       P1  8028  0.27
      P1  H  7989  7998       L1     7  0.25
      P1  H 10752 10763       L1     4  0.83

> <Gold.PLP.Chemscore.Internal.Correction>
0.1773

> <Gold.Rescore>
     Score         DG    S(hbond)    S(metal)    S(lipo)     H(rot)  DE(clash)    DE(int)     intcor
     17.70     -19.13       1.35        0.00     129.24       2.33       0.54       0.89       ----

> <Gold.Chemscore.Fitness>
17.7033

> <Gold.Chemscore.DG>
-19.1277

> <Gold.Chemscore.ZeroCoef>
-5.4800

> <Gold.Chemscore.Hbond>
1.3451

> <Gold.Chemscore.Metal>
0.0000

> <Gold.Chemscore.Lipo>
129.2446

> <Gold.Chemscore.Internal_Hbond>
0.0000

> <Gold.Chemscore.DEClash>
0.5360

> <Gold.Chemscore.DEInternal>
0.8884

> <Gold.Chemscore.Rot>
2.3306

> <Gold.Chemscore.Internal.Correction>
   9.000000E+99

> <Gold.Chemscore.Hbonds>
donor molecule, donor type, donor heavy atom, donor atom, acceptor molecule, acceptor atom, score
      L1  H    17    36       P1  8028  0.26
      P1  H 10752 10763       L1     4  0.77

> <Gold.Chemscore.Hbond.Weighted>
-4.4925

> <Gold.Chemscore.Metal.Weighted>
-0.0000

> <Gold.Chemscore.Lipo.Weighted>
-15.1216

> <Gold.Chemscore.Internal_Hbond.Weighted>
0.0000

> <Gold.Chemscore.DEClash.Weighted>
0.5360

> <Gold.Chemscore.DEInternal.Weighted>
0.8884

> <Gold.Chemscore.Rot.Weighted>
5.9664

> <Gold.Chemscore.Internal.Correction.Weighted>
   9.000000E+99

> <Gold.Protein.RotatedTorsions>
[ 6907 6896 6895 6894 ] final -172.19 input  -60.11 | X-H torsion
[ 7974 7965 7964 7962 ] final  105.29 input  175.53 | X-H torsion
[ 8008 7997 7996 7995 ] final -116.16 input   59.86 | X-H torsion
[ 10167 10162 10161 10158 ] final   -1.67 input  -65.29 | X-H torsion
[ 10718 10713 10712 10709 ] final -121.42 input   66.30 | X-H torsion
[ 10763 10752 10751 10750 ] final  111.03 input  -60.55 | X-H torsion
[ 11005 11000 10999 10996 ] final   -9.43 input  -57.11 | X-H torsion

> <Gold.Protein.ActiveResidues>
 VAL166  LYS551  ARG553  GLY616  TRP617  ASP618  TYR619  PRO620  LYS621  CYS622 
 ASP623  PHE694  ASN695  SER759  ASP760  ASP761  ALA762  ILE779  LEU786  VAL792 
 PHE793  MET794  SER795  GLU796  ALA797  LYS798  CYS799  TRP800  GLU811  SER814 

> <Gold.Protein.RotatedAtoms>
  151.5360  133.3441  159.2926 H   0  0  0  0  0  0  0  0  0  0  0  0  # atno 6907 bound_to 6896
  150.8564  134.7907  159.7060 H   0  0  0  0  0  0  0  0  0  0  0  0  # atno 6908 bound_to 6896
  152.4597  134.5221  159.9837 H   0  0  0  0  0  0  0  0  0  0  0  0  # atno 6909 bound_to 6896
  145.3217  139.2511  143.3708 H   0  0  0  0  0  0  0  0  0  0  0  0  # atno 7974 bound_to 7965
  155.0634  140.0393  157.2584 H   0  0  0  0  0  0  0  0  0  0  0  0  # atno 8008 bound_to 7997
  154.7041  140.2679  155.6667 H   0  0  0  0  0  0  0  0  0  0  0  0  # atno 8009 bound_to 7997
  156.2769  140.2735  156.1661 H   0  0  0  0  0  0  0  0  0  0  0  0  # atno 8010 bound_to 7997
  140.6820  143.6748  150.8155 H   0  0  0  0  0  0  0  0  0  0  0  0  # atno 10167 bound_to 10162
  156.1335  130.6413  150.9660 H   0  0  0  0  0  0  0  0  0  0  0  0  # atno 10718 bound_to 10713
  153.4575  135.3730  155.2319 H   0  0  0  0  0  0  0  0  0  0  0  0  # atno 10763 bound_to 10752
  154.8757  135.3900  154.3965 H   0  0  0  0  0  0  0  0  0  0  0  0  # atno 10764 bound_to 10752
  153.4533  135.7086  153.6159 H   0  0  0  0  0  0  0  0  0  0  0  0  # atno 10765 bound_to 10752
  140.7341  133.8725  155.8916 H   0  0  0  0  0  0  0  0  0  0  0  0  # atno 11005 bound_to 11000
  146.3080  140.3775  142.8680 LP  0  0  0  0  0  0  0  0  0  0  0  0  # atno 17320 bound_to 7965
  144.8934  140.7553  143.5912 LP  0  0  0  0  0  0  0  0  0  0  0  0  # atno 17321 bound_to 7965
  140.0449  143.5308  152.2700 LP  0  0  0  0  0  0  0  0  0  0  0  0  # atno 17342 bound_to 10162
  139.6149  144.7617  151.2869 LP  0  0  0  0  0  0  0  0  0  0  0  0  # atno 17343 bound_to 10162
  157.6511  131.0897  150.8049 LP  0  0  0  0  0  0  0  0  0  0  0  0  # atno 17370 bound_to 10713
  156.8131  130.4959  149.5353 LP  0  0  0  0  0  0  0  0  0  0  0  0  # atno 17371 bound_to 10713
  140.9895  134.1297  157.4421 LP  0  0  0  0  0  0  0  0  0  0  0  0  # atno 17394 bound_to 11000
  139.8820  135.0036  156.6197 LP  0  0  0  0  0  0  0  0  0  0  0  0  # atno 17395 bound_to 11000

$$$$
