AV-unprocessed.smi:3315|AV-procd|sdf|12749|dock1
  -GOLD-   2272019 83D 1   1.00000     0.00000
 Structure written by MMmdl.
 37 38  0  0  0  0  0  0  0  0  1 V2000
  149.6616  141.6831  154.9417 C   0  0  0  0  0  0  0  0  0  0  0  0
  148.8951  141.4313  153.7710 O   0  0  0  0  0  0  0  0  0  0  0  0
  147.6142  140.8307  153.9690 C   0  0  1  0  0  0  0  0  0  0  0  0
  146.6946  141.7931  154.7368 C   0  0  0  0  0  0  0  0  0  0  0  0
  147.0687  140.1859  152.6816 C   0  0  0  0  0  0  0  0  0  0  0  0
  146.6575  139.0020  153.5544 C   0  0  1  0  0  0  0  0  0  0  0  0
  146.8157  137.7201  152.8758 N   0  0  0  0  0  0  0  0  0  0  0  0
  145.7990  136.9296  152.5055 C   0  0  0  0  0  0  0  0  0  0  0  0
  144.6169  137.2111  152.7027 O   0  0  0  0  0  0  0  0  0  0  0  0
  146.2452  135.8130  151.9059 N   0  0  0  0  0  0  0  0  0  0  0  0
  145.4907  134.7403  151.3641 C   0  0  0  0  0  0  0  0  0  0  0  0
  144.0691  134.6542  151.3013 C   0  0  0  0  0  0  0  0  0  0  0  0
  143.8667  133.4459  150.6975 C   0  0  0  0  0  0  0  0  0  0  0  0
  145.0524  132.8439  150.4166 O   0  0  0  0  0  0  0  0  0  0  0  0
  146.0884  133.6809  150.8486 N   0  0  0  0  0  0  0  0  0  0  0  0
  147.8140  139.3792  154.5153 C   0  0  0  0  0  0  0  0  0  0  0  0
  149.1865  138.7324  154.2390 C   0  0  0  0  0  0  0  0  0  0  0  0
  147.5412  139.1596  156.0068 C   0  0  0  0  0  0  0  0  0  0  0  0
  150.5607  142.2338  154.6662 H   0  0  0  0  0  0  0  0  0  0  0  0
  149.9830  140.7602  155.4234 H   0  0  0  0  0  0  0  0  0  0  0  0
  149.1151  142.2865  155.6669 H   0  0  0  0  0  0  0  0  0  0  0  0
  145.7584  141.3163  155.0260 H   0  0  0  0  0  0  0  0  0  0  0  0
  146.4227  142.6614  154.1376 H   0  0  0  0  0  0  0  0  0  0  0  0
  147.1717  142.1547  155.6480 H   0  0  0  0  0  0  0  0  0  0  0  0
  146.2360  140.7182  152.2210 H   0  0  0  0  0  0  0  0  0  0  0  0
  147.8419  139.9448  151.9496 H   0  0  0  0  0  0  0  0  0  0  0  0
  145.6689  139.1490  153.9958 H   0  0  0  0  0  0  0  0  0  0  0  0
  147.7586  137.4178  152.6792 H   0  0  0  0  0  0  0  0  0  0  0  0
  147.2465  135.7220  151.8174 H   0  0  0  0  0  0  0  0  0  0  0  0
  143.3130  135.3483  151.6352 H   0  0  0  0  0  0  0  0  0  0  0  0
  142.9797  132.9001  150.4121 H   0  0  0  0  0  0  0  0  0  0  0  0
  149.1832  137.6662  154.4679 H   0  0  0  0  0  0  0  0  0  0  0  0
  149.9706  139.1888  154.8442 H   0  0  0  0  0  0  0  0  0  0  0  0
  149.4900  138.8334  153.1970 H   0  0  0  0  0  0  0  0  0  0  0  0
  147.6382  138.1088  156.2821 H   0  0  0  0  0  0  0  0  0  0  0  0
  146.5325  139.4623  156.2868 H   0  0  0  0  0  0  0  0  0  0  0  0
  148.2353  139.7283  156.6264 H   0  0  0  0  0  0  0  0  0  0  0  0
  1  2  1  0  0  0  0
  1 19  1  0  0  0  0
  1 20  1  0  0  0  0
  1 21  1  0  0  0  0
  2  3  1  0  0  0  0
  3 16  1  0  0  0  0
  3  4  1  0  0  0  0
  3  5  1  0  0  0  0
  4 22  1  0  0  0  0
  4 23  1  0  0  0  0
  4 24  1  0  0  0  0
  5  6  1  0  0  0  0
  5 25  1  0  0  0  0
  5 26  1  0  0  0  0
  6  7  1  0  0  0  0
  6 16  1  0  0  0  0
  6 27  1  0  0  0  0
  7  8  1  0  0  0  0
  7 28  1  0  0  0  0
  8  9  2  0  0  0  0
  8 10  1  0  0  0  0
 10 11  1  0  0  0  0
 10 29  1  0  0  0  0
 11 15  2  0  0  0  0
 11 12  1  0  0  0  0
 12 13  2  0  0  0  0
 12 30  1  0  0  0  0
 13 14  1  0  0  0  0
 13 31  1  0  0  0  0
 14 15  1  0  0  0  0
 16 17  1  0  0  0  0
 16 18  1  0  0  0  0
 17 32  1  0  0  0  0
 17 33  1  0  0  0  0
 17 34  1  0  0  0  0
 18 35  1  0  0  0  0
 18 36  1  0  0  0  0
 18 37  1  0  0  0  0
M  END
> <s_m_source_file>
AV-unprocessed.smi

> <i_m_source_file_index>
3315

> <i_lp_mmshare_version>
43012

> <i_f3d_flags>
0

> <s_epik_input>
W0NIM11PW0NAQF0xKFtDSDNdKVtDSDJdW0NASF0oQzEoW0NIM10pW0NIM10pW05IXUMoPU8pW05IXWMyW2NIXVtjSF1vbjI=

> <s_epik_cmdline>
J2VwaWtfcHl0aG9uJywgJy1waCcsICc3LjAnLCAnLXRuJywgJzgnLCAnLW1hJywgJzIwMCcsICctbWV0YWxfYmluZGluZycsICctaW1hZScsICc8aW5maWxlLm1hZT4nLCAnLW9tYWUnLCAnPG91dGZpbGUubWFlPic=

> <r_lp_tautomer_probability>
1

> <r_epik_Ionization_Penalty>
2.28875e-05

> <r_epik_Ionization_Penalty_Charging>
0

> <r_epik_Ionization_Penalty_Neutral>
2.28875e-05

> <r_epik_State_Penalty>
-0

> <r_epik_Charging_Adjusted_Penalty>
0

> <i_epik_Tot_Q>
0

> <i_epik_Tot_abs_Q>
0

> <r_epik_Metal_State_Penalty>
-0

> <b_epik_Metal_Only>
0

> <s_lp_Force_Field>
OPLS_2005

> <r_lp_Energy>
23.7909

> <b_lp_Chiralities_Consistent>
1

> <s_lp_Variant>
AV-unprocessed.smi:3315-1

> <Gold.Version>
5.8.1

> <Gold.Id.Protein>
6NUR|6NUR_protein|mol2

> <Gold.PLP.Fitness>
35.3143

> <Gold.PLP.PLP>
-25.1292

> <Gold.PLP.part.hbond>
-3.2602

> <Gold.PLP.part.metal>
0.0000

> <Gold.PLP.part.buried>
-2.9274

> <Gold.PLP.part.nonpolar>
-20.7946

> <Gold.PLP.part.repulsive>
1.2597

> <Gold.PLP.ligand.clash>
0.0000

> <Gold.PLP.ligand.torsion>
0.3207

> <Gold.PLP.Chemscore.Hbond>
2.7680

> <Gold.PLP.Chemscore.CHOScore>
0.7176

> <Gold.PLP.Chemscore.Metal>
0.0000

> <Gold.Chemscore.Hbonds>
donor molecule, donor type, donor heavy atom, donor atom, acceptor molecule, acceptor atom, score
      L1  H     7    28       P1  7948  1.00
      L1  H    10    29       P1  7948  1.00
      P1  H  8011  8017       L1     2  0.77
      L1  C    13    31       P1 10186  0.51

> <Gold.PLP.Chemscore.Internal.Correction>
0.3699

> <Gold.Rescore>
     Score         DG    S(hbond)    S(metal)    S(lipo)     H(rot)  DE(clash)    DE(int)     intcor
     14.92     -16.64       2.42        0.00      54.91       1.30       0.30       1.42       ----

> <Gold.Chemscore.Fitness>
14.9153

> <Gold.Chemscore.DG>
-16.6407

> <Gold.Chemscore.ZeroCoef>
-5.4800

> <Gold.Chemscore.Hbond>
2.4175

> <Gold.Chemscore.Metal>
0.0000

> <Gold.Chemscore.Lipo>
54.9071

> <Gold.Chemscore.Internal_Hbond>
0.0000

> <Gold.Chemscore.DEClash>
0.3015

> <Gold.Chemscore.DEInternal>
1.4239

> <Gold.Chemscore.Rot>
1.3038

> <Gold.Chemscore.Internal.Correction>
   9.000000E+99

> <Gold.Chemscore.Hbonds>
donor molecule, donor type, donor heavy atom, donor atom, acceptor molecule, acceptor atom, score
      L1  H     7    28       P1  7948  0.95
      L1  H    10    29       P1  7948  0.99
      P1  H  8011  8017       L1     2  0.41

> <Gold.Chemscore.Hbond.Weighted>
-8.0743

> <Gold.Chemscore.Metal.Weighted>
-0.0000

> <Gold.Chemscore.Lipo.Weighted>
-6.4241

> <Gold.Chemscore.Internal_Hbond.Weighted>
0.0000

> <Gold.Chemscore.DEClash.Weighted>
0.3015

> <Gold.Chemscore.DEInternal.Weighted>
1.4239

> <Gold.Chemscore.Rot.Weighted>
3.3377

> <Gold.Chemscore.Internal.Correction.Weighted>
   9.000000E+99

> <Gold.Protein.RotatedTorsions>
[ 6907 6896 6895 6894 ] final -119.69 input  -60.11 | X-H torsion
[ 7974 7965 7964 7962 ] final  117.65 input  175.53 | X-H torsion
[ 8008 7997 7996 7995 ] final   66.50 input   59.86 | X-H torsion
[ 10167 10162 10161 10158 ] final  -39.10 input  -65.29 | X-H torsion
[ 10718 10713 10712 10709 ] final   35.73 input   66.30 | X-H torsion
[ 10763 10752 10751 10750 ] final  166.69 input  -60.55 | X-H torsion
[ 11005 11000 10999 10996 ] final   80.70 input  -57.11 | X-H torsion

> <Gold.Protein.ActiveResidues>
 VAL166  LYS551  ARG553  GLY616  TRP617  ASP618  TYR619  PRO620  LYS621  CYS622 
 ASP623  PHE694  ASN695  SER759  ASP760  ASP761  ALA762  ILE779  LEU786  VAL792 
 PHE793  MET794  SER795  GLU796  ALA797  LYS798  CYS799  TRP800  GLU811  SER814 

> <Gold.Protein.RotatedAtoms>
  150.8327  133.8064  159.3091 H   0  0  0  0  0  0  0  0  0  0  0  0  # atno 6907 bound_to 6896
  151.5789  135.1057  160.0022 H   0  0  0  0  0  0  0  0  0  0  0  0  # atno 6908 bound_to 6896
  152.4404  133.7397  159.6690 H   0  0  0  0  0  0  0  0  0  0  0  0  # atno 6909 bound_to 6896
  145.1648  139.3134  143.4498 H   0  0  0  0  0  0  0  0  0  0  0  0  # atno 7974 bound_to 7965
  155.6783  140.3496  155.4845 H   0  0  0  0  0  0  0  0  0  0  0  0  # atno 8008 bound_to 7997
  155.9629  140.1140  157.0903 H   0  0  0  0  0  0  0  0  0  0  0  0  # atno 8009 bound_to 7997
  154.4147  140.1172  156.5189 H   0  0  0  0  0  0  0  0  0  0  0  0  # atno 8010 bound_to 7997
  140.7073  143.3235  151.2735 H   0  0  0  0  0  0  0  0  0  0  0  0  # atno 10167 bound_to 10162
  157.3262  130.7474  149.6817 H   0  0  0  0  0  0  0  0  0  0  0  0  # atno 10718 bound_to 10713
  154.3427  135.2754  155.2414 H   0  0  0  0  0  0  0  0  0  0  0  0  # atno 10763 bound_to 10752
  154.4677  135.5891  153.6303 H   0  0  0  0  0  0  0  0  0  0  0  0  # atno 10764 bound_to 10752
  152.9856  135.6080  154.3630 H   0  0  0  0  0  0  0  0  0  0  0  0  # atno 10765 bound_to 10752
  139.9125  134.7940  156.1944 H   0  0  0  0  0  0  0  0  0  0  0  0  # atno 11005 bound_to 11000
  146.3477  140.1772  142.8589 LP  0  0  0  0  0  0  0  0  0  0  0  0  # atno 17320 bound_to 7965
  145.0293  140.8858  143.5119 LP  0  0  0  0  0  0  0  0  0  0  0  0  # atno 17321 bound_to 7965
  139.6696  144.0043  152.2745 LP  0  0  0  0  0  0  0  0  0  0  0  0  # atno 17342 bound_to 10162
  139.9637  144.6540  150.8054 LP  0  0  0  0  0  0  0  0  0  0  0  0  # atno 17343 bound_to 10162
  155.9691  130.4208  150.4442 LP  0  0  0  0  0  0  0  0  0  0  0  0  # atno 17370 bound_to 10713
  157.2466  131.0537  151.2404 LP  0  0  0  0  0  0  0  0  0  0  0  0  # atno 17371 bound_to 10713
  141.0564  133.6863  156.1868 LP  0  0  0  0  0  0  0  0  0  0  0  0  # atno 17394 bound_to 11000
  140.6730  134.4847  157.5587 LP  0  0  0  0  0  0  0  0  0  0  0  0  # atno 17395 bound_to 11000

$$$$
