AV-unprocessed.smi:148|AV-procd|sdf|1219|dock9
  -GOLD-   2262018403D 1   1.00000     0.00000
 Structure written by MMmdl.
 63 67  0  0  0  0  0  0  0  0  1 V2000
  146.8530  129.3797  151.4061 O   0  0  0  0  0  0  0  0  0  0  0  0
  146.2134  129.8440  152.5784 C   0  0  0  0  0  0  0  0  0  0  0  0
  146.3204  131.3848  152.7415 C   0  0  1  0  0  0  0  0  0  0  0  0
  147.5685  131.8842  153.5360 C   0  0  0  0  0  0  0  0  0  0  0  0
  147.3217  132.3055  154.9050 N   0  0  0  0  0  0  0  0  0  0  0  0
  146.0964  132.4141  155.5232 C   0  0  0  0  0  0  0  0  0  0  0  0
  146.1329  132.8307  156.7595 N   0  0  0  0  0  0  0  0  0  0  0  0
  147.4867  133.0169  157.0137 C   0  0  0  0  0  0  0  0  0  0  0  0
  148.2373  133.4710  158.1351 C   0  0  0  0  0  0  0  0  0  0  0  0
  147.7036  133.8770  159.3094 N   0  0  0  0  0  0  0  0  0  0  0  0
  147.8987  135.3166  159.4771 C   0  0  0  0  0  0  0  0  0  0  0  0
  147.0909  135.8543  160.6647 C   0  0  0  0  0  0  0  0  0  0  0  0
  147.4443  135.0813  161.9392 C   0  0  0  0  0  0  0  0  0  0  0  0
  147.2167  133.5792  161.7223 C   0  0  0  0  0  0  0  0  0  0  0  0
  147.9991  133.0468  160.4924 C   0  0  1  0  0  0  0  0  0  0  0  0
  147.7815  131.5215  160.2336 C   0  0  2  0  0  0  0  0  0  0  0  0
  146.3289  131.0771  159.9698 C   0  0  0  0  0  0  0  0  0  0  0  0
  146.2109  129.6395  160.5021 C   0  0  0  0  0  0  0  0  0  0  0  0
  147.6119  129.2420  160.9756 C   0  0  0  0  0  0  0  0  0  0  0  0
  148.2803  130.5694  161.3306 C   0  0  1  0  0  0  0  0  0  0  0  0
  149.6881  130.4511  161.3340 O   0  0  0  0  0  0  0  0  0  0  0  0
  149.5880  133.5073  158.0252 N   0  0  0  0  0  0  0  0  0  0  0  0
  150.1746  133.1446  156.8805 C   0  0  0  0  0  0  0  0  0  0  0  0
  149.6074  132.7225  155.7481 N   0  0  0  0  0  0  0  0  0  0  0  0
  148.2491  132.6727  155.8631 C   0  0  0  0  0  0  0  0  0  0  0  0
  146.1486  132.1702  151.4063 C   0  0  1  0  0  0  0  0  0  0  0  0
  144.8968  131.8423  150.6008 C   0  0  0  0  0  0  0  0  0  0  0  0
  143.8182  132.6916  151.2671 C   0  0  0  0  0  0  0  0  0  0  0  0
  144.5000  133.8091  151.8265 O   0  0  0  0  0  0  0  0  0  0  0  0
  145.9021  133.6700  151.6237 C   0  0  0  0  0  0  0  0  0  0  0  0
  147.6909  129.8107  151.3296 H   0  0  0  0  0  0  0  0  0  0  0  0
  145.1696  129.5348  152.5431 H   0  0  0  0  0  0  0  0  0  0  0  0
  146.6289  129.3282  153.4436 H   0  0  0  0  0  0  0  0  0  0  0  0
  145.4648  131.6508  153.3641 H   0  0  0  0  0  0  0  0  0  0  0  0
  148.3438  131.1187  153.5722 H   0  0  0  0  0  0  0  0  0  0  0  0
  148.0190  132.7251  153.0070 H   0  0  0  0  0  0  0  0  0  0  0  0
  145.1683  132.1885  155.0179 H   0  0  0  0  0  0  0  0  0  0  0  0
  148.9593  135.5222  159.6293 H   0  0  0  0  0  0  0  0  0  0  0  0
  147.6010  135.8425  158.5684 H   0  0  0  0  0  0  0  0  0  0  0  0
  147.2891  136.9176  160.8018 H   0  0  0  0  0  0  0  0  0  0  0  0
  146.0241  135.7587  160.4579 H   0  0  0  0  0  0  0  0  0  0  0  0
  148.4864  135.2626  162.2053 H   0  0  0  0  0  0  0  0  0  0  0  0
  146.8404  135.4367  162.7745 H   0  0  0  0  0  0  0  0  0  0  0  0
  147.5171  133.0570  162.6292 H   0  0  0  0  0  0  0  0  0  0  0  0
  146.1479  133.4041  161.6042 H   0  0  0  0  0  0  0  0  0  0  0  0
  149.0563  133.1857  160.7191 H   0  0  0  0  0  0  0  0  0  0  0  0
  148.3458  131.2401  159.3434 H   0  0  0  0  0  0  0  0  0  0  0  0
  145.6028  131.7125  160.4741 H   0  0  0  0  0  0  0  0  0  0  0  0
  146.1002  131.1238  158.9046 H   0  0  0  0  0  0  0  0  0  0  0  0
  145.5165  129.6175  161.3432 H   0  0  0  0  0  0  0  0  0  0  0  0
  145.8300  128.9513  159.7468 H   0  0  0  0  0  0  0  0  0  0  0  0
  147.5912  128.5430  161.8125 H   0  0  0  0  0  0  0  0  0  0  0  0
  148.1464  128.7606  160.1548 H   0  0  0  0  0  0  0  0  0  0  0  0
  147.9386  130.8776  162.3175 H   0  0  0  0  0  0  0  0  0  0  0  0
  149.9644  130.1781  162.1956 H   0  0  0  0  0  0  0  0  0  0  0  0
  151.2526  133.2066  156.8684 H   0  0  0  0  0  0  0  0  0  0  0  0
  147.0379  132.0137  150.7940 H   0  0  0  0  0  0  0  0  0  0  0  0
  145.0360  132.1851  149.5743 H   0  0  0  0  0  0  0  0  0  0  0  0
  144.6394  130.7864  150.5436 H   0  0  0  0  0  0  0  0  0  0  0  0
  143.0492  133.0072  150.5618 H   0  0  0  0  0  0  0  0  0  0  0  0
  143.3344  132.1380  152.0724 H   0  0  0  0  0  0  0  0  0  0  0  0
  146.4600  134.1018  152.4539 H   0  0  0  0  0  0  0  0  0  0  0  0
  146.1730  134.2262  150.7251 H   0  0  0  0  0  0  0  0  0  0  0  0
  1  2  1  0  0  0  0
  1 31  1  0  0  0  0
  2  3  1  0  0  0  0
  2 32  1  0  0  0  0
  2 33  1  0  0  0  0
  3  4  1  0  0  0  0
  3 26  1  0  0  0  0
  3 34  1  0  0  0  0
  4  5  1  0  0  0  0
  4 35  1  0  0  0  0
  4 36  1  0  0  0  0
  5 25  1  0  0  0  0
  5  6  1  0  0  0  0
  6  7  2  0  0  0  0
  6 37  1  0  0  0  0
  7  8  1  0  0  0  0
  8 25  2  0  0  0  0
  8  9  1  0  0  0  0
  9 10  1  0  0  0  0
  9 22  2  0  0  0  0
 10 15  1  0  0  0  0
 10 11  1  0  0  0  0
 11 12  1  0  0  0  0
 11 38  1  0  0  0  0
 11 39  1  0  0  0  0
 12 13  1  0  0  0  0
 12 40  1  0  0  0  0
 12 41  1  0  0  0  0
 13 14  1  0  0  0  0
 13 42  1  0  0  0  0
 13 43  1  0  0  0  0
 14 15  1  0  0  0  0
 14 44  1  0  0  0  0
 14 45  1  0  0  0  0
 15 16  1  0  0  0  0
 15 46  1  0  0  0  0
 16 20  1  0  0  0  0
 16 17  1  0  0  0  0
 16 47  1  0  0  0  0
 17 18  1  0  0  0  0
 17 48  1  0  0  0  0
 17 49  1  0  0  0  0
 18 19  1  0  0  0  0
 18 50  1  0  0  0  0
 18 51  1  0  0  0  0
 19 20  1  0  0  0  0
 19 52  1  0  0  0  0
 19 53  1  0  0  0  0
 20 21  1  0  0  0  0
 20 54  1  0  0  0  0
 21 55  1  0  0  0  0
 22 23  1  0  0  0  0
 23 24  2  0  0  0  0
 23 56  1  0  0  0  0
 24 25  1  0  0  0  0
 26 30  1  0  0  0  0
 26 27  1  0  0  0  0
 26 57  1  0  0  0  0
 27 28  1  0  0  0  0
 27 58  1  0  0  0  0
 27 59  1  0  0  0  0
 28 29  1  0  0  0  0
 28 60  1  0  0  0  0
 28 61  1  0  0  0  0
 29 30  1  0  0  0  0
 30 62  1  0  0  0  0
 30 63  1  0  0  0  0
M  END
> <s_m_source_file>
AV-unprocessed.smi

> <i_m_source_file_index>
148

> <i_lp_mmshare_version>
43012

> <i_f3d_flags>
0

> <s_epik_input>
W0NIMl0xT1tDSDJdW0NIMl1bQ0BIXTFbQ0BIXShbQ0gyXVtPSF0pW0NIMl1uKFtjSF1uMiljKGMyMyluW2NIXW5jM040W0NIMl1bQ0gyXVtDSDJdW0NIMl1bQ0BIXTRbQ0BASF01W0NIMl1bQ0gyXVtDSDJdW0NASF01W09IXQ==

> <s_epik_cmdline>
J2VwaWtfcHl0aG9uJywgJy1waCcsICc3LjAnLCAnLXRuJywgJzgnLCAnLW1hJywgJzIwMCcsICctbWV0YWxfYmluZGluZycsICctaW1hZScsICc8aW5maWxlLm1hZT4nLCAnLW9tYWUnLCAnPG91dGZpbGUubWFlPic=

> <r_lp_tautomer_probability>
1

> <r_epik_Ionization_Penalty>
0.00556303

> <r_epik_Ionization_Penalty_Charging>
0

> <r_epik_Ionization_Penalty_Neutral>
0.00556303

> <r_epik_State_Penalty>
0.00401767

> <r_epik_Charging_Adjusted_Penalty>
0.00401767

> <i_epik_Tot_Q>
0

> <i_epik_Tot_abs_Q>
0

> <r_epik_Metal_State_Penalty>
-0

> <b_epik_Metal_Only>
0

> <s_lp_Force_Field>
OPLS_2005

> <r_lp_Energy>
73.5051

> <b_lp_Chiralities_Consistent>
1

> <s_lp_Variant>
AV-unprocessed.smi:148-18

> <Gold.Version>
5.8.1

> <Gold.Id.Protein>
6NUR|6NUR_protein|mol2

> <Gold.PLP.Fitness>
43.6492

> <Gold.PLP.PLP>
-36.6209

> <Gold.PLP.part.hbond>
-2.0000

> <Gold.PLP.part.metal>
0.0000

> <Gold.PLP.part.buried>
-7.3265

> <Gold.PLP.part.nonpolar>
-27.6261

> <Gold.PLP.part.repulsive>
0.1656

> <Gold.PLP.ligand.clash>
0.0000

> <Gold.PLP.ligand.torsion>
1.2113

> <Gold.PLP.Chemscore.Hbond>
2.0000

> <Gold.PLP.Chemscore.CHOScore>
1.0000

> <Gold.PLP.Chemscore.Metal>
0.0000

> <Gold.Chemscore.Hbonds>
donor molecule, donor type, donor heavy atom, donor atom, acceptor molecule, acceptor atom, score
      L1  H     1    31       P1 10747  1.00
      P1  H  6896  6909       L1    22  1.00
      L1  C     6    37       P1 10957  1.00

> <Gold.PLP.Chemscore.Internal.Correction>
0.4509

> <Gold.Rescore>
     Score         DG    S(hbond)    S(metal)    S(lipo)     H(rot)  DE(clash)    DE(int)     intcor
     13.30     -14.56       1.95        0.00      94.54       3.32       0.01       1.25       ----

> <Gold.Chemscore.Fitness>
13.2971

> <Gold.Chemscore.DG>
-14.5586

> <Gold.Chemscore.ZeroCoef>
-5.4800

> <Gold.Chemscore.Hbond>
1.9513

> <Gold.Chemscore.Metal>
0.0000

> <Gold.Chemscore.Lipo>
94.5406

> <Gold.Chemscore.Internal_Hbond>
0.0000

> <Gold.Chemscore.DEClash>
0.0149

> <Gold.Chemscore.DEInternal>
1.2467

> <Gold.Chemscore.Rot>
3.3203

> <Gold.Chemscore.Internal.Correction>
   9.000000E+99

> <Gold.Chemscore.Hbonds>
donor molecule, donor type, donor heavy atom, donor atom, acceptor molecule, acceptor atom, score
      L1  H     1    31       P1 10747  0.93
      P1  H  6896  6909       L1    22  0.74

> <Gold.Chemscore.Hbond.Weighted>
-6.5174

> <Gold.Chemscore.Metal.Weighted>
-0.0000

> <Gold.Chemscore.Lipo.Weighted>
-11.0613

> <Gold.Chemscore.Internal_Hbond.Weighted>
0.0000

> <Gold.Chemscore.DEClash.Weighted>
0.0149

> <Gold.Chemscore.DEInternal.Weighted>
1.2467

> <Gold.Chemscore.Rot.Weighted>
8.5000

> <Gold.Chemscore.Internal.Correction.Weighted>
   9.000000E+99

> <Gold.Protein.RotatedTorsions>
[ 6907 6896 6895 6894 ] final   -0.61 input  -60.11 | X-H torsion
[ 7974 7965 7964 7962 ] final  119.73 input  175.53 | X-H torsion
[ 8008 7997 7996 7995 ] final  139.46 input   59.86 | X-H torsion
[ 10167 10162 10161 10158 ] final  -29.22 input  -65.29 | X-H torsion
[ 10718 10713 10712 10709 ] final  109.46 input   66.30 | X-H torsion
[ 10763 10752 10751 10750 ] final -114.37 input  -60.55 | X-H torsion
[ 11005 11000 10999 10996 ] final  118.33 input  -57.11 | X-H torsion

> <Gold.Protein.ActiveResidues>
 VAL166  LYS551  ARG553  GLY616  TRP617  ASP618  TYR619  PRO620  LYS621  CYS622 
 ASP623  PHE694  ASN695  SER759  ASP760  ASP761  ALA762  ILE779  LEU786  VAL792 
 PHE793  MET794  SER795  GLU796  ALA797  LYS798  CYS799  TRP800  GLU811  SER814 

> <Gold.Protein.RotatedAtoms>
  151.5595  135.1066  159.9968 H   0  0  0  0  0  0  0  0  0  0  0  0  # atno 6907 bound_to 6896
  152.4453  133.7521  159.6710 H   0  0  0  0  0  0  0  0  0  0  0  0  # atno 6908 bound_to 6896
  150.8368  133.7933  159.3100 H   0  0  0  0  0  0  0  0  0  0  0  0  # atno 6909 bound_to 6896
  145.1397  139.3276  143.4622 H   0  0  0  0  0  0  0  0  0  0  0  0  # atno 7974 bound_to 7965
  156.2989  140.2367  156.4240 H   0  0  0  0  0  0  0  0  0  0  0  0  # atno 8008 bound_to 7997
  154.8329  140.0432  157.1510 H   0  0  0  0  0  0  0  0  0  0  0  0  # atno 8009 bound_to 7997
  154.9187  140.3000  155.5231 H   0  0  0  0  0  0  0  0  0  0  0  0  # atno 8010 bound_to 7997
  140.7262  143.3946  151.1369 H   0  0  0  0  0  0  0  0  0  0  0  0  # atno 10167 bound_to 10162
  157.6540  131.0914  150.6457 H   0  0  0  0  0  0  0  0  0  0  0  0  # atno 10718 bound_to 10713
  154.8437  135.4420  154.1495 H   0  0  0  0  0  0  0  0  0  0  0  0  # atno 10763 bound_to 10752
  153.2660  135.6940  153.7536 H   0  0  0  0  0  0  0  0  0  0  0  0  # atno 10764 bound_to 10752
  153.6794  135.3405  155.3150 H   0  0  0  0  0  0  0  0  0  0  0  0  # atno 10765 bound_to 10752
  139.9106  134.9619  156.7487 H   0  0  0  0  0  0  0  0  0  0  0  0  # atno 11005 bound_to 11000
  146.3506  140.1429  142.8594 LP  0  0  0  0  0  0  0  0  0  0  0  0  # atno 17320 bound_to 7965
  145.0546  140.9043  143.4975 LP  0  0  0  0  0  0  0  0  0  0  0  0  # atno 17321 bound_to 7965
  139.7557  143.8711  152.3088 LP  0  0  0  0  0  0  0  0  0  0  0  0  # atno 17342 bound_to 10162
  139.8580  144.7131  150.9134 LP  0  0  0  0  0  0  0  0  0  0  0  0  # atno 17343 bound_to 10162
  156.6765  130.4555  149.5641 LP  0  0  0  0  0  0  0  0  0  0  0  0  # atno 17370 bound_to 10713
  156.1959  130.6589  151.1114 LP  0  0  0  0  0  0  0  0  0  0  0  0  # atno 17371 bound_to 10713
  140.6791  133.9491  155.7900 LP  0  0  0  0  0  0  0  0  0  0  0  0  # atno 17394 bound_to 11000
  141.0523  134.0467  157.3767 LP  0  0  0  0  0  0  0  0  0  0  0  0  # atno 17395 bound_to 11000

$$$$
