AV-unprocessed.smi:196|AV-procd|sdf|1540|dock10
  -GOLD-   2262019403D 1   1.00000     0.00000
 Structure written by MMmdl.
 47 50  0  0  0  0  0  0  0  0  1 V2000
  144.5991  134.7495  151.5112 C   0  0  0  0  0  0  0  0  0  0  0  0
  145.6818  133.8475  150.8985 C   0  0  2  0  0  0  0  0  0  0  0  0
  145.0802  133.1284  149.8245 O   0  0  0  0  0  0  0  0  0  0  0  0
  145.7012  131.8600  149.7135 C   0  0  0  0  0  0  0  0  0  0  0  0
  145.8941  131.4612  151.1684 C   0  0  0  0  0  0  0  0  0  0  0  0
  146.3076  132.7719  151.8315 C   0  0  1  0  0  0  0  0  0  0  0  0
  147.7178  132.8841  151.7286 O   0  0  0  0  0  0  0  0  0  0  0  0
  145.9298  132.8556  153.3344 C   0  0  0  0  0  0  0  0  0  0  0  0
  146.4193  134.0608  153.9875 N   0  0  0  0  0  0  0  0  0  0  0  0
  145.6737  135.1580  154.3591 C   0  0  0  0  0  0  0  0  0  0  0  0
  146.3440  136.1227  154.9285 N   0  0  0  0  0  0  0  0  0  0  0  0
  147.6494  135.6505  154.9559 C   0  0  0  0  0  0  0  0  0  0  0  0
  148.8791  136.1837  155.4205 C   0  0  0  0  0  0  0  0  0  0  0  0
  148.9506  137.4044  155.9985 N   0  0  0  0  0  0  0  0  0  0  0  0
  148.5483  137.4383  157.4014 C   0  0  0  0  0  0  0  0  0  0  0  0
  149.6243  138.2393  158.1363 C   0  0  1  0  0  0  0  0  0  0  0  0
  150.5514  137.4056  158.6109 F   0  0  0  0  0  0  0  0  0  0  0  0
  150.2292  139.1018  157.0342 C   0  0  0  0  0  0  0  0  0  0  0  0
  150.1789  138.1848  155.8040 C   0  0  2  0  0  0  0  0  0  0  0  0
  150.2182  138.9897  154.4913 C   0  0  0  0  0  0  0  0  0  0  0  0
  149.9739  138.3578  153.3382 N   0  0  0  0  0  0  0  0  0  0  0  0
  150.4781  140.1905  154.5223 O   0  0  0  0  0  0  0  0  0  0  0  0
  149.9950  135.4200  155.2898 N   0  0  0  0  0  0  0  0  0  0  0  0
  149.9118  134.2100  154.7281 C   0  0  0  0  0  0  0  0  0  0  0  0
  148.8355  133.5864  154.2429 N   0  0  0  0  0  0  0  0  0  0  0  0
  147.7150  134.3530  154.3766 C   0  0  0  0  0  0  0  0  0  0  0  0
  149.2366  138.8146  158.9773 H   0  0  0  0  0  0  0  0  0  0  0  0
  151.0533  137.5323  155.8247 H   0  0  0  0  0  0  0  0  0  0  0  0
  144.9939  135.3449  152.3346 H   0  0  0  0  0  0  0  0  0  0  0  0
  143.7557  134.1668  151.8823 H   0  0  0  0  0  0  0  0  0  0  0  0
  144.2117  135.4434  150.7649 H   0  0  0  0  0  0  0  0  0  0  0  0
  146.4607  134.4848  150.4752 H   0  0  0  0  0  0  0  0  0  0  0  0
  145.0810  131.1550  149.1599 H   0  0  0  0  0  0  0  0  0  0  0  0
  146.6589  131.9594  149.2004 H   0  0  0  0  0  0  0  0  0  0  0  0
  144.9356  131.1260  151.5659 H   0  0  0  0  0  0  0  0  0  0  0  0
  146.6118  130.6507  151.3025 H   0  0  0  0  0  0  0  0  0  0  0  0
  148.0355  132.1808  151.1833 H   0  0  0  0  0  0  0  0  0  0  0  0
  144.8467  132.8199  153.4576 H   0  0  0  0  0  0  0  0  0  0  0  0
  146.3304  131.9998  153.8782 H   0  0  0  0  0  0  0  0  0  0  0  0
  144.6093  135.2230  154.1869 H   0  0  0  0  0  0  0  0  0  0  0  0
  147.5906  137.9566  157.4583 H   0  0  0  0  0  0  0  0  0  0  0  0
  148.4095  136.4492  157.8428 H   0  0  0  0  0  0  0  0  0  0  0  0
  149.6086  139.9871  156.8835 H   0  0  0  0  0  0  0  0  0  0  0  0
  151.2395  139.4384  157.2704 H   0  0  0  0  0  0  0  0  0  0  0  0
  149.9952  138.8718  152.4689 H   0  0  0  0  0  0  0  0  0  0  0  0
  149.7683  137.3693  153.3410 H   0  0  0  0  0  0  0  0  0  0  0  0
  150.8403  133.6630  154.6578 H   0  0  0  0  0  0  0  0  0  0  0  0
  1  2  1  0  0  0  0
  1 29  1  0  0  0  0
  1 30  1  0  0  0  0
  1 31  1  0  0  0  0
  2  6  1  0  0  0  0
  2  3  1  0  0  0  0
  2 32  1  0  0  0  0
  3  4  1  0  0  0  0
  4  5  1  0  0  0  0
  4 33  1  0  0  0  0
  4 34  1  0  0  0  0
  5  6  1  0  0  0  0
  5 35  1  0  0  0  0
  5 36  1  0  0  0  0
  6  7  1  0  0  0  0
  6  8  1  0  0  0  0
  7 37  1  0  0  0  0
  8  9  1  0  0  0  0
  8 38  1  0  0  0  0
  8 39  1  0  0  0  0
  9 26  1  0  0  0  0
  9 10  1  0  0  0  0
 10 11  2  0  0  0  0
 10 40  1  0  0  0  0
 11 12  1  0  0  0  0
 12 26  2  0  0  0  0
 12 13  1  0  0  0  0
 13 14  1  0  0  0  0
 13 23  2  0  0  0  0
 14 19  1  0  0  0  0
 14 15  1  0  0  0  0
 15 16  1  0  0  0  0
 15 41  1  0  0  0  0
 15 42  1  0  0  0  0
 16 27  1  0  0  0  0
 16 17  1  0  0  0  0
 16 18  1  0  0  0  0
 18 19  1  0  0  0  0
 18 43  1  0  0  0  0
 18 44  1  0  0  0  0
 19 28  1  0  0  0  0
 19 20  1  0  0  0  0
 20 21  1  0  0  0  0
 20 22  2  0  0  0  0
 21 45  1  0  0  0  0
 21 46  1  0  0  0  0
 23 24  1  0  0  0  0
 24 25  2  0  0  0  0
 24 47  1  0  0  0  0
 25 26  1  0  0  0  0
M  END
> <s_m_source_file>
AV-unprocessed.smi

> <i_m_source_file_index>
196

> <i_lp_mmshare_version>
43012

> <i_f3d_flags>
0

> <s_epik_input>
W0NIMl0xW0NIMl1PW0NAQEhdKFtDSDNdKVtDQEBdMShbT0hdKVtDSDJdbihbY0hdbjIpYyhjMjMpbltjSF1uYzNONFtDSDJdW0NASF0oRilbQ0gyXVtDQEhdNEMoPU8pW05IMl0=

> <s_epik_cmdline>
J2VwaWtfcHl0aG9uJywgJy1waCcsICc3LjAnLCAnLXRuJywgJzgnLCAnLW1hJywgJzIwMCcsICctbWV0YWxfYmluZGluZycsICctaW1hZScsICc8aW5maWxlLm1hZT4nLCAnLW9tYWUnLCAnPG91dGZpbGUubWFlPic=

> <r_lp_tautomer_probability>
1

> <r_epik_Ionization_Penalty>
0.000857933

> <r_epik_Ionization_Penalty_Charging>
0

> <r_epik_Ionization_Penalty_Neutral>
0.000857933

> <r_epik_State_Penalty>
0.000462053

> <r_epik_Charging_Adjusted_Penalty>
0.000462053

> <i_epik_Tot_Q>
0

> <i_epik_Tot_abs_Q>
0

> <r_epik_Metal_State_Penalty>
-0

> <b_epik_Metal_Only>
0

> <s_lp_Force_Field>
OPLS_2005

> <r_lp_Energy>
46.05

> <b_lp_Chiralities_Consistent>
1

> <s_lp_Variant>
AV-unprocessed.smi:196-13

> <Gold.Version>
5.8.1

> <Gold.Id.Protein>
6NUR|6NUR_protein|mol2

> <Gold.PLP.Fitness>
40.2929

> <Gold.PLP.PLP>
-31.3800

> <Gold.PLP.part.hbond>
-4.2733

> <Gold.PLP.part.metal>
0.0000

> <Gold.PLP.part.buried>
-7.2317

> <Gold.PLP.part.nonpolar>
-20.9863

> <Gold.PLP.part.repulsive>
1.8896

> <Gold.PLP.ligand.clash>
0.0000

> <Gold.PLP.ligand.torsion>
1.0137

> <Gold.PLP.Chemscore.Hbond>
3.5920

> <Gold.PLP.Chemscore.CHOScore>
0.0000

> <Gold.PLP.Chemscore.Metal>
0.0000

> <Gold.Chemscore.Hbonds>
donor molecule, donor type, donor heavy atom, donor atom, acceptor molecule, acceptor atom, score
      L1  H     7    37       P1 10747  1.00
      L1  H    21    45       P1  7957  1.00
      L1  H    21    46       P1  7948  0.56
      P1  H  7989  7998       L1    22  1.00

> <Gold.PLP.Chemscore.Internal.Correction>
0.1643

> <Gold.Rescore>
     Score         DG    S(hbond)    S(metal)    S(lipo)     H(rot)  DE(clash)    DE(int)     intcor
     11.80     -15.54       3.49        0.00      52.80       3.04       0.00       3.74       ----

> <Gold.Chemscore.Fitness>
11.8014

> <Gold.Chemscore.DG>
-15.5437

> <Gold.Chemscore.ZeroCoef>
-5.4800

> <Gold.Chemscore.Hbond>
3.4945

> <Gold.Chemscore.Metal>
0.0000

> <Gold.Chemscore.Lipo>
52.8021

> <Gold.Chemscore.Internal_Hbond>
0.0000

> <Gold.Chemscore.DEClash>
0.0000

> <Gold.Chemscore.DEInternal>
3.7423

> <Gold.Chemscore.Rot>
3.0413

> <Gold.Chemscore.Internal.Correction>
   9.000000E+99

> <Gold.Chemscore.Hbonds>
donor molecule, donor type, donor heavy atom, donor atom, acceptor molecule, acceptor atom, score
      L1  H     7    37       P1 10747  1.00
      L1  H    21    45       P1  7957  0.40
      L1  H    21    46       P1  7948  0.32
      P1  H  7989  7998       L1    22  0.98

> <Gold.Chemscore.Hbond.Weighted>
-11.6715

> <Gold.Chemscore.Metal.Weighted>
-0.0000

> <Gold.Chemscore.Lipo.Weighted>
-6.1778

> <Gold.Chemscore.Internal_Hbond.Weighted>
0.0000

> <Gold.Chemscore.DEClash.Weighted>
0.0000

> <Gold.Chemscore.DEInternal.Weighted>
3.7423

> <Gold.Chemscore.Rot.Weighted>
7.7856

> <Gold.Chemscore.Internal.Correction.Weighted>
   9.000000E+99

> <Gold.Protein.RotatedTorsions>
[ 6907 6896 6895 6894 ] final  151.94 input  -60.11 | X-H torsion
[ 7974 7965 7964 7962 ] final -148.81 input  175.53 | X-H torsion
[ 8008 7997 7996 7995 ] final  179.10 input   59.86 | X-H torsion
[ 10167 10162 10161 10158 ] final -117.99 input  -65.29 | X-H torsion
[ 10718 10713 10712 10709 ] final   99.47 input   66.30 | X-H torsion
[ 10763 10752 10751 10750 ] final -159.38 input  -60.55 | X-H torsion
[ 11005 11000 10999 10996 ] final -172.18 input  -57.11 | X-H torsion

> <Gold.Protein.ActiveResidues>
 VAL166  LYS551  ARG553  GLY616  TRP617  ASP618  TYR619  PRO620  LYS621  CYS622 
 ASP623  PHE694  ASN695  SER759  ASP760  ASP761  ALA762  ILE779  LEU786  VAL792 
 PHE793  MET794  SER795  GLU796  ALA797  LYS798  CYS799  TRP800  GLU811  SER814 

> <Gold.Protein.RotatedAtoms>
  152.0937  133.4213  159.4555 H   0  0  0  0  0  0  0  0  0  0  0  0  # atno 6907 bound_to 6896
  150.6863  134.2842  159.4649 H   0  0  0  0  0  0  0  0  0  0  0  0  # atno 6908 bound_to 6896
  152.0696  134.9542  160.0625 H   0  0  0  0  0  0  0  0  0  0  0  0  # atno 6909 bound_to 6896
  144.8006  140.5147  143.5710 H   0  0  0  0  0  0  0  0  0  0  0  0  # atno 7974 bound_to 7965
  156.0472  140.1317  157.0090 H   0  0  0  0  0  0  0  0  0  0  0  0  # atno 8008 bound_to 7997
  154.4418  140.1018  156.6394 H   0  0  0  0  0  0  0  0  0  0  0  0  # atno 8009 bound_to 7997
  155.5578  140.3464  155.4486 H   0  0  0  0  0  0  0  0  0  0  0  0  # atno 8010 bound_to 7997
  140.0623  143.4956  152.2025 H   0  0  0  0  0  0  0  0  0  0  0  0  # atno 10167 bound_to 10162
  157.6875  131.0670  150.4953 H   0  0  0  0  0  0  0  0  0  0  0  0  # atno 10718 bound_to 10713
  154.7480  135.3085  154.8610 H   0  0  0  0  0  0  0  0  0  0  0  0  # atno 10763 bound_to 10752
  153.9405  135.6775  153.4748 H   0  0  0  0  0  0  0  0  0  0  0  0  # atno 10764 bound_to 10752
  153.1076  135.4882  154.8905 H   0  0  0  0  0  0  0  0  0  0  0  0  # atno 10765 bound_to 10752
  140.4999  134.5903  157.4984 H   0  0  0  0  0  0  0  0  0  0  0  0  # atno 11005 bound_to 11000
  145.5563  139.1478  143.3366 LP  0  0  0  0  0  0  0  0  0  0  0  0  # atno 17320 bound_to 7965
  146.2286  140.5700  142.8985 LP  0  0  0  0  0  0  0  0  0  0  0  0  # atno 17321 bound_to 7965
  139.5886  144.7541  151.3457 LP  0  0  0  0  0  0  0  0  0  0  0  0  # atno 17342 bound_to 10162
  140.7166  143.7250  150.7666 LP  0  0  0  0  0  0  0  0  0  0  0  0  # atno 17343 bound_to 10162
  156.5277  130.4177  149.6217 LP  0  0  0  0  0  0  0  0  0  0  0  0  # atno 17370 bound_to 10713
  156.3097  130.7222  151.2112 LP  0  0  0  0  0  0  0  0  0  0  0  0  # atno 17371 bound_to 10713
  139.9719  134.7278  156.0024 LP  0  0  0  0  0  0  0  0  0  0  0  0  # atno 17394 bound_to 11000
  141.1441  133.6559  156.3814 LP  0  0  0  0  0  0  0  0  0  0  0  0  # atno 17395 bound_to 11000

$$$$
