#       Name:                AV-unprocessed.smi:860
#       Creating user name   scv26
#       Creation time:       Fri Mar 27 01:43:55 2020


#       File generated by GOLD software.
#

@<TRIPOS>MOLECULE
AV-unprocessed.smi:860
    46    48     1
SMALL
NO_CHARGES


@<TRIPOS>ATOM
      1 ****        -3.4676   5.0737   1.5300 C.3            1 S1                 0.0000
      2 ****        -3.4223   3.5889   1.3994 C.2            1 S1                 0.0000
      3 ****        -4.4820   2.7239   1.2739 C.2            1 S1                 0.0000
      4 ****        -4.0906   1.3552   1.1721 C.2            1 S1                 0.0000
      5 ****        -2.7261   1.2102   1.2211 C.2            1 S1                 0.0000
      6 ****        -2.0997  -0.0974   1.1324 C.2            1 S1                 0.0000
      7 ****        -2.8344  -1.3471   1.0012 C.2            1 S1                 0.0000
      8 ****        -2.1482  -2.5072   0.9214 C.2            1 S1                 0.0000
      9 ****        -0.6882  -2.5452   0.9585 C.2            1 S1                 0.0000
     10 ****        -0.0425  -3.5898   0.8784 O.2            1 S1                 0.0000
     11 ****        -0.1079  -1.3138   1.0788 N.am           1 S1                 0.0000
     12 ****         1.3534  -1.1432   1.1227 C.3            1 S1                 0.0000
     13 ****         1.9945  -0.7321  -0.2344 C.3            1 S1                 0.0000
     14 ****         1.8021   0.6647  -0.3754 O.3            1 S1                 0.0000
     15 ****         3.5243  -0.9656  -0.1744 C.3            1 S1                 0.0000
     16 ****         4.2432  -0.6418  -1.4969 C.3            1 S1                 0.0000
     17 ****         3.6238  -1.4117  -2.6708 C.3            1 S1                 0.0000
     18 ****         2.1201  -1.1262  -2.7794 C.3            1 S1                 0.0000
     19 ****         1.3889  -1.4548  -1.4657 C.3            1 S1                 0.0000
     20 ****        -0.8076  -0.1239   1.1729 N.2            1 S1                 0.0000
     21 ****        -1.8980   2.7364   1.3919 S.3            1 S1                 0.0000
     22 ****        -4.4959   5.4354   1.5581 H              1 S1                 0.0000
     23 ****        -2.9656   5.5514   0.6884 H              1 S1                 0.0000
     24 ****        -2.9729   5.3964   2.4462 H              1 S1                 0.0000
     25 ****        -5.5194   3.0244   1.2520 H              1 S1                 0.0000
     26 ****        -4.8237   0.5699   1.0686 H              1 S1                 0.0000
     27 ****        -3.9123  -1.3625   0.9692 H              1 S1                 0.0000
     28 ****        -2.6921  -3.4354   0.8253 H              1 S1                 0.0000
     29 ****         1.6078  -0.4125   1.8932 H              1 S1                 0.0000
     30 ****         1.8177  -2.0664   1.4729 H              1 S1                 0.0000
     31 ****         2.2114   0.9425  -1.1805 H              1 S1                 0.0000
     32 ****         3.9651  -0.3810   0.6345 H              1 S1                 0.0000
     33 ****         3.7181  -2.0106   0.0716 H              1 S1                 0.0000
     34 ****         4.1963   0.4296  -1.6946 H              1 S1                 0.0000
     35 ****         5.3015  -0.8896  -1.4105 H              1 S1                 0.0000
     36 ****         4.1228  -1.1386  -3.6010 H              1 S1                 0.0000
     37 ****         3.7854  -2.4817  -2.5343 H              1 S1                 0.0000
     38 ****         1.9627  -0.0787  -3.0387 H              1 S1                 0.0000
     39 ****         1.6912  -1.7096  -3.5946 H              1 S1                 0.0000
     40 ****         1.4335  -2.5325  -1.3047 H              1 S1                 0.0000
     41 ****         0.3333  -1.2052  -1.5781 H              1 S1                 0.0000
     42 ****        -0.5170  -4.4648   0.7830 LP             1 S1                 0.0000
     43 ****         0.9567  -3.5635   0.9087 LP             1 S1                 0.0000
     44 ****         2.2188   1.1428   0.3978 LP             1 S1                 0.0000
     45 ****         0.8238   0.8695  -0.4058 LP             1 S1                 0.0000
     46 ****        -0.3034   0.7337   1.2744 LP             1 S1                 0.0000
@<TRIPOS>BOND
    1    1    2 1     
    2    1   22 1     
    3    1   23 1     
    4    1   24 1     
    5    2   21 1     
    6    2    3 2     
    7    3    4 1     
    8    3   25 1     
    9    4    5 2     
   10    4   26 1     
   11    5    6 1     
   12    5   21 1     
   13    6   20 2     
   14    6    7 1     
   15    7    8 2     
   16    7   27 1     
   17    8    9 1     
   18    8   28 1     
   19    9   10 2     
   20    9   11 am    
   21   11   12 1     
   22   11   20 1     
   23   12   13 1     
   24   12   29 1     
   25   12   30 1     
   26   13   19 1     
   27   13   14 1     
   28   13   15 1     
   29   14   31 1     
   30   15   16 1     
   31   15   32 1     
   32   15   33 1     
   33   16   17 1     
   34   16   34 1     
   35   16   35 1     
   36   17   18 1     
   37   17   36 1     
   38   17   37 1     
   39   18   19 1     
   40   18   38 1     
   41   18   39 1     
   42   19   40 1     
   43   19   41 1     
   44   10   42 1     
   45   10   43 1     
   46   14   44 1     
   47   14   45 1     
   48   20   46 1     
@<TRIPOS>SUBSTRUCTURE
      1 S1             1
@<TRIPOS>SET
LONE_PAIRS      STATIC     ATOMS    <user>   **** ""
5 42 43 44 45 46
DONOR_HYDROGENS      STATIC     ATOMS    <user>   **** ""
1 31
ATOM$BLUE        STATIC     ATOMS    COLORGROUP SYSTEM
5 42 43 44 45 46
ATOM$RED        STATIC     ATOMS    COLORGROUP SYSTEM
1 31
