AV-unprocessed.smi:2270|AV-procd|sdf|9158|dock1
  -GOLD-   2272012363D 1   1.00000     0.00000
 Structure written by MMmdl.
 52 53  0  0  0  0  0  0  0  0  1 V2000
  151.0584  143.3020  157.7764 C   0  0  0  0  0  0  0  0  0  0  0  0
  151.6175  143.3476  159.1828 C   0  0  0  0  0  0  0  0  0  0  0  0
  151.1864  144.3254  160.1004 C   0  0  0  0  0  0  0  0  0  0  0  0
  151.7470  144.3174  161.3900 C   0  0  0  0  0  0  0  0  0  0  0  0
  152.7093  143.3392  161.7063 C   0  0  0  0  0  0  0  0  0  0  0  0
  153.0873  142.3932  160.7269 C   0  0  0  0  0  0  0  0  0  0  0  0
  154.0617  141.4490  161.1460 N   0  0  0  0  0  0  0  0  0  0  0  0
  154.3437  140.2500  160.6066 C   0  0  0  0  0  0  0  0  0  0  0  0
  153.7905  139.7631  159.6200 O   0  0  0  0  0  0  0  0  0  0  0  0
  155.3174  139.6296  161.2879 N   0  0  0  0  0  0  0  0  0  0  0  0
  155.8428  138.3035  160.9778 C   0  0  0  0  0  0  0  0  0  0  0  0
  156.0448  137.4203  162.2423 C   0  0  2  0  0  0  0  0  0  0  0  0
  154.7703  136.6229  162.6662 C   0  0  0  0  0  0  0  0  0  0  0  0
  153.4429  137.4061  162.7083 C   0  0  0  0  0  0  0  0  0  0  0  0
  154.9843  135.8251  163.9638 C   0  0  0  0  0  0  0  0  0  0  0  0
  156.7599  138.0838  163.3500 N   0  0  0  0  0  0  0  0  0  0  0  0
  157.8333  138.9699  162.8885 C   0  0  0  0  0  0  0  0  0  0  0  0
  158.6544  139.5205  164.0686 C   0  0  0  0  0  0  0  0  0  0  0  0
  157.8098  140.2580  165.0057 N   0  0  0  0  0  0  0  0  0  0  0  0
  158.5825  140.7909  166.1170 C   0  0  0  0  0  0  0  0  0  0  0  0
  156.7373  139.3802  165.4689 C   0  0  0  0  0  0  0  0  0  0  0  0
  155.9139  138.8248  164.2917 C   0  0  0  0  0  0  0  0  0  0  0  0
  152.5411  142.4101  159.4856 N   0  0  0  0  0  0  0  0  0  0  0  0
  150.1081  143.8333  157.7159 H   0  0  0  0  0  0  0  0  0  0  0  0
  150.8903  142.2720  157.4598 H   0  0  0  0  0  0  0  0  0  0  0  0
  151.7559  143.7668  157.0796 H   0  0  0  0  0  0  0  0  0  0  0  0
  150.4469  145.0632  159.8257 H   0  0  0  0  0  0  0  0  0  0  0  0
  151.4449  145.0489  162.1248 H   0  0  0  0  0  0  0  0  0  0  0  0
  153.1496  143.3189  162.6926 H   0  0  0  0  0  0  0  0  0  0  0  0
  154.6015  141.7140  161.9562 H   0  0  0  0  0  0  0  0  0  0  0  0
  155.7178  140.1016  162.0852 H   0  0  0  0  0  0  0  0  0  0  0  0
  155.1702  137.8241  160.2663 H   0  0  0  0  0  0  0  0  0  0  0  0
  156.7851  138.4410  160.4484 H   0  0  0  0  0  0  0  0  0  0  0  0
  156.7177  136.6262  161.9153 H   0  0  0  0  0  0  0  0  0  0  0  0
  154.6262  135.8687  161.8919 H   0  0  0  0  0  0  0  0  0  0  0  0
  153.3732  138.0678  163.5683 H   0  0  0  0  0  0  0  0  0  0  0  0
  152.6029  136.7155  162.7855 H   0  0  0  0  0  0  0  0  0  0  0  0
  153.2807  137.9964  161.8078 H   0  0  0  0  0  0  0  0  0  0  0  0
  155.0838  136.4838  164.8269 H   0  0  0  0  0  0  0  0  0  0  0  0
  155.8852  135.2135  163.9049 H   0  0  0  0  0  0  0  0  0  0  0  0
  154.1453  135.1561  164.1562 H   0  0  0  0  0  0  0  0  0  0  0  0
  158.4988  138.4285  162.2155 H   0  0  0  0  0  0  0  0  0  0  0  0
  157.4236  139.8047  162.3196 H   0  0  0  0  0  0  0  0  0  0  0  0
  159.1548  138.6980  164.5823 H   0  0  0  0  0  0  0  0  0  0  0  0
  159.4394  140.1744  163.6874 H   0  0  0  0  0  0  0  0  0  0  0  0
  157.9432  141.3572  166.7951 H   0  0  0  0  0  0  0  0  0  0  0  0
  159.3621  141.4629  165.7575 H   0  0  0  0  0  0  0  0  0  0  0  0
  159.0584  139.9911  166.6860 H   0  0  0  0  0  0  0  0  0  0  0  0
  157.1532  138.5527  166.0460 H   0  0  0  0  0  0  0  0  0  0  0  0
  156.0776  139.9289  166.1418 H   0  0  0  0  0  0  0  0  0  0  0  0
  155.4135  139.6502  163.7844 H   0  0  0  0  0  0  0  0  0  0  0  0
  155.1353  138.1863  164.6954 H   0  0  0  0  0  0  0  0  0  0  0  0
  1  2  1  0  0  0  0
  1 24  1  0  0  0  0
  1 25  1  0  0  0  0
  1 26  1  0  0  0  0
  2 23  1  0  0  0  0
  2  3  2  0  0  0  0
  3  4  1  0  0  0  0
  3 27  1  0  0  0  0
  4  5  2  0  0  0  0
  4 28  1  0  0  0  0
  5  6  1  0  0  0  0
  5 29  1  0  0  0  0
  6  7  1  0  0  0  0
  6 23  2  0  0  0  0
  7  8  1  0  0  0  0
  7 30  1  0  0  0  0
  8  9  2  0  0  0  0
  8 10  1  0  0  0  0
 10 11  1  0  0  0  0
 10 31  1  0  0  0  0
 11 12  1  0  0  0  0
 11 32  1  0  0  0  0
 11 33  1  0  0  0  0
 12 13  1  0  0  0  0
 12 16  1  0  0  0  0
 12 34  1  0  0  0  0
 13 14  1  0  0  0  0
 13 15  1  0  0  0  0
 13 35  1  0  0  0  0
 14 36  1  0  0  0  0
 14 37  1  0  0  0  0
 14 38  1  0  0  0  0
 15 39  1  0  0  0  0
 15 40  1  0  0  0  0
 15 41  1  0  0  0  0
 16 22  1  0  0  0  0
 16 17  1  0  0  0  0
 17 18  1  0  0  0  0
 17 42  1  0  0  0  0
 17 43  1  0  0  0  0
 18 19  1  0  0  0  0
 18 44  1  0  0  0  0
 18 45  1  0  0  0  0
 19 20  1  0  0  0  0
 19 21  1  0  0  0  0
 20 46  1  0  0  0  0
 20 47  1  0  0  0  0
 20 48  1  0  0  0  0
 21 22  1  0  0  0  0
 21 49  1  0  0  0  0
 21 50  1  0  0  0  0
 22 51  1  0  0  0  0
 22 52  1  0  0  0  0
M  END
> <s_m_source_file>
AV-unprocessed.smi

> <i_m_source_file_index>
2270

> <i_lp_mmshare_version>
43012

> <i_f3d_flags>
0

> <s_epik_input>
W0NIM11jMVtjSF1bY0hdW2NIXWMobjEpW05IXUMoPU8pW05IXVtDSDJdW0NASF0oW0NIXShbQ0gzXSlbQ0gzXSlOMltDSDJdW0NIMl1OKFtDSDNdKVtDSDJdW0NIMl0y

> <s_epik_cmdline>
J2VwaWtfcHl0aG9uJywgJy1waCcsICc3LjAnLCAnLXRuJywgJzgnLCAnLW1hJywgJzIwMCcsICctbWV0YWxfYmluZGluZycsICctaW1hZScsICc8aW5maWxlLm1hZT4nLCAnLW9tYWUnLCAnPG91dGZpbGUubWFlPic=

> <r_epik_Ionization_Penalty>
2.57754

> <r_epik_Ionization_Penalty_Charging>
0

> <r_epik_Ionization_Penalty_Neutral>
2.57754

> <r_epik_State_Penalty>
2.00874

> <r_epik_Charging_Adjusted_Penalty>
2.00874

> <i_epik_Tot_Q>
0

> <i_epik_Tot_abs_Q>
0

> <r_epik_Metal_State_Penalty>
2.00874

> <b_epik_Metal_Only>
0

> <s_lp_Force_Field>
OPLS_2005

> <r_lp_Energy>
48.2009

> <b_lp_Chiralities_Consistent>
1

> <s_lp_Variant>
AV-unprocessed.smi:2270-5

> <Gold.Version>
5.8.1

> <Gold.Id.Protein>
6NUR|6NUR_protein|mol2

> <Gold.PLP.Fitness>
41.1846

> <Gold.PLP.PLP>
-39.9260

> <Gold.PLP.part.hbond>
-1.3679

> <Gold.PLP.part.metal>
0.0000

> <Gold.PLP.part.buried>
-5.0728

> <Gold.PLP.part.nonpolar>
-33.0563

> <Gold.PLP.part.repulsive>
0.0211

> <Gold.PLP.ligand.clash>
0.0000

> <Gold.PLP.ligand.torsion>
1.0395

> <Gold.PLP.Chemscore.Hbond>
0.8960

> <Gold.PLP.Chemscore.CHOScore>
0.0000

> <Gold.PLP.Chemscore.Metal>
0.0000

> <Gold.PLP.Chemscore.Internal.Correction>
0.6496

> <Gold.Rescore>
     Score         DG    S(hbond)    S(metal)    S(lipo)     H(rot)  DE(clash)    DE(int)     intcor
     14.80     -16.79       0.98        0.00     102.74       1.56       0.12       1.88       ----

> <Gold.Chemscore.Fitness>
14.7959

> <Gold.Chemscore.DG>
-16.7940

> <Gold.Chemscore.ZeroCoef>
-5.4800

> <Gold.Chemscore.Hbond>
0.9849

> <Gold.Chemscore.Metal>
0.0000

> <Gold.Chemscore.Lipo>
102.7435

> <Gold.Chemscore.Internal_Hbond>
0.0000

> <Gold.Chemscore.DEClash>
0.1172

> <Gold.Chemscore.DEInternal>
1.8808

> <Gold.Chemscore.Rot>
1.5612

> <Gold.Chemscore.Internal.Correction>
   9.000000E+99

> <Gold.Chemscore.Hbond.Weighted>
-3.2896

> <Gold.Chemscore.Metal.Weighted>
-0.0000

> <Gold.Chemscore.Lipo.Weighted>
-12.0210

> <Gold.Chemscore.Internal_Hbond.Weighted>
0.0000

> <Gold.Chemscore.DEClash.Weighted>
0.1172

> <Gold.Chemscore.DEInternal.Weighted>
1.8808

> <Gold.Chemscore.Rot.Weighted>
3.9966

> <Gold.Chemscore.Internal.Correction.Weighted>
   9.000000E+99

> <Gold.Protein.RotatedTorsions>
[ 6907 6896 6895 6894 ] final -147.17 input  -60.11 | X-H torsion
[ 7974 7965 7964 7962 ] final  122.09 input  175.53 | X-H torsion
[ 8008 7997 7996 7995 ] final  128.12 input   59.86 | X-H torsion
[ 10167 10162 10161 10158 ] final  -68.40 input  -65.29 | X-H torsion
[ 10718 10713 10712 10709 ] final -156.01 input   66.30 | X-H torsion
[ 10763 10752 10751 10750 ] final   78.61 input  -60.55 | X-H torsion
[ 11005 11000 10999 10996 ] final -176.52 input  -57.11 | X-H torsion

> <Gold.Protein.ActiveResidues>
 VAL166  LYS551  ARG553  GLY616  TRP617  ASP618  TYR619  PRO620  LYS621  CYS622 
 ASP623  PHE694  ASN695  SER759  ASP760  ASP761  ALA762  ILE779  LEU786  VAL792 
 PHE793  MET794  SER795  GLU796  ALA797  LYS798  CYS799  TRP800  GLU811  SER814 

> <Gold.Protein.RotatedAtoms>
  151.1519  133.4901  159.2594 H   0  0  0  0  0  0  0  0  0  0  0  0  # atno 6907 bound_to 6896
  151.1544  135.0243  159.8693 H   0  0  0  0  0  0  0  0  0  0  0  0  # atno 6908 bound_to 6896
  152.5463  134.1400  159.8528 H   0  0  0  0  0  0  0  0  0  0  0  0  # atno 6909 bound_to 6896
  145.1117  139.3448  143.4760 H   0  0  0  0  0  0  0  0  0  0  0  0  # atno 7974 bound_to 7965
  156.2907  140.2652  156.2384 H   0  0  0  0  0  0  0  0  0  0  0  0  # atno 8008 bound_to 7997
  155.0002  140.0388  157.2375 H   0  0  0  0  0  0  0  0  0  0  0  0  # atno 8009 bound_to 7997
  154.7609  140.2760  155.6220 H   0  0  0  0  0  0  0  0  0  0  0  0  # atno 8010 bound_to 7997
  140.5510  143.2312  151.6911 H   0  0  0  0  0  0  0  0  0  0  0  0  # atno 10167 bound_to 10162
  156.5206  130.8476  151.2681 H   0  0  0  0  0  0  0  0  0  0  0  0  # atno 10718 bound_to 10713
  153.0888  135.4870  154.8649 H   0  0  0  0  0  0  0  0  0  0  0  0  # atno 10763 bound_to 10752
  154.7243  135.3046  154.8998 H   0  0  0  0  0  0  0  0  0  0  0  0  # atno 10764 bound_to 10752
  153.9653  135.6807  153.4799 H   0  0  0  0  0  0  0  0  0  0  0  0  # atno 10765 bound_to 10752
  140.4512  134.6341  157.4802 H   0  0  0  0  0  0  0  0  0  0  0  0  # atno 11005 bound_to 11000
  146.3526  140.1038  142.8607 LP  0  0  0  0  0  0  0  0  0  0  0  0  # atno 17320 bound_to 7965
  145.0840  140.9240  143.4809 LP  0  0  0  0  0  0  0  0  0  0  0  0  # atno 17321 bound_to 7965
  139.5027  144.3818  152.0369 LP  0  0  0  0  0  0  0  0  0  0  0  0  # atno 17342 bound_to 10162
  140.2935  144.3727  150.6081 LP  0  0  0  0  0  0  0  0  0  0  0  0  # atno 17343 bound_to 10162
  157.7437  130.9918  150.2615 LP  0  0  0  0  0  0  0  0  0  0  0  0  # atno 17370 bound_to 10713
  156.3153  130.3778  149.7624 LP  0  0  0  0  0  0  0  0  0  0  0  0  # atno 17371 bound_to 10713
  140.0005  134.6843  155.9537 LP  0  0  0  0  0  0  0  0  0  0  0  0  # atno 17394 bound_to 11000
  141.1663  133.6537  156.4492 LP  0  0  0  0  0  0  0  0  0  0  0  0  # atno 17395 bound_to 11000

$$$$
