AV-unprocessed.smi:284|AV-procd|sdf|2158|dock8
  -GOLD-   2262021513D 1   1.00000     0.00000
 Structure written by MMmdl.
 60 62  0  0  0  0  0  0  0  0  1 V2000
  150.0866  133.5786  156.4411 C   0  0  0  0  0  0  0  0  0  0  0  0
  149.6554  134.9417  155.9236 C   0  0  0  0  0  0  0  0  0  0  0  0
  148.3533  135.2663  155.7507 C   0  0  0  0  0  0  0  0  0  0  0  0
  147.9290  136.4957  155.2826 N   0  0  0  0  0  0  0  0  0  0  0  0
  146.4619  136.8084  155.1087 C   0  0  1  0  0  0  0  0  0  0  0  0
  146.1093  136.9561  153.6326 C   0  0  0  0  0  0  0  0  0  0  0  0
  144.6596  136.5260  153.6515 C   0  0  1  0  0  0  0  0  0  0  0  0
  144.2139  136.1448  152.3654 O   0  0  0  0  0  0  0  0  0  0  0  0
  144.6542  135.4014  154.7035 C   0  0  1  0  0  0  0  0  0  0  0  0
  144.9603  133.9841  154.1756 C   0  0  0  0  0  0  0  0  0  0  0  0
  143.7663  133.2836  153.8944 O   0  0  0  0  0  0  0  0  0  0  0  0
  145.6957  135.7552  155.6171 O   0  0  0  0  0  0  0  0  0  0  0  0
  148.8791  137.4708  154.9204 C   0  0  0  0  0  0  0  0  0  0  0  0
  148.5239  138.5627  154.4700 O   0  0  0  0  0  0  0  0  0  0  0  0
  150.2481  137.1630  155.0859 N   0  0  0  0  0  0  0  0  0  0  0  0
  151.2487  138.1947  154.7321 C   0  0  0  0  0  0  0  0  0  0  0  0
  151.0017  139.5497  155.4135 C   0  0  0  0  0  0  0  0  0  0  0  0
  150.2301  140.3695  154.9136 O   0  0  0  0  0  0  0  0  0  0  0  0
  151.6549  139.7293  156.5759 N   0  0  0  0  0  0  0  0  0  0  0  0
  151.6649  140.8713  157.4213 C   0  0  0  0  0  0  0  0  0  0  0  0
  150.9973  142.0233  156.9628 C   0  0  0  0  0  0  0  0  0  0  0  0
  150.9413  143.1854  157.7559 C   0  0  0  0  0  0  0  0  0  0  0  0
  151.5449  143.2198  159.0371 C   0  0  0  0  0  0  0  0  0  0  0  0
  151.4991  144.4685  159.9383 C   0  0  0  0  0  0  0  0  0  0  0  0
  150.0427  144.7386  160.3700 C   0  0  0  0  0  0  0  0  0  0  0  0
  152.0238  145.7406  159.2347 C   0  0  0  0  0  0  0  0  0  0  0  0
  152.3681  144.2381  161.1925 C   0  0  0  0  0  0  0  0  0  0  0  0
  152.2001  142.0525  159.4957 C   0  0  0  0  0  0  0  0  0  0  0  0
  152.2585  140.8897  158.7043 C   0  0  0  0  0  0  0  0  0  0  0  0
  150.6960  135.9205  155.5984 C   0  0  0  0  0  0  0  0  0  0  0  0
  151.8990  135.7015  155.7535 O   0  0  0  0  0  0  0  0  0  0  0  0
  149.2313  132.9412  156.6679 H   0  0  0  0  0  0  0  0  0  0  0  0
  150.6736  133.6846  157.3543 H   0  0  0  0  0  0  0  0  0  0  0  0
  150.6976  133.0649  155.6981 H   0  0  0  0  0  0  0  0  0  0  0  0
  147.6123  134.5183  155.9883 H   0  0  0  0  0  0  0  0  0  0  0  0
  146.2430  137.6990  155.7003 H   0  0  0  0  0  0  0  0  0  0  0  0
  146.2692  137.9770  153.2844 H   0  0  0  0  0  0  0  0  0  0  0  0
  146.7162  136.2710  153.0379 H   0  0  0  0  0  0  0  0  0  0  0  0
  144.0447  137.3542  154.0074 H   0  0  0  0  0  0  0  0  0  0  0  0
  143.7797  136.8839  151.9667 H   0  0  0  0  0  0  0  0  0  0  0  0
  143.7084  135.3892  155.2472 H   0  0  0  0  0  0  0  0  0  0  0  0
  145.5951  134.0132  153.2898 H   0  0  0  0  0  0  0  0  0  0  0  0
  145.4976  133.4150  154.9349 H   0  0  0  0  0  0  0  0  0  0  0  0
  143.5152  132.7969  154.6648 H   0  0  0  0  0  0  0  0  0  0  0  0
  152.2619  137.8715  154.9752 H   0  0  0  0  0  0  0  0  0  0  0  0
  151.2740  138.3438  153.6511 H   0  0  0  0  0  0  0  0  0  0  0  0
  152.1693  138.9315  156.9201 H   0  0  0  0  0  0  0  0  0  0  0  0
  150.5245  142.0230  155.9914 H   0  0  0  0  0  0  0  0  0  0  0  0
  150.4213  144.0396  157.3517 H   0  0  0  0  0  0  0  0  0  0  0  0
  149.9732  145.6279  160.9973 H   0  0  0  0  0  0  0  0  0  0  0  0
  149.6242  143.9109  160.9429 H   0  0  0  0  0  0  0  0  0  0  0  0
  149.3981  144.8975  159.5047 H   0  0  0  0  0  0  0  0  0  0  0  0
  151.4311  145.9895  158.3535 H   0  0  0  0  0  0  0  0  0  0  0  0
  153.0635  145.6295  158.9245 H   0  0  0  0  0  0  0  0  0  0  0  0
  151.9807  146.6047  159.8988 H   0  0  0  0  0  0  0  0  0  0  0  0
  152.3726  145.1165  161.8389 H   0  0  0  0  0  0  0  0  0  0  0  0
  153.4032  144.0269  160.9213 H   0  0  0  0  0  0  0  0  0  0  0  0
  152.0100  143.4032  161.7948 H   0  0  0  0  0  0  0  0  0  0  0  0
  152.6622  142.0340  160.4714 H   0  0  0  0  0  0  0  0  0  0  0  0
  152.7501  140.0189  159.1098 H   0  0  0  0  0  0  0  0  0  0  0  0
  1  2  1  0  0  0  0
  1 32  1  0  0  0  0
  1 33  1  0  0  0  0
  1 34  1  0  0  0  0
  2 30  1  0  0  0  0
  2  3  2  0  0  0  0
  3  4  1  0  0  0  0
  3 35  1  0  0  0  0
  4  5  1  0  0  0  0
  4 13  1  0  0  0  0
  5 12  1  0  0  0  0
  5  6  1  0  0  0  0
  5 36  1  0  0  0  0
  6  7  1  0  0  0  0
  6 37  1  0  0  0  0
  6 38  1  0  0  0  0
  7  8  1  0  0  0  0
  7  9  1  0  0  0  0
  7 39  1  0  0  0  0
  8 40  1  0  0  0  0
  9 10  1  0  0  0  0
  9 12  1  0  0  0  0
  9 41  1  0  0  0  0
 10 11  1  0  0  0  0
 10 42  1  0  0  0  0
 10 43  1  0  0  0  0
 11 44  1  0  0  0  0
 13 14  2  0  0  0  0
 13 15  1  0  0  0  0
 15 16  1  0  0  0  0
 15 30  1  0  0  0  0
 16 17  1  0  0  0  0
 16 45  1  0  0  0  0
 16 46  1  0  0  0  0
 17 18  2  0  0  0  0
 17 19  1  0  0  0  0
 19 20  1  0  0  0  0
 19 47  1  0  0  0  0
 20 29  1  0  0  0  0
 20 21  2  0  0  0  0
 21 22  1  0  0  0  0
 21 48  1  0  0  0  0
 22 23  2  0  0  0  0
 22 49  1  0  0  0  0
 23 24  1  0  0  0  0
 23 28  1  0  0  0  0
 24 25  1  0  0  0  0
 24 26  1  0  0  0  0
 24 27  1  0  0  0  0
 25 50  1  0  0  0  0
 25 51  1  0  0  0  0
 25 52  1  0  0  0  0
 26 53  1  0  0  0  0
 26 54  1  0  0  0  0
 26 55  1  0  0  0  0
 27 56  1  0  0  0  0
 27 57  1  0  0  0  0
 27 58  1  0  0  0  0
 28 29  2  0  0  0  0
 28 59  1  0  0  0  0
 29 60  1  0  0  0  0
 30 31  2  0  0  0  0
M  END
> <s_m_source_file>
AV-unprocessed.smi

> <i_m_source_file_index>
284

> <i_lp_mmshare_version>
43012

> <i_f3d_flags>
0

> <s_epik_input>
W09IXVtDSDJdW0NAQEhdKE8xKVtDQEhdKFtPSF0pW0NIMl1bQ0BIXTFuKFtjSF1jMltDSDNdKWMoPU8pbihjMj1PKVtDSDJdQyg9TylbTkhdYzNbY0hdW2NIXWMoQyhbQ0gzXSkoW0NIM10pW0NIM10pW2NIXVtjSF0z

> <s_epik_cmdline>
J2VwaWtfcHl0aG9uJywgJy1waCcsICc3LjAnLCAnLXRuJywgJzgnLCAnLW1hJywgJzIwMCcsICctbWV0YWxfYmluZGluZycsICctaW1hZScsICc8aW5maWxlLm1hZT4nLCAnLW9tYWUnLCAnPG91dGZpbGUubWFlPic=

> <r_lp_tautomer_probability>
1

> <r_epik_Ionization_Penalty>
4.92358e-06

> <r_epik_Ionization_Penalty_Charging>
1.29777e-07

> <r_epik_Ionization_Penalty_Neutral>
4.79381e-06

> <r_epik_State_Penalty>
-0

> <r_epik_Charging_Adjusted_Penalty>
1.29777e-07

> <i_epik_Tot_Q>
0

> <i_epik_Tot_abs_Q>
0

> <r_epik_Metal_State_Penalty>
-0

> <b_epik_Metal_Only>
0

> <s_epik_Chemistry_Notes>
This compound contains an acetal/aminal-like group ( X-CH(R)-Y where X, Y are N, S, or O) that may be acid/base labile, releasing an aldehyde.

> <s_lp_Force_Field>
OPLS_2005

> <r_lp_Energy>
41.7726

> <b_lp_Chiralities_Consistent>
1

> <s_lp_Variant>
AV-unprocessed.smi:284-2

> <Gold.Version>
5.8.1

> <Gold.Id.Protein>
6NUR|6NUR_protein|mol2

> <Gold.PLP.Fitness>
56.6811

> <Gold.PLP.PLP>
-46.8994

> <Gold.PLP.part.hbond>
-4.0000

> <Gold.PLP.part.metal>
0.0000

> <Gold.PLP.part.buried>
-7.6949

> <Gold.PLP.part.nonpolar>
-35.7496

> <Gold.PLP.part.repulsive>
0.4332

> <Gold.PLP.ligand.clash>
0.2651

> <Gold.PLP.ligand.torsion>
1.0433

> <Gold.PLP.Chemscore.Hbond>
4.0000

> <Gold.PLP.Chemscore.CHOScore>
0.0000

> <Gold.PLP.Chemscore.Metal>
0.0000

> <Gold.Chemscore.Hbonds>
donor molecule, donor type, donor heavy atom, donor atom, acceptor molecule, acceptor atom, score
      L1  H    11    44       P1 10957  0.32
      P1  H  7989  7998       L1    18  0.53
      P1  H 10752 10764       L1    31  0.75

> <Gold.PLP.Chemscore.Internal.Correction>
0.1334

> <Gold.Rescore>
     Score         DG    S(hbond)    S(metal)    S(lipo)     H(rot)  DE(clash)    DE(int)     intcor
     18.09     -24.13       3.84        0.00     121.41       3.27       0.48       5.56       ----

> <Gold.Chemscore.Fitness>
18.0923

> <Gold.Chemscore.DG>
-24.1324

> <Gold.Chemscore.ZeroCoef>
-5.4800

> <Gold.Chemscore.Hbond>
3.8404

> <Gold.Chemscore.Metal>
0.0000

> <Gold.Chemscore.Lipo>
121.4134

> <Gold.Chemscore.Internal_Hbond>
0.0000

> <Gold.Chemscore.DEClash>
0.4827

> <Gold.Chemscore.DEInternal>
5.5573

> <Gold.Chemscore.Rot>
3.2735

> <Gold.Chemscore.Internal.Correction>
   9.000000E+99

> <Gold.Chemscore.Hbonds>
donor molecule, donor type, donor heavy atom, donor atom, acceptor molecule, acceptor atom, score
      L1  H    11    44       P1 10957  0.31
      P1  H  7989  7998       L1    18  0.03
      P1  H 10752 10764       L1    31  0.75

> <Gold.Chemscore.Hbond.Weighted>
-12.8271

> <Gold.Chemscore.Metal.Weighted>
-0.0000

> <Gold.Chemscore.Lipo.Weighted>
-14.2054

> <Gold.Chemscore.Internal_Hbond.Weighted>
0.0000

> <Gold.Chemscore.DEClash.Weighted>
0.4827

> <Gold.Chemscore.DEInternal.Weighted>
5.5573

> <Gold.Chemscore.Rot.Weighted>
8.3801

> <Gold.Chemscore.Internal.Correction.Weighted>
   9.000000E+99

> <Gold.Protein.RotatedTorsions>
[ 6907 6896 6895 6894 ] final -146.65 input  -60.11 | X-H torsion
[ 7974 7965 7964 7962 ] final  109.34 input  175.53 | X-H torsion
[ 8008 7997 7996 7995 ] final  -13.00 input   59.86 | X-H torsion
[ 10167 10162 10161 10158 ] final  100.29 input  -65.29 | X-H torsion
[ 10718 10713 10712 10709 ] final -105.63 input   66.30 | X-H torsion
[ 10763 10752 10751 10750 ] final  -41.34 input  -60.55 | X-H torsion
[ 11005 11000 10999 10996 ] final  -20.24 input  -57.11 | X-H torsion

> <Gold.Protein.ActiveResidues>
 VAL166  LYS551  ARG553  GLY616  TRP617  ASP618  TYR619  PRO620  LYS621  CYS622 
 ASP623  PHE694  ASN695  SER759  ASP760  ASP761  ALA762  ILE779  LEU786  VAL792 
 PHE793  MET794  SER795  GLU796  ALA797  LYS798  CYS799  TRP800  GLU811  SER814 

> <Gold.Protein.RotatedAtoms>
  151.1446  133.4948  159.2596 H   0  0  0  0  0  0  0  0  0  0  0  0  # atno 6907 bound_to 6896
  151.1618  135.0277  159.8724 H   0  0  0  0  0  0  0  0  0  0  0  0  # atno 6908 bound_to 6896
  152.5463  134.1319  159.8496 H   0  0  0  0  0  0  0  0  0  0  0  0  # atno 6909 bound_to 6896
  145.2690  139.2674  143.3976 H   0  0  0  0  0  0  0  0  0  0  0  0  # atno 7974 bound_to 7965
  154.5330  140.2261  155.8772 H   0  0  0  0  0  0  0  0  0  0  0  0  # atno 8008 bound_to 7997
  156.1783  140.3106  155.9063 H   0  0  0  0  0  0  0  0  0  0  0  0  # atno 8009 bound_to 7997
  155.3413  140.0450  157.3035 H   0  0  0  0  0  0  0  0  0  0  0  0  # atno 8010 bound_to 7997
  139.7541  144.6975  151.0389 H   0  0  0  0  0  0  0  0  0  0  0  0  # atno 10167 bound_to 10162
  156.0354  130.5573  150.7566 H   0  0  0  0  0  0  0  0  0  0  0  0  # atno 10718 bound_to 10713
  153.9609  135.6739  153.4745 H   0  0  0  0  0  0  0  0  0  0  0  0  # atno 10763 bound_to 10752
  153.0838  135.4909  154.8554 H   0  0  0  0  0  0  0  0  0  0  0  0  # atno 10764 bound_to 10752
  154.7273  135.3130  154.8910 H   0  0  0  0  0  0  0  0  0  0  0  0  # atno 10765 bound_to 10752
  140.8445  133.7902  155.9897 H   0  0  0  0  0  0  0  0  0  0  0  0  # atno 11005 bound_to 11000
  146.3252  140.3127  142.8628 LP  0  0  0  0  0  0  0  0  0  0  0  0  # atno 17320 bound_to 7965
  144.9352  140.8018  143.5665 LP  0  0  0  0  0  0  0  0  0  0  0  0  # atno 17321 bound_to 7965
  140.7801  143.4774  151.0063 LP  0  0  0  0  0  0  0  0  0  0  0  0  # atno 17342 bound_to 10162
  139.8462  143.7499  152.3179 LP  0  0  0  0  0  0  0  0  0  0  0  0  # atno 17343 bound_to 10162
  157.5096  131.0924  151.0214 LP  0  0  0  0  0  0  0  0  0  0  0  0  # atno 17370 bound_to 10713
  157.0573  130.5811  149.5380 LP  0  0  0  0  0  0  0  0  0  0  0  0  # atno 17371 bound_to 10713
  140.8859  134.2555  157.5120 LP  0  0  0  0  0  0  0  0  0  0  0  0  # atno 17394 bound_to 11000
  139.8703  134.9638  156.4473 LP  0  0  0  0  0  0  0  0  0  0  0  0  # atno 17395 bound_to 11000

$$$$
