#       Name:                AV-unprocessed.smi:991
#       Creating user name   scv26
#       Creation time:       Fri Mar 27 02:23:25 2020


#       File generated by GOLD software.
#

@<TRIPOS>MOLECULE
AV-unprocessed.smi:991
    38    39     1
SMALL
NO_CHARGES


@<TRIPOS>ATOM
      1 ****         0.9733   2.1954  -0.3772 O.2            1 S1                 0.0000
      2 ****         1.7461   1.2400  -0.3081 C.2            1 S1                 0.0000
      3 ****         3.2563   1.4792  -0.2823 C.3            1 S1                 0.0000
      4 ****         3.8805   1.0368  -1.5162 N.pl3          1 S1                 0.0000
      5 ****         3.9188   1.6063  -2.7224 C.2            1 S1                 0.0000
      6 ****         4.5866   0.9020  -3.6257 N.2            1 S1                 0.0000
      7 ****         4.9607  -0.1624  -2.8546 C.2            1 S1                 0.0000
      8 ****         4.5631  -0.1310  -1.5825 N.2            1 S1                 0.0000
      9 ****         1.3390  -0.0383  -0.2460 N.am           1 S1                 0.0000
     10 ****        -0.0543  -0.4792  -0.2373 C.3            1 S1                 0.0000
     11 ****        -0.6998  -0.4292   1.1600 C.2            1 S1                 0.0000
     12 ****         0.0048  -0.2557   2.1563 O.2            1 S1                 0.0000
     13 ****        -2.0359  -0.5927   1.2501 N.am           1 S1                 0.0000
     14 ****        -2.9459  -0.8304   0.1300 C.3            1 S1                 0.0000
     15 ****        -4.2981  -1.1684   0.7593 C.3            1 S1                 0.0000
     16 ****        -4.2496  -0.5027   2.1276 C.3            1 S1                 0.0000
     17 ****        -2.7710  -0.5500   2.5125 C.3            1 S1                 0.0000
     18 ****         3.4647   2.5415  -0.1470 H              1 S1                 0.0000
     19 ****         3.7017   0.9533   0.5638 H              1 S1                 0.0000
     20 ****         3.4462   2.5522  -2.9440 H              1 S1                 0.0000
     21 ****         5.5434  -0.9851  -3.2423 H              1 S1                 0.0000
     22 ****         2.0453  -0.7579  -0.1883 H              1 S1                 0.0000
     23 ****        -0.6296   0.1225  -0.9427 H              1 S1                 0.0000
     24 ****        -0.0861  -1.5068  -0.6000 H              1 S1                 0.0000
     25 ****        -3.0226   0.0793  -0.4672 H              1 S1                 0.0000
     26 ****        -2.6022  -1.6378  -0.5182 H              1 S1                 0.0000
     27 ****        -5.1417  -0.8334   0.1549 H              1 S1                 0.0000
     28 ****        -4.3844  -2.2487   0.8836 H              1 S1                 0.0000
     29 ****        -4.5712   0.5361   2.0393 H              1 S1                 0.0000
     30 ****        -4.8935  -0.9903   2.8603 H              1 S1                 0.0000
     31 ****        -2.5512  -1.4548   3.0813 H              1 S1                 0.0000
     32 ****        -2.4923   0.3106   3.1230 H              1 S1                 0.0000
     33 ****         1.3330   3.1276  -0.4164 LP             1 S1                 0.0000
     34 ****        -0.0144   2.0394  -0.3941 LP             1 S1                 0.0000
     35 ****         4.7647   1.0939  -4.5908 LP             1 S1                 0.0000
     36 ****         4.7275  -0.8014  -0.8590 LP             1 S1                 0.0000
     37 ****         0.9939  -0.1477   2.0565 LP             1 S1                 0.0000
     38 ****        -0.4127  -0.2230   3.0644 LP             1 S1                 0.0000
@<TRIPOS>BOND
    1    1    2 2     
    2    2    3 1     
    3    2    9 am    
    4    3    4 1     
    5    3   18 1     
    6    3   19 1     
    7    4    8 1     
    8    4    5 1     
    9    5    6 2     
   10    5   20 1     
   11    6    7 1     
   12    7    8 2     
   13    7   21 1     
   14    9   10 1     
   15    9   22 1     
   16   10   11 1     
   17   10   23 1     
   18   10   24 1     
   19   11   12 2     
   20   11   13 am    
   21   13   17 1     
   22   13   14 1     
   23   14   15 1     
   24   14   25 1     
   25   14   26 1     
   26   15   16 1     
   27   15   27 1     
   28   15   28 1     
   29   16   17 1     
   30   16   29 1     
   31   16   30 1     
   32   17   31 1     
   33   17   32 1     
   34    1   33 1     
   35    1   34 1     
   36    6   35 1     
   37    8   36 1     
   38   12   37 1     
   39   12   38 1     
@<TRIPOS>SUBSTRUCTURE
      1 S1             1
@<TRIPOS>SET
LONE_PAIRS      STATIC     ATOMS    <user>   **** ""
6 33 34 35 36 37 38
DONOR_HYDROGENS      STATIC     ATOMS    <user>   **** ""
1 22
ATOM$BLUE        STATIC     ATOMS    COLORGROUP SYSTEM
6 33 34 35 36 37 38
ATOM$RED        STATIC     ATOMS    COLORGROUP SYSTEM
1 22
