#       Name:                AV-unprocessed.smi:428
#       Creating user name   scv26
#       Creation time:       Thu Mar 26 22:50:47 2020


#       File generated by GOLD software.
#

@<TRIPOS>MOLECULE
AV-unprocessed.smi:428
    46    47     1
SMALL
NO_CHARGES


@<TRIPOS>ATOM
      1 ****        -5.1584   4.2211   2.0166 C.3            1 S1                 0.0000
      2 ****        -3.6826   3.8474   2.1946 C.3            1 S1                 0.0000
      3 ****        -3.0822   3.2110   0.9282 C.3            1 S1                 0.0000
      4 ****        -1.5873   2.9005   1.0557 C.2            1 S1                 0.0000
      5 ****        -1.0904   2.6348   2.1505 O.2            1 S1                 0.0000
      6 ****        -0.8807   2.9281  -0.0848 N.am           1 S1                 0.0000
      7 ****         0.5516   2.6659  -0.1955 C.3            1 S1                 0.0000
      8 ****         0.9421   1.1970  -0.3137 C.ar           1 S1                 0.0000
      9 ****         2.3029   0.8370  -0.2610 C.ar           1 S1                 0.0000
     10 ****         2.6621  -0.5185  -0.3833 C.ar           1 S1                 0.0000
     11 ****         1.6465  -1.4878  -0.5565 C.ar           1 S1                 0.0000
     12 ****         1.9849  -2.8520  -0.6849 N.3            1 S1                 0.0000
     13 ****         0.9105  -3.8367  -0.5744 C.3            1 S1                 0.0000
     14 ****         1.4946  -5.2548  -0.4592 C.3            1 S1                 0.0000
     15 ****         2.3586  -5.5075  -1.5624 O.3            1 S1                 0.0000
     16 ****         3.4593  -4.6048  -1.5899 C.3            1 S1                 0.0000
     17 ****         2.9476  -3.1615  -1.7387 C.3            1 S1                 0.0000
     18 ****         0.3366  -1.1416  -0.6024 N.ar           1 S1                 0.0000
     19 ****        -0.0017   0.1600  -0.4883 C.ar           1 S1                 0.0000
     20 ****        -5.5584   4.6679   2.9271 H              1 S1                 0.0000
     21 ****        -5.7616   3.3433   1.7834 H              1 S1                 0.0000
     22 ****        -5.2873   4.9414   1.2085 H              1 S1                 0.0000
     23 ****        -3.1185   4.7418   2.4630 H              1 S1                 0.0000
     24 ****        -3.5917   3.1593   3.0362 H              1 S1                 0.0000
     25 ****        -3.6062   2.2840   0.6933 H              1 S1                 0.0000
     26 ****        -3.2346   3.8796   0.0795 H              1 S1                 0.0000
     27 ****        -1.3702   3.1513  -0.9394 H              1 S1                 0.0000
     28 ****         0.9160   3.1842  -1.0826 H              1 S1                 0.0000
     29 ****         1.0776   3.1083   0.6523 H              1 S1                 0.0000
     30 ****         3.0656   1.5903  -0.1280 H              1 S1                 0.0000
     31 ****         3.7035  -0.7995  -0.3297 H              1 S1                 0.0000
     32 ****         0.2952  -3.6258   0.3012 H              1 S1                 0.0000
     33 ****         0.2660  -3.7694  -1.4519 H              1 S1                 0.0000
     34 ****         2.0388  -5.3770   0.4787 H              1 S1                 0.0000
     35 ****         0.6923  -5.9926  -0.4596 H              1 S1                 0.0000
     36 ****         4.0554  -4.7138  -0.6824 H              1 S1                 0.0000
     37 ****         4.1068  -4.8607  -2.4285 H              1 S1                 0.0000
     38 ****         2.4601  -3.0374  -2.7066 H              1 S1                 0.0000
     39 ****         3.7968  -2.4797  -1.7216 H              1 S1                 0.0000
     40 ****        -1.0602   0.3655  -0.5432 H              1 S1                 0.0000
     41 ****        -1.6639   2.6200   2.9695 LP             1 S1                 0.0000
     42 ****        -0.1133   2.4339   2.2206 LP             1 S1                 0.0000
     43 ****         2.4755  -2.9777   0.1774 LP             1 S1                 0.0000
     44 ****         1.8380  -5.4089  -2.4105 LP             1 S1                 0.0000
     45 ****         2.7080  -6.4418  -1.4925 LP             1 S1                 0.0000
     46 ****        -0.3689  -1.8406  -0.7191 LP             1 S1                 0.0000
@<TRIPOS>BOND
    1    1    2 1     
    2    1   20 1     
    3    1   21 1     
    4    1   22 1     
    5    2    3 1     
    6    2   23 1     
    7    2   24 1     
    8    3    4 1     
    9    3   25 1     
   10    3   26 1     
   11    4    5 2     
   12    4    6 am    
   13    6    7 1     
   14    6   27 1     
   15    7    8 1     
   16    7   28 1     
   17    7   29 1     
   18    8   19 ar    
   19    8    9 ar    
   20    9   10 ar    
   21    9   30 1     
   22   10   11 ar    
   23   10   31 1     
   24   11   12 1     
   25   11   18 ar    
   26   12   17 1     
   27   12   13 1     
   28   13   14 1     
   29   13   32 1     
   30   13   33 1     
   31   14   15 1     
   32   14   34 1     
   33   14   35 1     
   34   15   16 1     
   35   16   17 1     
   36   16   36 1     
   37   16   37 1     
   38   17   38 1     
   39   17   39 1     
   40   18   19 ar    
   41   19   40 1     
   42    5   41 1     
   43    5   42 1     
   44   12   43 1     
   45   15   44 1     
   46   15   45 1     
   47   18   46 1     
@<TRIPOS>SUBSTRUCTURE
      1 S1             1
@<TRIPOS>SET
LONE_PAIRS      STATIC     ATOMS    <user>   **** ""
6 41 42 43 44 45 46
DONOR_HYDROGENS      STATIC     ATOMS    <user>   **** ""
1 27
ATOM$BLUE        STATIC     ATOMS    COLORGROUP SYSTEM
6 41 42 43 44 45 46
ATOM$RED        STATIC     ATOMS    COLORGROUP SYSTEM
1 27
