AV-unprocessed.smi:2244|AV-procd|sdf|9074|dock3
  -GOLD-   2272012283D 1   1.00000     0.00000
 Structure written by MMmdl.
 49 51  0  0  0  0  0  0  0  0  1 V2000
  150.4209  144.8378  159.4951 C   0  0  0  0  0  0  0  0  0  0  0  0
  151.3362  143.6818  159.0314 C   0  0  0  0  0  0  0  0  0  0  0  0
  150.4246  142.5468  158.5200 C   0  0  0  0  0  0  0  0  0  0  0  0
  152.2090  144.2157  157.8768 C   0  0  0  0  0  0  0  0  0  0  0  0
  152.2380  143.1563  160.1628 C   0  0  0  0  0  0  0  0  0  0  0  0
  152.9221  141.9218  160.0974 C   0  0  0  0  0  0  0  0  0  0  0  0
  153.7091  141.5507  161.2004 C   0  0  0  0  0  0  0  0  0  0  0  0
  153.7780  142.4227  162.3056 C   0  0  0  0  0  0  0  0  0  0  0  0
  154.5874  141.9599  163.3839 N   0  0  0  0  0  0  0  0  0  0  0  0
  155.0102  142.5735  164.5097 C   0  0  0  0  0  0  0  0  0  0  0  0
  154.6962  143.7377  164.7515 O   0  0  0  0  0  0  0  0  0  0  0  0
  155.7757  141.8410  165.3355 N   0  0  0  0  0  0  0  0  0  0  0  0
  156.3504  142.3011  166.5955 C   0  0  2  0  0  0  0  0  0  0  0  0
  157.8718  142.0818  166.6078 C   0  0  0  0  0  0  0  0  0  0  0  0
  158.4550  142.4013  167.9933 C   0  0  0  0  0  0  0  0  0  0  0  0
  157.8011  141.6232  168.9905 O   0  0  0  0  0  0  0  0  0  0  0  0
  156.4077  141.9012  169.0928 C   0  0  2  0  0  0  0  0  0  0  0  0
  155.8500  141.1075  170.2576 C   0  0  0  0  0  0  0  0  0  0  0  0
  155.1455  141.8039  171.3986 C   0  0  0  0  0  0  0  0  0  0  0  0
  156.4996  141.1739  171.6198 C   0  0  0  0  0  0  0  0  0  0  0  0
  155.7152  141.5376  167.7667 C   0  0  0  0  0  0  0  0  0  0  0  0
  153.0917  143.5939  162.2981 N   0  0  0  0  0  0  0  0  0  0  0  0
  152.3409  143.9539  161.2536 N   0  0  0  0  0  0  0  0  0  0  0  0
  149.7898  145.1932  158.6795 H   0  0  0  0  0  0  0  0  0  0  0  0
  150.9983  145.6941  159.8461 H   0  0  0  0  0  0  0  0  0  0  0  0
  149.7545  144.5267  160.3006 H   0  0  0  0  0  0  0  0  0  0  0  0
  149.7999  142.1512  159.3216 H   0  0  0  0  0  0  0  0  0  0  0  0
  151.0002  141.7156  158.1114 H   0  0  0  0  0  0  0  0  0  0  0  0
  149.7610  142.8968  157.7285 H   0  0  0  0  0  0  0  0  0  0  0  0
  151.5966  144.6125  157.0661 H   0  0  0  0  0  0  0  0  0  0  0  0
  152.8400  143.4352  157.4499 H   0  0  0  0  0  0  0  0  0  0  0  0
  152.8646  145.0186  158.2162 H   0  0  0  0  0  0  0  0  0  0  0  0
  152.8604  141.2625  159.2455 H   0  0  0  0  0  0  0  0  0  0  0  0
  154.2467  140.6133  161.1943 H   0  0  0  0  0  0  0  0  0  0  0  0
  154.8562  140.9893  163.3138 H   0  0  0  0  0  0  0  0  0  0  0  0
  155.9869  140.8920  165.0604 H   0  0  0  0  0  0  0  0  0  0  0  0
  156.1424  143.3644  166.7294 H   0  0  0  0  0  0  0  0  0  0  0  0
  158.0989  141.0449  166.3549 H   0  0  0  0  0  0  0  0  0  0  0  0
  158.3520  142.7008  165.8493 H   0  0  0  0  0  0  0  0  0  0  0  0
  159.5207  142.1727  168.0121 H   0  0  0  0  0  0  0  0  0  0  0  0
  158.3541  143.4634  168.2217 H   0  0  0  0  0  0  0  0  0  0  0  0
  156.2693  142.9642  169.3011 H   0  0  0  0  0  0  0  0  0  0  0  0
  155.4463  140.1376  169.9730 H   0  0  0  0  0  0  0  0  0  0  0  0
  155.0953  142.8908  171.3757 H   0  0  0  0  0  0  0  0  0  0  0  0
  154.2811  141.3059  171.8329 H   0  0  0  0  0  0  0  0  0  0  0  0
  156.5384  140.2556  172.2022 H   0  0  0  0  0  0  0  0  0  0  0  0
  157.3505  141.8410  171.7437 H   0  0  0  0  0  0  0  0  0  0  0  0
  154.6494  141.7619  167.8259 H   0  0  0  0  0  0  0  0  0  0  0  0
  155.7991  140.4629  167.5966 H   0  0  0  0  0  0  0  0  0  0  0  0
  1  2  1  0  0  0  0
  1 24  1  0  0  0  0
  1 25  1  0  0  0  0
  1 26  1  0  0  0  0
  2  3  1  0  0  0  0
  2  4  1  0  0  0  0
  2  5  1  0  0  0  0
  3 27  1  0  0  0  0
  3 28  1  0  0  0  0
  3 29  1  0  0  0  0
  4 30  1  0  0  0  0
  4 31  1  0  0  0  0
  4 32  1  0  0  0  0
  5 23  1  0  0  0  0
  5  6  2  0  0  0  0
  6  7  1  0  0  0  0
  6 33  1  0  0  0  0
  7  8  2  0  0  0  0
  7 34  1  0  0  0  0
  8  9  1  0  0  0  0
  8 22  1  0  0  0  0
  9 10  1  0  0  0  0
  9 35  1  0  0  0  0
 10 11  2  0  0  0  0
 10 12  1  0  0  0  0
 12 13  1  0  0  0  0
 12 36  1  0  0  0  0
 13 21  1  0  0  0  0
 13 14  1  0  0  0  0
 13 37  1  0  0  0  0
 14 15  1  0  0  0  0
 14 38  1  0  0  0  0
 14 39  1  0  0  0  0
 15 16  1  0  0  0  0
 15 40  1  0  0  0  0
 15 41  1  0  0  0  0
 16 17  1  0  0  0  0
 17 18  1  0  0  0  0
 17 21  1  0  0  0  0
 17 42  1  0  0  0  0
 18 20  1  0  0  0  0
 18 19  1  0  0  0  0
 18 43  1  0  0  0  0
 19 20  1  0  0  0  0
 19 44  1  0  0  0  0
 19 45  1  0  0  0  0
 20 46  1  0  0  0  0
 20 47  1  0  0  0  0
 21 48  1  0  0  0  0
 21 49  1  0  0  0  0
 22 23  2  0  0  0  0
M  END
> <s_m_source_file>
AV-unprocessed.smi

> <i_m_source_file_index>
2244

> <i_lp_mmshare_version>
43012

> <i_f3d_flags>
0

> <s_epik_input>
W0NIM11DKFtDSDNdKShbQ0gzXSljMVtjSF1bY0hdYyhubjEpW05IXUMoPU8pW05IXVtDQEBIXTJbQ0gyXVtDSDJdT1tDQEhdKFtDSDJdMilbQ0hdM1tDSDJdW0NIMl0z

> <s_epik_cmdline>
J2VwaWtfcHl0aG9uJywgJy1waCcsICc3LjAnLCAnLXRuJywgJzgnLCAnLW1hJywgJzIwMCcsICctbWV0YWxfYmluZGluZycsICctaW1hZScsICc8aW5maWxlLm1hZT4nLCAnLW9tYWUnLCAnPG91dGZpbGUubWFlPic=

> <r_lp_tautomer_probability>
1

> <r_epik_Ionization_Penalty>
0.011369

> <r_epik_Ionization_Penalty_Charging>
0

> <r_epik_Ionization_Penalty_Neutral>
0.011369

> <r_epik_State_Penalty>
0.00456331

> <r_epik_Charging_Adjusted_Penalty>
0.00456331

> <i_epik_Tot_Q>
0

> <i_epik_Tot_abs_Q>
0

> <r_epik_Metal_State_Penalty>
-0

> <b_epik_Metal_Only>
0

> <s_lp_Force_Field>
OPLS_2005

> <r_lp_Energy>
27.8211

> <b_lp_Chiralities_Consistent>
1

> <s_lp_Variant>
AV-unprocessed.smi:2244-3

> <Gold.Version>
5.8.1

> <Gold.Id.Protein>
6NUR|6NUR_protein|mol2

> <Gold.PLP.Fitness>
43.8244

> <Gold.PLP.PLP>
-45.5747

> <Gold.PLP.part.hbond>
-1.2541

> <Gold.PLP.part.metal>
0.0000

> <Gold.PLP.part.buried>
-7.3837

> <Gold.PLP.part.nonpolar>
-35.4659

> <Gold.PLP.part.repulsive>
0.4165

> <Gold.PLP.ligand.clash>
0.0000

> <Gold.PLP.ligand.torsion>
1.4161

> <Gold.PLP.Chemscore.Hbond>
0.0000

> <Gold.PLP.Chemscore.CHOScore>
0.0000

> <Gold.PLP.Chemscore.Metal>
0.0000

> <Gold.PLP.Chemscore.Internal.Correction>
1.0819

> <Gold.Rescore>
     Score         DG    S(hbond)    S(metal)    S(lipo)     H(rot)  DE(clash)    DE(int)     intcor
     12.50     -15.54       0.00        0.00     114.41       1.30       0.83       2.21       ----

> <Gold.Chemscore.Fitness>
12.5012

> <Gold.Chemscore.DG>
-15.5374

> <Gold.Chemscore.ZeroCoef>
-5.4800

> <Gold.Chemscore.Hbond>
0.0000

> <Gold.Chemscore.Metal>
0.0000

> <Gold.Chemscore.Lipo>
114.4089

> <Gold.Chemscore.Internal_Hbond>
0.0000

> <Gold.Chemscore.DEClash>
0.8280

> <Gold.Chemscore.DEInternal>
2.2082

> <Gold.Chemscore.Rot>
1.3002

> <Gold.Chemscore.Internal.Correction>
   9.000000E+99

> <Gold.Chemscore.Hbond.Weighted>
-0.0000

> <Gold.Chemscore.Metal.Weighted>
-0.0000

> <Gold.Chemscore.Lipo.Weighted>
-13.3858

> <Gold.Chemscore.Internal_Hbond.Weighted>
0.0000

> <Gold.Chemscore.DEClash.Weighted>
0.8280

> <Gold.Chemscore.DEInternal.Weighted>
2.2082

> <Gold.Chemscore.Rot.Weighted>
3.3284

> <Gold.Chemscore.Internal.Correction.Weighted>
   9.000000E+99

> <Gold.Protein.RotatedTorsions>
[ 6907 6896 6895 6894 ] final   61.34 input  -60.11 | X-H torsion
[ 7974 7965 7964 7962 ] final   48.22 input  175.53 | X-H torsion
[ 8008 7997 7996 7995 ] final  -33.08 input   59.86 | X-H torsion
[ 10167 10162 10161 10158 ] final   39.31 input  -65.29 | X-H torsion
[ 10718 10713 10712 10709 ] final   58.19 input   66.30 | X-H torsion
[ 10763 10752 10751 10750 ] final -133.96 input  -60.55 | X-H torsion
[ 11005 11000 10999 10996 ] final  172.14 input  -57.11 | X-H torsion

> <Gold.Protein.ActiveResidues>
 VAL166  LYS551  ARG553  GLY616  TRP617  ASP618  TYR619  PRO620  LYS621  CYS622 
 ASP623  PHE694  ASN695  SER759  ASP760  ASP761  ALA762  ILE779  LEU786  VAL792 
 PHE793  MET794  SER795  GLU796  ALA797  LYS798  CYS799  TRP800  GLU811  SER814 

> <Gold.Protein.RotatedAtoms>
  152.4081  134.6172  160.0041 H   0  0  0  0  0  0  0  0  0  0  0  0  # atno 6907 bound_to 6896
  151.6358  133.3323  159.3127 H   0  0  0  0  0  0  0  0  0  0  0  0  # atno 6908 bound_to 6896
  150.7974  134.7084  159.6634 H   0  0  0  0  0  0  0  0  0  0  0  0  # atno 6909 bound_to 6896
  146.0224  139.4667  142.9888 H   0  0  0  0  0  0  0  0  0  0  0  0  # atno 7974 bound_to 7965
  154.4159  140.1720  156.1831 H   0  0  0  0  0  0  0  0  0  0  0  0  # atno 8008 bound_to 7997
  155.9665  140.3389  155.6513 H   0  0  0  0  0  0  0  0  0  0  0  0  # atno 8009 bound_to 7997
  155.6680  140.0708  157.2521 H   0  0  0  0  0  0  0  0  0  0  0  0  # atno 8010 bound_to 7997
  140.3852  144.1926  150.6130 H   0  0  0  0  0  0  0  0  0  0  0  0  # atno 10167 bound_to 10162
  157.5576  130.8812  149.9061 H   0  0  0  0  0  0  0  0  0  0  0  0  # atno 10718 bound_to 10713
  154.8726  135.3749  154.4658 H   0  0  0  0  0  0  0  0  0  0  0  0  # atno 10763 bound_to 10752
  153.5323  135.7027  153.5682 H   0  0  0  0  0  0  0  0  0  0  0  0  # atno 10764 bound_to 10752
  153.3881  135.3979  155.1869 H   0  0  0  0  0  0  0  0  0  0  0  0  # atno 10765 bound_to 10752
  140.3265  134.7393  157.4103 H   0  0  0  0  0  0  0  0  0  0  0  0  # atno 11005 bound_to 11000
  145.7171  141.0087  143.1422 LP  0  0  0  0  0  0  0  0  0  0  0  0  # atno 17320 bound_to 7965
  144.6995  139.8827  143.7448 LP  0  0  0  0  0  0  0  0  0  0  0  0  # atno 17321 bound_to 7965
  140.4896  143.2352  151.8837 LP  0  0  0  0  0  0  0  0  0  0  0  0  # atno 17342 bound_to 10162
  139.4792  144.5180  151.8841 LP  0  0  0  0  0  0  0  0  0  0  0  0  # atno 17343 bound_to 10162
  156.0633  130.3696  150.0934 LP  0  0  0  0  0  0  0  0  0  0  0  0  # atno 17370 bound_to 10713
  156.9101  130.9649  151.3564 LP  0  0  0  0  0  0  0  0  0  0  0  0  # atno 17371 bound_to 10713
  140.0897  134.5618  155.8457 LP  0  0  0  0  0  0  0  0  0  0  0  0  # atno 17394 bound_to 11000
  141.2074  133.6663  156.6302 LP  0  0  0  0  0  0  0  0  0  0  0  0  # atno 17395 bound_to 11000

$$$$
