AV-unprocessed.smi:906|AV-procd|sdf|4104|dock6
  -GOLD-   22720 1593D 1   1.00000     0.00000
 Structure written by MMmdl.
 48 49  0  0  0  0  0  0  0  0  2 V2000
  151.0654  144.3362  161.6059 C   0  0  0  0  0  0  0  0  0  0  0  0
  152.0248  143.1649  161.5821 C   0  0  0  0  0  0  0  0  0  0  0  0
  152.8302  142.8656  162.7013 C   0  0  0  0  0  0  0  0  0  0  0  0
  153.7018  141.7624  162.6242 C   0  0  0  0  0  0  0  0  0  0  0  0
  153.7348  141.0035  161.4363 C   0  0  0  0  0  0  0  0  0  0  0  0
  154.6482  139.8011  161.3059 C   0  0  0  0  0  0  0  0  0  0  0  0
  153.8584  138.4984  161.0998 C   0  0  0  0  0  0  0  0  0  0  0  0
  154.6977  137.3231  161.2999 N   0  0  0  0  0  0  0  0  0  0  0  0
  154.5908  136.1686  160.6208 C   0  0  0  0  0  0  0  0  0  0  0  0
  153.7607  136.0073  159.7255 O   0  0  0  0  0  0  0  0  0  0  0  0
  155.5145  135.2322  160.9514 N   0  0  0  0  0  0  0  0  0  0  0  0
  156.0736  135.0101  162.2929 C   0  0  0  0  0  0  0  0  0  0  0  0
  155.4300  133.7497  162.9008 C   0  0  0  0  0  0  0  0  0  0  0  0
  155.6137  132.5665  162.0113 N   0  3  0  0  0  0  0  0  0  0  0  0
  155.1064  131.2660  162.5452 C   0  0  2  0  0  0  0  0  0  0  0  0
  153.5724  131.1244  162.4660 C   0  0  0  0  0  0  0  0  0  0  0  0
  155.6570  130.9643  163.9568 C   0  0  0  0  0  0  0  0  0  0  0  0
  155.6362  129.6497  164.1784 F   0  0  0  0  0  0  0  0  0  0  0  0
  156.9034  131.4090  164.1110 F   0  0  0  0  0  0  0  0  0  0  0  0
  154.8848  131.5529  164.8698 F   0  0  0  0  0  0  0  0  0  0  0  0
  155.1914  132.8281  160.6070 C   0  0  0  0  0  0  0  0  0  0  0  0
  155.8364  134.1143  160.0603 C   0  0  0  0  0  0  0  0  0  0  0  0
  152.8895  141.3882  160.3742 C   0  0  0  0  0  0  0  0  0  0  0  0
  152.0504  142.4442  160.4392 N   0  0  0  0  0  0  0  0  0  0  0  0
  151.1372  144.8871  162.5440 H   0  0  0  0  0  0  0  0  0  0  0  0
  150.0383  143.9875  161.4942 H   0  0  0  0  0  0  0  0  0  0  0  0
  151.2861  145.0245  160.7895 H   0  0  0  0  0  0  0  0  0  0  0  0
  152.7826  143.4645  163.5990 H   0  0  0  0  0  0  0  0  0  0  0  0
  154.3307  141.5036  163.4633 H   0  0  0  0  0  0  0  0  0  0  0  0
  155.3301  139.9689  160.4711 H   0  0  0  0  0  0  0  0  0  0  0  0
  155.2691  139.7263  162.1997 H   0  0  0  0  0  0  0  0  0  0  0  0
  153.0349  138.4480  161.8127 H   0  0  0  0  0  0  0  0  0  0  0  0
  153.4103  138.4743  160.1047 H   0  0  0  0  0  0  0  0  0  0  0  0
  155.4211  137.3962  162.0002 H   0  0  0  0  0  0  0  0  0  0  0  0
  157.1530  134.8739  162.2108 H   0  0  0  0  0  0  0  0  0  0  0  0
  155.9378  135.8516  162.9726 H   0  0  0  0  0  0  0  0  0  0  0  0
  155.8720  133.5646  163.8780 H   0  0  0  0  0  0  0  0  0  0  0  0
  154.3677  133.9379  163.0598 H   0  0  0  0  0  0  0  0  0  0  0  0
  155.5260  130.4894  161.9037 H   0  0  0  0  0  0  0  0  0  0  0  0
  153.2640  130.1150  162.7389 H   0  0  0  0  0  0  0  0  0  0  0  0
  153.2011  131.3120  161.4587 H   0  0  0  0  0  0  0  0  0  0  0  0
  153.0635  131.8083  163.1451 H   0  0  0  0  0  0  0  0  0  0  0  0
  155.4736  131.9879  159.9716 H   0  0  0  0  0  0  0  0  0  0  0  0
  154.1050  132.9128  160.5585 H   0  0  0  0  0  0  0  0  0  0  0  0
  155.5129  134.2899  159.0332 H   0  0  0  0  0  0  0  0  0  0  0  0
  156.9202  133.9979  160.0099 H   0  0  0  0  0  0  0  0  0  0  0  0
  152.8833  140.8319  159.4483 H   0  0  0  0  0  0  0  0  0  0  0  0
  156.6142  132.4414  161.9485 H   0  0  0  0  0  0  0  0  0  0  0  0
  1  2  1  0  0  0  0
  1 25  1  0  0  0  0
  1 26  1  0  0  0  0
  1 27  1  0  0  0  0
  2 24  1  0  0  0  0
  2  3  2  0  0  0  0
  3  4  1  0  0  0  0
  3 28  1  0  0  0  0
  4  5  2  0  0  0  0
  4 29  1  0  0  0  0
  5  6  1  0  0  0  0
  5 23  1  0  0  0  0
  6  7  1  0  0  0  0
  6 30  1  0  0  0  0
  6 31  1  0  0  0  0
  7  8  1  0  0  0  0
  7 32  1  0  0  0  0
  7 33  1  0  0  0  0
  8  9  1  0  0  0  0
  8 34  1  0  0  0  0
  9 10  2  0  0  0  0
  9 11  1  0  0  0  0
 11 22  1  0  0  0  0
 11 12  1  0  0  0  0
 12 13  1  0  0  0  0
 12 35  1  0  0  0  0
 12 36  1  0  0  0  0
 13 14  1  0  0  0  0
 13 37  1  0  0  0  0
 13 38  1  0  0  0  0
 14 15  1  0  0  0  0
 14 21  1  0  0  0  0
 14 48  1  0  0  0  0
 15 16  1  0  0  0  0
 15 17  1  0  0  0  0
 15 39  1  0  0  0  0
 16 40  1  0  0  0  0
 16 41  1  0  0  0  0
 16 42  1  0  0  0  0
 17 18  1  0  0  0  0
 17 19  1  0  0  0  0
 17 20  1  0  0  0  0
 21 22  1  0  0  0  0
 21 43  1  0  0  0  0
 21 44  1  0  0  0  0
 22 45  1  0  0  0  0
 22 46  1  0  0  0  0
 23 24  2  0  0  0  0
 23 47  1  0  0  0  0
M  CHG  1  14   1
M  END
> <s_m_source_file>
AV-unprocessed.smi

> <i_m_source_file_index>
906

> <i_lp_mmshare_version>
43012

> <i_f3d_flags>
0

> <s_epik_input>
W0NIM11jMVtjSF1bY0hdYyhbY0hdbjEpW0NIMl1bQ0gyXVtOSF1DKD1PKU4yW0NIMl1bQ0gyXU4oW0NASF0oW0NIM10pQyhGKShGKUYpW0NIMl1bQ0gyXTI=

> <s_epik_cmdline>
J2VwaWtfcHl0aG9uJywgJy1waCcsICc3LjAnLCAnLXRuJywgJzgnLCAnLW1hJywgJzIwMCcsICctbWV0YWxfYmluZGluZycsICctaW1hZScsICc8aW5maWxlLm1hZT4nLCAnLW9tYWUnLCAnPG91dGZpbGUubWFlPic=

> <r_epik_Ionization_Penalty>
2.02136

> <r_epik_Ionization_Penalty_Charging>
1.96814

> <r_epik_Ionization_Penalty_Neutral>
0.0532286

> <r_epik_State_Penalty>
2.14285

> <r_epik_Charging_Adjusted_Penalty>
4.11098

> <i_epik_Tot_Q>
1

> <i_epik_Tot_abs_Q>
1

> <r_epik_Metal_State_Penalty>
2.1406

> <b_epik_Metal_Only>
0

> <s_lp_Force_Field>
OPLS_2005

> <r_lp_Energy>
50.8751

> <b_lp_Chiralities_Consistent>
1

> <s_lp_Variant>
AV-unprocessed.smi:906-5

> <Gold.Version>
5.8.1

> <Gold.Id.Protein>
6NUR|6NUR_protein|mol2

> <Gold.PLP.Fitness>
43.4993

> <Gold.PLP.PLP>
-42.1593

> <Gold.PLP.part.hbond>
-0.9827

> <Gold.PLP.part.metal>
0.0000

> <Gold.PLP.part.buried>
-6.2369

> <Gold.PLP.part.nonpolar>
-35.5076

> <Gold.PLP.part.repulsive>
0.0271

> <Gold.PLP.ligand.clash>
0.0000

> <Gold.PLP.ligand.torsion>
1.2100

> <Gold.PLP.Chemscore.Hbond>
1.0000

> <Gold.PLP.Chemscore.CHOScore>
0.0000

> <Gold.PLP.Chemscore.Metal>
0.0000

> <Gold.Chemscore.Hbonds>
donor molecule, donor type, donor heavy atom, donor atom, acceptor molecule, acceptor atom, score
      P1  H  6896  6908       L1    10  1.00

> <Gold.PLP.Chemscore.Internal.Correction>
0.7600

> <Gold.Rescore>
     Score         DG    S(hbond)    S(metal)    S(lipo)     H(rot)  DE(clash)    DE(int)     intcor
     14.72     -17.14       0.96        0.00     107.61       1.62       0.09       2.33       ----

> <Gold.Chemscore.Fitness>
14.7208

> <Gold.Chemscore.DG>
-17.1387

> <Gold.Chemscore.ZeroCoef>
-5.4800

> <Gold.Chemscore.Hbond>
0.9605

> <Gold.Chemscore.Metal>
0.0000

> <Gold.Chemscore.Lipo>
107.6111

> <Gold.Chemscore.Internal_Hbond>
0.0000

> <Gold.Chemscore.DEClash>
0.0884

> <Gold.Chemscore.DEInternal>
2.3296

> <Gold.Chemscore.Rot>
1.6171

> <Gold.Chemscore.Internal.Correction>
   9.000000E+99

> <Gold.Chemscore.Hbonds>
donor molecule, donor type, donor heavy atom, donor atom, acceptor molecule, acceptor atom, score
      P1  H  6896  6908       L1    10  0.94

> <Gold.Chemscore.Hbond.Weighted>
-3.2080

> <Gold.Chemscore.Metal.Weighted>
-0.0000

> <Gold.Chemscore.Lipo.Weighted>
-12.5905

> <Gold.Chemscore.Internal_Hbond.Weighted>
0.0000

> <Gold.Chemscore.DEClash.Weighted>
0.0884

> <Gold.Chemscore.DEInternal.Weighted>
2.3296

> <Gold.Chemscore.Rot.Weighted>
4.1398

> <Gold.Chemscore.Internal.Correction.Weighted>
   9.000000E+99

> <Gold.Protein.RotatedTorsions>
[ 6907 6896 6895 6894 ] final  -59.61 input  -60.11 | X-H torsion
[ 7974 7965 7964 7962 ] final  169.12 input  175.53 | X-H torsion
[ 8008 7997 7996 7995 ] final -114.24 input   59.86 | X-H torsion
[ 10167 10162 10161 10158 ] final   83.87 input  -65.29 | X-H torsion
[ 10718 10713 10712 10709 ] final   46.53 input   66.30 | X-H torsion
[ 10763 10752 10751 10750 ] final -128.87 input  -60.55 | X-H torsion
[ 11005 11000 10999 10996 ] final  115.30 input  -57.11 | X-H torsion

> <Gold.Protein.ActiveResidues>
 VAL166  LYS551  ARG553  GLY616  TRP617  ASP618  TYR619  PRO620  LYS621  CYS622 
 ASP623  PHE694  ASN695  SER759  ASP760  ASP761  ALA762  ILE779  LEU786  VAL792 
 PHE793  MET794  SER795  GLU796  ALA797  LYS798  CYS799  TRP800  GLU811  SER814 

> <Gold.Protein.RotatedAtoms>
  150.7917  134.6946  159.6515 H   0  0  0  0  0  0  0  0  0  0  0  0  # atno 6907 bound_to 6896
  152.4024  134.6261  160.0073 H   0  0  0  0  0  0  0  0  0  0  0  0  # atno 6908 bound_to 6896
  151.6529  133.3283  159.3192 H   0  0  0  0  0  0  0  0  0  0  0  0  # atno 6909 bound_to 6896
  144.7365  139.9008  143.6409 H   0  0  0  0  0  0  0  0  0  0  0  0  # atno 7974 bound_to 7965
  155.0332  140.0393  157.2482 H   0  0  0  0  0  0  0  0  0  0  0  0  # atno 8008 bound_to 7997
  154.7279  140.2725  155.6459 H   0  0  0  0  0  0  0  0  0  0  0  0  # atno 8009 bound_to 7997
  156.2834  140.2690  156.1970 H   0  0  0  0  0  0  0  0  0  0  0  0  # atno 8010 bound_to 7997
  139.9139  144.6255  150.8509 H   0  0  0  0  0  0  0  0  0  0  0  0  # atno 10167 bound_to 10162
  157.4491  130.8127  149.7770 H   0  0  0  0  0  0  0  0  0  0  0  0  # atno 10718 bound_to 10713
  154.8757  135.3914  154.3827 H   0  0  0  0  0  0  0  0  0  0  0  0  # atno 10763 bound_to 10752
  153.4573  135.7029  153.6077 H   0  0  0  0  0  0  0  0  0  0  0  0  # atno 10764 bound_to 10752
  153.4591  135.3816  155.2296 H   0  0  0  0  0  0  0  0  0  0  0  0  # atno 10765 bound_to 10752
  139.9006  134.9582  156.7024 H   0  0  0  0  0  0  0  0  0  0  0  0  # atno 11005 bound_to 11000
  146.1073  139.4074  143.0309 LP  0  0  0  0  0  0  0  0  0  0  0  0  # atno 17320 bound_to 7965
  145.7493  140.9978  143.1259 LP  0  0  0  0  0  0  0  0  0  0  0  0  # atno 17321 bound_to 7965
  140.7679  143.3346  151.2337 LP  0  0  0  0  0  0  0  0  0  0  0  0  # atno 17342 bound_to 10162
  139.6919  143.9677  152.2863 LP  0  0  0  0  0  0  0  0  0  0  0  0  # atno 17343 bound_to 10162
  155.9979  130.3897  150.2721 LP  0  0  0  0  0  0  0  0  0  0  0  0  # atno 17370 bound_to 10713
  157.0891  131.0164  151.3128 LP  0  0  0  0  0  0  0  0  0  0  0  0  # atno 17371 bound_to 10713
  140.7140  133.9198  155.8103 LP  0  0  0  0  0  0  0  0  0  0  0  0  # atno 17394 bound_to 11000
  141.0278  134.0798  157.4048 LP  0  0  0  0  0  0  0  0  0  0  0  0  # atno 17395 bound_to 11000

$$$$
