AV-unprocessed.smi:1808|AV-procd|sdf|7306|dock3
  -GOLD-   22720 8563D 1   1.00000     0.00000
 Structure written by MMmdl.
 28 29  0  0  0  0  0  0  0  0  1 V2000
  150.9831  140.6851  156.0899 O   0  0  0  0  0  0  0  0  0  0  0  0
  150.3883  141.7623  156.0422 C   0  0  0  0  0  0  0  0  0  0  0  0
  150.8026  142.8638  156.6838 N   0  0  0  0  0  0  0  0  0  0  0  0
  151.9922  142.9457  157.5238 C   0  0  0  0  0  0  0  0  0  0  0  0
  151.6339  143.2570  158.9867 C   0  0  1  0  0  0  0  0  0  0  0  0
  152.5028  142.5190  160.0075 C   0  0  0  0  0  0  0  0  0  0  0  0
  152.5802  143.4745  161.1912 C   0  0  0  0  0  0  0  0  0  0  0  0
  151.8684  144.7367  160.7021 C   0  0  0  0  0  0  0  0  0  0  0  0
  151.8831  144.6213  159.2882 O   0  0  0  0  0  0  0  0  0  0  0  0
  149.2567  141.9967  155.3550 N   0  0  0  0  0  0  0  0  0  0  0  0
  148.5104  141.0903  154.5571 C   0  0  0  0  0  0  0  0  0  0  0  0
  148.8206  139.7993  154.3896 N   0  0  0  0  0  0  0  0  0  0  0  0
  147.9117  139.1455  153.5539 C   0  0  0  0  0  0  0  0  0  0  0  0
  146.9089  139.9601  153.0898 C   0  0  0  0  0  0  0  0  0  0  0  0
  147.0658  141.5896  153.6894 S   0  0  0  0  0  0  0  0  0  0  0  0
  150.2522  143.7053  156.5940 H   0  0  0  0  0  0  0  0  0  0  0  0
  152.5518  142.0107  157.4627 H   0  0  0  0  0  0  0  0  0  0  0  0
  152.6432  143.7230  157.1231 H   0  0  0  0  0  0  0  0  0  0  0  0
  150.5818  143.0393  159.1817 H   0  0  0  0  0  0  0  0  0  0  0  0
  152.0825  141.5494  160.2761 H   0  0  0  0  0  0  0  0  0  0  0  0
  153.5044  142.3495  159.6106 H   0  0  0  0  0  0  0  0  0  0  0  0
  152.1028  143.0693  162.0838 H   0  0  0  0  0  0  0  0  0  0  0  0
  153.6219  143.6868  161.4348 H   0  0  0  0  0  0  0  0  0  0  0  0
  150.8343  144.7554  161.0499 H   0  0  0  0  0  0  0  0  0  0  0  0
  152.3573  145.6525  161.0347 H   0  0  0  0  0  0  0  0  0  0  0  0
  148.8863  142.9339  155.4080 H   0  0  0  0  0  0  0  0  0  0  0  0
  148.0548  138.0964  153.3415 H   0  0  0  0  0  0  0  0  0  0  0  0
  146.0906  139.7006  152.4347 H   0  0  0  0  0  0  0  0  0  0  0  0
  1  2  2  0  0  0  0
  2  3  1  0  0  0  0
  2 10  1  0  0  0  0
  3  4  1  0  0  0  0
  3 16  1  0  0  0  0
  4  5  1  0  0  0  0
  4 17  1  0  0  0  0
  4 18  1  0  0  0  0
  5  9  1  0  0  0  0
  5  6  1  0  0  0  0
  5 19  1  0  0  0  0
  6  7  1  0  0  0  0
  6 20  1  0  0  0  0
  6 21  1  0  0  0  0
  7  8  1  0  0  0  0
  7 22  1  0  0  0  0
  7 23  1  0  0  0  0
  8  9  1  0  0  0  0
  8 24  1  0  0  0  0
  8 25  1  0  0  0  0
 10 11  1  0  0  0  0
 10 26  1  0  0  0  0
 11 15  1  0  0  0  0
 11 12  2  0  0  0  0
 12 13  1  0  0  0  0
 13 14  2  0  0  0  0
 13 27  1  0  0  0  0
 14 15  1  0  0  0  0
 14 28  1  0  0  0  0
M  END
> <s_m_source_file>
AV-unprocessed.smi

> <i_m_source_file_index>
1808

> <i_lp_mmshare_version>
43012

> <i_f3d_flags>
0

> <s_epik_input>
czFbY0hdW2NIXW5jMVtOSF1DKD1PKVtOSF1bQ0gyXVtDQEBIXTJbQ0gyXVtDSDJdW0NIMl1PMg==

> <s_epik_cmdline>
J2VwaWtfcHl0aG9uJywgJy1waCcsICc3LjAnLCAnLXRuJywgJzgnLCAnLW1hJywgJzIwMCcsICctbWV0YWxfYmluZGluZycsICctaW1hZScsICc8aW5maWxlLm1hZT4nLCAnLW9tYWUnLCAnPG91dGZpbGUubWFlPic=

> <r_lp_tautomer_probability>
0.999

> <r_epik_Ionization_Penalty>
0.000333847

> <r_epik_Ionization_Penalty_Charging>
0

> <r_epik_Ionization_Penalty_Neutral>
0.000333847

> <r_epik_State_Penalty>
0.000177984

> <r_epik_Charging_Adjusted_Penalty>
0.000177984

> <i_epik_Tot_Q>
0

> <i_epik_Tot_abs_Q>
0

> <r_epik_Metal_State_Penalty>
0.00767616

> <b_epik_Metal_Only>
0

> <s_lp_Force_Field>
OPLS_2005

> <r_lp_Energy>
15.1674

> <b_lp_Chiralities_Consistent>
1

> <s_lp_Variant>
AV-unprocessed.smi:1808-2

> <Gold.Version>
5.8.1

> <Gold.Id.Protein>
6NUR|6NUR_protein|mol2

> <Gold.PLP.Fitness>
41.1257

> <Gold.PLP.PLP>
-30.2647

> <Gold.PLP.part.hbond>
-2.0000

> <Gold.PLP.part.metal>
0.0000

> <Gold.PLP.part.buried>
-5.9673

> <Gold.PLP.part.nonpolar>
-23.4034

> <Gold.PLP.part.repulsive>
0.4185

> <Gold.PLP.ligand.clash>
0.0000

> <Gold.PLP.ligand.torsion>
0.5726

> <Gold.PLP.Chemscore.Hbond>
2.0000

> <Gold.PLP.Chemscore.CHOScore>
2.0000

> <Gold.PLP.Chemscore.Metal>
0.0000

> <Gold.Chemscore.Hbonds>
donor molecule, donor type, donor heavy atom, donor atom, acceptor molecule, acceptor atom, score
      L1  H     3    16       P1  8028  1.00
      L1  H    10    26       P1  8028  1.00
      L1  C    13    27       P1  7948  1.00
      L1  C    14    28       P1 10175  1.00

> <Gold.PLP.Chemscore.Internal.Correction>
0.0062

> <Gold.Rescore>
     Score         DG    S(hbond)    S(metal)    S(lipo)     H(rot)  DE(clash)    DE(int)     intcor
     14.73     -18.00       1.97        0.00      79.49       1.32       1.45       1.82       ----

> <Gold.Chemscore.Fitness>
14.7292

> <Gold.Chemscore.DG>
-17.9994

> <Gold.Chemscore.ZeroCoef>
-5.4800

> <Gold.Chemscore.Hbond>
1.9726

> <Gold.Chemscore.Metal>
0.0000

> <Gold.Chemscore.Lipo>
79.4929

> <Gold.Chemscore.Internal_Hbond>
0.0000

> <Gold.Chemscore.DEClash>
1.4476

> <Gold.Chemscore.DEInternal>
1.8226

> <Gold.Chemscore.Rot>
1.3163

> <Gold.Chemscore.Internal.Correction>
   9.000000E+99

> <Gold.Chemscore.Hbonds>
donor molecule, donor type, donor heavy atom, donor atom, acceptor molecule, acceptor atom, score
      L1  H     3    16       P1  8028  0.95
      L1  H    10    26       P1  8028  0.99

> <Gold.Chemscore.Hbond.Weighted>
-6.5886

> <Gold.Chemscore.Metal.Weighted>
-0.0000

> <Gold.Chemscore.Lipo.Weighted>
-9.3007

> <Gold.Chemscore.Internal_Hbond.Weighted>
0.0000

> <Gold.Chemscore.DEClash.Weighted>
1.4476

> <Gold.Chemscore.DEInternal.Weighted>
1.8226

> <Gold.Chemscore.Rot.Weighted>
3.3698

> <Gold.Chemscore.Internal.Correction.Weighted>
   9.000000E+99

> <Gold.Protein.RotatedTorsions>
[ 6907 6896 6895 6894 ] final   38.01 input  -60.11 | X-H torsion
[ 7974 7965 7964 7962 ] final -147.32 input  175.53 | X-H torsion
[ 8008 7997 7996 7995 ] final   21.83 input   59.86 | X-H torsion
[ 10167 10162 10161 10158 ] final -141.24 input  -65.29 | X-H torsion
[ 10718 10713 10712 10709 ] final   46.81 input   66.30 | X-H torsion
[ 10763 10752 10751 10750 ] final  -57.08 input  -60.55 | X-H torsion
[ 11005 11000 10999 10996 ] final    8.14 input  -57.11 | X-H torsion

> <Gold.Protein.ActiveResidues>
 VAL166  LYS551  ARG553  GLY616  TRP617  ASP618  TYR619  PRO620  LYS621  CYS622 
 ASP623  PHE694  ASN695  SER759  ASP760  ASP761  ALA762  ILE779  LEU786  VAL792 
 PHE793  MET794  SER795  GLU796  ALA797  LYS798  CYS799  TRP800  GLU811  SER814 

> <Gold.Protein.RotatedAtoms>
  152.1508  134.8990  160.0547 H   0  0  0  0  0  0  0  0  0  0  0  0  # atno 6907 bound_to 6896
  152.0022  133.3825  159.4194 H   0  0  0  0  0  0  0  0  0  0  0  0  # atno 6908 bound_to 6896
  150.6875  134.3743  159.5050 H   0  0  0  0  0  0  0  0  0  0  0  0  # atno 6909 bound_to 6896
  144.8101  140.5342  143.5648 H   0  0  0  0  0  0  0  0  0  0  0  0  # atno 7974 bound_to 7965
  154.9565  140.3072  155.5051 H   0  0  0  0  0  0  0  0  0  0  0  0  # atno 8008 bound_to 7997
  156.2982  140.2309  156.4585 H   0  0  0  0  0  0  0  0  0  0  0  0  # atno 8009 bound_to 7997
  154.8006  140.0434  157.1258 H   0  0  0  0  0  0  0  0  0  0  0  0  # atno 8010 bound_to 7997
  139.8203  143.7582  152.2666 H   0  0  0  0  0  0  0  0  0  0  0  0  # atno 10167 bound_to 10162
  157.4520  130.8144  149.7798 H   0  0  0  0  0  0  0  0  0  0  0  0  # atno 10718 bound_to 10713
  154.2168  135.6385  153.5132 H   0  0  0  0  0  0  0  0  0  0  0  0  # atno 10763 bound_to 10752
  152.9977  135.5487  154.6157 H   0  0  0  0  0  0  0  0  0  0  0  0  # atno 10764 bound_to 10752
  154.5607  135.2909  155.0895 H   0  0  0  0  0  0  0  0  0  0  0  0  # atno 10765 bound_to 10752
  140.5403  134.0381  155.7902 H   0  0  0  0  0  0  0  0  0  0  0  0  # atno 11005 bound_to 11000
  145.5344  139.1475  143.3482 LP  0  0  0  0  0  0  0  0  0  0  0  0  # atno 17320 bound_to 7965
  146.2399  140.5484  142.8939 LP  0  0  0  0  0  0  0  0  0  0  0  0  # atno 17321 bound_to 7965
  139.7759  144.7461  151.0158 LP  0  0  0  0  0  0  0  0  0  0  0  0  # atno 17342 bound_to 10162
  140.7813  143.4594  151.0298 LP  0  0  0  0  0  0  0  0  0  0  0  0  # atno 17343 bound_to 10162
  155.9991  130.3890  150.2677 LP  0  0  0  0  0  0  0  0  0  0  0  0  # atno 17370 bound_to 10713
  157.0849  131.0153  151.3143 LP  0  0  0  0  0  0  0  0  0  0  0  0  # atno 17371 bound_to 10713
  141.1231  133.9429  157.2690 LP  0  0  0  0  0  0  0  0  0  0  0  0  # atno 17394 bound_to 11000
  139.9507  135.0176  156.8986 LP  0  0  0  0  0  0  0  0  0  0  0  0  # atno 17395 bound_to 11000

$$$$
