#       Name:                AV-unprocessed.smi:2774
#       Creating user name   scv26
#       Creation time:       Fri Mar 27 15:13:04 2020


#       File generated by GOLD software.
#

@<TRIPOS>MOLECULE
AV-unprocessed.smi:2774
    38    39     1
SMALL
NO_CHARGES


@<TRIPOS>ATOM
      1 ****        -2.4430  -1.5144  -2.4358 O.3            1 S1                 0.0000
      2 ****        -2.0125  -1.0520  -1.1726 C.3            1 S1                 0.0000
      3 ****        -0.4732  -1.0700  -1.1579 C.3            1 S1                 0.0000
      4 ****         0.0558  -0.7301   0.1646 N.3            1 S1                 0.0000
      5 ****         1.5115  -0.8208   0.3103 C.3            1 S1                 0.0000
      6 ****         1.8747  -0.6539   1.7989 C.3            1 S1                 0.0000
      7 ****         3.3741  -0.8437   2.0755 C.3            1 S1                 0.0000
      8 ****         4.2344   0.1923   1.3420 C.3            1 S1                 0.0000
      9 ****         4.0494   0.0348  -0.4532 S.3            1 S1                 0.0000
     10 ****         2.2474   0.2177  -0.5656 C.3            1 S1                 0.0000
     11 ****        -2.5824   0.3220  -0.8497 C.ar           1 S1                 0.0000
     12 ****        -3.2309   0.5607   0.3804 C.ar           1 S1                 0.0000
     13 ****        -3.7384   1.8503   0.6355 C.ar           1 S1                 0.0000
     14 ****        -3.6372   2.8741  -0.2391 N.ar           1 S1                 0.0000
     15 ****        -3.0143   2.6406  -1.4142 C.ar           1 S1                 0.0000
     16 ****        -2.4725   1.3888  -1.7675 C.ar           1 S1                 0.0000
     17 ****        -3.3862  -1.5709  -2.4269 H              1 S1                 0.0000
     18 ****        -2.3821  -1.7665  -0.4357 H              1 S1                 0.0000
     19 ****        -0.1241  -2.0631  -1.4437 H              1 S1                 0.0000
     20 ****        -0.1009  -0.3785  -1.9130 H              1 S1                 0.0000
     21 ****        -0.3900  -1.3129   0.8659 H              1 S1                 0.0000
     22 ****         1.8294  -1.8173   0.0002 H              1 S1                 0.0000
     23 ****         1.5610   0.3304   2.1500 H              1 S1                 0.0000
     24 ****         1.3173  -1.3796   2.3927 H              1 S1                 0.0000
     25 ****         3.5543  -0.7648   3.1478 H              1 S1                 0.0000
     26 ****         3.6801  -1.8499   1.7870 H              1 S1                 0.0000
     27 ****         3.9544   1.2026   1.6423 H              1 S1                 0.0000
     28 ****         5.2857   0.0611   1.5987 H              1 S1                 0.0000
     29 ****         1.9869   0.1099  -1.6175 H              1 S1                 0.0000
     30 ****         1.9735   1.2312  -0.2700 H              1 S1                 0.0000
     31 ****        -3.3362  -0.2228   1.1163 H              1 S1                 0.0000
     32 ****        -4.2389   2.0652   1.5680 H              1 S1                 0.0000
     33 ****        -2.9453   3.4767  -2.0942 H              1 S1                 0.0000
     34 ****        -1.9817   1.2541  -2.7203 H              1 S1                 0.0000
     35 ****        -2.0522  -2.4171  -2.6162 LP             1 S1                 0.0000
     36 ****        -2.1496  -0.8759  -3.1472 LP             1 S1                 0.0000
     37 ****        -0.1591   0.2384   0.2904 LP             1 S1                 0.0000
     38 ****        -4.0114   3.7760  -0.0235 LP             1 S1                 0.0000
@<TRIPOS>BOND
    1    1    2 1     
    2    1   17 1     
    3    2    3 1     
    4    2   11 1     
    5    2   18 1     
    6    3    4 1     
    7    3   19 1     
    8    3   20 1     
    9    4    5 1     
   10    4   21 1     
   11    5   10 1     
   12    5    6 1     
   13    5   22 1     
   14    6    7 1     
   15    6   23 1     
   16    6   24 1     
   17    7    8 1     
   18    7   25 1     
   19    7   26 1     
   20    8    9 1     
   21    8   27 1     
   22    8   28 1     
   23    9   10 1     
   24   10   29 1     
   25   10   30 1     
   26   11   16 ar    
   27   11   12 ar    
   28   12   13 ar    
   29   12   31 1     
   30   13   14 ar    
   31   13   32 1     
   32   14   15 ar    
   33   15   16 ar    
   34   15   33 1     
   35   16   34 1     
   36    1   35 1     
   37    1   36 1     
   38    4   37 1     
   39   14   38 1     
@<TRIPOS>SUBSTRUCTURE
      1 S1             1
@<TRIPOS>SET
LONE_PAIRS      STATIC     ATOMS    <user>   **** ""
4 35 36 37 38
DONOR_HYDROGENS      STATIC     ATOMS    <user>   **** ""
2 17 21
ATOM$BLUE        STATIC     ATOMS    COLORGROUP SYSTEM
4 35 36 37 38
ATOM$RED        STATIC     ATOMS    COLORGROUP SYSTEM
2 17 21
