AV-unprocessed.smi:3330|AV-procd|sdf|12811|dock10
  -GOLD-   2272019183D 1   1.00000     0.00000
 Structure written by MMmdl.
 38 39  0  0  0  0  0  0  0  0  3 V2000
  151.0601  142.0319  156.8282 C   0  0  0  0  0  0  0  0  0  0  0  0
  150.3562  142.5124  158.1107 C   0  0  2  0  0  0  0  0  0  0  0  0
  149.0116  143.0176  157.7528 N   0  3  0  0  0  0  0  0  0  0  0  0
  148.1175  142.0213  157.1305 C   0  0  0  0  0  0  0  0  0  0  0  0
  146.9345  141.6975  158.0535 C   0  0  0  0  0  0  0  0  0  0  0  0
  146.1939  142.9114  158.4062 N   0  0  0  0  0  0  0  0  0  0  0  0
  145.4252  143.5997  157.5571 C   0  0  0  0  0  0  0  0  0  0  0  0
  145.2116  143.3603  156.3686 O   0  0  0  0  0  0  0  0  0  0  0  0
  144.8253  144.7562  158.3222 C   0  0  0  0  0  0  0  0  0  0  0  0
  145.3663  144.5616  159.6487 N   0  5  0  0  0  0  0  0  0  0  0  0
  146.1560  143.4630  159.6338 C   0  0  0  0  0  0  0  0  0  0  0  0
  146.7716  142.9841  160.5858 O   0  0  0  0  0  0  0  0  0  0  0  0
  151.1625  143.5984  158.8751 C   0  0  1  0  0  0  0  0  0  0  0  0
  150.2654  144.6132  159.6095 C   0  0  0  0  0  0  0  0  0  0  0  0
  152.1196  143.0157  159.8074 N   0  0  0  0  0  0  0  0  0  0  0  0
  153.1802  142.1778  159.5295 C   0  0  0  0  0  0  0  0  0  0  0  0
  153.7952  141.8902  160.7141 C   0  0  0  0  0  0  0  0  0  0  0  0
  153.0323  142.6102  161.6749 C   0  0  0  0  0  0  0  0  0  0  0  0
  152.0317  143.2832  161.1302 N   0  0  0  0  0  0  0  0  0  0  0  0
  152.0094  141.5420  157.0450 H   0  0  0  0  0  0  0  0  0  0  0  0
  151.2608  142.8623  156.1506 H   0  0  0  0  0  0  0  0  0  0  0  0
  150.4449  141.3077  156.2933 H   0  0  0  0  0  0  0  0  0  0  0  0
  150.2459  141.6394  158.7568 H   0  0  0  0  0  0  0  0  0  0  0  0
  148.5702  143.3753  158.5876 H   0  0  0  0  0  0  0  0  0  0  0  0
  147.7550  142.4126  156.1788 H   0  0  0  0  0  0  0  0  0  0  0  0
  148.6791  141.1128  156.9107 H   0  0  0  0  0  0  0  0  0  0  0  0
  146.2648  140.9843  157.5695 H   0  0  0  0  0  0  0  0  0  0  0  0
  147.2917  141.2013  158.9576 H   0  0  0  0  0  0  0  0  0  0  0  0
  145.1282  145.6998  157.8671 H   0  0  0  0  0  0  0  0  0  0  0  0
  143.7367  144.6996  158.2885 H   0  0  0  0  0  0  0  0  0  0  0  0
  151.7476  144.1549  158.1413 H   0  0  0  0  0  0  0  0  0  0  0  0
  149.6577  145.1888  158.9114 H   0  0  0  0  0  0  0  0  0  0  0  0
  150.8645  145.3275  160.1752 H   0  0  0  0  0  0  0  0  0  0  0  0
  149.5905  144.1189  160.3091 H   0  0  0  0  0  0  0  0  0  0  0  0
  153.4065  141.8577  158.5229 H   0  0  0  0  0  0  0  0  0  0  0  0
  154.6600  141.2623  160.8703 H   0  0  0  0  0  0  0  0  0  0  0  0
  153.1748  142.6638  162.7442 H   0  0  0  0  0  0  0  0  0  0  0  0
  149.1239  143.7785  157.0982 H   0  0  0  0  0  0  0  0  0  0  0  0
  1  2  1  0  0  0  0
  1 20  1  0  0  0  0
  1 21  1  0  0  0  0
  1 22  1  0  0  0  0
  2  3  1  0  0  0  0
  2 13  1  0  0  0  0
  2 23  1  0  0  0  0
  3  4  1  0  0  0  0
  3 24  1  0  0  0  0
  3 38  1  0  0  0  0
  4  5  1  0  0  0  0
  4 25  1  0  0  0  0
  4 26  1  0  0  0  0
  5  6  1  0  0  0  0
  5 27  1  0  0  0  0
  5 28  1  0  0  0  0
  6 11  1  0  0  0  0
  6  7  1  0  0  0  0
  7  8  2  0  0  0  0
  7  9  1  0  0  0  0
  9 10  1  0  0  0  0
  9 29  1  0  0  0  0
  9 30  1  0  0  0  0
 10 11  1  0  0  0  0
 11 12  2  0  0  0  0
 13 14  1  0  0  0  0
 13 15  1  0  0  0  0
 13 31  1  0  0  0  0
 14 32  1  0  0  0  0
 14 33  1  0  0  0  0
 14 34  1  0  0  0  0
 15 19  1  0  0  0  0
 15 16  1  0  0  0  0
 16 17  2  0  0  0  0
 16 35  1  0  0  0  0
 17 18  1  0  0  0  0
 17 36  1  0  0  0  0
 18 19  2  0  0  0  0
 18 37  1  0  0  0  0
M  CHG  1   3   1
M  CHG  1  10  -1
M  END
> <s_m_source_file>
AV-unprocessed.smi

> <i_m_source_file_index>
3330

> <i_lp_mmshare_version>
43012

> <i_f3d_flags>
0

> <s_epik_input>
bjFbY0hdW2NIXVtjSF1uMVtDQEBIXShbQ0gzXSlbQ0BIXShbQ0gzXSlbTkhdW0NIMl1bQ0gyXU4yQyg9TylbQ0gyXVtOSF1DMj1P

> <s_epik_cmdline>
J2VwaWtfcHl0aG9uJywgJy1waCcsICc3LjAnLCAnLXRuJywgJzgnLCAnLW1hJywgJzIwMCcsICctbWV0YWxfYmluZGluZycsICctaW1hZScsICc8aW5maWxlLm1hZT4nLCAnLW9tYWUnLCAnPG91dGZpbGUubWFlPic=

> <r_lp_tautomer_probability>
1

> <r_epik_Ionization_Penalty>
5.18149

> <r_epik_Ionization_Penalty_Charging>
5.18148

> <r_epik_Ionization_Penalty_Neutral>
9.83265e-06

> <r_epik_State_Penalty>
5.18201

> <r_epik_Charging_Adjusted_Penalty>
10.3635

> <i_epik_Tot_Q>
0

> <i_epik_Tot_abs_Q>
2

> <r_epik_Metal_State_Penalty>
1.25422

> <b_epik_Metal_Only>
1

> <s_lp_Force_Field>
OPLS_2005

> <r_lp_Energy>
16.3237

> <b_lp_Chiralities_Consistent>
1

> <s_lp_Variant>
AV-unprocessed.smi:3330-11

> <Gold.Version>
5.8.1

> <Gold.Id.Protein>
6NUR|6NUR_protein|mol2

> <Gold.PLP.Fitness>
43.7543

> <Gold.PLP.PLP>
-34.7048

> <Gold.PLP.part.hbond>
-3.5139

> <Gold.PLP.part.metal>
0.0000

> <Gold.PLP.part.buried>
-4.9597

> <Gold.PLP.part.nonpolar>
-26.2146

> <Gold.PLP.part.repulsive>
0.4055

> <Gold.PLP.ligand.clash>
0.0000

> <Gold.PLP.ligand.torsion>
1.3008

> <Gold.PLP.Chemscore.Hbond>
3.8479

> <Gold.PLP.Chemscore.CHOScore>
0.0000

> <Gold.PLP.Chemscore.Metal>
0.0000

> <Gold.Chemscore.Hbonds>
donor molecule, donor type, donor heavy atom, donor atom, acceptor molecule, acceptor atom, score
      L1  H     3    38       P1  8028  2.00
      P1  H  6933  6944       L1    12  0.98
      P1  H  6934  6946       L1    12  0.70

> <Gold.PLP.Chemscore.Internal.Correction>
0.1075

> <Gold.Rescore>
     Score         DG    S(hbond)    S(metal)    S(lipo)     H(rot)  DE(clash)    DE(int)     intcor
     14.29     -15.41       2.49        0.00      70.46       2.59       0.01       1.11       ----

> <Gold.Chemscore.Fitness>
14.2857

> <Gold.Chemscore.DG>
-15.4071

> <Gold.Chemscore.ZeroCoef>
-5.4800

> <Gold.Chemscore.Hbond>
2.4895

> <Gold.Chemscore.Metal>
0.0000

> <Gold.Chemscore.Lipo>
70.4555

> <Gold.Chemscore.Internal_Hbond>
0.0000

> <Gold.Chemscore.DEClash>
0.0126

> <Gold.Chemscore.DEInternal>
1.1087

> <Gold.Chemscore.Rot>
2.5903

> <Gold.Chemscore.Internal.Correction>
   9.000000E+99

> <Gold.Chemscore.Hbonds>
donor molecule, donor type, donor heavy atom, donor atom, acceptor molecule, acceptor atom, score
      L1  H     3    38       P1  8028  0.45
      P1  H  6933  6944       L1    12  0.88
      P1  H  6934  6946       L1    12  0.65

> <Gold.Chemscore.Hbond.Weighted>
-8.3148

> <Gold.Chemscore.Metal.Weighted>
-0.0000

> <Gold.Chemscore.Lipo.Weighted>
-8.2433

> <Gold.Chemscore.Internal_Hbond.Weighted>
0.0000

> <Gold.Chemscore.DEClash.Weighted>
0.0126

> <Gold.Chemscore.DEInternal.Weighted>
1.1087

> <Gold.Chemscore.Rot.Weighted>
6.6311

> <Gold.Chemscore.Internal.Correction.Weighted>
   9.000000E+99

> <Gold.Protein.RotatedTorsions>
[ 6907 6896 6895 6894 ] final   42.07 input  -60.11 | X-H torsion
[ 7974 7965 7964 7962 ] final -166.15 input  175.53 | X-H torsion
[ 8008 7997 7996 7995 ] final -146.98 input   59.86 | X-H torsion
[ 10167 10162 10161 10158 ] final   65.32 input  -65.29 | X-H torsion
[ 10718 10713 10712 10709 ] final  -54.22 input   66.30 | X-H torsion
[ 10763 10752 10751 10750 ] final   -5.55 input  -60.55 | X-H torsion
[ 11005 11000 10999 10996 ] final -165.87 input  -57.11 | X-H torsion

> <Gold.Protein.ActiveResidues>
 VAL166  LYS551  ARG553  GLY616  TRP617  ASP618  TYR619  PRO620  LYS621  CYS622 
 ASP623  PHE694  ASN695  SER759  ASP760  ASP761  ALA762  ILE779  LEU786  VAL792 
 PHE793  MET794  SER795  GLU796  ALA797  LYS798  CYS799  TRP800  GLU811  SER814 

> <Gold.Protein.RotatedAtoms>
  152.2033  134.8568  160.0505 H   0  0  0  0  0  0  0  0  0  0  0  0  # atno 6907 bound_to 6896
  151.9414  133.3634  159.3974 H   0  0  0  0  0  0  0  0  0  0  0  0  # atno 6908 bound_to 6896
  150.6959  134.4360  159.5314 H   0  0  0  0  0  0  0  0  0  0  0  0  # atno 6909 bound_to 6896
  144.7252  140.2708  143.6251 H   0  0  0  0  0  0  0  0  0  0  0  0  # atno 7974 bound_to 7965
  155.5682  140.0632  157.2813 H   0  0  0  0  0  0  0  0  0  0  0  0  # atno 8008 bound_to 7997
  154.4369  140.1873  156.0897 H   0  0  0  0  0  0  0  0  0  0  0  0  # atno 8009 bound_to 7997
  156.0396  140.3297  155.7233 H   0  0  0  0  0  0  0  0  0  0  0  0  # atno 8010 bound_to 7997
  140.1126  144.4805  150.6969 H   0  0  0  0  0  0  0  0  0  0  0  0  # atno 10167 bound_to 10162
  156.1469  130.4152  150.0009 H   0  0  0  0  0  0  0  0  0  0  0  0  # atno 10718 bound_to 10713
  153.4001  135.7004  153.6432 H   0  0  0  0  0  0  0  0  0  0  0  0  # atno 10763 bound_to 10752
  153.4969  135.3660  155.2520 H   0  0  0  0  0  0  0  0  0  0  0  0  # atno 10764 bound_to 10752
  154.8710  135.4102  154.3334 H   0  0  0  0  0  0  0  0  0  0  0  0  # atno 10765 bound_to 10752
  140.5709  134.5239  157.5161 H   0  0  0  0  0  0  0  0  0  0  0  0  # atno 11005 bound_to 11000
  145.8044  139.1977  143.2029 LP  0  0  0  0  0  0  0  0  0  0  0  0  # atno 17320 bound_to 7965
  146.0649  140.7931  142.9717 LP  0  0  0  0  0  0  0  0  0  0  0  0  # atno 17321 bound_to 7965
  140.6917  143.2380  151.5112 LP  0  0  0  0  0  0  0  0  0  0  0  0  # atno 17342 bound_to 10162
  139.5611  144.2154  152.1693 LP  0  0  0  0  0  0  0  0  0  0  0  0  # atno 17343 bound_to 10162
  156.7878  130.9245  151.3646 LP  0  0  0  0  0  0  0  0  0  0  0  0  # atno 17370 bound_to 10713
  157.6624  130.8978  149.9859 LP  0  0  0  0  0  0  0  0  0  0  0  0  # atno 17371 bound_to 10713
  139.9362  134.7870  156.0796 LP  0  0  0  0  0  0  0  0  0  0  0  0  # atno 17394 bound_to 11000
  141.1057  133.6661  156.2857 LP  0  0  0  0  0  0  0  0  0  0  0  0  # atno 17395 bound_to 11000

$$$$
