AV-unprocessed.smi:1396|AV-procd|sdf|5674|dock2
  -GOLD-   22720 5293D 1   1.00000     0.00000
 Structure written by MMmdl.
 46 47  0  0  0  0  0  0  0  0  1 V2000
  148.9853  130.3862  154.0528 C   0  0  0  0  0  0  0  0  0  0  0  0
  148.4027  131.2068  153.0024 N   0  0  0  0  0  0  0  0  0  0  0  0
  147.4782  132.1554  153.2109 C   0  0  0  0  0  0  0  0  0  0  0  0
  147.0343  132.4347  154.3243 O   0  0  0  0  0  0  0  0  0  0  0  0
  146.9788  132.9108  151.9734 C   0  0  0  0  0  0  0  0  0  0  0  0
  145.9851  133.9736  152.2530 N   0  0  0  0  0  0  0  0  0  0  0  0
  145.6857  134.6929  151.0102 C   0  0  0  0  0  0  0  0  0  0  0  0
  144.5605  135.7180  151.2344 C   0  0  0  0  0  0  0  0  0  0  0  0
  144.9407  136.7242  152.3290 C   0  0  0  0  0  0  0  0  0  0  0  0
  143.8155  137.6135  152.6004 N   0  0  0  0  0  0  0  0  0  0  0  0
  142.6165  137.2223  153.0541 C   0  0  0  0  0  0  0  0  0  0  0  0
  142.3391  136.0523  153.3170 O   0  0  0  0  0  0  0  0  0  0  0  0
  141.7849  138.2686  153.1949 N   0  0  0  0  0  0  0  0  0  0  0  0
  140.4140  138.2636  153.5693 C   0  0  0  0  0  0  0  0  0  0  0  0
  139.8634  137.0580  154.0481 C   0  0  0  0  0  0  0  0  0  0  0  0
  138.5150  137.0306  154.4510 C   0  0  0  0  0  0  0  0  0  0  0  0
  137.7583  138.2163  154.3704 C   0  0  0  0  0  0  0  0  0  0  0  0
  136.4376  138.1856  154.7695 O   0  0  0  0  0  0  0  0  0  0  0  0
  135.8211  136.9178  154.9673 C   0  0  0  0  0  0  0  0  0  0  0  0
  138.2813  139.3842  153.9222 N   0  0  0  0  0  0  0  0  0  0  0  0
  139.5746  139.4039  153.5357 C   0  0  0  0  0  0  0  0  0  0  0  0
  145.3496  135.9516  153.5942 C   0  0  0  0  0  0  0  0  0  0  0  0
  146.4430  134.9143  153.2863 C   0  0  0  0  0  0  0  0  0  0  0  0
  149.7246  129.7073  153.6280 H   0  0  0  0  0  0  0  0  0  0  0  0
  148.2184  129.7890  154.5478 H   0  0  0  0  0  0  0  0  0  0  0  0
  149.4817  131.0058  154.8008 H   0  0  0  0  0  0  0  0  0  0  0  0
  148.7117  131.0392  152.0556 H   0  0  0  0  0  0  0  0  0  0  0  0
  147.8360  133.3380  151.4496 H   0  0  0  0  0  0  0  0  0  0  0  0
  146.5416  132.1726  151.2994 H   0  0  0  0  0  0  0  0  0  0  0  0
  146.5806  135.1910  150.6330 H   0  0  0  0  0  0  0  0  0  0  0  0
  145.3694  133.9870  150.2411 H   0  0  0  0  0  0  0  0  0  0  0  0
  144.3491  136.2430  150.3021 H   0  0  0  0  0  0  0  0  0  0  0  0
  143.6436  135.1940  151.5097 H   0  0  0  0  0  0  0  0  0  0  0  0
  145.7896  137.3137  151.9774 H   0  0  0  0  0  0  0  0  0  0  0  0
  143.9587  138.5956  152.4163 H   0  0  0  0  0  0  0  0  0  0  0  0
  142.1869  139.1809  153.0366 H   0  0  0  0  0  0  0  0  0  0  0  0
  140.4643  136.1621  154.1061 H   0  0  0  0  0  0  0  0  0  0  0  0
  138.0700  136.1175  154.8178 H   0  0  0  0  0  0  0  0  0  0  0  0
  134.7850  137.0641  155.2727 H   0  0  0  0  0  0  0  0  0  0  0  0
  136.3208  136.3493  155.7531 H   0  0  0  0  0  0  0  0  0  0  0  0
  135.8146  136.3294  154.0485 H   0  0  0  0  0  0  0  0  0  0  0  0
  139.9326  140.3703  153.2175 H   0  0  0  0  0  0  0  0  0  0  0  0
  145.7082  136.6420  154.3585 H   0  0  0  0  0  0  0  0  0  0  0  0
  144.4812  135.4456  154.0193 H   0  0  0  0  0  0  0  0  0  0  0  0
  146.6805  134.3928  154.2133 H   0  0  0  0  0  0  0  0  0  0  0  0
  147.3580  135.4134  152.9623 H   0  0  0  0  0  0  0  0  0  0  0  0
  1  2  1  0  0  0  0
  1 24  1  0  0  0  0
  1 25  1  0  0  0  0
  1 26  1  0  0  0  0
  2  3  1  0  0  0  0
  2 27  1  0  0  0  0
  3  4  2  0  0  0  0
  3  5  1  0  0  0  0
  5  6  1  0  0  0  0
  5 28  1  0  0  0  0
  5 29  1  0  0  0  0
  6 23  1  0  0  0  0
  6  7  1  0  0  0  0
  7  8  1  0  0  0  0
  7 30  1  0  0  0  0
  7 31  1  0  0  0  0
  8  9  1  0  0  0  0
  8 32  1  0  0  0  0
  8 33  1  0  0  0  0
  9 10  1  0  0  0  0
  9 22  1  0  0  0  0
  9 34  1  0  0  0  0
 10 11  1  0  0  0  0
 10 35  1  0  0  0  0
 11 12  2  0  0  0  0
 11 13  1  0  0  0  0
 13 14  1  0  0  0  0
 13 36  1  0  0  0  0
 14 21  1  0  0  0  0
 14 15  2  0  0  0  0
 15 16  1  0  0  0  0
 15 37  1  0  0  0  0
 16 17  2  0  0  0  0
 16 38  1  0  0  0  0
 17 18  1  0  0  0  0
 17 20  1  0  0  0  0
 18 19  1  0  0  0  0
 19 39  1  0  0  0  0
 19 40  1  0  0  0  0
 19 41  1  0  0  0  0
 20 21  2  0  0  0  0
 21 42  1  0  0  0  0
 22 23  1  0  0  0  0
 22 43  1  0  0  0  0
 22 44  1  0  0  0  0
 23 45  1  0  0  0  0
 23 46  1  0  0  0  0
M  END
> <s_m_source_file>
AV-unprocessed.smi

> <i_m_source_file_index>
1396

> <i_lp_mmshare_version>
43012

> <i_f3d_flags>
0

> <s_epik_input>
W0NIM11bTkhdQyg9TylbQ0gyXU4xW0NIMl1bQ0gyXVtDSF0oW0NIMl1bQ0gyXTEpW05IXUMoPU8pW05IXWMyW2NIXVtjSF1jKE9bQ0gzXSluW2NIXTI=

> <s_epik_cmdline>
J2VwaWtfcHl0aG9uJywgJy1waCcsICc3LjAnLCAnLXRuJywgJzgnLCAnLW1hJywgJzIwMCcsICctbWV0YWxfYmluZGluZycsICctaW1hZScsICc8aW5maWxlLm1hZT4nLCAnLW9tYWUnLCAnPG91dGZpbGUubWFlPic=

> <r_lp_tautomer_probability>
1

> <r_epik_Ionization_Penalty>
0.16483

> <r_epik_Ionization_Penalty_Charging>
0

> <r_epik_Ionization_Penalty_Neutral>
0.16483

> <r_epik_State_Penalty>
0.154069

> <r_epik_Charging_Adjusted_Penalty>
0.154069

> <i_epik_Tot_Q>
0

> <i_epik_Tot_abs_Q>
0

> <r_epik_Metal_State_Penalty>
0.158584

> <b_epik_Metal_Only>
0

> <s_lp_Force_Field>
OPLS_2005

> <r_lp_Energy>
15.765

> <b_lp_Chiralities_Consistent>
1

> <s_lp_Variant>
AV-unprocessed.smi:1396-1

> <Gold.Version>
5.8.1

> <Gold.Id.Protein>
6NUR|6NUR_protein|mol2

> <Gold.PLP.Fitness>
46.5048

> <Gold.PLP.PLP>
-35.8026

> <Gold.PLP.part.hbond>
-4.0000

> <Gold.PLP.part.metal>
0.0000

> <Gold.PLP.part.buried>
-4.3034

> <Gold.PLP.part.nonpolar>
-28.5260

> <Gold.PLP.part.repulsive>
0.4486

> <Gold.PLP.ligand.clash>
0.1722

> <Gold.PLP.ligand.torsion>
0.1977

> <Gold.PLP.Chemscore.Hbond>
3.0000

> <Gold.PLP.Chemscore.CHOScore>
0.7389

> <Gold.PLP.Chemscore.Metal>
0.0000

> <Gold.Chemscore.Hbonds>
donor molecule, donor type, donor heavy atom, donor atom, acceptor molecule, acceptor atom, score
      L1  H     2    27       P1 10747  1.00
      L1  H    10    35       P1 10175  1.00
      L1  H    13    36       P1 10175  1.00
      L1  C    21    42       P1 10160  0.70

> <Gold.PLP.Chemscore.Internal.Correction>
0.0532

> <Gold.Rescore>
     Score         DG    S(hbond)    S(metal)    S(lipo)     H(rot)  DE(clash)    DE(int)     intcor
     14.81     -17.56       2.93        0.00      62.43       1.96       0.05       2.70       ----

> <Gold.Chemscore.Fitness>
14.8053

> <Gold.Chemscore.DG>
-17.5559

> <Gold.Chemscore.ZeroCoef>
-5.4800

> <Gold.Chemscore.Hbond>
2.9342

> <Gold.Chemscore.Metal>
0.0000

> <Gold.Chemscore.Lipo>
62.4321

> <Gold.Chemscore.Internal_Hbond>
0.0000

> <Gold.Chemscore.DEClash>
0.0536

> <Gold.Chemscore.DEInternal>
2.6970

> <Gold.Chemscore.Rot>
1.9645

> <Gold.Chemscore.Internal.Correction>
   9.000000E+99

> <Gold.Chemscore.Hbonds>
donor molecule, donor type, donor heavy atom, donor atom, acceptor molecule, acceptor atom, score
      L1  H     2    27       P1 10747  0.88
      L1  H    10    35       P1 10175  0.99
      L1  H    13    36       P1 10175  0.95

> <Gold.Chemscore.Hbond.Weighted>
-9.8004

> <Gold.Chemscore.Metal.Weighted>
-0.0000

> <Gold.Chemscore.Lipo.Weighted>
-7.3046

> <Gold.Chemscore.Internal_Hbond.Weighted>
0.0000

> <Gold.Chemscore.DEClash.Weighted>
0.0536

> <Gold.Chemscore.DEInternal.Weighted>
2.6970

> <Gold.Chemscore.Rot.Weighted>
5.0290

> <Gold.Chemscore.Internal.Correction.Weighted>
   9.000000E+99

> <Gold.Protein.RotatedTorsions>
[ 6907 6896 6895 6894 ] final  -55.23 input  -60.11 | X-H torsion
[ 7974 7965 7964 7962 ] final  -34.32 input  175.53 | X-H torsion
[ 8008 7997 7996 7995 ] final -109.67 input   59.86 | X-H torsion
[ 10167 10162 10161 10158 ] final -130.50 input  -65.29 | X-H torsion
[ 10718 10713 10712 10709 ] final  -27.41 input   66.30 | X-H torsion
[ 10763 10752 10751 10750 ] final   28.20 input  -60.55 | X-H torsion
[ 11005 11000 10999 10996 ] final  -79.88 input  -57.11 | X-H torsion

> <Gold.Protein.ActiveResidues>
 VAL166  LYS551  ARG553  GLY616  TRP617  ASP618  TYR619  PRO620  LYS621  CYS622 
 ASP623  PHE694  ASN695  SER759  ASP760  ASP761  ALA762  ILE779  LEU786  VAL792 
 PHE793  MET794  SER795  GLU796  ALA797  LYS798  CYS799  TRP800  GLU811  SER814 

> <Gold.Protein.RotatedAtoms>
  150.8270  134.7505  159.6820 H   0  0  0  0  0  0  0  0  0  0  0  0  # atno 6907 bound_to 6896
  152.4379  134.5646  159.9913 H   0  0  0  0  0  0  0  0  0  0  0  0  # atno 6908 bound_to 6896
  151.5816  133.3339  159.3045 H   0  0  0  0  0  0  0  0  0  0  0  0  # atno 6909 bound_to 6896
  146.0838  140.6025  142.8896 H   0  0  0  0  0  0  0  0  0  0  0  0  # atno 7974 bound_to 7965
  154.9628  140.0399  157.2198 H   0  0  0  0  0  0  0  0  0  0  0  0  # atno 8008 bound_to 7997
  154.7873  140.2829  155.5996 H   0  0  0  0  0  0  0  0  0  0  0  0  # atno 8009 bound_to 7997
  156.2945  140.2580  156.2712 H   0  0  0  0  0  0  0  0  0  0  0  0  # atno 8010 bound_to 7997
  139.9287  143.6297  152.2535 H   0  0  0  0  0  0  0  0  0  0  0  0  # atno 10167 bound_to 10162
  156.4385  130.4459  149.7069 H   0  0  0  0  0  0  0  0  0  0  0  0  # atno 10718 bound_to 10713
  153.0507  135.6519  154.0702 H   0  0  0  0  0  0  0  0  0  0  0  0  # atno 10763 bound_to 10752
  154.0390  135.2905  155.3359 H   0  0  0  0  0  0  0  0  0  0  0  0  # atno 10764 bound_to 10752
  154.6793  135.5326  153.8308 H   0  0  0  0  0  0  0  0  0  0  0  0  # atno 10765 bound_to 10752
  141.1668  133.7125  156.8188 H   0  0  0  0  0  0  0  0  0  0  0  0  # atno 11005 bound_to 11000
  144.7312  140.4676  143.6937 LP  0  0  0  0  0  0  0  0  0  0  0  0  # atno 17320 bound_to 7965
  145.6167  139.1519  143.3045 LP  0  0  0  0  0  0  0  0  0  0  0  0  # atno 17321 bound_to 7965
  139.6800  144.7656  151.1625 LP  0  0  0  0  0  0  0  0  0  0  0  0  # atno 17342 bound_to 10162
  140.7643  143.5738  150.8967 LP  0  0  0  0  0  0  0  0  0  0  0  0  # atno 17343 bound_to 10162
  156.3943  130.7643  151.2646 LP  0  0  0  0  0  0  0  0  0  0  0  0  # atno 17370 bound_to 10713
  157.7507  131.0258  150.3937 LP  0  0  0  0  0  0  0  0  0  0  0  0  # atno 17371 bound_to 10713
  140.2134  134.8811  157.3299 LP  0  0  0  0  0  0  0  0  0  0  0  0  # atno 17394 bound_to 11000
  140.2063  134.4193  155.7636 LP  0  0  0  0  0  0  0  0  0  0  0  0  # atno 17395 bound_to 11000

$$$$
