AV-unprocessed.smi:1019|AV-procd|sdf|4443|dock1
  -GOLD-   22720 2403D 1   1.00000     0.00000
 Structure written by MMmdl.
 44 46  0  0  0  0  0  0  0  0  2 V2000
  147.4442  135.4342  154.6652 C   0  0  0  0  0  0  0  0  0  0  0  0
  146.8275  136.3859  153.7112 N   0  3  1  0  0  0  0  0  0  0  0  0
  145.4448  135.9998  153.3282 C   0  0  0  0  0  0  0  0  0  0  0  0
  145.4349  134.9398  152.2413 C   0  0  0  0  0  0  0  0  0  0  0  0
  144.5831  135.0845  151.1258 C   0  0  0  0  0  0  0  0  0  0  0  0
  144.5731  134.1068  150.1120 C   0  0  0  0  0  0  0  0  0  0  0  0
  145.4127  132.9805  150.2106 C   0  0  0  0  0  0  0  0  0  0  0  0
  146.2618  132.8311  151.3243 C   0  0  0  0  0  0  0  0  0  0  0  0
  146.2726  133.8081  152.3387 C   0  0  0  0  0  0  0  0  0  0  0  0
  146.9304  137.7919  154.1789 C   0  0  0  0  0  0  0  0  0  0  0  0
  146.7164  138.8022  153.0346 C   0  0  2  0  0  0  0  0  0  0  0  0
  147.5096  138.4108  151.9298 O   0  0  0  0  0  0  0  0  0  0  0  0
  147.0939  140.2353  153.4562 C   0  0  0  0  0  0  0  0  0  0  0  0
  148.3417  140.2853  154.1974 N   0  0  0  0  0  0  0  0  0  0  0  0
  149.5101  139.7097  153.8541 C   0  0  0  0  0  0  0  0  0  0  0  0
  150.5376  139.8742  154.6817 N   0  0  0  0  0  0  0  0  0  0  0  0
  149.9718  140.6501  155.6787 C   0  0  0  0  0  0  0  0  0  0  0  0
  150.5360  141.1747  156.8635 C   0  0  0  0  0  0  0  0  0  0  0  0
  149.7543  141.9506  157.7445 C   0  0  0  0  0  0  0  0  0  0  0  0
  148.3995  142.2133  157.4557 C   0  0  0  0  0  0  0  0  0  0  0  0
  147.8145  141.7009  156.2817 C   0  0  0  0  0  0  0  0  0  0  0  0
  148.5981  140.9270  155.4050 C   0  0  0  0  0  0  0  0  0  0  0  0
  146.9048  135.4262  155.6131 H   0  0  0  0  0  0  0  0  0  0  0  0
  148.4817  135.7047  154.8642 H   0  0  0  0  0  0  0  0  0  0  0  0
  147.4498  134.4202  154.2657 H   0  0  0  0  0  0  0  0  0  0  0  0
  144.8961  135.6527  154.2053 H   0  0  0  0  0  0  0  0  0  0  0  0
  144.8953  136.8611  152.9492 H   0  0  0  0  0  0  0  0  0  0  0  0
  143.9372  135.9468  151.0436 H   0  0  0  0  0  0  0  0  0  0  0  0
  143.9213  134.2204  149.2581 H   0  0  0  0  0  0  0  0  0  0  0  0
  145.4051  132.2312  149.4327 H   0  0  0  0  0  0  0  0  0  0  0  0
  146.9051  131.9667  151.3999 H   0  0  0  0  0  0  0  0  0  0  0  0
  146.9282  133.6867  153.1887 H   0  0  0  0  0  0  0  0  0  0  0  0
  146.2093  137.9571  154.9812 H   0  0  0  0  0  0  0  0  0  0  0  0
  147.9141  137.9711  154.6166 H   0  0  0  0  0  0  0  0  0  0  0  0
  145.6742  138.7982  152.7153 H   0  0  0  0  0  0  0  0  0  0  0  0
  148.0533  137.6817  152.1880 H   0  0  0  0  0  0  0  0  0  0  0  0
  147.1962  140.8718  152.5762 H   0  0  0  0  0  0  0  0  0  0  0  0
  146.3051  140.6761  154.0672 H   0  0  0  0  0  0  0  0  0  0  0  0
  149.6108  139.1333  152.9458 H   0  0  0  0  0  0  0  0  0  0  0  0
  151.5727  140.9798  157.0953 H   0  0  0  0  0  0  0  0  0  0  0  0
  150.1967  142.3467  158.6467 H   0  0  0  0  0  0  0  0  0  0  0  0
  147.8096  142.8095  158.1366 H   0  0  0  0  0  0  0  0  0  0  0  0
  146.7772  141.9011  156.0599 H   0  0  0  0  0  0  0  0  0  0  0  0
  147.3841  136.3394  152.8691 H   0  0  0  0  0  0  0  0  0  0  0  0
  1  2  1  0  0  0  0
  1 23  1  0  0  0  0
  1 24  1  0  0  0  0
  1 25  1  0  0  0  0
  2  3  1  0  0  0  0
  2 10  1  0  0  0  0
  2 44  1  0  0  0  0
  3  4  1  0  0  0  0
  3 26  1  0  0  0  0
  3 27  1  0  0  0  0
  4  9  1  0  0  0  0
  4  5  2  0  0  0  0
  5  6  1  0  0  0  0
  5 28  1  0  0  0  0
  6  7  2  0  0  0  0
  6 29  1  0  0  0  0
  7  8  1  0  0  0  0
  7 30  1  0  0  0  0
  8  9  2  0  0  0  0
  8 31  1  0  0  0  0
  9 32  1  0  0  0  0
 10 11  1  0  0  0  0
 10 33  1  0  0  0  0
 10 34  1  0  0  0  0
 11 12  1  0  0  0  0
 11 13  1  0  0  0  0
 11 35  1  0  0  0  0
 12 36  1  0  0  0  0
 13 14  1  0  0  0  0
 13 37  1  0  0  0  0
 13 38  1  0  0  0  0
 14 22  1  0  0  0  0
 14 15  1  0  0  0  0
 15 16  2  0  0  0  0
 15 39  1  0  0  0  0
 16 17  1  0  0  0  0
 17 22  2  0  0  0  0
 17 18  1  0  0  0  0
 18 19  2  0  0  0  0
 18 40  1  0  0  0  0
 19 20  1  0  0  0  0
 19 41  1  0  0  0  0
 20 21  2  0  0  0  0
 20 42  1  0  0  0  0
 21 22  1  0  0  0  0
 21 43  1  0  0  0  0
M  CHG  1   2   1
M  END
> <s_m_source_file>
AV-unprocessed.smi

> <i_m_source_file_index>
1019

> <i_lp_mmshare_version>
43012

> <i_f3d_flags>
0

> <s_epik_input>
W2NIXTFbY0hdW2NIXVtjSF1bY0hdYzFbQ0gyXU4oW0NIM10pW0NIMl1bQ0BIXShbT0hdKVtDSDJdbihbY0hdbjIpYyhjMjMpW2NIXVtjSF1bY0hdW2NIXTM=

> <s_epik_cmdline>
J2VwaWtfcHl0aG9uJywgJy1waCcsICc3LjAnLCAnLXRuJywgJzgnLCAnLW1hJywgJzIwMCcsICctbWV0YWxfYmluZGluZycsICctaW1hZScsICc8aW5maWxlLm1hZT4nLCAnLW9tYWUnLCAnPG91dGZpbGUubWFlPic=

> <r_epik_Ionization_Penalty>
0.0996557

> <r_epik_Ionization_Penalty_Charging>
0.0475377

> <r_epik_Ionization_Penalty_Neutral>
0.0521179

> <r_epik_State_Penalty>
0.0851777

> <r_epik_Charging_Adjusted_Penalty>
0.132715

> <i_epik_Tot_Q>
1

> <i_epik_Tot_abs_Q>
1

> <r_epik_Metal_State_Penalty>
0.0423478

> <b_epik_Metal_Only>
0

> <s_lp_Force_Field>
OPLS_2005

> <r_lp_Energy>
15.2714

> <b_lp_Chiralities_Consistent>
1

> <s_lp_Variant>
AV-unprocessed.smi:1019-1

> <Gold.Version>
5.8.1

> <Gold.Id.Protein>
6NUR|6NUR_protein|mol2

> <Gold.PLP.Fitness>
47.3451

> <Gold.PLP.PLP>
-34.1940

> <Gold.PLP.part.hbond>
-4.6933

> <Gold.PLP.part.metal>
0.0000

> <Gold.PLP.part.buried>
0.1131

> <Gold.PLP.part.nonpolar>
-29.7258

> <Gold.PLP.part.repulsive>
0.0831

> <Gold.PLP.ligand.clash>
0.0000

> <Gold.PLP.ligand.torsion>
0.8610

> <Gold.PLP.Chemscore.Hbond>
4.1084

> <Gold.PLP.Chemscore.CHOScore>
0.6650

> <Gold.PLP.Chemscore.Metal>
0.0000

> <Gold.Chemscore.Hbonds>
donor molecule, donor type, donor heavy atom, donor atom, acceptor molecule, acceptor atom, score
      L1  H     2    44       P1  7948  2.00
      L1  H    12    36       P1  7948  1.00
      P1  H  7954  7966       L1    12  0.12
      P1  H  7989  7998       L1    16  0.85
      L1  C    15    39       P1  7957  0.75

> <Gold.PLP.Chemscore.Internal.Correction>
0.5529

> <Gold.Rescore>
     Score         DG    S(hbond)    S(metal)    S(lipo)     H(rot)  DE(clash)    DE(int)     intcor
     15.22     -18.57       2.74        0.00      85.38       2.36       1.85       1.51       ----

> <Gold.Chemscore.Fitness>
15.2193

> <Gold.Chemscore.DG>
-18.5720

> <Gold.Chemscore.ZeroCoef>
-5.4800

> <Gold.Chemscore.Hbond>
2.7389

> <Gold.Chemscore.Metal>
0.0000

> <Gold.Chemscore.Lipo>
85.3837

> <Gold.Chemscore.Internal_Hbond>
0.0000

> <Gold.Chemscore.DEClash>
1.8465

> <Gold.Chemscore.DEInternal>
1.5061

> <Gold.Chemscore.Rot>
2.3616

> <Gold.Chemscore.Internal.Correction>
   9.000000E+99

> <Gold.Chemscore.Hbonds>
donor molecule, donor type, donor heavy atom, donor atom, acceptor molecule, acceptor atom, score
      L1  H     2    44       P1  7948  0.99
      L1  H    12    36       P1  7948  0.96
      P1  H  7989  7998       L1    16  0.12

> <Gold.Chemscore.Hbond.Weighted>
-9.1478

> <Gold.Chemscore.Metal.Weighted>
-0.0000

> <Gold.Chemscore.Lipo.Weighted>
-9.9899

> <Gold.Chemscore.Internal_Hbond.Weighted>
0.0000

> <Gold.Chemscore.DEClash.Weighted>
1.8465

> <Gold.Chemscore.DEInternal.Weighted>
1.5061

> <Gold.Chemscore.Rot.Weighted>
6.0457

> <Gold.Chemscore.Internal.Correction.Weighted>
   9.000000E+99

> <Gold.Protein.RotatedTorsions>
[ 6907 6896 6895 6894 ] final  -37.24 input  -60.11 | X-H torsion
[ 7974 7965 7964 7962 ] final  132.38 input  175.53 | X-H torsion
[ 8008 7997 7996 7995 ] final  114.40 input   59.86 | X-H torsion
[ 10167 10162 10161 10158 ] final   46.91 input  -65.29 | X-H torsion
[ 10718 10713 10712 10709 ] final  -90.72 input   66.30 | X-H torsion
[ 10763 10752 10751 10750 ] final  127.88 input  -60.55 | X-H torsion
[ 11005 11000 10999 10996 ] final   26.63 input  -57.11 | X-H torsion

> <Gold.Protein.ActiveResidues>
 VAL166  LYS551  ARG553  GLY616  TRP617  ASP618  TYR619  PRO620  LYS621  CYS622 
 ASP623  PHE694  ASN695  SER759  ASP760  ASP761  ALA762  ILE779  LEU786  VAL792 
 PHE793  MET794  SER795  GLU796  ALA797  LYS798  CYS799  TRP800  GLU811  SER814 

> <Gold.Protein.RotatedAtoms>
  151.0172  134.9442  159.8039 H   0  0  0  0  0  0  0  0  0  0  0  0  # atno 6907 bound_to 6896
  152.5317  134.2951  159.9067 H   0  0  0  0  0  0  0  0  0  0  0  0  # atno 6908 bound_to 6896
  151.2957  133.4103  159.2670 H   0  0  0  0  0  0  0  0  0  0  0  0  # atno 6909 bound_to 6896
  144.9975  139.4345  143.5309 H   0  0  0  0  0  0  0  0  0  0  0  0  # atno 7974 bound_to 7965
  156.2319  140.2960  156.0210 H   0  0  0  0  0  0  0  0  0  0  0  0  # atno 8008 bound_to 7997
  155.2201  140.0415  157.2964 H   0  0  0  0  0  0  0  0  0  0  0  0  # atno 8009 bound_to 7997
  154.6010  140.2427  155.7800 H   0  0  0  0  0  0  0  0  0  0  0  0  # atno 8010 bound_to 7997
  140.3091  144.2842  150.6203 H   0  0  0  0  0  0  0  0  0  0  0  0  # atno 10167 bound_to 10162
  155.9989  130.4920  150.5365 H   0  0  0  0  0  0  0  0  0  0  0  0  # atno 10718 bound_to 10713
  153.7165  135.3260  155.3257 H   0  0  0  0  0  0  0  0  0  0  0  0  # atno 10763 bound_to 10752
  154.8369  135.4489  154.1261 H   0  0  0  0  0  0  0  0  0  0  0  0  # atno 10764 bound_to 10752
  153.2369  135.6966  153.7906 H   0  0  0  0  0  0  0  0  0  0  0  0  # atno 10765 bound_to 10752
  140.3350  134.2396  155.7697 H   0  0  0  0  0  0  0  0  0  0  0  0  # atno 11005 bound_to 11000
  146.3445  139.9343  142.8749 LP  0  0  0  0  0  0  0  0  0  0  0  0  # atno 17320 bound_to 7965
  145.2200  140.9931  143.4051 LP  0  0  0  0  0  0  0  0  0  0  0  0  # atno 17321 bound_to 7965
  140.5584  143.2195  151.7808 LP  0  0  0  0  0  0  0  0  0  0  0  0  # atno 17342 bound_to 10162
  139.4898  144.4382  151.9794 LP  0  0  0  0  0  0  0  0  0  0  0  0  # atno 17343 bound_to 10162
  157.3307  131.0699  151.1863 LP  0  0  0  0  0  0  0  0  0  0  0  0  # atno 17370 bound_to 10713
  157.2744  130.6720  149.6035 LP  0  0  0  0  0  0  0  0  0  0  0  0  # atno 17371 bound_to 10713
  141.2053  133.7862  157.0237 LP  0  0  0  0  0  0  0  0  0  0  0  0  # atno 17394 bound_to 11000
  140.0829  134.9638  157.1653 LP  0  0  0  0  0  0  0  0  0  0  0  0  # atno 17395 bound_to 11000

$$$$
