AV-unprocessed.smi:904|AV-procd|sdf|4098|dock5
  -GOLD-   22720 1593D 1   1.00000     0.00000
 Structure written by MMmdl.
 42 43  0  0  0  0  0  0  0  0  1 V2000
  153.4486  141.3634  161.2481 C   0  0  0  0  0  0  0  0  0  0  0  0
  152.8901  142.4034  160.3188 C   0  0  0  0  0  0  0  0  0  0  0  0
  152.7535  143.6465  160.7494 N   0  0  0  0  0  0  0  0  0  0  0  0
  152.2481  144.3220  159.6979 N   0  0  0  0  0  0  0  0  0  0  0  0
  151.9724  145.7394  159.8301 C   0  0  0  0  0  0  0  0  0  0  0  0
  152.0710  143.5050  158.5982 C   0  0  0  0  0  0  0  0  0  0  0  0
  151.5329  144.0183  157.3015 C   0  0  0  0  0  0  0  0  0  0  0  0
  152.4727  142.2478  158.9634 C   0  0  0  0  0  0  0  0  0  0  0  0
  152.4828  140.9881  158.1343 C   0  0  0  0  0  0  0  0  0  0  0  0
  151.0545  140.6288  157.7267 C   0  0  0  0  0  0  0  0  0  0  0  0
  150.3244  140.0208  158.5094 O   0  0  0  0  0  0  0  0  0  0  0  0
  150.6706  141.0146  156.4999 N   0  0  0  0  0  0  0  0  0  0  0  0
  149.3490  140.8037  155.9197 C   0  0  2  0  0  0  0  0  0  0  0  0
  149.3861  141.0127  154.3926 C   0  0  0  0  0  0  0  0  0  0  0  0
  147.9874  140.8644  153.7685 C   0  0  0  0  0  0  0  0  0  0  0  0
  146.9487  141.7871  154.4337 C   0  0  2  0  0  0  0  0  0  0  0  0
  147.2115  143.1350  154.0966 O   0  0  0  0  0  0  0  0  0  0  0  0
  146.9383  141.6181  155.9648 C   0  0  0  0  0  0  0  0  0  0  0  0
  148.3423  141.7648  156.5771 C   0  0  0  0  0  0  0  0  0  0  0  0
  154.5156  141.2220  161.0755 H   0  0  0  0  0  0  0  0  0  0  0  0
  152.9578  140.4011  161.1036 H   0  0  0  0  0  0  0  0  0  0  0  0
  153.3154  141.6448  162.2932 H   0  0  0  0  0  0  0  0  0  0  0  0
  150.9743  145.9579  159.4498 H   0  0  0  0  0  0  0  0  0  0  0  0
  152.7051  146.3088  159.2580 H   0  0  0  0  0  0  0  0  0  0  0  0
  152.0226  146.0454  160.8761 H   0  0  0  0  0  0  0  0  0  0  0  0
  151.6709  143.2913  156.5013 H   0  0  0  0  0  0  0  0  0  0  0  0
  152.0405  144.9361  157.0046 H   0  0  0  0  0  0  0  0  0  0  0  0
  150.4670  144.2307  157.3833 H   0  0  0  0  0  0  0  0  0  0  0  0
  153.0940  141.1024  157.2384 H   0  0  0  0  0  0  0  0  0  0  0  0
  152.9166  140.1524  158.6846 H   0  0  0  0  0  0  0  0  0  0  0  0
  151.3419  141.5090  155.9305 H   0  0  0  0  0  0  0  0  0  0  0  0
  149.0276  139.7816  156.1294 H   0  0  0  0  0  0  0  0  0  0  0  0
  149.7837  142.0028  154.1648 H   0  0  0  0  0  0  0  0  0  0  0  0
  150.0661  140.2960  153.9312 H   0  0  0  0  0  0  0  0  0  0  0  0
  148.0329  141.0559  152.6959 H   0  0  0  0  0  0  0  0  0  0  0  0
  147.6622  139.8289  153.8775 H   0  0  0  0  0  0  0  0  0  0  0  0
  145.9587  141.5499  154.0429 H   0  0  0  0  0  0  0  0  0  0  0  0
  147.8937  143.4594  154.6649 H   0  0  0  0  0  0  0  0  0  0  0  0
  146.2537  142.3344  156.4201 H   0  0  0  0  0  0  0  0  0  0  0  0
  146.5490  140.6293  156.2098 H   0  0  0  0  0  0  0  0  0  0  0  0
  148.2938  141.5772  157.6504 H   0  0  0  0  0  0  0  0  0  0  0  0
  148.6839  142.7945  156.4615 H   0  0  0  0  0  0  0  0  0  0  0  0
  1  2  1  0  0  0  0
  1 20  1  0  0  0  0
  1 21  1  0  0  0  0
  1 22  1  0  0  0  0
  2  8  1  0  0  0  0
  2  3  2  0  0  0  0
  3  4  1  0  0  0  0
  4  5  1  0  0  0  0
  4  6  1  0  0  0  0
  5 23  1  0  0  0  0
  5 24  1  0  0  0  0
  5 25  1  0  0  0  0
  6  7  1  0  0  0  0
  6  8  2  0  0  0  0
  7 26  1  0  0  0  0
  7 27  1  0  0  0  0
  7 28  1  0  0  0  0
  8  9  1  0  0  0  0
  9 10  1  0  0  0  0
  9 29  1  0  0  0  0
  9 30  1  0  0  0  0
 10 11  2  0  0  0  0
 10 12  1  0  0  0  0
 12 13  1  0  0  0  0
 12 31  1  0  0  0  0
 13 19  1  0  0  0  0
 13 14  1  0  0  0  0
 13 32  1  0  0  0  0
 14 15  1  0  0  0  0
 14 33  1  0  0  0  0
 14 34  1  0  0  0  0
 15 16  1  0  0  0  0
 15 35  1  0  0  0  0
 15 36  1  0  0  0  0
 16 17  1  0  0  0  0
 16 18  1  0  0  0  0
 16 37  1  0  0  0  0
 17 38  1  0  0  0  0
 18 19  1  0  0  0  0
 18 39  1  0  0  0  0
 18 40  1  0  0  0  0
 19 41  1  0  0  0  0
 19 42  1  0  0  0  0
M  END
> <s_m_source_file>
AV-unprocessed.smi

> <i_m_source_file_index>
904

> <i_lp_mmshare_version>
43012

> <i_f3d_flags>
0

> <s_epik_input>
W0NIM11jMW5uKFtDSDNdKWMoW0NIM10pYzFbQ0gyXUMoPU8pW05IXVtDQEBIXTJbQ0gyXVtDSDJdW0NAQEhdKFtPSF0pW0NIMl1bQ0gyXTI=

> <s_epik_cmdline>
J2VwaWtfcHl0aG9uJywgJy1waCcsICc3LjAnLCAnLXRuJywgJzgnLCAnLW1hJywgJzIwMCcsICctbWV0YWxfYmluZGluZycsICctaW1hZScsICc8aW5maWxlLm1hZT4nLCAnLW9tYWUnLCAnPG91dGZpbGUubWFlPic=

> <r_lp_tautomer_probability>
1

> <r_epik_Ionization_Penalty>
0.00340889

> <r_epik_Ionization_Penalty_Charging>
0

> <r_epik_Ionization_Penalty_Neutral>
0.00340889

> <r_epik_State_Penalty>
0.00241397

> <r_epik_Charging_Adjusted_Penalty>
0.00241397

> <i_epik_Tot_Q>
0

> <i_epik_Tot_abs_Q>
0

> <r_epik_Metal_State_Penalty>
-0

> <b_epik_Metal_Only>
0

> <s_lp_Force_Field>
OPLS_2005

> <r_lp_Energy>
4.71478

> <b_lp_Chiralities_Consistent>
1

> <s_lp_Variant>
AV-unprocessed.smi:904-2

> <Gold.Version>
5.8.1

> <Gold.Id.Protein>
6NUR|6NUR_protein|mol2

> <Gold.PLP.Fitness>
43.4132

> <Gold.PLP.PLP>
-41.4193

> <Gold.PLP.part.hbond>
-2.0000

> <Gold.PLP.part.metal>
0.0000

> <Gold.PLP.part.buried>
-0.7679

> <Gold.PLP.part.nonpolar>
-37.6614

> <Gold.PLP.part.repulsive>
0.1332

> <Gold.PLP.ligand.clash>
0.0000

> <Gold.PLP.ligand.torsion>
0.5048

> <Gold.PLP.Chemscore.Hbond>
1.0000

> <Gold.PLP.Chemscore.CHOScore>
0.0000

> <Gold.PLP.Chemscore.Metal>
0.0000

> <Gold.Chemscore.Hbonds>
donor molecule, donor type, donor heavy atom, donor atom, acceptor molecule, acceptor atom, score
      L1  H    17    38       P1  8028  1.00

> <Gold.PLP.Chemscore.Internal.Correction>
0.0035

> <Gold.Rescore>
     Score         DG    S(hbond)    S(metal)    S(lipo)     H(rot)  DE(clash)    DE(int)     intcor
     15.58     -16.35       0.83        0.00     109.53       1.84       0.19       0.58       ----

> <Gold.Chemscore.Fitness>
15.5759

> <Gold.Chemscore.DG>
-16.3478

> <Gold.Chemscore.ZeroCoef>
-5.4800

> <Gold.Chemscore.Hbond>
0.8276

> <Gold.Chemscore.Metal>
0.0000

> <Gold.Chemscore.Lipo>
109.5330

> <Gold.Chemscore.Internal_Hbond>
0.0000

> <Gold.Chemscore.DEClash>
0.1874

> <Gold.Chemscore.DEInternal>
0.5845

> <Gold.Chemscore.Rot>
1.8406

> <Gold.Chemscore.Internal.Correction>
   9.000000E+99

> <Gold.Chemscore.Hbonds>
donor molecule, donor type, donor heavy atom, donor atom, acceptor molecule, acceptor atom, score
      L1  H    17    38       P1  8028  0.69

> <Gold.Chemscore.Hbond.Weighted>
-2.7643

> <Gold.Chemscore.Metal.Weighted>
-0.0000

> <Gold.Chemscore.Lipo.Weighted>
-12.8154

> <Gold.Chemscore.Internal_Hbond.Weighted>
0.0000

> <Gold.Chemscore.DEClash.Weighted>
0.1874

> <Gold.Chemscore.DEInternal.Weighted>
0.5845

> <Gold.Chemscore.Rot.Weighted>
4.7118

> <Gold.Chemscore.Internal.Correction.Weighted>
   9.000000E+99

> <Gold.Protein.RotatedTorsions>
[ 6907 6896 6895 6894 ] final   70.60 input  -60.11 | X-H torsion
[ 7974 7965 7964 7962 ] final  -38.71 input  175.53 | X-H torsion
[ 8008 7997 7996 7995 ] final  -43.64 input   59.86 | X-H torsion
[ 10167 10162 10161 10158 ] final  129.42 input  -65.29 | X-H torsion
[ 10718 10713 10712 10709 ] final  -34.02 input   66.30 | X-H torsion
[ 10763 10752 10751 10750 ] final  138.51 input  -60.55 | X-H torsion
[ 11005 11000 10999 10996 ] final -119.35 input  -57.11 | X-H torsion

> <Gold.Protein.ActiveResidues>
 VAL166  LYS551  ARG553  GLY616  TRP617  ASP618  TYR619  PRO620  LYS621  CYS622 
 ASP623  PHE694  ASN695  SER759  ASP760  ASP761  ALA762  ILE779  LEU786  VAL792 
 PHE793  MET794  SER795  GLU796  ALA797  LYS798  CYS799  TRP800  GLU811  SER814 

> <Gold.Protein.RotatedAtoms>
  152.4759  134.4844  159.9675 H   0  0  0  0  0  0  0  0  0  0  0  0  # atno 6907 bound_to 6896
  151.4860  133.3529  159.2853 H   0  0  0  0  0  0  0  0  0  0  0  0  # atno 6908 bound_to 6896
  150.8798  134.8214  159.7278 H   0  0  0  0  0  0  0  0  0  0  0  0  # atno 6909 bound_to 6896
  146.0462  140.6543  142.9063 H   0  0  0  0  0  0  0  0  0  0  0  0  # atno 7974 bound_to 7965
  154.3997  140.1442  156.3552 H   0  0  0  0  0  0  0  0  0  0  0  0  # atno 8008 bound_to 7997
  155.8232  140.3468  155.5506 H   0  0  0  0  0  0  0  0  0  0  0  0  # atno 8009 bound_to 7997
  155.8266  140.0906  157.1808 H   0  0  0  0  0  0  0  0  0  0  0  0  # atno 8010 bound_to 7997
  139.5479  144.6789  151.4416 H   0  0  0  0  0  0  0  0  0  0  0  0  # atno 10167 bound_to 10162
  156.3556  130.4315  149.7667 H   0  0  0  0  0  0  0  0  0  0  0  0  # atno 10718 bound_to 10713
  153.8909  135.3033  155.3447 H   0  0  0  0  0  0  0  0  0  0  0  0  # atno 10763 bound_to 10752
  154.7717  135.4882  153.9665 H   0  0  0  0  0  0  0  0  0  0  0  0  # atno 10764 bound_to 10752
  153.1298  135.6801  153.9295 H   0  0  0  0  0  0  0  0  0  0  0  0  # atno 10765 bound_to 10752
  141.0221  134.0108  157.3267 H   0  0  0  0  0  0  0  0  0  0  0  0  # atno 11005 bound_to 11000
  144.7099  140.3998  143.7089 LP  0  0  0  0  0  0  0  0  0  0  0  0  # atno 17320 bound_to 7965
  145.6801  139.1617  143.2705 LP  0  0  0  0  0  0  0  0  0  0  0  0  # atno 17321 bound_to 7965
  140.6733  143.8246  150.7026 LP  0  0  0  0  0  0  0  0  0  0  0  0  # atno 17342 bound_to 10162
  140.1677  143.4221  152.2023 LP  0  0  0  0  0  0  0  0  0  0  0  0  # atno 17343 bound_to 10162
  156.4851  130.8059  151.3071 LP  0  0  0  0  0  0  0  0  0  0  0  0  # atno 17370 bound_to 10713
  157.7467  130.9993  150.2885 LP  0  0  0  0  0  0  0  0  0  0  0  0  # atno 17371 bound_to 10713
  139.9153  135.0196  156.7855 LP  0  0  0  0  0  0  0  0  0  0  0  0  # atno 17394 bound_to 11000
  140.6554  133.9693  155.7777 LP  0  0  0  0  0  0  0  0  0  0  0  0  # atno 17395 bound_to 11000

$$$$
