AV-unprocessed.smi:2090|AV-procd|sdf|8532|dock2
  -GOLD-   2272011253D 1   1.00000     0.00000
 Structure written by MMmdl.
 42 43  0  0  0  0  0  0  0  0  2 V2000
  153.7964  137.7904  157.0336 C   0  0  0  0  0  0  0  0  0  0  0  0
  152.7592  138.2430  156.0642 C   0  0  0  0  0  0  0  0  0  0  0  0
  151.8076  137.5790  155.3424 C   0  0  0  0  0  0  0  0  0  0  0  0
  151.1611  138.6235  154.6297 C   0  0  0  0  0  0  0  0  0  0  0  0
  150.0807  138.3470  153.7537 N   0  0  0  0  0  0  0  0  0  0  0  0
  148.9238  139.0220  153.6454 C   0  0  0  0  0  0  0  0  0  0  0  0
  148.6284  140.0332  154.2832 O   0  0  0  0  0  0  0  0  0  0  0  0
  148.1057  138.4529  152.7480 N   0  0  0  0  0  0  0  0  0  0  0  0
  146.7702  138.9374  152.4178 C   0  0  0  0  0  0  0  0  0  0  0  0
  145.6870  137.9121  152.8062 C   0  0  0  0  0  0  0  0  0  0  0  0
  146.0237  136.5350  152.3660 N   0  3  2  0  0  0  0  0  0  0  0  0
  145.0901  136.0382  151.3221 C   0  0  0  0  0  0  0  0  0  0  0  0
  145.5368  134.6701  150.7805 C   0  0  0  0  0  0  0  0  0  0  0  0
  145.6661  133.6381  151.9128 C   0  0  1  0  0  0  0  0  0  0  0  0
  146.1354  132.2737  151.3891 C   0  0  0  0  0  0  0  0  0  0  0  0
  146.6105  134.1908  152.9931 C   0  0  0  0  0  0  0  0  0  0  0  0
  146.1448  135.5695  153.4909 C   0  0  0  0  0  0  0  0  0  0  0  0
  151.6743  139.8164  154.8890 N   0  0  0  0  0  0  0  0  0  0  0  0
  152.7019  139.5785  155.8094 O   0  0  0  0  0  0  0  0  0  0  0  0
  153.6378  136.7496  157.3159 H   0  0  0  0  0  0  0  0  0  0  0  0
  153.7682  138.3942  157.9409 H   0  0  0  0  0  0  0  0  0  0  0  0
  154.7928  137.8758  156.6003 H   0  0  0  0  0  0  0  0  0  0  0  0
  151.6068  136.5179  155.3321 H   0  0  0  0  0  0  0  0  0  0  0  0
  150.1938  137.5378  153.1616 H   0  0  0  0  0  0  0  0  0  0  0  0
  148.4266  137.6271  152.2636 H   0  0  0  0  0  0  0  0  0  0  0  0
  146.5887  139.8926  152.9136 H   0  0  0  0  0  0  0  0  0  0  0  0
  146.7545  139.1348  151.3468 H   0  0  0  0  0  0  0  0  0  0  0  0
  145.5082  137.9249  153.8827 H   0  0  0  0  0  0  0  0  0  0  0  0
  144.7483  138.2099  152.3366 H   0  0  0  0  0  0  0  0  0  0  0  0
  144.0824  135.9703  151.7354 H   0  0  0  0  0  0  0  0  0  0  0  0
  145.0465  136.7491  150.4960 H   0  0  0  0  0  0  0  0  0  0  0  0
  144.8217  134.3202  150.0351 H   0  0  0  0  0  0  0  0  0  0  0  0
  146.4921  134.7771  150.2644 H   0  0  0  0  0  0  0  0  0  0  0  0
  144.6809  133.4997  152.3607 H   0  0  0  0  0  0  0  0  0  0  0  0
  147.1223  132.3410  150.9298 H   0  0  0  0  0  0  0  0  0  0  0  0
  145.4461  131.8826  150.6402 H   0  0  0  0  0  0  0  0  0  0  0  0
  146.1930  131.5430  152.1965 H   0  0  0  0  0  0  0  0  0  0  0  0
  146.6638  133.4970  153.8328 H   0  0  0  0  0  0  0  0  0  0  0  0
  147.6231  134.2711  152.5950 H   0  0  0  0  0  0  0  0  0  0  0  0
  146.8575  135.9331  154.2299 H   0  0  0  0  0  0  0  0  0  0  0  0
  145.1833  135.4789  153.9988 H   0  0  0  0  0  0  0  0  0  0  0  0
  146.9308  136.5914  151.9248 H   0  0  0  0  0  0  0  0  0  0  0  0
  1  2  1  0  0  0  0
  1 20  1  0  0  0  0
  1 21  1  0  0  0  0
  1 22  1  0  0  0  0
  2 19  1  0  0  0  0
  2  3  2  0  0  0  0
  3  4  1  0  0  0  0
  3 23  1  0  0  0  0
  4  5  1  0  0  0  0
  4 18  2  0  0  0  0
  5  6  1  0  0  0  0
  5 24  1  0  0  0  0
  6  7  2  0  0  0  0
  6  8  1  0  0  0  0
  8  9  1  0  0  0  0
  8 25  1  0  0  0  0
  9 10  1  0  0  0  0
  9 26  1  0  0  0  0
  9 27  1  0  0  0  0
 10 11  1  0  0  0  0
 10 28  1  0  0  0  0
 10 29  1  0  0  0  0
 11 17  1  0  0  0  0
 11 12  1  0  0  0  0
 11 42  1  0  0  0  0
 12 13  1  0  0  0  0
 12 30  1  0  0  0  0
 12 31  1  0  0  0  0
 13 14  1  0  0  0  0
 13 32  1  0  0  0  0
 13 33  1  0  0  0  0
 14 15  1  0  0  0  0
 14 16  1  0  0  0  0
 14 34  1  0  0  0  0
 15 35  1  0  0  0  0
 15 36  1  0  0  0  0
 15 37  1  0  0  0  0
 16 17  1  0  0  0  0
 16 38  1  0  0  0  0
 16 39  1  0  0  0  0
 17 40  1  0  0  0  0
 17 41  1  0  0  0  0
 18 19  1  0  0  0  0
M  CHG  1  11   1
M  END
> <s_m_source_file>
AV-unprocessed.smi

> <i_m_source_file_index>
2090

> <i_lp_mmshare_version>
43012

> <i_f3d_flags>
0

> <s_epik_input>
W0NIM11jMVtjSF1jKG5vMSlbTkhdQyg9TylbTkhdW0NIMl1bQ0gyXU4yW0NIMl1bQ0gyXVtDSF0oW0NIM10pW0NIMl1bQ0gyXTI=

> <s_epik_cmdline>
J2VwaWtfcHl0aG9uJywgJy1waCcsICc3LjAnLCAnLXRuJywgJzgnLCAnLW1hJywgJzIwMCcsICctbWV0YWxfYmluZGluZycsICctaW1hZScsICc8aW5maWxlLm1hZT4nLCAnLW9tYWUnLCAnPG91dGZpbGUubWFlPic=

> <r_epik_Ionization_Penalty>
0.00176265

> <r_epik_Ionization_Penalty_Charging>
0.00172695

> <r_epik_Ionization_Penalty_Neutral>
3.56992e-05

> <r_epik_State_Penalty>
0.00116803

> <r_epik_Charging_Adjusted_Penalty>
0.00289498

> <i_epik_Tot_Q>
1

> <i_epik_Tot_abs_Q>
1

> <r_epik_Metal_State_Penalty>
0.0215312

> <b_epik_Metal_Only>
0

> <s_lp_Force_Field>
OPLS_2005

> <r_lp_Energy>
12.7246

> <b_lp_Chiralities_Consistent>
1

> <s_lp_Variant>
AV-unprocessed.smi:2090-1

> <Gold.Version>
5.8.1

> <Gold.Id.Protein>
6NUR|6NUR_protein|mol2

> <Gold.PLP.Fitness>
45.0876

> <Gold.PLP.PLP>
-31.2155

> <Gold.PLP.part.hbond>
-6.3656

> <Gold.PLP.part.metal>
0.0000

> <Gold.PLP.part.buried>
-2.1528

> <Gold.PLP.part.nonpolar>
-23.8095

> <Gold.PLP.part.repulsive>
0.2999

> <Gold.PLP.ligand.clash>
0.0000

> <Gold.PLP.ligand.torsion>
1.1512

> <Gold.PLP.Chemscore.Hbond>
5.3774

> <Gold.PLP.Chemscore.CHOScore>
0.0000

> <Gold.PLP.Chemscore.Metal>
0.0000

> <Gold.Chemscore.Hbonds>
donor molecule, donor type, donor heavy atom, donor atom, acceptor molecule, acceptor atom, score
      L1  H     5    24       P1  7948  0.44
      L1  H     8    25       P1  7948  0.98
      L1  H    11    42       P1  7948  1.98
      P1  H  7989  7998       L1    18  1.00
      P1  H  7997  8010       L1    19  1.00

> <Gold.PLP.Chemscore.Internal.Correction>
0.0424

> <Gold.Rescore>
     Score         DG    S(hbond)    S(metal)    S(lipo)     H(rot)  DE(clash)    DE(int)     intcor
     19.21     -20.70       3.75        0.00      57.45       1.57       0.26       1.24       ----

> <Gold.Chemscore.Fitness>
19.2072

> <Gold.Chemscore.DG>
-20.7047

> <Gold.Chemscore.ZeroCoef>
-5.4800

> <Gold.Chemscore.Hbond>
3.7490

> <Gold.Chemscore.Metal>
0.0000

> <Gold.Chemscore.Lipo>
57.4504

> <Gold.Chemscore.Internal_Hbond>
0.0000

> <Gold.Chemscore.DEClash>
0.2561

> <Gold.Chemscore.DEInternal>
1.2415

> <Gold.Chemscore.Rot>
1.5697

> <Gold.Chemscore.Internal.Correction>
   9.000000E+99

> <Gold.Chemscore.Hbonds>
donor molecule, donor type, donor heavy atom, donor atom, acceptor molecule, acceptor atom, score
      L1  H     5    24       P1  7948  0.08
      L1  H     8    25       P1  7948  0.91
      L1  H    11    42       P1  7948  0.90
      P1  H  7989  7998       L1    18  0.83
      P1  H  7997  8010       L1    19  0.45

> <Gold.Chemscore.Hbond.Weighted>
-12.5215

> <Gold.Chemscore.Metal.Weighted>
-0.0000

> <Gold.Chemscore.Lipo.Weighted>
-6.7217

> <Gold.Chemscore.Internal_Hbond.Weighted>
0.0000

> <Gold.Chemscore.DEClash.Weighted>
0.2561

> <Gold.Chemscore.DEInternal.Weighted>
1.2415

> <Gold.Chemscore.Rot.Weighted>
4.0185

> <Gold.Chemscore.Internal.Correction.Weighted>
   9.000000E+99

> <Gold.Protein.RotatedTorsions>
[ 6907 6896 6895 6894 ] final -122.65 input  -60.11 | X-H torsion
[ 7974 7965 7964 7962 ] final   94.11 input  175.53 | X-H torsion
[ 8008 7997 7996 7995 ] final   90.89 input   59.86 | X-H torsion
[ 10167 10162 10161 10158 ] final  -61.59 input  -65.29 | X-H torsion
[ 10718 10713 10712 10709 ] final   -6.04 input   66.30 | X-H torsion
[ 10763 10752 10751 10750 ] final  -75.88 input  -60.55 | X-H torsion
[ 11005 11000 10999 10996 ] final   37.39 input  -57.11 | X-H torsion

> <Gold.Protein.ActiveResidues>
 VAL166  LYS551  ARG553  GLY616  TRP617  ASP618  TYR619  PRO620  LYS621  CYS622 
 ASP623  PHE694  ASN695  SER759  ASP760  ASP761  ALA762  ILE779  LEU786  VAL792 
 PHE793  MET794  SER795  GLU796  ALA797  LYS798  CYS799  TRP800  GLU811  SER814 

> <Gold.Protein.RotatedAtoms>
  150.8596  133.7664  159.2996 H   0  0  0  0  0  0  0  0  0  0  0  0  # atno 6907 bound_to 6896
  151.5310  135.1066  159.9912 H   0  0  0  0  0  0  0  0  0  0  0  0  # atno 6908 bound_to 6896
  152.4616  133.7790  159.6896 H   0  0  0  0  0  0  0  0  0  0  0  0  # atno 6909 bound_to 6896
  145.4700  139.2282  143.2940 H   0  0  0  0  0  0  0  0  0  0  0  0  # atno 7974 bound_to 7965
  156.0174  140.3344  155.7003 H   0  0  0  0  0  0  0  0  0  0  0  0  # atno 8008 bound_to 7997
  155.6072  140.0661  157.2734 H   0  0  0  0  0  0  0  0  0  0  0  0  # atno 8009 bound_to 7997
  154.4303  140.1800  156.1222 H   0  0  0  0  0  0  0  0  0  0  0  0  # atno 8010 bound_to 7997
  140.5996  143.2358  151.5959 H   0  0  0  0  0  0  0  0  0  0  0  0  # atno 10167 bound_to 10162
  156.7378  130.5200  149.5831 H   0  0  0  0  0  0  0  0  0  0  0  0  # atno 10718 bound_to 10713
  154.4924  135.5816  153.6469 H   0  0  0  0  0  0  0  0  0  0  0  0  # atno 10763 bound_to 10752
  152.9864  135.6116  154.3108 H   0  0  0  0  0  0  0  0  0  0  0  0  # atno 10764 bound_to 10752
  154.3008  135.2847  155.2591 H   0  0  0  0  0  0  0  0  0  0  0  0  # atno 10765 bound_to 10752
  140.2231  134.3617  155.7996 H   0  0  0  0  0  0  0  0  0  0  0  0  # atno 11005 bound_to 11000
  146.2402  140.5477  142.8937 LP  0  0  0  0  0  0  0  0  0  0  0  0  # atno 17320 bound_to 7965
  144.7951  140.6107  143.6515 LP  0  0  0  0  0  0  0  0  0  0  0  0  # atno 17321 bound_to 7965
  139.5282  144.2996  152.1084 LP  0  0  0  0  0  0  0  0  0  0  0  0  # atno 17342 bound_to 10162
  140.2175  144.4500  150.6357 LP  0  0  0  0  0  0  0  0  0  0  0  0  # atno 17343 bound_to 10162
  156.1485  130.6294  151.0564 LP  0  0  0  0  0  0  0  0  0  0  0  0  # atno 17370 bound_to 10713
  157.6832  131.0832  150.7315 LP  0  0  0  0  0  0  0  0  0  0  0  0  # atno 17371 bound_to 10713
  141.2222  133.7204  156.8608 LP  0  0  0  0  0  0  0  0  0  0  0  0  # atno 17394 bound_to 11000
  140.1829  134.9020  157.2970 LP  0  0  0  0  0  0  0  0  0  0  0  0  # atno 17395 bound_to 11000

$$$$
