AV-unprocessed.smi:1047|AV-procd|sdf|4564|dock3
  -GOLD-   22720 3 13D 1   1.00000     0.00000
 Structure written by MMmdl.
 57 59  0  0  0  0  0  0  0  0  3 V2000
  146.3503  133.5838  151.0207 C   0  0  0  0  0  0  0  0  0  0  0  0
  145.0041  134.3194  150.9542 C   0  0  0  0  0  0  0  0  0  0  0  0
  144.9392  135.4838  151.8731 N   0  3  1  0  0  0  0  0  0  0  0  0
  145.0823  135.0844  153.2936 C   0  0  0  0  0  0  0  0  0  0  0  0
  144.9515  136.3074  154.2166 C   0  0  0  0  0  0  0  0  0  0  0  0
  145.9209  137.2855  153.8588 O   0  0  0  0  0  0  0  0  0  0  0  0
  145.7548  137.7436  152.5212 C   0  0  1  0  0  0  0  0  0  0  0  0
  146.7471  138.8893  152.2579 C   0  0  0  0  0  0  0  0  0  0  0  0
  148.1071  138.5723  152.7417 N   0  3  0  0  0  0  0  0  0  0  0  0
  148.3368  138.9217  154.1573 C   0  0  0  0  0  0  0  0  0  0  0  0
  149.3663  140.0594  154.2963 C   0  0  1  0  0  0  0  0  0  0  0  0
  149.1753  140.9721  153.2323 O   0  0  0  0  0  0  0  0  0  0  0  0
  149.2683  140.8174  155.6386 C   0  0  0  0  0  0  0  0  0  0  0  0
  150.4710  140.7190  156.4501 N   0  0  0  0  0  0  0  0  0  0  0  0
  151.4476  139.7964  156.3474 C   0  0  0  0  0  0  0  0  0  0  0  0
  152.4721  139.8970  157.1885 N   0  0  0  0  0  0  0  0  0  0  0  0
  152.1158  141.0095  157.9305 C   0  0  0  0  0  0  0  0  0  0  0  0
  152.7824  141.6520  158.9963 C   0  0  0  0  0  0  0  0  0  0  0  0
  152.2254  142.7924  159.6174 C   0  0  0  0  0  0  0  0  0  0  0  0
  152.9753  143.4490  160.7629 C   0  0  0  0  0  0  0  0  0  0  0  0
  150.9806  143.3066  159.1738 C   0  0  0  0  0  0  0  0  0  0  0  0
  150.3608  144.5278  159.8295 C   0  0  0  0  0  0  0  0  0  0  0  0
  150.3022  142.6779  158.1089 C   0  0  0  0  0  0  0  0  0  0  0  0
  150.8673  141.5444  157.4978 C   0  0  0  0  0  0  0  0  0  0  0  0
  145.9045  136.5614  151.5404 C   0  0  0  0  0  0  0  0  0  0  0  0
  146.3972  132.8057  150.2583 H   0  0  0  0  0  0  0  0  0  0  0  0
  146.5048  133.0975  151.9837 H   0  0  0  0  0  0  0  0  0  0  0  0
  147.1837  134.2650  150.8473 H   0  0  0  0  0  0  0  0  0  0  0  0
  144.8658  134.6702  149.9306 H   0  0  0  0  0  0  0  0  0  0  0  0
  144.1815  133.6328  151.1596 H   0  0  0  0  0  0  0  0  0  0  0  0
  144.3181  134.3499  153.5513 H   0  0  0  0  0  0  0  0  0  0  0  0
  146.0508  134.6046  153.4439 H   0  0  0  0  0  0  0  0  0  0  0  0
  143.9482  136.7332  154.1606 H   0  0  0  0  0  0  0  0  0  0  0  0
  145.1139  136.0130  155.2536 H   0  0  0  0  0  0  0  0  0  0  0  0
  144.7482  138.1545  152.4212 H   0  0  0  0  0  0  0  0  0  0  0  0
  146.7854  139.1028  151.1889 H   0  0  0  0  0  0  0  0  0  0  0  0
  146.3998  139.7982  152.7507 H   0  0  0  0  0  0  0  0  0  0  0  0
  148.2730  137.5831  152.6217 H   0  0  0  0  0  0  0  0  0  0  0  0
  147.3875  139.2012  154.6165 H   0  0  0  0  0  0  0  0  0  0  0  0
  148.6972  138.0342  154.6793 H   0  0  0  0  0  0  0  0  0  0  0  0
  150.3734  139.6499  154.2075 H   0  0  0  0  0  0  0  0  0  0  0  0
  148.8723  140.4930  152.4752 H   0  0  0  0  0  0  0  0  0  0  0  0
  149.0681  141.8731  155.4522 H   0  0  0  0  0  0  0  0  0  0  0  0
  148.4249  140.4478  156.2236 H   0  0  0  0  0  0  0  0  0  0  0  0
  151.4074  139.0101  155.6076 H   0  0  0  0  0  0  0  0  0  0  0  0
  153.7293  141.2586  159.3361 H   0  0  0  0  0  0  0  0  0  0  0  0
  152.3947  143.3844  161.6833 H   0  0  0  0  0  0  0  0  0  0  0  0
  153.1664  144.5002  160.5459 H   0  0  0  0  0  0  0  0  0  0  0  0
  153.9365  142.9650  160.9384 H   0  0  0  0  0  0  0  0  0  0  0  0
  149.3875  144.7612  159.3973 H   0  0  0  0  0  0  0  0  0  0  0  0
  151.0038  145.3982  159.6986 H   0  0  0  0  0  0  0  0  0  0  0  0
  150.2196  144.3589  160.8971 H   0  0  0  0  0  0  0  0  0  0  0  0
  149.3530  143.0599  157.7635 H   0  0  0  0  0  0  0  0  0  0  0  0
  146.9176  136.1577  151.5767 H   0  0  0  0  0  0  0  0  0  0  0  0
  145.7382  136.9176  150.5241 H   0  0  0  0  0  0  0  0  0  0  0  0
  148.7782  139.0827  152.1852 H   0  0  0  0  0  0  0  0  0  0  0  0
  144.0118  135.8738  151.7792 H   0  0  0  0  0  0  0  0  0  0  0  0
  1  2  1  0  0  0  0
  1 26  1  0  0  0  0
  1 27  1  0  0  0  0
  1 28  1  0  0  0  0
  2  3  1  0  0  0  0
  2 29  1  0  0  0  0
  2 30  1  0  0  0  0
  3 25  1  0  0  0  0
  3  4  1  0  0  0  0
  3 57  1  0  0  0  0
  4  5  1  0  0  0  0
  4 31  1  0  0  0  0
  4 32  1  0  0  0  0
  5  6  1  0  0  0  0
  5 33  1  0  0  0  0
  5 34  1  0  0  0  0
  6  7  1  0  0  0  0
  7  8  1  0  0  0  0
  7 25  1  0  0  0  0
  7 35  1  0  0  0  0
  8  9  1  0  0  0  0
  8 36  1  0  0  0  0
  8 37  1  0  0  0  0
  9 10  1  0  0  0  0
  9 38  1  0  0  0  0
  9 56  1  0  0  0  0
 10 11  1  0  0  0  0
 10 39  1  0  0  0  0
 10 40  1  0  0  0  0
 11 12  1  0  0  0  0
 11 13  1  0  0  0  0
 11 41  1  0  0  0  0
 12 42  1  0  0  0  0
 13 14  1  0  0  0  0
 13 43  1  0  0  0  0
 13 44  1  0  0  0  0
 14 24  1  0  0  0  0
 14 15  1  0  0  0  0
 15 16  2  0  0  0  0
 15 45  1  0  0  0  0
 16 17  1  0  0  0  0
 17 24  2  0  0  0  0
 17 18  1  0  0  0  0
 18 19  2  0  0  0  0
 18 46  1  0  0  0  0
 19 20  1  0  0  0  0
 19 21  1  0  0  0  0
 20 47  1  0  0  0  0
 20 48  1  0  0  0  0
 20 49  1  0  0  0  0
 21 22  1  0  0  0  0
 21 23  2  0  0  0  0
 22 50  1  0  0  0  0
 22 51  1  0  0  0  0
 22 52  1  0  0  0  0
 23 24  1  0  0  0  0
 23 53  1  0  0  0  0
 25 54  1  0  0  0  0
 25 55  1  0  0  0  0
M  CHG  1   3   1
M  CHG  1   9   1
M  END
> <s_m_source_file>
AV-unprocessed.smi

> <i_m_source_file_index>
1047

> <i_lp_mmshare_version>
43012

> <i_f3d_flags>
0

> <s_epik_input>
W0NIM11bQ0gyXU4xW0NIMl1bQ0gyXU9bQ0BIXShbQ0gyXTEpW0NIMl1bTkhdW0NIMl1bQ0BIXShbT0hdKVtDSDJdbihbY0hdbjIpYyhjMjMpW2NIXWMoW0NIM10pYyhbY0hdMylbQ0gzXQ==

> <s_epik_cmdline>
J2VwaWtfcHl0aG9uJywgJy1waCcsICc3LjAnLCAnLXRuJywgJzgnLCAnLW1hJywgJzIwMCcsICctbWV0YWxfYmluZGluZycsICctaW1hZScsICc8aW5maWxlLm1hZT4nLCAnLW9tYWUnLCAnPG91dGZpbGUubWFlPic=

> <r_epik_Ionization_Penalty>
0.528991

> <r_epik_Ionization_Penalty_Charging>
0.438567

> <r_epik_Ionization_Penalty_Neutral>
0.0904237

> <r_epik_State_Penalty>
0.533036

> <r_epik_Charging_Adjusted_Penalty>
0.971603

> <i_epik_Tot_Q>
2

> <i_epik_Tot_abs_Q>
2

> <r_epik_Metal_State_Penalty>
0.448985

> <b_epik_Metal_Only>
0

> <s_lp_Force_Field>
OPLS_2005

> <r_lp_Energy>
29.0334

> <b_lp_Chiralities_Consistent>
1

> <s_lp_Variant>
AV-unprocessed.smi:1047-5

> <Gold.Version>
5.8.1

> <Gold.Id.Protein>
6NUR|6NUR_protein|mol2

> <Gold.PLP.Fitness>
59.1559

> <Gold.PLP.PLP>
-46.0955

> <Gold.PLP.part.hbond>
-5.1723

> <Gold.PLP.part.metal>
0.0000

> <Gold.PLP.part.buried>
-5.1766

> <Gold.PLP.part.nonpolar>
-36.4327

> <Gold.PLP.part.repulsive>
0.2047

> <Gold.PLP.ligand.clash>
0.0000

> <Gold.PLP.ligand.torsion>
1.8940

> <Gold.PLP.Chemscore.Hbond>
5.4293

> <Gold.PLP.Chemscore.CHOScore>
0.0000

> <Gold.PLP.Chemscore.Metal>
0.0000

> <Gold.Chemscore.Hbonds>
donor molecule, donor type, donor heavy atom, donor atom, acceptor molecule, acceptor atom, score
      L1  H     9    38       P1  7948  2.00
      L1  H     9    56       P1  7957  1.00
      L1  H    12    42       P1  7957  0.64
      P1  H  7997  8009       L1    16  1.00
      P1  H  8011  8017       L1    12  0.80

> <Gold.PLP.Chemscore.Internal.Correction>
0.5607

> <Gold.Rescore>
     Score         DG    S(hbond)    S(metal)    S(lipo)     H(rot)  DE(clash)    DE(int)     intcor
     22.22     -25.87       3.68        0.00     128.18       2.70       0.50       3.15       ----

> <Gold.Chemscore.Fitness>
22.2167

> <Gold.Chemscore.DG>
-25.8676

> <Gold.Chemscore.ZeroCoef>
-5.4800

> <Gold.Chemscore.Hbond>
3.6821

> <Gold.Chemscore.Metal>
0.0000

> <Gold.Chemscore.Lipo>
128.1828

> <Gold.Chemscore.Internal_Hbond>
0.0000

> <Gold.Chemscore.DEClash>
0.4969

> <Gold.Chemscore.DEInternal>
3.1541

> <Gold.Chemscore.Rot>
2.6985

> <Gold.Chemscore.Internal.Correction>
   9.000000E+99

> <Gold.Chemscore.Hbonds>
donor molecule, donor type, donor heavy atom, donor atom, acceptor molecule, acceptor atom, score
      L1  H     9    38       P1  7948  0.97
      L1  H     9    56       P1  7957  0.98
      L1  H    12    42       P1  7957  0.62
      P1  H  7997  8009       L1    16  0.68
      P1  H  8011  8017       L1    12  0.12

> <Gold.Chemscore.Hbond.Weighted>
-12.2984

> <Gold.Chemscore.Metal.Weighted>
-0.0000

> <Gold.Chemscore.Lipo.Weighted>
-14.9974

> <Gold.Chemscore.Internal_Hbond.Weighted>
0.0000

> <Gold.Chemscore.DEClash.Weighted>
0.4969

> <Gold.Chemscore.DEInternal.Weighted>
3.1541

> <Gold.Chemscore.Rot.Weighted>
6.9081

> <Gold.Chemscore.Internal.Correction.Weighted>
   9.000000E+99

> <Gold.Protein.RotatedTorsions>
[ 6907 6896 6895 6894 ] final  -44.89 input  -60.11 | X-H torsion
[ 7974 7965 7964 7962 ] final -168.98 input  175.53 | X-H torsion
[ 8008 7997 7996 7995 ] final -170.09 input   59.86 | X-H torsion
[ 10167 10162 10161 10158 ] final  -22.60 input  -65.29 | X-H torsion
[ 10718 10713 10712 10709 ] final   35.51 input   66.30 | X-H torsion
[ 10763 10752 10751 10750 ] final   -0.39 input  -60.55 | X-H torsion
[ 11005 11000 10999 10996 ] final   50.04 input  -57.11 | X-H torsion

> <Gold.Protein.ActiveResidues>
 VAL166  LYS551  ARG553  GLY616  TRP617  ASP618  TYR619  PRO620  LYS621  CYS622 
 ASP623  PHE694  ASN695  SER759  ASP760  ASP761  ALA762  ILE779  LEU786  VAL792 
 PHE793  MET794  SER795  GLU796  ALA797  LYS798  CYS799  TRP800  GLU811  SER814 

> <Gold.Protein.RotatedAtoms>
  150.9279  134.8695  159.7531 H   0  0  0  0  0  0  0  0  0  0  0  0  # atno 6907 bound_to 6896
  152.5024  134.4122  159.9462 H   0  0  0  0  0  0  0  0  0  0  0  0  # atno 6908 bound_to 6896
  151.4151  133.3675  159.2784 H   0  0  0  0  0  0  0  0  0  0  0  0  # atno 6909 bound_to 6896
  144.7193  140.2289  143.6306 H   0  0  0  0  0  0  0  0  0  0  0  0  # atno 7974 bound_to 7965
  155.9137  140.1062  157.1260 H   0  0  0  0  0  0  0  0  0  0  0  0  # atno 8008 bound_to 7997
  154.4043  140.1269  156.4655 H   0  0  0  0  0  0  0  0  0  0  0  0  # atno 8009 bound_to 7997
  155.7279  140.3469  155.5048 H   0  0  0  0  0  0  0  0  0  0  0  0  # atno 8010 bound_to 7997
  140.7286  143.4520  151.0503 H   0  0  0  0  0  0  0  0  0  0  0  0  # atno 10167 bound_to 10162
  157.3236  130.7461  149.6801 H   0  0  0  0  0  0  0  0  0  0  0  0  # atno 10718 bound_to 10713
  153.3313  135.6975  153.6945 H   0  0  0  0  0  0  0  0  0  0  0  0  # atno 10763 bound_to 10752
  153.5747  135.3509  155.2852 H   0  0  0  0  0  0  0  0  0  0  0  0  # atno 10764 bound_to 10752
  154.8618  135.4280  154.2502 H   0  0  0  0  0  0  0  0  0  0  0  0  # atno 10765 bound_to 10752
  140.1051  134.5029  155.8727 H   0  0  0  0  0  0  0  0  0  0  0  0  # atno 11005 bound_to 11000
  145.8429  139.2138  143.1817 LP  0  0  0  0  0  0  0  0  0  0  0  0  # atno 17320 bound_to 7965
  146.0330  140.8239  142.9866 LP  0  0  0  0  0  0  0  0  0  0  0  0  # atno 17321 bound_to 7965
  139.8197  143.7837  152.3176 LP  0  0  0  0  0  0  0  0  0  0  0  0  # atno 17342 bound_to 10162
  139.7915  144.7408  150.9948 LP  0  0  0  0  0  0  0  0  0  0  0  0  # atno 17343 bound_to 10162
  155.9688  130.4216  150.4476 LP  0  0  0  0  0  0  0  0  0  0  0  0  # atno 17370 bound_to 10713
  157.2496  131.0543  151.2387 LP  0  0  0  0  0  0  0  0  0  0  0  0  # atno 17371 bound_to 10713
  141.2116  133.6708  156.6595 LP  0  0  0  0  0  0  0  0  0  0  0  0  # atno 17394 bound_to 11000
  140.3167  134.8042  157.4220 LP  0  0  0  0  0  0  0  0  0  0  0  0  # atno 17395 bound_to 11000

$$$$
