AV-unprocessed.smi:1092|AV-procd|sdf|4737|dock8
  -GOLD-   22720 3273D 1   1.00000     0.00000
 Structure written by MMmdl.
 43 45  0  0  0  0  0  0  0  0  1 V2000
  148.8726  136.3209  156.6098 C   0  0  0  0  0  0  0  0  0  0  0  0
  149.9033  135.5132  155.7967 C   0  0  0  0  0  0  0  0  0  0  0  0
  150.6373  134.5167  156.7101 C   0  0  0  0  0  0  0  0  0  0  0  0
  149.1969  134.7203  154.8614 O   0  0  0  0  0  0  0  0  0  0  0  0
  150.9361  136.3774  155.0206 C   0  0  0  0  0  0  0  0  0  0  0  0
  151.2025  137.6881  155.6312 N   0  0  0  0  0  0  0  0  0  0  0  0
  150.1683  138.5861  155.5069 N   0  0  0  0  0  0  0  0  0  0  0  0
  150.2293  139.7734  156.0206 C   0  0  0  0  0  0  0  0  0  0  0  0
  149.0660  140.6593  155.7814 C   0  0  0  0  0  0  0  0  0  0  0  0
  148.6682  140.9317  154.4526 C   0  0  0  0  0  0  0  0  0  0  0  0
  147.5650  141.7762  154.2200 C   0  0  0  0  0  0  0  0  0  0  0  0
  146.8714  142.3495  155.3047 C   0  0  0  0  0  0  0  0  0  0  0  0
  147.2805  142.0853  156.6270 C   0  0  0  0  0  0  0  0  0  0  0  0
  148.3819  141.2421  156.8716 C   0  0  0  0  0  0  0  0  0  0  0  0
  151.4942  140.1117  156.7575 C   0  0  0  0  0  0  0  0  0  0  0  0
  151.6830  141.4085  157.4691 C   0  0  0  0  0  0  0  0  0  0  0  0
  151.1396  142.5949  156.9223 C   0  0  0  0  0  0  0  0  0  0  0  0
  151.3190  143.8293  157.5763 C   0  0  0  0  0  0  0  0  0  0  0  0
  152.0497  143.8921  158.7775 C   0  0  0  0  0  0  0  0  0  0  0  0
  152.6061  142.7200  159.3225 C   0  0  0  0  0  0  0  0  0  0  0  0
  152.4285  141.4849  158.6698 C   0  0  0  0  0  0  0  0  0  0  0  0
  152.4619  139.2638  156.8305 N   0  0  0  0  0  0  0  0  0  0  0  0
  152.3765  137.9905  156.2591 C   0  0  0  0  0  0  0  0  0  0  0  0
  153.2997  137.1797  156.3301 O   0  0  0  0  0  0  0  0  0  0  0  0
  149.3643  136.9696  157.3352 H   0  0  0  0  0  0  0  0  0  0  0  0
  148.2009  135.6625  157.1614 H   0  0  0  0  0  0  0  0  0  0  0  0
  148.2507  136.9476  155.9698 H   0  0  0  0  0  0  0  0  0  0  0  0
  151.2032  135.0371  157.4836 H   0  0  0  0  0  0  0  0  0  0  0  0
  151.3399  133.9013  156.1469 H   0  0  0  0  0  0  0  0  0  0  0  0
  149.9397  133.8449  157.2119 H   0  0  0  0  0  0  0  0  0  0  0  0
  149.2927  135.1081  154.0051 H   0  0  0  0  0  0  0  0  0  0  0  0
  151.8696  135.8198  154.9283 H   0  0  0  0  0  0  0  0  0  0  0  0
  150.6080  136.5188  153.9891 H   0  0  0  0  0  0  0  0  0  0  0  0
  149.1884  140.4953  153.6117 H   0  0  0  0  0  0  0  0  0  0  0  0
  147.2502  141.9840  153.2081 H   0  0  0  0  0  0  0  0  0  0  0  0
  146.0265  142.9970  155.1220 H   0  0  0  0  0  0  0  0  0  0  0  0
  146.7504  142.5329  157.4548 H   0  0  0  0  0  0  0  0  0  0  0  0
  148.6932  141.0608  157.8900 H   0  0  0  0  0  0  0  0  0  0  0  0
  150.5738  142.5677  156.0021 H   0  0  0  0  0  0  0  0  0  0  0  0
  150.8958  144.7291  157.1546 H   0  0  0  0  0  0  0  0  0  0  0  0
  152.1882  144.8393  159.2775 H   0  0  0  0  0  0  0  0  0  0  0  0
  153.1741  142.7681  160.2398 H   0  0  0  0  0  0  0  0  0  0  0  0
  152.8794  140.6010  159.0965 H   0  0  0  0  0  0  0  0  0  0  0  0
  1  2  1  0  0  0  0
  1 25  1  0  0  0  0
  1 26  1  0  0  0  0
  1 27  1  0  0  0  0
  2  3  1  0  0  0  0
  2  4  1  0  0  0  0
  2  5  1  0  0  0  0
  3 28  1  0  0  0  0
  3 29  1  0  0  0  0
  3 30  1  0  0  0  0
  4 31  1  0  0  0  0
  5  6  1  0  0  0  0
  5 32  1  0  0  0  0
  5 33  1  0  0  0  0
  6 23  1  0  0  0  0
  6  7  1  0  0  0  0
  7  8  2  0  0  0  0
  8  9  1  0  0  0  0
  8 15  1  0  0  0  0
  9 14  1  0  0  0  0
  9 10  2  0  0  0  0
 10 11  1  0  0  0  0
 10 34  1  0  0  0  0
 11 12  2  0  0  0  0
 11 35  1  0  0  0  0
 12 13  1  0  0  0  0
 12 36  1  0  0  0  0
 13 14  2  0  0  0  0
 13 37  1  0  0  0  0
 14 38  1  0  0  0  0
 15 16  1  0  0  0  0
 15 22  2  0  0  0  0
 16 21  1  0  0  0  0
 16 17  2  0  0  0  0
 17 18  1  0  0  0  0
 17 39  1  0  0  0  0
 18 19  2  0  0  0  0
 18 40  1  0  0  0  0
 19 20  1  0  0  0  0
 19 41  1  0  0  0  0
 20 21  2  0  0  0  0
 20 42  1  0  0  0  0
 21 43  1  0  0  0  0
 22 23  1  0  0  0  0
 23 24  2  0  0  0  0
M  END
> <s_m_source_file>
AV-unprocessed.smi

> <i_m_source_file_index>
1092

> <i_lp_mmshare_version>
43012

> <i_f3d_flags>
0

> <s_epik_input>
W2NIXTFbY0hdW2NIXVtjSF1bY0hdYzEtYyhubjJbQ0gyXUMoW0NIM10pKFtDSDNdKVtPSF0pYyhuYzI9TyktYzNbY0hdW2NIXVtjSF1bY0hdW2NIXTM=

> <s_epik_cmdline>
J2VwaWtfcHl0aG9uJywgJy1waCcsICc3LjAnLCAnLXRuJywgJzgnLCAnLW1hJywgJzIwMCcsICctbWV0YWxfYmluZGluZycsICctaW1hZScsICc8aW5maWxlLm1hZT4nLCAnLW9tYWUnLCAnPG91dGZpbGUubWFlPic=

> <r_lp_tautomer_probability>
1

> <r_epik_Ionization_Penalty>
4.51197e-08

> <r_epik_Ionization_Penalty_Charging>
4.64162e-09

> <r_epik_Ionization_Penalty_Neutral>
4.04781e-08

> <r_epik_State_Penalty>
-0

> <r_epik_Charging_Adjusted_Penalty>
4.64162e-09

> <i_epik_Tot_Q>
0

> <i_epik_Tot_abs_Q>
0

> <r_epik_Metal_State_Penalty>
-0

> <b_epik_Metal_Only>
0

> <s_lp_Force_Field>
OPLS_2005

> <r_lp_Energy>
39.3317

> <b_lp_Chiralities_Consistent>
1

> <s_lp_Variant>
AV-unprocessed.smi:1092-1

> <Gold.Version>
5.8.1

> <Gold.Id.Protein>
6NUR|6NUR_protein|mol2

> <Gold.PLP.Fitness>
45.5925

> <Gold.PLP.PLP>
-40.7297

> <Gold.PLP.part.hbond>
-3.0000

> <Gold.PLP.part.metal>
0.0000

> <Gold.PLP.part.buried>
-2.6587

> <Gold.PLP.part.nonpolar>
-35.8097

> <Gold.PLP.part.repulsive>
0.0677

> <Gold.PLP.ligand.clash>
0.0000

> <Gold.PLP.ligand.torsion>
2.3390

> <Gold.PLP.Chemscore.Hbond>
2.4072

> <Gold.PLP.Chemscore.CHOScore>
0.0000

> <Gold.PLP.Chemscore.Metal>
0.0000

> <Gold.Chemscore.Hbonds>
donor molecule, donor type, donor heavy atom, donor atom, acceptor molecule, acceptor atom, score
      L1  H     4    31       P1  7948  0.05
      P1  H  7997  8009       L1    22  0.84
      P1  H 10752 10765       L1    24  0.59

> <Gold.PLP.Chemscore.Internal.Correction>
2.3194

> <Gold.Rescore>
     Score         DG    S(hbond)    S(metal)    S(lipo)     H(rot)  DE(clash)    DE(int)     intcor
     14.74     -19.27       1.18        0.00     119.04       1.59       0.36       4.17       ----

> <Gold.Chemscore.Fitness>
14.7395

> <Gold.Chemscore.DG>
-19.2661

> <Gold.Chemscore.ZeroCoef>
-5.4800

> <Gold.Chemscore.Hbond>
1.1776

> <Gold.Chemscore.Metal>
0.0000

> <Gold.Chemscore.Lipo>
119.0408

> <Gold.Chemscore.Internal_Hbond>
0.0000

> <Gold.Chemscore.DEClash>
0.3601

> <Gold.Chemscore.DEInternal>
4.1665

> <Gold.Chemscore.Rot>
1.5918

> <Gold.Chemscore.Internal.Correction>
   9.000000E+99

> <Gold.Chemscore.Hbonds>
donor molecule, donor type, donor heavy atom, donor atom, acceptor molecule, acceptor atom, score
      L1  H     4    31       P1  7948  0.03
      P1  H  7997  8009       L1    22  0.63
      P1  H 10752 10765       L1    24  0.55

> <Gold.Chemscore.Hbond.Weighted>
-3.9332

> <Gold.Chemscore.Metal.Weighted>
-0.0000

> <Gold.Chemscore.Lipo.Weighted>
-13.9278

> <Gold.Chemscore.Internal_Hbond.Weighted>
0.0000

> <Gold.Chemscore.DEClash.Weighted>
0.3601

> <Gold.Chemscore.DEInternal.Weighted>
4.1665

> <Gold.Chemscore.Rot.Weighted>
4.0749

> <Gold.Chemscore.Internal.Correction.Weighted>
   9.000000E+99

> <Gold.Protein.RotatedTorsions>
[ 6907 6896 6895 6894 ] final -151.61 input  -60.11 | X-H torsion
[ 7974 7965 7964 7962 ] final -141.78 input  175.53 | X-H torsion
[ 8008 7997 7996 7995 ] final  177.80 input   59.86 | X-H torsion
[ 10167 10162 10161 10158 ] final  179.87 input  -65.29 | X-H torsion
[ 10718 10713 10712 10709 ] final -164.54 input   66.30 | X-H torsion
[ 10763 10752 10751 10750 ] final -136.62 input  -60.55 | X-H torsion
[ 11005 11000 10999 10996 ] final   17.29 input  -57.11 | X-H torsion

> <Gold.Protein.ActiveResidues>
 VAL166  LYS551  ARG553  GLY616  TRP617  ASP618  TYR619  PRO620  LYS621  CYS622 
 ASP623  PHE694  ASN695  SER759  ASP760  ASP761  ALA762  ILE779  LEU786  VAL792 
 PHE793  MET794  SER795  GLU796  ALA797  LYS798  CYS799  TRP800  GLU811  SER814 

> <Gold.Protein.RotatedAtoms>
  151.2157  133.4531  159.2599 H   0  0  0  0  0  0  0  0  0  0  0  0  # atno 6907 bound_to 6896
  151.0934  134.9929  159.8424 H   0  0  0  0  0  0  0  0  0  0  0  0  # atno 6908 bound_to 6896
  152.5437  134.2088  159.8795 H   0  0  0  0  0  0  0  0  0  0  0  0  # atno 6909 bound_to 6896
  144.8493  140.6038  143.5401 H   0  0  0  0  0  0  0  0  0  0  0  0  # atno 7974 bound_to 7965
  156.0617  140.1349  156.9933 H   0  0  0  0  0  0  0  0  0  0  0  0  # atno 8008 bound_to 7997
  154.4485  140.0990  156.6598 H   0  0  0  0  0  0  0  0  0  0  0  0  # atno 8009 bound_to 7997
  155.5367  140.3460  155.4440 H   0  0  0  0  0  0  0  0  0  0  0  0  # atno 8010 bound_to 7997
  139.5355  144.2509  152.0785 H   0  0  0  0  0  0  0  0  0  0  0  0  # atno 10167 bound_to 10162
  156.6404  130.8966  151.2995 H   0  0  0  0  0  0  0  0  0  0  0  0  # atno 10718 bound_to 10713
  154.8680  135.3667  154.5091 H   0  0  0  0  0  0  0  0  0  0  0  0  # atno 10763 bound_to 10752
  153.5727  135.7020  153.5502 H   0  0  0  0  0  0  0  0  0  0  0  0  # atno 10764 bound_to 10752
  153.3527  135.4067  155.1621 H   0  0  0  0  0  0  0  0  0  0  0  0  # atno 10765 bound_to 10752
  140.4375  134.1356  155.7687 H   0  0  0  0  0  0  0  0  0  0  0  0  # atno 11005 bound_to 11000
  145.4533  139.1521  143.3906 LP  0  0  0  0  0  0  0  0  0  0  0  0  # atno 17320 bound_to 7965
  146.2771  140.4660  142.8791 LP  0  0  0  0  0  0  0  0  0  0  0  0  # atno 17321 bound_to 7965
  140.1979  144.4687  150.6446 LP  0  0  0  0  0  0  0  0  0  0  0  0  # atno 17342 bound_to 10162
  140.6559  143.2237  151.5969 LP  0  0  0  0  0  0  0  0  0  0  0  0  # atno 17343 bound_to 10162
  157.7172  130.9513  150.1302 LP  0  0  0  0  0  0  0  0  0  0  0  0  # atno 17370 bound_to 10713
  156.2163  130.3670  149.8609 LP  0  0  0  0  0  0  0  0  0  0  0  0  # atno 17371 bound_to 10713
  141.1719  133.8591  157.1543 LP  0  0  0  0  0  0  0  0  0  0  0  0  # atno 17394 bound_to 11000
  140.0092  134.9995  157.0358 LP  0  0  0  0  0  0  0  0  0  0  0  0  # atno 17395 bound_to 11000

$$$$
