#       Name:                AV-unprocessed.smi:3312
#       Creating user name   scv26
#       Creation time:       Fri Mar 27 19:07:05 2020


#       File generated by GOLD software.
#

@<TRIPOS>MOLECULE
AV-unprocessed.smi:3312
    44    45     1
SMALL
NO_CHARGES


@<TRIPOS>ATOM
      1 ****        -4.5956   2.9406   1.1599 C.3            1 S1                 0.0000
      2 ****        -3.8749   1.9664   0.2732 C.2            1 S1                 0.0000
      3 ****        -2.9681   2.2550  -0.7858 C.2            1 S1                 0.0000
      4 ****        -2.5061   1.1658  -1.3770 N.2            1 S1                 0.0000
      5 ****        -3.0912   0.1462  -0.7136 N.pl3          1 S1                 0.0000
      6 ****        -2.8093  -1.2246  -1.1023 C.3            1 S1                 0.0000
      7 ****        -1.3239  -1.5836  -0.9362 C.3            1 S1                 0.0000
      8 ****        -0.9050  -1.4962   0.4794 N.4            1 S1                 1.0000
      9 ****         0.5564  -1.5636   0.6966 C.3            1 S1                 0.0000
     10 ****         1.2551  -0.2056   0.5069 C.2            1 S1                 0.0000
     11 ****         0.5632   0.7938   0.3031 O.2            1 S1                 0.0000
     12 ****         2.6060  -0.1453   0.5759 N.am           1 S1                 0.0000
     13 ****         3.5118  -1.2766   0.7981 C.3            1 S1                 0.0000
     14 ****         4.3734  -1.4583  -0.4641 C.3            1 S1                 0.0000
     15 ****         5.0889  -0.2543  -0.7304 O.3            1 S1                 0.0000
     16 ****         4.2388   0.8752  -0.9171 C.3            1 S1                 0.0000
     17 ****         3.3678   1.0835   0.3352 C.3            1 S1                 0.0000
     18 ****        -3.9295   0.6013   0.2821 C.2            1 S1                 0.0000
     19 ****        -4.6231   3.9398   0.7245 H              1 S1                 0.0000
     20 ****        -4.1159   3.0280   2.1350 H              1 S1                 0.0000
     21 ****        -5.6287   2.6395   1.3350 H              1 S1                 0.0000
     22 ****        -2.6353   3.2190  -1.1414 H              1 S1                 0.0000
     23 ****        -3.4332  -1.8956  -0.5101 H              1 S1                 0.0000
     24 ****        -3.1107  -1.3516  -2.1429 H              1 S1                 0.0000
     25 ****        -1.1438  -2.5978  -1.2937 H              1 S1                 0.0000
     26 ****        -0.7118  -0.9225  -1.5510 H              1 S1                 0.0000
     27 ****        -1.2333  -0.6198   0.8607 H              1 S1                 0.0000
     28 ****         0.7252  -1.8914   1.7229 H              1 S1                 0.0000
     29 ****         0.9846  -2.3182   0.0354 H              1 S1                 0.0000
     30 ****         4.1506  -1.0599   1.6557 H              1 S1                 0.0000
     31 ****         3.0049  -2.2096   1.0382 H              1 S1                 0.0000
     32 ****         5.0878  -2.2691  -0.3207 H              1 S1                 0.0000
     33 ****         3.7547  -1.7236  -1.3231 H              1 S1                 0.0000
     34 ****         4.8556   1.7554  -1.0986 H              1 S1                 0.0000
     35 ****         3.6178   0.7312  -1.8028 H              1 S1                 0.0000
     36 ****         2.7333   1.9601   0.1986 H              1 S1                 0.0000
     37 ****         3.9962   1.2970   1.2010 H              1 S1                 0.0000
     38 ****        -4.4884  -0.0758   0.9116 H              1 S1                 0.0000
     39 ****        -1.3442  -2.2538   0.9819 H              1 S1                 0.0000
     40 ****        -1.8666   1.1101  -2.1437 LP             1 S1                 0.0000
     41 ****        -0.4327   0.7128   0.2636 LP             1 S1                 0.0000
     42 ****         0.9978   1.6856   0.1772 LP             1 S1                 0.0000
     43 ****         5.6316  -0.3841  -1.5602 LP             1 S1                 0.0000
     44 ****         5.6981  -0.0695   0.0408 LP             1 S1                 0.0000
@<TRIPOS>BOND
    1    1    2 1     
    2    1   19 1     
    3    1   20 1     
    4    1   21 1     
    5    2   18 2     
    6    2    3 1     
    7    3    4 2     
    8    3   22 1     
    9    4    5 1     
   10    5    6 1     
   11    5   18 1     
   12    6    7 1     
   13    6   23 1     
   14    6   24 1     
   15    7    8 1     
   16    7   25 1     
   17    7   26 1     
   18    8    9 1     
   19    8   27 1     
   20    8   39 1     
   21    9   10 1     
   22    9   28 1     
   23    9   29 1     
   24   10   11 2     
   25   10   12 am    
   26   12   17 1     
   27   12   13 1     
   28   13   14 1     
   29   13   30 1     
   30   13   31 1     
   31   14   15 1     
   32   14   32 1     
   33   14   33 1     
   34   15   16 1     
   35   16   17 1     
   36   16   34 1     
   37   16   35 1     
   38   17   36 1     
   39   17   37 1     
   40   18   38 1     
   41    4   40 1     
   42   11   41 1     
   43   11   42 1     
   44   15   43 1     
   45   15   44 1     
@<TRIPOS>SUBSTRUCTURE
      1 S1             1
@<TRIPOS>SET
LONE_PAIRS      STATIC     ATOMS    <user>   **** ""
5 40 41 42 43 44
DONOR_HYDROGENS      STATIC     ATOMS    <user>   **** ""
2 27 39
ATOM$BLUE        STATIC     ATOMS    COLORGROUP SYSTEM
5 40 41 42 43 44
ATOM$RED        STATIC     ATOMS    COLORGROUP SYSTEM
2 27 39
