AV-unprocessed.smi:2706|AV-procd|sdf|10447|dock9
  -GOLD-   2272014493D 1   1.00000     0.00000
 Structure written by MMmdl.
 43 46  0  0  0  0  0  0  0  0  1 V2000
  153.6123  141.2035  160.5203 C   0  0  0  0  0  0  0  0  0  0  0  0
  153.1004  142.4006  161.1804 N   0  0  0  0  0  0  0  0  0  0  0  0
  153.3969  142.6386  162.5873 C   0  0  0  0  0  0  0  0  0  0  0  0
  152.3677  143.3527  160.4358 C   0  0  0  0  0  0  0  0  0  0  0  0
  152.2597  144.7002  160.8565 C   0  0  0  0  0  0  0  0  0  0  0  0
  151.5173  145.6003  160.0712 C   0  0  0  0  0  0  0  0  0  0  0  0
  150.9054  145.1350  158.8934 C   0  0  0  0  0  0  0  0  0  0  0  0
  151.0509  143.7793  158.5320 C   0  0  0  0  0  0  0  0  0  0  0  0
  150.3999  143.3994  157.3282 N   0  0  0  0  0  0  0  0  0  0  0  0
  150.4254  142.2041  156.7124 C   0  0  0  0  0  0  0  0  0  0  0  0
  151.0296  141.2087  157.1139 O   0  0  0  0  0  0  0  0  0  0  0  0
  149.6988  142.2271  155.5870 N   0  0  0  0  0  0  0  0  0  0  0  0
  149.5046  141.1302  154.6944 C   0  0  2  0  0  0  0  0  0  0  0  0
  148.2108  140.9605  153.9189 C   0  0  2  0  0  0  0  0  0  0  0  0
  146.7720  141.3655  154.2593 C   0  0  2  0  0  0  0  0  0  0  0  0
  146.6699  142.2604  155.5110 C   0  0  0  0  0  0  0  0  0  0  0  0
  147.0256  141.2786  156.6489 C   0  0  0  0  0  0  0  0  0  0  0  0
  147.2812  139.9647  155.8832 C   0  0  1  0  0  0  0  0  0  0  0  0
  146.2067  140.0593  154.8057 C   0  0  0  0  0  0  0  0  0  0  0  0
  148.5641  139.9907  155.0440 C   0  0  2  0  0  0  0  0  0  0  0  0
  151.7692  142.9235  159.2984 N   0  0  0  0  0  0  0  0  0  0  0  0
  152.7975  140.6328  160.0734 H   0  0  0  0  0  0  0  0  0  0  0  0
  154.1286  140.5503  161.2235 H   0  0  0  0  0  0  0  0  0  0  0  0
  154.3175  141.4735  159.7336 H   0  0  0  0  0  0  0  0  0  0  0  0
  152.4759  142.6874  163.1688 H   0  0  0  0  0  0  0  0  0  0  0  0
  153.9418  143.5747  162.7132 H   0  0  0  0  0  0  0  0  0  0  0  0
  154.0110  141.8399  163.0031 H   0  0  0  0  0  0  0  0  0  0  0  0
  152.7277  145.0589  161.7606 H   0  0  0  0  0  0  0  0  0  0  0  0
  151.4187  146.6337  160.3688 H   0  0  0  0  0  0  0  0  0  0  0  0
  150.3322  145.8144  158.2791 H   0  0  0  0  0  0  0  0  0  0  0  0
  149.8536  144.1223  156.8839 H   0  0  0  0  0  0  0  0  0  0  0  0
  149.2389  143.0911  155.3397 H   0  0  0  0  0  0  0  0  0  0  0  0
  150.3961  140.8173  154.1524 H   0  0  0  0  0  0  0  0  0  0  0  0
  148.3178  140.5690  152.9087 H   0  0  0  0  0  0  0  0  0  0  0  0
  146.2435  141.7595  153.3908 H   0  0  0  0  0  0  0  0  0  0  0  0
  147.3116  143.1392  155.4631 H   0  0  0  0  0  0  0  0  0  0  0  0
  145.6484  142.6223  155.6351 H   0  0  0  0  0  0  0  0  0  0  0  0
  147.8720  141.5910  157.2592 H   0  0  0  0  0  0  0  0  0  0  0  0
  146.1760  141.1638  157.3231 H   0  0  0  0  0  0  0  0  0  0  0  0
  147.2199  139.0719  156.5060 H   0  0  0  0  0  0  0  0  0  0  0  0
  145.1920  140.1466  155.1993 H   0  0  0  0  0  0  0  0  0  0  0  0
  146.2421  139.2385  154.0869 H   0  0  0  0  0  0  0  0  0  0  0  0
  148.8896  139.0010  154.7283 H   0  0  0  0  0  0  0  0  0  0  0  0
  1  2  1  0  0  0  0
  1 22  1  0  0  0  0
  1 23  1  0  0  0  0
  1 24  1  0  0  0  0
  2  3  1  0  0  0  0
  2  4  1  0  0  0  0
  3 25  1  0  0  0  0
  3 26  1  0  0  0  0
  3 27  1  0  0  0  0
  4 21  1  0  0  0  0
  4  5  2  0  0  0  0
  5  6  1  0  0  0  0
  5 28  1  0  0  0  0
  6  7  2  0  0  0  0
  6 29  1  0  0  0  0
  7  8  1  0  0  0  0
  7 30  1  0  0  0  0
  8  9  1  0  0  0  0
  8 21  2  0  0  0  0
  9 10  1  0  0  0  0
  9 31  1  0  0  0  0
 10 11  2  0  0  0  0
 10 12  1  0  0  0  0
 12 13  1  0  0  0  0
 12 32  1  0  0  0  0
 13 20  1  0  0  0  0
 13 14  1  0  0  0  0
 13 33  1  0  0  0  0
 14 20  1  0  0  0  0
 14 15  1  0  0  0  0
 14 34  1  0  0  0  0
 15 19  1  0  0  0  0
 15 16  1  0  0  0  0
 15 35  1  0  0  0  0
 16 17  1  0  0  0  0
 16 36  1  0  0  0  0
 16 37  1  0  0  0  0
 17 18  1  0  0  0  0
 17 38  1  0  0  0  0
 17 39  1  0  0  0  0
 18 19  1  0  0  0  0
 18 20  1  0  0  0  0
 18 40  1  0  0  0  0
 19 41  1  0  0  0  0
 19 42  1  0  0  0  0
 20 43  1  0  0  0  0
M  END
> <s_m_source_file>
AV-unprocessed.smi

> <i_m_source_file_index>
2706

> <i_lp_mmshare_version>
43012

> <i_f3d_flags>
0

> <s_epik_input>
W0NIM11OKFtDSDNdKWMxW2NIXVtjSF1bY0hdYyhuMSlbTkhdQyg9TylbTkhdW0NASF0yW0NAQEhdM1tDQEBIXShbQ0gyXTQpW0NIMl1bQ0gyXVtDQEBIXTRbQ0BIXTIz

> <s_epik_cmdline>
J2VwaWtfcHl0aG9uJywgJy1waCcsICc3LjAnLCAnLXRuJywgJzgnLCAnLW1hJywgJzIwMCcsICctbWV0YWxfYmluZGluZycsICctaW1hZScsICc8aW5maWxlLm1hZT4nLCAnLW9tYWUnLCAnPG91dGZpbGUubWFlPic=

> <r_lp_tautomer_probability>
1

> <r_epik_Ionization_Penalty>
0.0296788

> <r_epik_Ionization_Penalty_Charging>
0

> <r_epik_Ionization_Penalty_Neutral>
0.0296788

> <r_epik_State_Penalty>
0.0248512

> <r_epik_Charging_Adjusted_Penalty>
0.0248512

> <i_epik_Tot_Q>
0

> <i_epik_Tot_abs_Q>
0

> <r_epik_Metal_State_Penalty>
0.0237882

> <b_epik_Metal_Only>
0

> <s_lp_Force_Field>
OPLS_2005

> <r_lp_Energy>
85.7316

> <b_lp_Chiralities_Consistent>
1

> <s_lp_Variant>
AV-unprocessed.smi:2706-4

> <Gold.Version>
5.8.1

> <Gold.Id.Protein>
6NUR|6NUR_protein|mol2

> <Gold.PLP.Fitness>
52.2007

> <Gold.PLP.PLP>
-47.1008

> <Gold.PLP.part.hbond>
-2.0000

> <Gold.PLP.part.metal>
0.0000

> <Gold.PLP.part.buried>
-4.9901

> <Gold.PLP.part.nonpolar>
-40.7126

> <Gold.PLP.part.repulsive>
0.2099

> <Gold.PLP.ligand.clash>
0.0000

> <Gold.PLP.ligand.torsion>
0.4875

> <Gold.PLP.Chemscore.Hbond>
2.0000

> <Gold.PLP.Chemscore.CHOScore>
0.0000

> <Gold.PLP.Chemscore.Metal>
0.0000

> <Gold.Chemscore.Hbonds>
donor molecule, donor type, donor heavy atom, donor atom, acceptor molecule, acceptor atom, score
      L1  H     9    31       P1  8028  1.00
      L1  H    12    32       P1  8028  1.00

> <Gold.PLP.Chemscore.Internal.Correction>
0.0750

> <Gold.Rescore>
     Score         DG    S(hbond)    S(metal)    S(lipo)     H(rot)  DE(clash)    DE(int)     intcor
     18.46     -20.16       1.95        0.00      91.58       1.00       0.05       1.65       ----

> <Gold.Chemscore.Fitness>
18.4590

> <Gold.Chemscore.DG>
-20.1589

> <Gold.Chemscore.ZeroCoef>
-5.4800

> <Gold.Chemscore.Hbond>
1.9534

> <Gold.Chemscore.Metal>
0.0000

> <Gold.Chemscore.Lipo>
91.5760

> <Gold.Chemscore.Internal_Hbond>
0.0000

> <Gold.Chemscore.DEClash>
0.0481

> <Gold.Chemscore.DEInternal>
1.6518

> <Gold.Chemscore.Rot>
1.0000

> <Gold.Chemscore.Internal.Correction>
   9.000000E+99

> <Gold.Chemscore.Hbonds>
donor molecule, donor type, donor heavy atom, donor atom, acceptor molecule, acceptor atom, score
      L1  H     9    31       P1  8028  0.89
      L1  H    12    32       P1  8028  0.95

> <Gold.Chemscore.Hbond.Weighted>
-6.5245

> <Gold.Chemscore.Metal.Weighted>
-0.0000

> <Gold.Chemscore.Lipo.Weighted>
-10.7144

> <Gold.Chemscore.Internal_Hbond.Weighted>
0.0000

> <Gold.Chemscore.DEClash.Weighted>
0.0481

> <Gold.Chemscore.DEInternal.Weighted>
1.6518

> <Gold.Chemscore.Rot.Weighted>
2.5600

> <Gold.Chemscore.Internal.Correction.Weighted>
   9.000000E+99

> <Gold.Protein.RotatedTorsions>
[ 6907 6896 6895 6894 ] final -126.34 input  -60.11 | X-H torsion
[ 7974 7965 7964 7962 ] final  152.59 input  175.53 | X-H torsion
[ 8008 7997 7996 7995 ] final  -10.65 input   59.86 | X-H torsion
[ 10167 10162 10161 10158 ] final   78.32 input  -65.29 | X-H torsion
[ 10718 10713 10712 10709 ] final   95.40 input   66.30 | X-H torsion
[ 10763 10752 10751 10750 ] final   98.00 input  -60.55 | X-H torsion
[ 11005 11000 10999 10996 ] final   73.20 input  -57.11 | X-H torsion

> <Gold.Protein.ActiveResidues>
 VAL166  LYS551  ARG553  GLY616  TRP617  ASP618  TYR619  PRO620  LYS621  CYS622 
 ASP623  PHE694  ASN695  SER759  ASP760  ASP761  ALA762  ILE779  LEU786  VAL792 
 PHE793  MET794  SER795  GLU796  ALA797  LYS798  CYS799  TRP800  GLU811  SER814 

> <Gold.Protein.RotatedAtoms>
  150.8959  133.7181  159.2891 H   0  0  0  0  0  0  0  0  0  0  0  0  # atno 6907 bound_to 6896
  151.4716  135.1045  159.9762 H   0  0  0  0  0  0  0  0  0  0  0  0  # atno 6908 bound_to 6896
  152.4848  133.8298  159.7152 H   0  0  0  0  0  0  0  0  0  0  0  0  # atno 6909 bound_to 6896
  144.8212  139.6688  143.6099 H   0  0  0  0  0  0  0  0  0  0  0  0  # atno 7974 bound_to 7965
  154.5535  140.2323  155.8447 H   0  0  0  0  0  0  0  0  0  0  0  0  # atno 8008 bound_to 7997
  156.1968  140.3063  155.9403 H   0  0  0  0  0  0  0  0  0  0  0  0  # atno 8009 bound_to 7997
  155.3025  140.0432  157.3021 H   0  0  0  0  0  0  0  0  0  0  0  0  # atno 8010 bound_to 7997
  139.9722  144.5886  150.7975 H   0  0  0  0  0  0  0  0  0  0  0  0  # atno 10167 bound_to 10162
  157.6939  131.0544  150.4334 H   0  0  0  0  0  0  0  0  0  0  0  0  # atno 10718 bound_to 10713
  153.2838  135.4163  155.1103 H   0  0  0  0  0  0  0  0  0  0  0  0  # atno 10763 bound_to 10752
  154.8498  135.3501  154.6076 H   0  0  0  0  0  0  0  0  0  0  0  0  # atno 10764 bound_to 10752
  153.6497  135.7053  153.5271 H   0  0  0  0  0  0  0  0  0  0  0  0  # atno 10765 bound_to 10752
  139.9452  134.7326  156.0997 H   0  0  0  0  0  0  0  0  0  0  0  0  # atno 11005 bound_to 11000
  146.2517  139.6215  142.9422 LP  0  0  0  0  0  0  0  0  0  0  0  0  # atno 17320 bound_to 7965
  145.5101  141.0435  143.2493 LP  0  0  0  0  0  0  0  0  0  0  0  0  # atno 17321 bound_to 7965
  140.7518  143.2979  151.3157 LP  0  0  0  0  0  0  0  0  0  0  0  0  # atno 17342 bound_to 10162
  139.6473  144.0428  152.2600 LP  0  0  0  0  0  0  0  0  0  0  0  0  # atno 17343 bound_to 10162
  156.4698  130.4050  149.6525 LP  0  0  0  0  0  0  0  0  0  0  0  0  # atno 17370 bound_to 10713
  156.3609  130.7481  151.2453 LP  0  0  0  0  0  0  0  0  0  0  0  0  # atno 17371 bound_to 10713
  141.1100  133.6646  156.2956 LP  0  0  0  0  0  0  0  0  0  0  0  0  # atno 17394 bound_to 11000
  140.5852  134.5705  157.5488 LP  0  0  0  0  0  0  0  0  0  0  0  0  # atno 17395 bound_to 11000

$$$$
