AV-unprocessed.smi:2333|AV-procd|sdf|9320|dock2
  -GOLD-   2272012543D 1   1.00000     0.00000
 Structure written by MMmdl.
 37 38  0  0  0  0  0  0  0  0  1 V2000
  152.5153  143.5600  161.6398 C   0  0  0  0  0  0  0  0  0  0  0  0
  152.1934  143.0578  160.2433 C   0  0  0  0  0  0  0  0  0  0  0  0
  151.3442  143.8724  159.4898 N   0  0  0  0  0  0  0  0  0  0  0  0
  151.0257  143.5306  158.2845 C   0  0  0  0  0  0  0  0  0  0  0  0
  151.5126  142.3498  157.6950 N   0  0  0  0  0  0  0  0  0  0  0  0
  151.0735  142.0683  156.3123 C   0  0  0  0  0  0  0  0  0  0  0  0
  149.6687  141.4044  156.1866 C   0  0  0  0  0  0  0  0  0  0  0  0
  148.7382  142.2733  156.8061 O   0  0  0  0  0  0  0  0  0  0  0  0
  149.2681  141.3303  154.6919 C   0  0  0  0  0  0  0  0  0  0  0  0
  147.9124  140.6395  154.4568 C   0  0  0  0  0  0  0  0  0  0  0  0
  147.8813  139.2434  155.0923 C   0  0  0  0  0  0  0  0  0  0  0  0
  148.2068  139.3175  156.5901 C   0  0  0  0  0  0  0  0  0  0  0  0
  149.5635  140.0012  156.8394 C   0  0  0  0  0  0  0  0  0  0  0  0
  152.3162  141.4816  158.3758 C   0  0  0  0  0  0  0  0  0  0  0  0
  152.7001  140.4232  157.8753 O   0  0  0  0  0  0  0  0  0  0  0  0
  152.6870  141.8941  159.7394 C   0  0  0  0  0  0  0  0  0  0  0  0
  153.6191  140.9686  160.5116 C   0  0  0  0  0  0  0  0  0  0  0  0
  152.2193  142.8246  162.3884 H   0  0  0  0  0  0  0  0  0  0  0  0
  151.9884  144.4895  161.8596 H   0  0  0  0  0  0  0  0  0  0  0  0
  153.5844  143.7497  161.7399 H   0  0  0  0  0  0  0  0  0  0  0  0
  150.3702  144.1357  157.6559 H   0  0  0  0  0  0  0  0  0  0  0  0
  151.1135  142.9792  155.7112 H   0  0  0  0  0  0  0  0  0  0  0  0
  151.8101  141.4203  155.8332 H   0  0  0  0  0  0  0  0  0  0  0  0
  148.9577  143.1625  156.5736 H   0  0  0  0  0  0  0  0  0  0  0  0
  149.2506  142.3297  154.2547 H   0  0  0  0  0  0  0  0  0  0  0  0
  150.0310  140.7767  154.1425 H   0  0  0  0  0  0  0  0  0  0  0  0
  147.1072  141.2487  154.8691 H   0  0  0  0  0  0  0  0  0  0  0  0
  147.7190  140.5625  153.3865 H   0  0  0  0  0  0  0  0  0  0  0  0
  146.9010  138.7890  154.9459 H   0  0  0  0  0  0  0  0  0  0  0  0
  148.6018  138.5954  154.5916 H   0  0  0  0  0  0  0  0  0  0  0  0
  147.4176  139.8613  157.1101 H   0  0  0  0  0  0  0  0  0  0  0  0
  148.2170  138.3136  157.0157 H   0  0  0  0  0  0  0  0  0  0  0  0
  150.3512  139.3609  156.4409 H   0  0  0  0  0  0  0  0  0  0  0  0
  149.7337  140.0640  157.9149 H   0  0  0  0  0  0  0  0  0  0  0  0
  154.5507  140.8297  159.9618 H   0  0  0  0  0  0  0  0  0  0  0  0
  153.1543  139.9908  160.6417 H   0  0  0  0  0  0  0  0  0  0  0  0
  153.8765  141.3447  161.5003 H   0  0  0  0  0  0  0  0  0  0  0  0
  1  2  1  0  0  0  0
  1 18  1  0  0  0  0
  1 19  1  0  0  0  0
  1 20  1  0  0  0  0
  2 16  2  0  0  0  0
  2  3  1  0  0  0  0
  3  4  2  0  0  0  0
  4  5  1  0  0  0  0
  4 21  1  0  0  0  0
  5  6  1  0  0  0  0
  5 14  1  0  0  0  0
  6  7  1  0  0  0  0
  6 22  1  0  0  0  0
  6 23  1  0  0  0  0
  7 13  1  0  0  0  0
  7  8  1  0  0  0  0
  7  9  1  0  0  0  0
  8 24  1  0  0  0  0
  9 10  1  0  0  0  0
  9 25  1  0  0  0  0
  9 26  1  0  0  0  0
 10 11  1  0  0  0  0
 10 27  1  0  0  0  0
 10 28  1  0  0  0  0
 11 12  1  0  0  0  0
 11 29  1  0  0  0  0
 11 30  1  0  0  0  0
 12 13  1  0  0  0  0
 12 31  1  0  0  0  0
 12 32  1  0  0  0  0
 13 33  1  0  0  0  0
 13 34  1  0  0  0  0
 14 15  2  0  0  0  0
 14 16  1  0  0  0  0
 16 17  1  0  0  0  0
 17 35  1  0  0  0  0
 17 36  1  0  0  0  0
 17 37  1  0  0  0  0
M  END
> <s_m_source_file>
AV-unprocessed.smi

> <i_m_source_file_index>
2333

> <i_lp_mmshare_version>
43012

> <i_f3d_flags>
0

> <s_epik_input>
W0NIM11jMW5bY0hdbihjKD1PKWMxW0NIM10pW0NIMl1DMihbT0hdKVtDSDJdW0NIMl1bQ0gyXVtDSDJdW0NIMl0y

> <s_epik_cmdline>
J2VwaWtfcHl0aG9uJywgJy1waCcsICc3LjAnLCAnLXRuJywgJzgnLCAnLW1hJywgJzIwMCcsICctbWV0YWxfYmluZGluZycsICctaW1hZScsICc8aW5maWxlLm1hZT4nLCAnLW9tYWUnLCAnPG91dGZpbGUubWFlPic=

> <r_lp_tautomer_probability>
1

> <r_epik_Ionization_Penalty>
0.000179312

> <r_epik_Ionization_Penalty_Charging>
2.41041e-07

> <r_epik_Ionization_Penalty_Neutral>
0.000179071

> <r_epik_State_Penalty>
-0

> <r_epik_Charging_Adjusted_Penalty>
2.41041e-07

> <i_epik_Tot_Q>
0

> <i_epik_Tot_abs_Q>
0

> <r_epik_Metal_State_Penalty>
-0

> <b_epik_Metal_Only>
0

> <s_lp_Force_Field>
OPLS_2005

> <r_lp_Energy>
24.9482

> <b_lp_Chiralities_Consistent>
1

> <s_lp_Variant>
AV-unprocessed.smi:2333-1

> <Gold.Version>
5.8.1

> <Gold.Id.Protein>
6NUR|6NUR_protein|mol2

> <Gold.PLP.Fitness>
40.3472

> <Gold.PLP.PLP>
-32.4966

> <Gold.PLP.part.hbond>
-2.0000

> <Gold.PLP.part.metal>
0.0000

> <Gold.PLP.part.buried>
-4.1447

> <Gold.PLP.part.nonpolar>
-25.1764

> <Gold.PLP.part.repulsive>
0.0517

> <Gold.PLP.ligand.clash>
0.0053

> <Gold.PLP.ligand.torsion>
0.3427

> <Gold.PLP.Chemscore.Hbond>
1.8284

> <Gold.PLP.Chemscore.CHOScore>
1.0000

> <Gold.PLP.Chemscore.Metal>
0.0000

> <Gold.Chemscore.Hbonds>
donor molecule, donor type, donor heavy atom, donor atom, acceptor molecule, acceptor atom, score
      L1  H     8    24       P1  8028  1.00
      P1  H  7997  8008       L1    15  0.80
      L1  C     4    21       P1  8028  1.00

> <Gold.PLP.Chemscore.Internal.Correction>
0.0561

> <Gold.Rescore>
     Score         DG    S(hbond)    S(metal)    S(lipo)     H(rot)  DE(clash)    DE(int)     intcor
     15.82     -16.37       1.85        0.00      77.19       1.69       0.17       0.38       ----

> <Gold.Chemscore.Fitness>
15.8210

> <Gold.Chemscore.DG>
-16.3710

> <Gold.Chemscore.ZeroCoef>
-5.4800

> <Gold.Chemscore.Hbond>
1.8519

> <Gold.Chemscore.Metal>
0.0000

> <Gold.Chemscore.Lipo>
77.1857

> <Gold.Chemscore.Internal_Hbond>
0.0000

> <Gold.Chemscore.DEClash>
0.1728

> <Gold.Chemscore.DEInternal>
0.3772

> <Gold.Chemscore.Rot>
1.6895

> <Gold.Chemscore.Internal.Correction>
   9.000000E+99

> <Gold.Chemscore.Hbonds>
donor molecule, donor type, donor heavy atom, donor atom, acceptor molecule, acceptor atom, score
      L1  H     8    24       P1  8028  0.96
      P1  H  7997  8008       L1    15  0.77

> <Gold.Chemscore.Hbond.Weighted>
-6.1855

> <Gold.Chemscore.Metal.Weighted>
-0.0000

> <Gold.Chemscore.Lipo.Weighted>
-9.0307

> <Gold.Chemscore.Internal_Hbond.Weighted>
0.0000

> <Gold.Chemscore.DEClash.Weighted>
0.1728

> <Gold.Chemscore.DEInternal.Weighted>
0.3772

> <Gold.Chemscore.Rot.Weighted>
4.3252

> <Gold.Chemscore.Internal.Correction.Weighted>
   9.000000E+99

> <Gold.Protein.RotatedTorsions>
[ 6907 6896 6895 6894 ] final -169.91 input  -60.11 | X-H torsion
[ 7974 7965 7964 7962 ] final  -18.05 input  175.53 | X-H torsion
[ 8008 7997 7996 7995 ] final  -71.08 input   59.86 | X-H torsion
[ 10167 10162 10161 10158 ] final  -87.45 input  -65.29 | X-H torsion
[ 10718 10713 10712 10709 ] final  -55.22 input   66.30 | X-H torsion
[ 10763 10752 10751 10750 ] final  153.08 input  -60.55 | X-H torsion
[ 11005 11000 10999 10996 ] final  122.55 input  -57.11 | X-H torsion

> <Gold.Protein.ActiveResidues>
 VAL166  LYS551  ARG553  GLY616  TRP617  ASP618  TYR619  PRO620  LYS621  CYS622 
 ASP623  PHE694  ASN695  SER759  ASP760  ASP761  ALA762  ILE779  LEU786  VAL792 
 PHE793  MET794  SER795  GLU796  ALA797  LYS798  CYS799  TRP800  GLU811  SER814 

> <Gold.Protein.RotatedAtoms>
  151.4992  133.3508  159.2865 H   0  0  0  0  0  0  0  0  0  0  0  0  # atno 6907 bound_to 6896
  150.8784  134.8173  159.7217 H   0  0  0  0  0  0  0  0  0  0  0  0  # atno 6908 bound_to 6896
  152.4746  134.4886  159.9740 H   0  0  0  0  0  0  0  0  0  0  0  0  # atno 6909 bound_to 6896
  146.1911  140.3865  142.8457 H   0  0  0  0  0  0  0  0  0  0  0  0  # atno 7974 bound_to 7965
  154.5060  140.0822  156.7895 H   0  0  0  0  0  0  0  0  0  0  0  0  # atno 8008 bound_to 7997
  155.3892  140.3431  155.4232 H   0  0  0  0  0  0  0  0  0  0  0  0  # atno 8009 bound_to 7997
  156.1516  140.1560  156.8748 H   0  0  0  0  0  0  0  0  0  0  0  0  # atno 8010 bound_to 7997
  140.3843  143.2734  151.9344 H   0  0  0  0  0  0  0  0  0  0  0  0  # atno 10167 bound_to 10162
  156.1386  130.4155  150.0142 H   0  0  0  0  0  0  0  0  0  0  0  0  # atno 10718 bound_to 10713
  154.1304  135.2827  155.3186 H   0  0  0  0  0  0  0  0  0  0  0  0  # atno 10763 bound_to 10752
  154.6360  135.5419  153.7737 H   0  0  0  0  0  0  0  0  0  0  0  0  # atno 10764 bound_to 10752
  153.0283  135.6474  154.1454 H   0  0  0  0  0  0  0  0  0  0  0  0  # atno 10765 bound_to 10752
  139.9273  134.9641  156.8125 H   0  0  0  0  0  0  0  0  0  0  0  0  # atno 11005 bound_to 11000
  144.8489  140.6972  143.6181 LP  0  0  0  0  0  0  0  0  0  0  0  0  # atno 17320 bound_to 7965
  145.3788  139.1641  143.4292 LP  0  0  0  0  0  0  0  0  0  0  0  0  # atno 17321 bound_to 7965
  139.4793  144.5788  151.7966 LP  0  0  0  0  0  0  0  0  0  0  0  0  # atno 17342 bound_to 10162
  140.4905  144.1317  150.5949 LP  0  0  0  0  0  0  0  0  0  0  0  0  # atno 17343 bound_to 10162
  156.8034  130.9299  151.3645 LP  0  0  0  0  0  0  0  0  0  0  0  0  # atno 17370 bound_to 10713
  157.6555  130.8921  149.9720 LP  0  0  0  0  0  0  0  0  0  0  0  0  # atno 17371 bound_to 10713
  140.6300  133.9914  155.7657 LP  0  0  0  0  0  0  0  0  0  0  0  0  # atno 17394 bound_to 11000
  141.0839  134.0020  157.3343 LP  0  0  0  0  0  0  0  0  0  0  0  0  # atno 17395 bound_to 11000

$$$$
