AV-unprocessed.smi:1243|AV-procd|sdf|5220|dock8
  -GOLD-   22720 4313D 1   1.00000     0.00000
 Structure written by MMmdl.
 50 51  0  0  0  0  0  0  0  0  1 V2000
  145.5308  133.9837  150.8686 C   0  0  0  0  0  0  0  0  0  0  0  0
  146.4468  134.0986  151.9519 O   0  0  0  0  0  0  0  0  0  0  0  0
  146.6869  132.9857  152.7355 C   0  0  0  0  0  0  0  0  0  0  0  0
  146.0188  131.8397  152.4504 N   0  0  0  0  0  0  0  0  0  0  0  0
  146.2494  130.7539  153.2168 C   0  0  0  0  0  0  0  0  0  0  0  0
  147.1435  130.7533  154.3028 C   0  0  0  0  0  0  0  0  0  0  0  0
  147.8375  131.9406  154.6007 C   0  0  0  0  0  0  0  0  0  0  0  0
  147.6187  133.0849  153.7953 C   0  0  0  0  0  0  0  0  0  0  0  0
  148.2556  134.3391  154.0082 N   0  0  0  0  0  0  0  0  0  0  0  0
  148.7533  134.8515  155.1463 C   0  0  0  0  0  0  0  0  0  0  0  0
  148.7103  134.3113  156.2513 O   0  0  0  0  0  0  0  0  0  0  0  0
  149.3244  136.0427  154.9228 N   0  0  0  0  0  0  0  0  0  0  0  0
  149.9534  136.8966  155.9299 C   0  0  0  0  0  0  0  0  0  0  0  0
  150.4840  138.2288  155.3259 C   0  0  0  0  0  0  0  0  0  0  0  0
  151.7541  137.8635  154.5159 C   0  0  0  0  0  0  0  0  0  0  0  0
  149.4231  138.7274  154.3155 C   0  0  0  0  0  0  0  0  0  0  0  0
  150.7957  139.2286  156.3859 N   0  0  0  0  0  0  0  0  0  0  0  0
  151.7392  138.7644  157.4158 C   0  0  0  0  0  0  0  0  0  0  0  0
  151.8999  139.7941  158.5491 C   0  0  0  0  0  0  0  0  0  0  0  0
  152.3682  141.0801  158.0417 N   0  0  0  0  0  0  0  0  0  0  0  0
  152.5321  142.0499  159.1133 C   0  0  0  0  0  0  0  0  0  0  0  0
  151.4302  141.5531  157.0285 C   0  0  0  0  0  0  0  0  0  0  0  0
  151.2700  140.5309  155.8885 C   0  0  0  0  0  0  0  0  0  0  0  0
  145.4573  134.9428  150.3564 H   0  0  0  0  0  0  0  0  0  0  0  0
  144.5320  133.7173  151.2170 H   0  0  0  0  0  0  0  0  0  0  0  0
  145.8660  133.2452  150.1391 H   0  0  0  0  0  0  0  0  0  0  0  0
  145.7008  129.8598  152.9602 H   0  0  0  0  0  0  0  0  0  0  0  0
  147.2915  129.8632  154.8963 H   0  0  0  0  0  0  0  0  0  0  0  0
  148.5096  131.9495  155.4441 H   0  0  0  0  0  0  0  0  0  0  0  0
  148.4236  134.8797  153.1722 H   0  0  0  0  0  0  0  0  0  0  0  0
  149.3061  136.4048  153.9807 H   0  0  0  0  0  0  0  0  0  0  0  0
  149.2601  137.1105  156.7453 H   0  0  0  0  0  0  0  0  0  0  0  0
  150.7559  136.3282  156.3992 H   0  0  0  0  0  0  0  0  0  0  0  0
  151.5798  137.0090  153.8608 H   0  0  0  0  0  0  0  0  0  0  0  0
  152.5881  137.6054  155.1696 H   0  0  0  0  0  0  0  0  0  0  0  0
  152.0819  138.6780  153.8700 H   0  0  0  0  0  0  0  0  0  0  0  0
  149.2231  137.9721  153.5544 H   0  0  0  0  0  0  0  0  0  0  0  0
  149.7454  139.6249  153.7883 H   0  0  0  0  0  0  0  0  0  0  0  0
  148.4699  138.9485  154.7953 H   0  0  0  0  0  0  0  0  0  0  0  0
  151.3971  137.8339  157.8645 H   0  0  0  0  0  0  0  0  0  0  0  0
  152.7160  138.5631  156.9754 H   0  0  0  0  0  0  0  0  0  0  0  0
  150.9476  139.9199  159.0671 H   0  0  0  0  0  0  0  0  0  0  0  0
  152.6068  139.4103  159.2855 H   0  0  0  0  0  0  0  0  0  0  0  0
  152.8994  142.9992  158.7220 H   0  0  0  0  0  0  0  0  0  0  0  0
  153.2535  141.6931  159.8489 H   0  0  0  0  0  0  0  0  0  0  0  0
  151.5871  142.2361  159.6254 H   0  0  0  0  0  0  0  0  0  0  0  0
  150.4573  141.7512  157.4814 H   0  0  0  0  0  0  0  0  0  0  0  0
  151.7811  142.5001  156.6167 H   0  0  0  0  0  0  0  0  0  0  0  0
  152.2240  140.4181  155.3731 H   0  0  0  0  0  0  0  0  0  0  0  0
  150.5698  140.9507  155.1690 H   0  0  0  0  0  0  0  0  0  0  0  0
  1  2  1  0  0  0  0
  1 24  1  0  0  0  0
  1 25  1  0  0  0  0
  1 26  1  0  0  0  0
  2  3  1  0  0  0  0
  3  8  1  0  0  0  0
  3  4  2  0  0  0  0
  4  5  1  0  0  0  0
  5  6  2  0  0  0  0
  5 27  1  0  0  0  0
  6  7  1  0  0  0  0
  6 28  1  0  0  0  0
  7  8  2  0  0  0  0
  7 29  1  0  0  0  0
  8  9  1  0  0  0  0
  9 10  1  0  0  0  0
  9 30  1  0  0  0  0
 10 11  2  0  0  0  0
 10 12  1  0  0  0  0
 12 13  1  0  0  0  0
 12 31  1  0  0  0  0
 13 14  1  0  0  0  0
 13 32  1  0  0  0  0
 13 33  1  0  0  0  0
 14 15  1  0  0  0  0
 14 16  1  0  0  0  0
 14 17  1  0  0  0  0
 15 34  1  0  0  0  0
 15 35  1  0  0  0  0
 15 36  1  0  0  0  0
 16 37  1  0  0  0  0
 16 38  1  0  0  0  0
 16 39  1  0  0  0  0
 17 23  1  0  0  0  0
 17 18  1  0  0  0  0
 18 19  1  0  0  0  0
 18 40  1  0  0  0  0
 18 41  1  0  0  0  0
 19 20  1  0  0  0  0
 19 42  1  0  0  0  0
 19 43  1  0  0  0  0
 20 21  1  0  0  0  0
 20 22  1  0  0  0  0
 21 44  1  0  0  0  0
 21 45  1  0  0  0  0
 21 46  1  0  0  0  0
 22 23  1  0  0  0  0
 22 47  1  0  0  0  0
 22 48  1  0  0  0  0
 23 49  1  0  0  0  0
 23 50  1  0  0  0  0
M  END
> <s_m_source_file>
AV-unprocessed.smi

> <i_m_source_file_index>
1243

> <i_lp_mmshare_version>
43012

> <i_f3d_flags>
0

> <s_epik_input>
W0NIM11PYzFuW2NIXVtjSF1bY0hdYzFbTkhdQyg9TylbTkhdW0NIMl1DKFtDSDNdKShbQ0gzXSlOMltDSDJdW0NIMl1OKFtDSDNdKVtDSDJdW0NIMl0y

> <s_epik_cmdline>
J2VwaWtfcHl0aG9uJywgJy1waCcsICc3LjAnLCAnLXRuJywgJzgnLCAnLW1hJywgJzIwMCcsICctbWV0YWxfYmluZGluZycsICctaW1hZScsICc8aW5maWxlLm1hZT4nLCAnLW9tYWUnLCAnPG91dGZpbGUubWFlPic=

> <r_lp_tautomer_probability>
1

> <r_epik_Ionization_Penalty>
3.08543

> <r_epik_Ionization_Penalty_Charging>
0

> <r_epik_Ionization_Penalty_Neutral>
3.08543

> <r_epik_State_Penalty>
2.1584

> <r_epik_Charging_Adjusted_Penalty>
2.1584

> <i_epik_Tot_Q>
0

> <i_epik_Tot_abs_Q>
0

> <r_epik_Metal_State_Penalty>
2.1584

> <b_epik_Metal_Only>
0

> <s_lp_Force_Field>
OPLS_2005

> <r_lp_Energy>
53.3534

> <b_lp_Chiralities_Consistent>
1

> <s_lp_Variant>
AV-unprocessed.smi:1243-3

> <Gold.Version>
5.8.1

> <Gold.Id.Protein>
6NUR|6NUR_protein|mol2

> <Gold.PLP.Fitness>
40.6400

> <Gold.PLP.PLP>
-35.3496

> <Gold.PLP.part.hbond>
-2.0978

> <Gold.PLP.part.metal>
0.0000

> <Gold.PLP.part.buried>
-4.3843

> <Gold.PLP.part.nonpolar>
-28.9589

> <Gold.PLP.part.repulsive>
0.4230

> <Gold.PLP.ligand.clash>
0.0000

> <Gold.PLP.ligand.torsion>
0.3504

> <Gold.PLP.Chemscore.Hbond>
1.9750

> <Gold.PLP.Chemscore.CHOScore>
0.0000

> <Gold.PLP.Chemscore.Metal>
0.0000

> <Gold.Chemscore.Hbonds>
donor molecule, donor type, donor heavy atom, donor atom, acceptor molecule, acceptor atom, score
      L1  H     9    30       P1  7948  1.00
      L1  H    12    31       P1  7948  0.75

> <Gold.PLP.Chemscore.Internal.Correction>
0.0662

> <Gold.Rescore>
     Score         DG    S(hbond)    S(metal)    S(lipo)     H(rot)  DE(clash)    DE(int)     intcor
     16.02     -16.83       1.99        0.00      76.80       1.67       0.06       0.75       ----

> <Gold.Chemscore.Fitness>
16.0213

> <Gold.Chemscore.DG>
-16.8297

> <Gold.Chemscore.ZeroCoef>
-5.4800

> <Gold.Chemscore.Hbond>
1.9905

> <Gold.Chemscore.Metal>
0.0000

> <Gold.Chemscore.Lipo>
76.8046

> <Gold.Chemscore.Internal_Hbond>
0.0000

> <Gold.Chemscore.DEClash>
0.0630

> <Gold.Chemscore.DEInternal>
0.7454

> <Gold.Chemscore.Rot>
1.6737

> <Gold.Chemscore.Internal.Correction>
   9.000000E+99

> <Gold.Chemscore.Hbonds>
donor molecule, donor type, donor heavy atom, donor atom, acceptor molecule, acceptor atom, score
      L1  H     9    30       P1  7948  0.70
      L1  H    12    31       P1  7948  0.67

> <Gold.Chemscore.Hbond.Weighted>
-6.6483

> <Gold.Chemscore.Metal.Weighted>
-0.0000

> <Gold.Chemscore.Lipo.Weighted>
-8.9861

> <Gold.Chemscore.Internal_Hbond.Weighted>
0.0000

> <Gold.Chemscore.DEClash.Weighted>
0.0630

> <Gold.Chemscore.DEInternal.Weighted>
0.7454

> <Gold.Chemscore.Rot.Weighted>
4.2848

> <Gold.Chemscore.Internal.Correction.Weighted>
   9.000000E+99

> <Gold.Protein.RotatedTorsions>
[ 6907 6896 6895 6894 ] final    7.82 input  -60.11 | X-H torsion
[ 7974 7965 7964 7962 ] final   75.64 input  175.53 | X-H torsion
[ 8008 7997 7996 7995 ] final  -91.75 input   59.86 | X-H torsion
[ 10167 10162 10161 10158 ] final  173.49 input  -65.29 | X-H torsion
[ 10718 10713 10712 10709 ] final -107.16 input   66.30 | X-H torsion
[ 10763 10752 10751 10750 ] final -146.91 input  -60.55 | X-H torsion
[ 11005 11000 10999 10996 ] final   55.23 input  -57.11 | X-H torsion

> <Gold.Protein.ActiveResidues>
 VAL166  LYS551  ARG553  GLY616  TRP617  ASP618  TYR619  PRO620  LYS621  CYS622 
 ASP623  PHE694  ASN695  SER759  ASP760  ASP761  ALA762  ILE779  LEU786  VAL792 
 PHE793  MET794  SER795  GLU796  ALA797  LYS798  CYS799  TRP800  GLU811  SER814 

> <Gold.Protein.RotatedAtoms>
  151.6961  135.0938  160.0242 H   0  0  0  0  0  0  0  0  0  0  0  0  # atno 6907 bound_to 6896
  152.3749  133.6464  159.6124 H   0  0  0  0  0  0  0  0  0  0  0  0  # atno 6908 bound_to 6896
  150.7701  133.9126  159.3415 H   0  0  0  0  0  0  0  0  0  0  0  0  # atno 6909 bound_to 6896
  145.7130  139.2621  143.1639 H   0  0  0  0  0  0  0  0  0  0  0  0  # atno 7974 bound_to 7965
  154.7145  140.0516  157.0582 H   0  0  0  0  0  0  0  0  0  0  0  0  # atno 8008 bound_to 7997
  155.0509  140.3179  155.4673 H   0  0  0  0  0  0  0  0  0  0  0  0  # atno 8009 bound_to 7997
  156.2799  140.2116  156.5635 H   0  0  0  0  0  0  0  0  0  0  0  0  # atno 8010 bound_to 7997
  139.5110  144.3254  152.0162 H   0  0  0  0  0  0  0  0  0  0  0  0  # atno 10167 bound_to 10162
  156.0424  130.5649  150.7783 H   0  0  0  0  0  0  0  0  0  0  0  0  # atno 10718 bound_to 10713
  154.8313  135.3374  154.6735 H   0  0  0  0  0  0  0  0  0  0  0  0  # atno 10763 bound_to 10752
  153.7355  135.6949  153.4984 H   0  0  0  0  0  0  0  0  0  0  0  0  # atno 10764 bound_to 10752
  153.2282  135.4425  155.0517 H   0  0  0  0  0  0  0  0  0  0  0  0  # atno 10765 bound_to 10752
  140.0623  134.5585  155.9138 H   0  0  0  0  0  0  0  0  0  0  0  0  # atno 11005 bound_to 11000
  146.0695  140.7885  142.9695 LP  0  0  0  0  0  0  0  0  0  0  0  0  # atno 17320 bound_to 7965
  144.6937  140.3320  143.7214 LP  0  0  0  0  0  0  0  0  0  0  0  0  # atno 17321 bound_to 7965
  140.2695  144.3979  150.6156 LP  0  0  0  0  0  0  0  0  0  0  0  0  # atno 17342 bound_to 10162
  140.6098  143.2169  151.6908 LP  0  0  0  0  0  0  0  0  0  0  0  0  # atno 17343 bound_to 10162
  157.5258  131.0934  151.0020 LP  0  0  0  0  0  0  0  0  0  0  0  0  # atno 17370 bound_to 10713
  157.0339  130.5722  149.5347 LP  0  0  0  0  0  0  0  0  0  0  0  0  # atno 17371 bound_to 10713
  141.1978  133.6598  156.5761 LP  0  0  0  0  0  0  0  0  0  0  0  0  # atno 17394 bound_to 11000
  140.3751  134.7572  157.4625 LP  0  0  0  0  0  0  0  0  0  0  0  0  # atno 17395 bound_to 11000

$$$$
