AV-unprocessed.smi:1194|AV-procd|sdf|4990|dock1
  -GOLD-   22720 3593D 1   1.00000     0.00000
 Structure written by MMmdl.
 47 48  0  0  0  0  0  0  0  0  1 V2000
  145.3026  135.5684  151.6770 C   0  0  0  0  0  0  0  0  0  0  0  0
  146.1250  136.8465  151.4816 C   0  0  0  0  0  0  0  0  0  0  0  0
  146.2647  137.6589  152.7832 C   0  0  0  0  0  0  0  0  0  0  0  0
  147.0855  138.9528  152.6292 C   0  0  0  0  0  0  0  0  0  0  0  0
  147.5699  139.2098  151.5256 O   0  0  0  0  0  0  0  0  0  0  0  0
  147.2708  139.7608  153.7073 N   0  0  0  0  0  0  0  0  0  0  0  0
  146.6803  139.5088  155.0407 C   0  0  0  0  0  0  0  0  0  0  0  0
  145.8099  140.6991  155.4775 C   0  0  0  0  0  0  0  0  0  0  0  0
  146.6016  142.0129  155.4300 C   0  0  0  0  0  0  0  0  0  0  0  0
  147.2336  142.2018  154.0427 C   0  0  0  0  0  0  0  0  0  0  0  0
  148.1004  140.9906  153.6171 C   0  0  1  0  0  0  0  0  0  0  0  0
  149.4366  140.8857  154.3873 C   0  0  0  0  0  0  0  0  0  0  0  0
  150.1866  139.9256  154.2117 O   0  0  0  0  0  0  0  0  0  0  0  0
  149.7127  141.8722  155.2529 N   0  0  0  0  0  0  0  0  0  0  0  0
  150.8962  141.9746  156.0956 C   0  0  0  0  0  0  0  0  0  0  0  0
  150.5229  141.8581  157.5845 C   0  0  0  0  0  0  0  0  0  0  0  0
  151.2164  142.8861  158.4645 C   0  0  0  0  0  0  0  0  0  0  0  0
  152.3482  142.5382  159.2302 C   0  0  0  0  0  0  0  0  0  0  0  0
  152.9400  143.5183  160.0503 C   0  0  0  0  0  0  0  0  0  0  0  0
  152.3757  144.8093  160.0665 C   0  0  0  0  0  0  0  0  0  0  0  0
  151.2961  145.1553  159.3334 N   0  0  0  0  0  0  0  0  0  0  0  0
  150.7328  144.2094  158.5523 C   0  0  0  0  0  0  0  0  0  0  0  0
  145.2166  135.0149  150.7418 H   0  0  0  0  0  0  0  0  0  0  0  0
  144.2943  135.7979  152.0230 H   0  0  0  0  0  0  0  0  0  0  0  0
  145.7685  134.9101  152.4112 H   0  0  0  0  0  0  0  0  0  0  0  0
  147.1122  136.5740  151.1053 H   0  0  0  0  0  0  0  0  0  0  0  0
  145.6554  137.4581  150.7100 H   0  0  0  0  0  0  0  0  0  0  0  0
  145.2738  137.9132  153.1615 H   0  0  0  0  0  0  0  0  0  0  0  0
  146.7448  137.0251  153.5283 H   0  0  0  0  0  0  0  0  0  0  0  0
  146.0671  138.6123  155.0977 H   0  0  0  0  0  0  0  0  0  0  0  0
  147.4787  139.3523  155.7666 H   0  0  0  0  0  0  0  0  0  0  0  0
  144.9405  140.7722  154.8226 H   0  0  0  0  0  0  0  0  0  0  0  0
  145.4262  140.5321  156.4844 H   0  0  0  0  0  0  0  0  0  0  0  0
  145.9472  142.8537  155.6617 H   0  0  0  0  0  0  0  0  0  0  0  0
  147.3773  142.0043  156.1967 H   0  0  0  0  0  0  0  0  0  0  0  0
  146.4389  142.3409  153.3083 H   0  0  0  0  0  0  0  0  0  0  0  0
  147.8154  143.1241  154.0215 H   0  0  0  0  0  0  0  0  0  0  0  0
  148.4015  141.1924  152.5885 H   0  0  0  0  0  0  0  0  0  0  0  0
  149.0349  142.6154  155.3430 H   0  0  0  0  0  0  0  0  0  0  0  0
  151.5706  141.1632  155.8200 H   0  0  0  0  0  0  0  0  0  0  0  0
  151.4320  142.9085  155.9182 H   0  0  0  0  0  0  0  0  0  0  0  0
  149.4436  141.9552  157.7057 H   0  0  0  0  0  0  0  0  0  0  0  0
  150.7797  140.8600  157.9423 H   0  0  0  0  0  0  0  0  0  0  0  0
  152.7508  141.5364  159.1972 H   0  0  0  0  0  0  0  0  0  0  0  0
  153.8042  143.2856  160.6547 H   0  0  0  0  0  0  0  0  0  0  0  0
  152.8014  145.5847  160.6858 H   0  0  0  0  0  0  0  0  0  0  0  0
  149.8630  144.5170  157.9904 H   0  0  0  0  0  0  0  0  0  0  0  0
  1  2  1  0  0  0  0
  1 23  1  0  0  0  0
  1 24  1  0  0  0  0
  1 25  1  0  0  0  0
  2  3  1  0  0  0  0
  2 26  1  0  0  0  0
  2 27  1  0  0  0  0
  3  4  1  0  0  0  0
  3 28  1  0  0  0  0
  3 29  1  0  0  0  0
  4  5  2  0  0  0  0
  4  6  1  0  0  0  0
  6 11  1  0  0  0  0
  6  7  1  0  0  0  0
  7  8  1  0  0  0  0
  7 30  1  0  0  0  0
  7 31  1  0  0  0  0
  8  9  1  0  0  0  0
  8 32  1  0  0  0  0
  8 33  1  0  0  0  0
  9 10  1  0  0  0  0
  9 34  1  0  0  0  0
  9 35  1  0  0  0  0
 10 11  1  0  0  0  0
 10 36  1  0  0  0  0
 10 37  1  0  0  0  0
 11 12  1  0  0  0  0
 11 38  1  0  0  0  0
 12 13  2  0  0  0  0
 12 14  1  0  0  0  0
 14 15  1  0  0  0  0
 14 39  1  0  0  0  0
 15 16  1  0  0  0  0
 15 40  1  0  0  0  0
 15 41  1  0  0  0  0
 16 17  1  0  0  0  0
 16 42  1  0  0  0  0
 16 43  1  0  0  0  0
 17 22  1  0  0  0  0
 17 18  2  0  0  0  0
 18 19  1  0  0  0  0
 18 44  1  0  0  0  0
 19 20  2  0  0  0  0
 19 45  1  0  0  0  0
 20 21  1  0  0  0  0
 20 46  1  0  0  0  0
 21 22  2  0  0  0  0
 22 47  1  0  0  0  0
M  END
> <s_m_source_file>
AV-unprocessed.smi

> <i_m_source_file_index>
1194

> <i_lp_mmshare_version>
43012

> <i_f3d_flags>
0

> <s_epik_input>
W0NIM11bQ0gyXVtDSDJdQyg9TylOMVtDSDJdW0NIMl1bQ0gyXVtDSDJdW0NASF0xQyg9TylbTkhdW0NIMl1bQ0gyXWMyW2NIXVtjSF1bY0hdbltjSF0y

> <s_epik_cmdline>
J2VwaWtfcHl0aG9uJywgJy1waCcsICc3LjAnLCAnLXRuJywgJzgnLCAnLW1hJywgJzIwMCcsICctbWV0YWxfYmluZGluZycsICctaW1hZScsICc8aW5maWxlLm1hZT4nLCAnLW9tYWUnLCAnPG91dGZpbGUubWFlPic=

> <r_epik_Ionization_Penalty>
0.0130932

> <r_epik_Ionization_Penalty_Charging>
0

> <r_epik_Ionization_Penalty_Neutral>
0.0130932

> <r_epik_State_Penalty>
0.0101714

> <r_epik_Charging_Adjusted_Penalty>
0.0101714

> <i_epik_Tot_Q>
0

> <i_epik_Tot_abs_Q>
0

> <r_epik_Metal_State_Penalty>
0.00995056

> <b_epik_Metal_Only>
0

> <s_lp_Force_Field>
OPLS_2005

> <r_lp_Energy>
24.5515

> <b_lp_Chiralities_Consistent>
1

> <s_lp_Variant>
AV-unprocessed.smi:1194-1

> <Gold.Version>
5.8.1

> <Gold.Id.Protein>
6NUR|6NUR_protein|mol2

> <Gold.PLP.Fitness>
48.9859

> <Gold.PLP.PLP>
-41.2161

> <Gold.PLP.part.hbond>
-2.6709

> <Gold.PLP.part.metal>
0.0000

> <Gold.PLP.part.buried>
-3.5596

> <Gold.PLP.part.nonpolar>
-39.6539

> <Gold.PLP.part.repulsive>
6.0992

> <Gold.PLP.ligand.clash>
0.0000

> <Gold.PLP.ligand.torsion>
0.7033

> <Gold.PLP.Chemscore.Hbond>
1.8678

> <Gold.PLP.Chemscore.CHOScore>
1.1583

> <Gold.PLP.Chemscore.Metal>
0.0000

> <Gold.Chemscore.Hbonds>
donor molecule, donor type, donor heavy atom, donor atom, acceptor molecule, acceptor atom, score
      L1  H    14    39       P1  8028  0.65
      P1  H  7954  7966       L1     5  0.46
      P1  H  7989  7998       L1    13  0.85
      L1  C    22    47       P1  8028  0.61
      L1  C    22    47       P1  8029  0.56

> <Gold.PLP.Chemscore.Internal.Correction>
0.0984

> <Gold.Rescore>
     Score         DG    S(hbond)    S(metal)    S(lipo)     H(rot)  DE(clash)    DE(int)     intcor
     13.82     -16.69       0.93        0.00     106.17       1.68       2.22       0.66       ----

> <Gold.Chemscore.Fitness>
13.8153

> <Gold.Chemscore.DG>
-16.6897

> <Gold.Chemscore.ZeroCoef>
-5.4800

> <Gold.Chemscore.Hbond>
0.9264

> <Gold.Chemscore.Metal>
0.0000

> <Gold.Chemscore.Lipo>
106.1727

> <Gold.Chemscore.Internal_Hbond>
0.0000

> <Gold.Chemscore.DEClash>
2.2173

> <Gold.Chemscore.DEInternal>
0.6571

> <Gold.Chemscore.Rot>
1.6823

> <Gold.Chemscore.Internal.Correction>
   9.000000E+99

> <Gold.Chemscore.Hbonds>
donor molecule, donor type, donor heavy atom, donor atom, acceptor molecule, acceptor atom, score
      L1  H    14    39       P1  8028  0.62
      P1  H  7954  7966       L1     5  0.45
      P1  H  7989  7998       L1    13  0.14

> <Gold.Chemscore.Hbond.Weighted>
-3.0943

> <Gold.Chemscore.Metal.Weighted>
-0.0000

> <Gold.Chemscore.Lipo.Weighted>
-12.4222

> <Gold.Chemscore.Internal_Hbond.Weighted>
0.0000

> <Gold.Chemscore.DEClash.Weighted>
2.2173

> <Gold.Chemscore.DEInternal.Weighted>
0.6571

> <Gold.Chemscore.Rot.Weighted>
4.3068

> <Gold.Chemscore.Internal.Correction.Weighted>
   9.000000E+99

> <Gold.Protein.RotatedTorsions>
[ 6907 6896 6895 6894 ] final -157.14 input  -60.11 | X-H torsion
[ 7974 7965 7964 7962 ] final  -11.34 input  175.53 | X-H torsion
[ 8008 7997 7996 7995 ] final -144.03 input   59.86 | X-H torsion
[ 10167 10162 10161 10158 ] final   62.26 input  -65.29 | X-H torsion
[ 10718 10713 10712 10709 ] final    8.64 input   66.30 | X-H torsion
[ 10763 10752 10751 10750 ] final -163.68 input  -60.55 | X-H torsion
[ 11005 11000 10999 10996 ] final   50.82 input  -57.11 | X-H torsion

> <Gold.Protein.ActiveResidues>
 VAL166  LYS551  ARG553  GLY616  TRP617  ASP618  TYR619  PRO620  LYS621  CYS622 
 ASP623  PHE694  ASN695  SER759  ASP760  ASP761  ALA762  ILE779  LEU786  VAL792 
 PHE793  MET794  SER795  GLU796  ALA797  LYS798  CYS799  TRP800  GLU811  SER814 

> <Gold.Protein.RotatedAtoms>
  151.2983  133.4134  159.2637 H   0  0  0  0  0  0  0  0  0  0  0  0  # atno 6907 bound_to 6896
  151.0218  134.9475  159.8074 H   0  0  0  0  0  0  0  0  0  0  0  0  # atno 6908 bound_to 6896
  152.5326  134.2946  159.9108 H   0  0  0  0  0  0  0  0  0  0  0  0  # atno 6909 bound_to 6896
  146.2190  140.2897  142.8367 H   0  0  0  0  0  0  0  0  0  0  0  0  # atno 7974 bound_to 7965
  155.5203  140.0591  157.2908 H   0  0  0  0  0  0  0  0  0  0  0  0  # atno 8008 bound_to 7997
  154.4520  140.1954  156.0437 H   0  0  0  0  0  0  0  0  0  0  0  0  # atno 8009 bound_to 7997
  156.0723  140.3258  155.7595 H   0  0  0  0  0  0  0  0  0  0  0  0  # atno 8010 bound_to 7997
  140.1459  144.4509  150.6785 H   0  0  0  0  0  0  0  0  0  0  0  0  # atno 10167 bound_to 10162
  156.9546  130.5910  149.5658 H   0  0  0  0  0  0  0  0  0  0  0  0  # atno 10718 bound_to 10713
  154.7100  135.3004  154.9212 H   0  0  0  0  0  0  0  0  0  0  0  0  # atno 10763 bound_to 10752
  154.0116  135.6694  153.4770 H   0  0  0  0  0  0  0  0  0  0  0  0  # atno 10764 bound_to 10752
  153.0747  135.5041  154.8293 H   0  0  0  0  0  0  0  0  0  0  0  0  # atno 10765 bound_to 10752
  140.0985  134.5113  155.8785 H   0  0  0  0  0  0  0  0  0  0  0  0  # atno 11005 bound_to 11000
  144.9136  140.7786  143.5792 LP  0  0  0  0  0  0  0  0  0  0  0  0  # atno 17320 bound_to 7965
  145.2829  139.1911  143.4781 LP  0  0  0  0  0  0  0  0  0  0  0  0  # atno 17321 bound_to 7965
  140.6732  143.2294  151.5573 LP  0  0  0  0  0  0  0  0  0  0  0  0  # atno 17342 bound_to 10162
  139.5449  144.2547  152.1423 LP  0  0  0  0  0  0  0  0  0  0  0  0  # atno 17343 bound_to 10162
  156.0348  130.5436  150.8626 LP  0  0  0  0  0  0  0  0  0  0  0  0  # atno 17370 bound_to 10713
  157.5699  131.0946  150.9433 LP  0  0  0  0  0  0  0  0  0  0  0  0  # atno 17371 bound_to 10713
  141.2099  133.6688  156.6470 LP  0  0  0  0  0  0  0  0  0  0  0  0  # atno 17394 bound_to 11000
  140.3253  134.7974  157.4284 LP  0  0  0  0  0  0  0  0  0  0  0  0  # atno 17395 bound_to 11000

$$$$
