AV-unprocessed.smi:1603|AV-procd|sdf|6444|dock5
  -GOLD-   22720 7 93D 1   1.00000     0.00000
 Structure written by MMmdl.
 45 47  0  0  0  0  0  0  0  0  2 V2000
  150.8534  139.0454  155.7271 O   0  0  0  0  0  0  0  0  0  0  0  0
  150.9658  140.1227  156.3126 C   0  0  0  0  0  0  0  0  0  0  0  0
  151.7357  140.2968  157.5536 C   0  0  0  0  0  0  0  0  0  0  0  0
  152.4031  139.0656  158.1608 C   0  0  0  0  0  0  0  0  0  0  0  0
  153.2765  138.5119  157.3185 F   0  0  0  0  0  0  0  0  0  0  0  0
  153.0604  139.3875  159.2754 F   0  0  0  0  0  0  0  0  0  0  0  0
  151.4897  138.1438  158.4669 F   0  0  0  0  0  0  0  0  0  0  0  0
  151.8305  141.5208  158.1279 C   0  0  0  0  0  0  0  0  0  0  0  0
  151.1773  142.6651  157.5246 C   0  0  0  0  0  0  0  0  0  0  0  0
  151.2467  144.0488  158.1042 C   0  0  0  0  0  0  0  0  0  0  0  0
  152.5539  144.7916  158.2614 C   0  0  0  0  0  0  0  0  0  0  0  0
  151.8083  144.3059  159.4830 C   0  0  0  0  0  0  0  0  0  0  0  0
  150.4991  142.5087  156.4378 N   0  0  0  0  0  0  0  0  0  0  0  0
  150.3841  141.2662  155.8454 N   0  0  0  0  0  0  0  0  0  0  0  0
  149.5826  141.2642  154.6151 C   0  0  0  0  0  0  0  0  0  0  0  0
  148.0731  141.1249  154.9128 C   0  0  1  0  0  0  0  0  0  0  0  0
  147.6943  142.1499  155.8114 O   0  0  0  0  0  0  0  0  0  0  0  0
  147.2239  141.3050  153.6375 C   0  0  0  0  0  0  0  0  0  0  0  0
  146.5754  140.0435  153.1961 N   0  3  0  0  0  0  0  0  0  0  0  0
  147.3295  139.3674  152.1136 C   0  0  0  0  0  0  0  0  0  0  0  0
  146.5872  138.1033  151.6483 C   0  0  0  0  0  0  0  0  0  0  0  0
  146.3845  137.2348  152.7559 O   0  0  0  0  0  0  0  0  0  0  0  0
  145.5871  137.8395  153.7664 C   0  0  0  0  0  0  0  0  0  0  0  0
  146.2964  139.0946  154.3027 C   0  0  0  0  0  0  0  0  0  0  0  0
  152.3910  141.6684  159.0388 H   0  0  0  0  0  0  0  0  0  0  0  0
  150.3811  144.6361  157.8034 H   0  0  0  0  0  0  0  0  0  0  0  0
  153.4770  144.2749  158.0053 H   0  0  0  0  0  0  0  0  0  0  0  0
  152.5490  145.8613  158.0632 H   0  0  0  0  0  0  0  0  0  0  0  0
  151.3081  145.0522  160.0967 H   0  0  0  0  0  0  0  0  0  0  0  0
  152.2340  143.4645  160.0268 H   0  0  0  0  0  0  0  0  0  0  0  0
  149.7874  142.1380  153.9931 H   0  0  0  0  0  0  0  0  0  0  0  0
  149.9093  140.4167  154.0093 H   0  0  0  0  0  0  0  0  0  0  0  0
  147.8766  140.1536  155.3663 H   0  0  0  0  0  0  0  0  0  0  0  0
  148.2023  142.9242  155.6173 H   0  0  0  0  0  0  0  0  0  0  0  0
  146.4605  142.0601  153.8336 H   0  0  0  0  0  0  0  0  0  0  0  0
  147.8335  141.6947  152.8207 H   0  0  0  0  0  0  0  0  0  0  0  0
  147.4575  140.0466  151.2699 H   0  0  0  0  0  0  0  0  0  0  0  0
  148.3272  139.1057  152.4698 H   0  0  0  0  0  0  0  0  0  0  0  0
  145.6301  138.3586  151.1902 H   0  0  0  0  0  0  0  0  0  0  0  0
  147.1729  137.5806  150.8919 H   0  0  0  0  0  0  0  0  0  0  0  0
  144.6014  138.0883  153.3697 H   0  0  0  0  0  0  0  0  0  0  0  0
  145.4337  137.1216  154.5721 H   0  0  0  0  0  0  0  0  0  0  0  0
  147.2318  138.8126  154.7888 H   0  0  0  0  0  0  0  0  0  0  0  0
  145.6707  139.5618  155.0619 H   0  0  0  0  0  0  0  0  0  0  0  0
  145.6850  140.3077  152.7978 H   0  0  0  0  0  0  0  0  0  0  0  0
  1  2  2  0  0  0  0
  2 14  1  0  0  0  0
  2  3  1  0  0  0  0
  3  4  1  0  0  0  0
  3  8  2  0  0  0  0
  4  5  1  0  0  0  0
  4  6  1  0  0  0  0
  4  7  1  0  0  0  0
  8  9  1  0  0  0  0
  8 25  1  0  0  0  0
  9 10  1  0  0  0  0
  9 13  2  0  0  0  0
 10 12  1  0  0  0  0
 10 11  1  0  0  0  0
 10 26  1  0  0  0  0
 11 12  1  0  0  0  0
 11 27  1  0  0  0  0
 11 28  1  0  0  0  0
 12 29  1  0  0  0  0
 12 30  1  0  0  0  0
 13 14  1  0  0  0  0
 14 15  1  0  0  0  0
 15 16  1  0  0  0  0
 15 31  1  0  0  0  0
 15 32  1  0  0  0  0
 16 17  1  0  0  0  0
 16 18  1  0  0  0  0
 16 33  1  0  0  0  0
 17 34  1  0  0  0  0
 18 19  1  0  0  0  0
 18 35  1  0  0  0  0
 18 36  1  0  0  0  0
 19 24  1  0  0  0  0
 19 20  1  0  0  0  0
 19 45  1  0  0  0  0
 20 21  1  0  0  0  0
 20 37  1  0  0  0  0
 20 38  1  0  0  0  0
 21 22  1  0  0  0  0
 21 39  1  0  0  0  0
 21 40  1  0  0  0  0
 22 23  1  0  0  0  0
 23 24  1  0  0  0  0
 23 41  1  0  0  0  0
 23 42  1  0  0  0  0
 24 43  1  0  0  0  0
 24 44  1  0  0  0  0
M  CHG  1  19   1
M  END
> <s_m_source_file>
AV-unprocessed.smi

> <i_m_source_file_index>
1603

> <i_lp_mmshare_version>
43012

> <i_f3d_flags>
0

> <s_epik_input>
Tz1jMWMoQyhGKShGKUYpW2NIXWMoW0NIXTJbQ0gyXVtDSDJdMilubjFbQ0gyXVtDQEhdKFtPSF0pW0NIMl1OM1tDSDJdW0NIMl1PW0NIMl1bQ0gyXTM=

> <s_epik_cmdline>
J2VwaWtfcHl0aG9uJywgJy1waCcsICc3LjAnLCAnLXRuJywgJzgnLCAnLW1hJywgJzIwMCcsICctbWV0YWxfYmluZGluZycsICctaW1hZScsICc8aW5maWxlLm1hZT4nLCAnLW9tYWUnLCAnPG91dGZpbGUubWFlPic=

> <r_lp_tautomer_probability>
1

> <r_epik_Ionization_Penalty>
0.373533

> <r_epik_Ionization_Penalty_Charging>
0.373533

> <r_epik_Ionization_Penalty_Neutral>
6.58334e-07

> <r_epik_State_Penalty>
0.37113

> <r_epik_Charging_Adjusted_Penalty>
0.744662

> <i_epik_Tot_Q>
1

> <i_epik_Tot_abs_Q>
1

> <r_epik_Metal_State_Penalty>
0.37113

> <b_epik_Metal_Only>
0

> <s_lp_Force_Field>
OPLS_2005

> <r_lp_Energy>
42.0637

> <b_lp_Chiralities_Consistent>
1

> <s_lp_Variant>
AV-unprocessed.smi:1603-2

> <Gold.Version>
5.8.1

> <Gold.Id.Protein>
6NUR|6NUR_protein|mol2

> <Gold.PLP.Fitness>
49.8858

> <Gold.PLP.PLP>
-44.6972

> <Gold.PLP.part.hbond>
-2.0000

> <Gold.PLP.part.metal>
0.0000

> <Gold.PLP.part.buried>
-2.7162

> <Gold.PLP.part.nonpolar>
-41.4973

> <Gold.PLP.part.repulsive>
1.8912

> <Gold.PLP.ligand.clash>
1.2014

> <Gold.PLP.ligand.torsion>
1.6450

> <Gold.PLP.Chemscore.Hbond>
3.0000

> <Gold.PLP.Chemscore.CHOScore>
0.0000

> <Gold.PLP.Chemscore.Metal>
0.0000

> <Gold.Chemscore.Hbonds>
donor molecule, donor type, donor heavy atom, donor atom, acceptor molecule, acceptor atom, score
      L1  H    17    34       P1  8028  1.00
      L1  H    19    45       P1 10175  2.00

> <Gold.PLP.Chemscore.Internal.Correction>
0.6801

> <Gold.Rescore>
     Score         DG    S(hbond)    S(metal)    S(lipo)     H(rot)  DE(clash)    DE(int)     intcor
     14.43     -17.57       1.91        0.00     103.90       2.52       0.09       3.05       ----

> <Gold.Chemscore.Fitness>
14.4257

> <Gold.Chemscore.DG>
-17.5652

> <Gold.Chemscore.ZeroCoef>
-5.4800

> <Gold.Chemscore.Hbond>
1.9070

> <Gold.Chemscore.Metal>
0.0000

> <Gold.Chemscore.Lipo>
103.9045

> <Gold.Chemscore.Internal_Hbond>
0.0000

> <Gold.Chemscore.DEClash>
0.0859

> <Gold.Chemscore.DEInternal>
3.0536

> <Gold.Chemscore.Rot>
2.5160

> <Gold.Chemscore.Internal.Correction>
   9.000000E+99

> <Gold.Chemscore.Hbonds>
donor molecule, donor type, donor heavy atom, donor atom, acceptor molecule, acceptor atom, score
      L1  H    17    34       P1  8028  0.94
      L1  H    19    45       P1 10175  0.82

> <Gold.Chemscore.Hbond.Weighted>
-6.3694

> <Gold.Chemscore.Metal.Weighted>
-0.0000

> <Gold.Chemscore.Lipo.Weighted>
-12.1568

> <Gold.Chemscore.Internal_Hbond.Weighted>
0.0000

> <Gold.Chemscore.DEClash.Weighted>
0.0859

> <Gold.Chemscore.DEInternal.Weighted>
3.0536

> <Gold.Chemscore.Rot.Weighted>
6.4411

> <Gold.Chemscore.Internal.Correction.Weighted>
   9.000000E+99

> <Gold.Protein.RotatedTorsions>
[ 6907 6896 6895 6894 ] final  -57.64 input  -60.11 | X-H torsion
[ 7974 7965 7964 7962 ] final   89.55 input  175.53 | X-H torsion
[ 8008 7997 7996 7995 ] final -112.90 input   59.86 | X-H torsion
[ 10167 10162 10161 10158 ] final   47.70 input  -65.29 | X-H torsion
[ 10718 10713 10712 10709 ] final  172.12 input   66.30 | X-H torsion
[ 10763 10752 10751 10750 ] final  168.95 input  -60.55 | X-H torsion
[ 11005 11000 10999 10996 ] final  138.65 input  -57.11 | X-H torsion

> <Gold.Protein.ActiveResidues>
 VAL166  LYS551  ARG553  GLY616  TRP617  ASP618  TYR619  PRO620  LYS621  CYS622 
 ASP623  PHE694  ASN695  SER759  ASP760  ASP761  ALA762  ILE779  LEU786  VAL792 
 PHE793  MET794  SER795  GLU796  ALA797  LYS798  CYS799  TRP800  GLU811  SER814 

> <Gold.Protein.RotatedAtoms>
  150.8070  134.7201  159.6652 H   0  0  0  0  0  0  0  0  0  0  0  0  # atno 6907 bound_to 6896
  152.4189  134.5987  160.0004 H   0  0  0  0  0  0  0  0  0  0  0  0  # atno 6908 bound_to 6896
  151.6208  133.3302  159.3123 H   0  0  0  0  0  0  0  0  0  0  0  0  # atno 6909 bound_to 6896
  145.5308  139.2283  143.2620 H   0  0  0  0  0  0  0  0  0  0  0  0  # atno 7974 bound_to 7965
  155.0123  140.0393  157.2404 H   0  0  0  0  0  0  0  0  0  0  0  0  # atno 8008 bound_to 7997
  154.7449  140.2756  155.6318 H   0  0  0  0  0  0  0  0  0  0  0  0  # atno 8009 bound_to 7997
  156.2872  140.2658  156.2187 H   0  0  0  0  0  0  0  0  0  0  0  0  # atno 8010 bound_to 7997
  140.3009  144.2935  150.6219 H   0  0  0  0  0  0  0  0  0  0  0  0  # atno 10167 bound_to 10162
  156.9836  131.0126  151.2875 H   0  0  0  0  0  0  0  0  0  0  0  0  # atno 10718 bound_to 10713
  154.3760  135.2753  155.2239 H   0  0  0  0  0  0  0  0  0  0  0  0  # atno 10763 bound_to 10752
  154.4366  135.5964  153.6106 H   0  0  0  0  0  0  0  0  0  0  0  0  # atno 10764 bound_to 10752
  152.9836  135.6008  154.3997 H   0  0  0  0  0  0  0  0  0  0  0  0  # atno 10765 bound_to 10752
  140.0199  134.9401  157.0452 H   0  0  0  0  0  0  0  0  0  0  0  0  # atno 11005 bound_to 11000
  146.2045  140.6124  142.9087 LP  0  0  0  0  0  0  0  0  0  0  0  0  # atno 17320 bound_to 7965
  144.7627  140.5459  143.6724 LP  0  0  0  0  0  0  0  0  0  0  0  0  # atno 17321 bound_to 7965
  140.5652  143.2187  151.7696 LP  0  0  0  0  0  0  0  0  0  0  0  0  # atno 17342 bound_to 10162
  139.4915  144.4294  151.9889 LP  0  0  0  0  0  0  0  0  0  0  0  0  # atno 17343 bound_to 10162
  157.5509  130.8181  149.8143 LP  0  0  0  0  0  0  0  0  0  0  0  0  # atno 17370 bound_to 10713
  156.0235  130.3787  150.1892 LP  0  0  0  0  0  0  0  0  0  0  0  0  # atno 17371 bound_to 10713
  140.4406  134.1685  155.7173 LP  0  0  0  0  0  0  0  0  0  0  0  0  # atno 17394 bound_to 11000
  141.1767  133.8499  157.1398 LP  0  0  0  0  0  0  0  0  0  0  0  0  # atno 17395 bound_to 11000

$$$$
