AV-unprocessed.smi:287|AV-procd|sdf|2203|dock2
  -GOLD-   2262022 23D 1   1.00000     0.00000
 Structure written by MMmdl.
 55 58  0  0  0  0  0  0  0  0  1 V2000
  151.7991  143.0659  158.2058 C   0  0  0  0  0  0  0  0  0  0  0  0
  151.2684  142.0727  157.2297 C   0  0  0  0  0  0  0  0  0  0  0  0
  150.2293  142.0798  156.3455 C   0  0  0  0  0  0  0  0  0  0  0  0
  150.2249  140.8164  155.6821 C   0  0  0  0  0  0  0  0  0  0  0  0
  149.2424  140.3758  154.6054 C   0  0  1  0  0  0  0  0  0  0  0  0
  147.8080  140.7234  155.0372 C   0  0  0  0  0  0  0  0  0  0  0  0
  149.4359  141.0482  153.3761 O   0  0  0  0  0  0  0  0  0  0  0  0
  149.3505  138.8668  154.2871 C   0  0  0  0  0  0  0  0  0  0  0  0
  148.4231  138.4376  153.2483 N   0  0  0  0  0  0  0  0  0  0  0  0
  147.6271  137.3617  153.4232 C   0  0  0  0  0  0  0  0  0  0  0  0
  147.6284  136.8381  154.6714 N   0  0  0  0  0  0  0  0  0  0  0  0
  146.8812  135.7680  154.9500 C   0  0  0  0  0  0  0  0  0  0  0  0
  146.0742  135.0833  154.1399 N   0  0  0  0  0  0  0  0  0  0  0  0
  146.0538  135.6049  152.8781 C   0  0  0  0  0  0  0  0  0  0  0  0
  146.8046  136.7356  152.4386 C   0  0  0  0  0  0  0  0  0  0  0  0
  146.5465  136.9608  151.0918 N   0  0  0  0  0  0  0  0  0  0  0  0
  145.7039  136.0223  150.7616 C   0  0  0  0  0  0  0  0  0  0  0  0
  145.3275  135.1743  151.7799 N   0  0  0  0  0  0  0  0  0  0  0  0
  144.3976  133.9938  151.6737 C   0  0  1  0  0  0  0  0  0  0  0  0
  143.6750  134.0763  150.4838 O   0  0  0  0  0  0  0  0  0  0  0  0
  144.3567  133.3530  149.4670 C   0  0  2  0  0  0  0  0  0  0  0  0
  143.4464  133.1038  148.2520 C   0  0  0  0  0  0  0  0  0  0  0  0
  143.4425  134.2373  147.4106 O   0  0  0  0  0  0  0  0  0  0  0  0
  144.8034  132.1044  150.2359 C   0  0  2  0  0  0  0  0  0  0  0  0
  143.7389  131.1713  150.3318 O   0  0  0  0  0  0  0  0  0  0  0  0
  145.2089  132.6825  151.5938 C   0  0  2  0  0  0  0  0  0  0  0  0
  144.9526  131.7971  152.6686 O   0  0  0  0  0  0  0  0  0  0  0  0
  151.2894  140.1340  156.2211 C   0  0  0  0  0  0  0  0  0  0  0  0
  151.8772  138.7801  155.9934 C   0  0  0  0  0  0  0  0  0  0  0  0
  151.9249  140.8873  157.1615 O   0  0  0  0  0  0  0  0  0  0  0  0
  143.7459  134.0793  152.5438 H   0  0  0  0  0  0  0  0  0  0  0  0
  145.2461  133.9086  149.1618 H   0  0  0  0  0  0  0  0  0  0  0  0
  145.6425  131.6096  149.7457 H   0  0  0  0  0  0  0  0  0  0  0  0
  146.2759  132.9081  151.5746 H   0  0  0  0  0  0  0  0  0  0  0  0
  151.0912  143.8815  158.3542 H   0  0  0  0  0  0  0  0  0  0  0  0
  152.7369  143.4928  157.8504 H   0  0  0  0  0  0  0  0  0  0  0  0
  151.9839  142.5995  159.1737 H   0  0  0  0  0  0  0  0  0  0  0  0
  149.5433  142.8997  156.1926 H   0  0  0  0  0  0  0  0  0  0  0  0
  147.5402  140.2170  155.9654 H   0  0  0  0  0  0  0  0  0  0  0  0
  147.0788  140.4274  154.2819 H   0  0  0  0  0  0  0  0  0  0  0  0
  147.6936  141.7951  155.2046 H   0  0  0  0  0  0  0  0  0  0  0  0
  149.2613  140.4421  152.6724 H   0  0  0  0  0  0  0  0  0  0  0  0
  150.3572  138.6613  153.9210 H   0  0  0  0  0  0  0  0  0  0  0  0
  149.2131  138.2712  155.1908 H   0  0  0  0  0  0  0  0  0  0  0  0
  148.4340  138.9862  152.4002 H   0  0  0  0  0  0  0  0  0  0  0  0
  146.9366  135.4089  155.9670 H   0  0  0  0  0  0  0  0  0  0  0  0
  145.3264  135.9246  149.7542 H   0  0  0  0  0  0  0  0  0  0  0  0
  143.8221  132.2638  147.6670 H   0  0  0  0  0  0  0  0  0  0  0  0
  142.4291  132.8587  148.5594 H   0  0  0  0  0  0  0  0  0  0  0  0
  144.3371  134.5034  147.2620 H   0  0  0  0  0  0  0  0  0  0  0  0
  143.6817  130.8770  151.2283 H   0  0  0  0  0  0  0  0  0  0  0  0
  144.0351  131.5712  152.6601 H   0  0  0  0  0  0  0  0  0  0  0  0
  152.1536  138.6499  154.9472 H   0  0  0  0  0  0  0  0  0  0  0  0
  151.1627  138.0000  156.2555 H   0  0  0  0  0  0  0  0  0  0  0  0
  152.7724  138.6305  156.5974 H   0  0  0  0  0  0  0  0  0  0  0  0
  1  2  1  0  0  0  0
  1 35  1  0  0  0  0
  1 36  1  0  0  0  0
  1 37  1  0  0  0  0
  2 30  1  0  0  0  0
  2  3  2  0  0  0  0
  3  4  1  0  0  0  0
  3 38  1  0  0  0  0
  4  5  1  0  0  0  0
  4 28  2  0  0  0  0
  5  6  1  0  0  0  0
  5  7  1  0  0  0  0
  5  8  1  0  0  0  0
  6 39  1  0  0  0  0
  6 40  1  0  0  0  0
  6 41  1  0  0  0  0
  7 42  1  0  0  0  0
  8  9  1  0  0  0  0
  8 43  1  0  0  0  0
  8 44  1  0  0  0  0
  9 10  1  0  0  0  0
  9 45  1  0  0  0  0
 10 15  1  0  0  0  0
 10 11  2  0  0  0  0
 11 12  1  0  0  0  0
 12 13  2  0  0  0  0
 12 46  1  0  0  0  0
 13 14  1  0  0  0  0
 14 18  1  0  0  0  0
 14 15  2  0  0  0  0
 15 16  1  0  0  0  0
 16 17  2  0  0  0  0
 17 18  1  0  0  0  0
 17 47  1  0  0  0  0
 18 19  1  0  0  0  0
 19 31  1  0  0  0  0
 19 26  1  0  0  0  0
 19 20  1  0  0  0  0
 20 21  1  0  0  0  0
 21 32  1  0  0  0  0
 21 22  1  0  0  0  0
 21 24  1  0  0  0  0
 22 23  1  0  0  0  0
 22 48  1  0  0  0  0
 22 49  1  0  0  0  0
 23 50  1  0  0  0  0
 24 33  1  0  0  0  0
 24 25  1  0  0  0  0
 24 26  1  0  0  0  0
 25 51  1  0  0  0  0
 26 34  1  0  0  0  0
 26 27  1  0  0  0  0
 27 52  1  0  0  0  0
 28 29  1  0  0  0  0
 28 30  1  0  0  0  0
 29 53  1  0  0  0  0
 29 54  1  0  0  0  0
 29 55  1  0  0  0  0
M  END
> <s_m_source_file>
AV-unprocessed.smi

> <i_m_source_file_index>
287

> <i_lp_mmshare_version>
43012

> <i_f3d_flags>
0

> <s_epik_input>
W0NIM11jMVtjSF1jKGMobzEpW0NIM10pW0NAQF0oW0NIM10pKFtPSF0pW0NIMl1bTkhdYyhuW2NIXW4yKWMoYzIzKW5bY0hdbjNbQ0BASF00T1tDQEhdKFtDSDJdW09IXSlbQ0BASF0oW09IXSlbQ0BIXTRbT0hd

> <s_epik_cmdline>
J2VwaWtfcHl0aG9uJywgJy1waCcsICc3LjAnLCAnLXRuJywgJzgnLCAnLW1hJywgJzIwMCcsICctbWV0YWxfYmluZGluZycsICctaW1hZScsICc8aW5maWxlLm1hZT4nLCAnLW9tYWUnLCAnPG91dGZpbGUubWFlPic=

> <r_lp_tautomer_probability>
1

> <r_epik_Ionization_Penalty>
0.000992612

> <r_epik_Ionization_Penalty_Charging>
0

> <r_epik_Ionization_Penalty_Neutral>
0.000992612

> <r_epik_State_Penalty>
-0

> <r_epik_Charging_Adjusted_Penalty>
0

> <i_epik_Tot_Q>
0

> <i_epik_Tot_abs_Q>
0

> <r_epik_Metal_State_Penalty>
-0

> <b_epik_Metal_Only>
0

> <s_epik_Chemistry_Notes>
This compound contains an acetal/aminal-like group ( X-CH(R)-Y where X, Y are N, S, or O) that may be acid/base labile, releasing an aldehyde.

> <s_lp_Force_Field>
OPLS_2005

> <r_lp_Energy>
46.8376

> <b_lp_Chiralities_Consistent>
1

> <s_lp_Variant>
AV-unprocessed.smi:287-27

> <Gold.Version>
5.8.1

> <Gold.Id.Protein>
6NUR|6NUR_protein|mol2

> <Gold.PLP.Fitness>
53.4052

> <Gold.PLP.PLP>
-33.8695

> <Gold.PLP.part.hbond>
-11.1647

> <Gold.PLP.part.metal>
0.0000

> <Gold.PLP.part.buried>
13.7760

> <Gold.PLP.part.nonpolar>
-41.2546

> <Gold.PLP.part.repulsive>
5.7867

> <Gold.PLP.ligand.clash>
0.0000

> <Gold.PLP.ligand.torsion>
1.0740

> <Gold.PLP.Chemscore.Hbond>
6.1683

> <Gold.PLP.Chemscore.CHOScore>
1.0000

> <Gold.PLP.Chemscore.Metal>
0.0000

> <Gold.Chemscore.Hbonds>
donor molecule, donor type, donor heavy atom, donor atom, acceptor molecule, acceptor atom, score
      L1  H     7    42       P1  7957  0.90
      L1  H     9    45       P1  7957  0.90
      L1  H    23    50       P1  7921  1.00
      P1  H  7954  7966       L1    16  0.57
      P1  H  7989  7998       L1     7  0.10
      P1  H  8011  8017       L1     7  0.75
      P1  H 10192 10197       L1    23  1.00
      P1  H 10785 10796       L1    25  0.70
      L1  C    17    47       P1  7921  1.00

> <Gold.PLP.Chemscore.Internal.Correction>
0.1786

> <Gold.Rescore>
     Score         DG    S(hbond)    S(metal)    S(lipo)     H(rot)  DE(clash)    DE(int)     intcor
     11.59     -21.22       5.02        0.00     106.32       5.27       7.95       1.68       ----

> <Gold.Chemscore.Fitness>
11.5856

> <Gold.Chemscore.DG>
-21.2158

> <Gold.Chemscore.ZeroCoef>
-5.4800

> <Gold.Chemscore.Hbond>
5.0242

> <Gold.Chemscore.Metal>
0.0000

> <Gold.Chemscore.Lipo>
106.3156

> <Gold.Chemscore.Internal_Hbond>
0.0000

> <Gold.Chemscore.DEClash>
7.9483

> <Gold.Chemscore.DEInternal>
1.6820

> <Gold.Chemscore.Rot>
5.2672

> <Gold.Chemscore.Internal.Correction>
   9.000000E+99

> <Gold.Chemscore.Hbonds>
donor molecule, donor type, donor heavy atom, donor atom, acceptor molecule, acceptor atom, score
      L1  H     7    42       P1  7957  0.87
      L1  H     9    45       P1  7957  0.85
      L1  H    23    50       P1  7921  1.00
      P1  H  7954  7966       L1    16  0.54
      P1  H  8011  8017       L1     7  0.09
      P1  H 10192 10197       L1    23  0.99
      P1  H 10785 10796       L1    25  0.67

> <Gold.Chemscore.Hbond.Weighted>
-16.7808

> <Gold.Chemscore.Metal.Weighted>
-0.0000

> <Gold.Chemscore.Lipo.Weighted>
-12.4389

> <Gold.Chemscore.Internal_Hbond.Weighted>
0.0000

> <Gold.Chemscore.DEClash.Weighted>
7.9483

> <Gold.Chemscore.DEInternal.Weighted>
1.6820

> <Gold.Chemscore.Rot.Weighted>
13.4839

> <Gold.Chemscore.Internal.Correction.Weighted>
   9.000000E+99

> <Gold.Protein.RotatedTorsions>
[ 6907 6896 6895 6894 ] final   44.77 input  -60.11 | X-H torsion
[ 7974 7965 7964 7962 ] final   67.28 input  175.53 | X-H torsion
[ 8008 7997 7996 7995 ] final  112.02 input   59.86 | X-H torsion
[ 10167 10162 10161 10158 ] final  126.96 input  -65.29 | X-H torsion
[ 10718 10713 10712 10709 ] final  151.56 input   66.30 | X-H torsion
[ 10763 10752 10751 10750 ] final   90.29 input  -60.55 | X-H torsion
[ 11005 11000 10999 10996 ] final  110.40 input  -57.11 | X-H torsion

> <Gold.Protein.ActiveResidues>
 VAL166  LYS551  ARG553  GLY616  TRP617  ASP618  TYR619  PRO620  LYS621  CYS622 
 ASP623  PHE694  ASN695  SER759  ASP760  ASP761  ALA762  ILE779  LEU786  VAL792 
 PHE793  MET794  SER795  GLU796  ALA797  LYS798  CYS799  TRP800  GLU811  SER814 

> <Gold.Protein.RotatedAtoms>
  152.2365  134.8271  160.0466 H   0  0  0  0  0  0  0  0  0  0  0  0  # atno 6907 bound_to 6896
  151.9001  133.3531  159.3836 H   0  0  0  0  0  0  0  0  0  0  0  0  # atno 6908 bound_to 6896
  150.7041  134.4763  159.5493 H   0  0  0  0  0  0  0  0  0  0  0  0  # atno 6909 bound_to 6896
  145.8165  139.3061  143.1068 H   0  0  0  0  0  0  0  0  0  0  0  0  # atno 7974 bound_to 7965
  156.2164  140.3008  155.9849 H   0  0  0  0  0  0  0  0  0  0  0  0  # atno 8008 bound_to 7997
  155.2595  140.0429  157.3013 H   0  0  0  0  0  0  0  0  0  0  0  0  # atno 8009 bound_to 7997
  154.5774  140.2365  155.8111 H   0  0  0  0  0  0  0  0  0  0  0  0  # atno 8010 bound_to 7997
  139.5603  144.6877  151.4062 H   0  0  0  0  0  0  0  0  0  0  0  0  # atno 10167 bound_to 10162
  157.2691  131.0813  151.1612 H   0  0  0  0  0  0  0  0  0  0  0  0  # atno 10718 bound_to 10713
  153.1960  135.4439  155.0208 H   0  0  0  0  0  0  0  0  0  0  0  0  # atno 10763 bound_to 10752
  154.8119  135.3298  154.7284 H   0  0  0  0  0  0  0  0  0  0  0  0  # atno 10764 bound_to 10752
  153.7734  135.6983  153.4957 H   0  0  0  0  0  0  0  0  0  0  0  0  # atno 10765 bound_to 10752
  139.8881  134.9483  156.6272 H   0  0  0  0  0  0  0  0  0  0  0  0  # atno 11005 bound_to 11000
  145.9721  140.8752  143.0157 LP  0  0  0  0  0  0  0  0  0  0  0  0  # atno 17320 bound_to 7965
  144.6752  140.1960  143.7392 LP  0  0  0  0  0  0  0  0  0  0  0  0  # atno 17321 bound_to 7965
  140.6882  143.7924  150.7216 LP  0  0  0  0  0  0  0  0  0  0  0  0  # atno 17342 bound_to 10162
  140.1398  143.4451  152.2201 LP  0  0  0  0  0  0  0  0  0  0  0  0  # atno 17343 bound_to 10162
  157.3091  130.6881  149.6206 LP  0  0  0  0  0  0  0  0  0  0  0  0  # atno 17370 bound_to 10713
  155.9663  130.4369  150.5152 LP  0  0  0  0  0  0  0  0  0  0  0  0  # atno 17371 bound_to 10713
  140.7694  133.8751  155.8480 LP  0  0  0  0  0  0  0  0  0  0  0  0  # atno 17394 bound_to 11000
  140.9855  134.1349  157.4456 LP  0  0  0  0  0  0  0  0  0  0  0  0  # atno 17395 bound_to 11000

$$$$
