AV-unprocessed.smi:1157|AV-procd|sdf|4909|dock8
  -GOLD-   22720 3483D 1   1.00000     0.00000
 Structure written by MMmdl.
 56 58  0  0  0  0  0  0  0  0  3 V2000
  145.0937  137.4148  154.4575 C   0  0  0  0  0  0  0  0  0  0  0  0
  145.0586  137.2018  152.9204 C   0  0  0  0  0  0  0  0  0  0  0  0
  143.6364  137.5578  152.4231 C   0  0  0  0  0  0  0  0  0  0  0  0
  146.1027  138.1604  152.2692 C   0  0  0  0  0  0  0  0  0  0  0  0
  147.3546  138.2786  153.0180 N   0  0  0  0  0  0  0  0  0  0  0  0
  147.7296  139.3419  153.7438 C   0  0  0  0  0  0  0  0  0  0  0  0
  147.0572  140.3680  153.8427 O   0  0  0  0  0  0  0  0  0  0  0  0
  148.9308  139.1451  154.3138 N   0  0  0  0  0  0  0  0  0  0  0  0
  149.6563  140.0238  155.1627 C   0  0  0  0  0  0  0  0  0  0  0  0
  150.8165  139.6491  155.8841 C   0  0  0  0  0  0  0  0  0  0  0  0
  151.4749  140.6036  156.6866 C   0  0  0  0  0  0  0  0  0  0  0  0
  150.9760  141.9254  156.7600 C   0  0  0  0  0  0  0  0  0  0  0  0
  151.5854  142.9281  157.5378 N   0  0  0  0  0  0  0  0  0  0  0  0
  150.9378  144.2091  157.7722 C   0  0  0  0  0  0  0  0  0  0  0  0
  151.8378  144.9163  158.7844 C   0  0  0  0  0  0  0  0  0  0  0  0
  152.3954  143.7620  159.6176 C   0  0  0  0  0  0  0  0  0  0  0  0
  152.4949  142.5967  158.6259 C   0  0  0  0  0  0  0  0  0  0  0  0
  149.8750  142.2413  156.0371 N   0  3  0  0  0  0  0  0  0  0  0  0
  149.2148  141.3594  155.2560 C   0  0  0  0  0  0  0  0  0  0  0  0
  145.4226  135.7777  152.5704 N   0  3  0  0  0  0  0  0  0  0  0  0
  144.6885  134.7087  153.3088 C   0  0  0  0  0  0  0  0  0  0  0  0
  145.2510  133.3170  152.9691 C   0  0  0  0  0  0  0  0  0  0  0  0
  145.2001  133.0981  151.5674 O   0  0  0  0  0  0  0  0  0  0  0  0
  145.9874  134.0476  150.8648 C   0  0  0  0  0  0  0  0  0  0  0  0
  145.4264  135.4566  151.1133 C   0  0  0  0  0  0  0  0  0  0  0  0
  144.9224  138.4546  154.7337 H   0  0  0  0  0  0  0  0  0  0  0  0
  146.0557  137.1217  154.8799 H   0  0  0  0  0  0  0  0  0  0  0  0
  144.3111  136.8570  154.9715 H   0  0  0  0  0  0  0  0  0  0  0  0
  143.3339  138.5487  152.7636 H   0  0  0  0  0  0  0  0  0  0  0  0
  142.8892  136.8563  152.7936 H   0  0  0  0  0  0  0  0  0  0  0  0
  143.5721  137.5690  151.3349 H   0  0  0  0  0  0  0  0  0  0  0  0
  146.2927  137.8576  151.2379 H   0  0  0  0  0  0  0  0  0  0  0  0
  145.7199  139.1774  152.2118 H   0  0  0  0  0  0  0  0  0  0  0  0
  147.9764  137.4836  152.9864 H   0  0  0  0  0  0  0  0  0  0  0  0
  149.4056  138.2886  154.0681 H   0  0  0  0  0  0  0  0  0  0  0  0
  151.2258  138.6523  155.8267 H   0  0  0  0  0  0  0  0  0  0  0  0
  152.3623  140.3108  157.2280 H   0  0  0  0  0  0  0  0  0  0  0  0
  150.8363  144.7848  156.8517 H   0  0  0  0  0  0  0  0  0  0  0  0
  149.9438  144.0441  158.1906 H   0  0  0  0  0  0  0  0  0  0  0  0
  152.6526  145.4228  158.2651 H   0  0  0  0  0  0  0  0  0  0  0  0
  151.3055  145.6573  159.3815 H   0  0  0  0  0  0  0  0  0  0  0  0
  153.3498  143.9990  160.0885 H   0  0  0  0  0  0  0  0  0  0  0  0
  151.6868  143.5094  160.4076 H   0  0  0  0  0  0  0  0  0  0  0  0
  152.2376  141.6530  159.1080 H   0  0  0  0  0  0  0  0  0  0  0  0
  153.5063  142.5143  158.2264 H   0  0  0  0  0  0  0  0  0  0  0  0
  148.3518  141.7495  154.7360 H   0  0  0  0  0  0  0  0  0  0  0  0
  144.7818  134.8264  154.3868 H   0  0  0  0  0  0  0  0  0  0  0  0
  143.6258  134.7485  153.0673 H   0  0  0  0  0  0  0  0  0  0  0  0
  146.2766  133.2146  153.3275 H   0  0  0  0  0  0  0  0  0  0  0  0
  144.6640  132.5444  153.4664 H   0  0  0  0  0  0  0  0  0  0  0  0
  147.0323  133.9804  151.1726 H   0  0  0  0  0  0  0  0  0  0  0  0
  145.9535  133.8129  149.8008 H   0  0  0  0  0  0  0  0  0  0  0  0
  144.4132  135.5075  150.7138 H   0  0  0  0  0  0  0  0  0  0  0  0
  146.0299  136.1599  150.5445 H   0  0  0  0  0  0  0  0  0  0  0  0
  146.3827  135.6807  152.8695 H   0  0  0  0  0  0  0  0  0  0  0  0
  149.5244  143.1981  156.0846 H   0  0  0  0  0  0  0  0  0  0  0  0
  1  2  1  0  0  0  0
  1 26  1  0  0  0  0
  1 27  1  0  0  0  0
  1 28  1  0  0  0  0
  2  3  1  0  0  0  0
  2  4  1  0  0  0  0
  2 20  1  0  0  0  0
  3 29  1  0  0  0  0
  3 30  1  0  0  0  0
  3 31  1  0  0  0  0
  4  5  1  0  0  0  0
  4 32  1  0  0  0  0
  4 33  1  0  0  0  0
  5  6  1  0  0  0  0
  5 34  1  0  0  0  0
  6  7  2  0  0  0  0
  6  8  1  0  0  0  0
  8  9  1  0  0  0  0
  8 35  1  0  0  0  0
  9 19  1  0  0  0  0
  9 10  2  0  0  0  0
 10 11  1  0  0  0  0
 10 36  1  0  0  0  0
 11 12  2  0  0  0  0
 11 37  1  0  0  0  0
 12 13  1  0  0  0  0
 12 18  1  0  0  0  0
 13 17  1  0  0  0  0
 13 14  1  0  0  0  0
 14 15  1  0  0  0  0
 14 38  1  0  0  0  0
 14 39  1  0  0  0  0
 15 16  1  0  0  0  0
 15 40  1  0  0  0  0
 15 41  1  0  0  0  0
 16 17  1  0  0  0  0
 16 42  1  0  0  0  0
 16 43  1  0  0  0  0
 17 44  1  0  0  0  0
 17 45  1  0  0  0  0
 18 19  2  0  0  0  0
 18 56  1  0  0  0  0
 19 46  1  0  0  0  0
 20 25  1  0  0  0  0
 20 21  1  0  0  0  0
 20 55  1  0  0  0  0
 21 22  1  0  0  0  0
 21 47  1  0  0  0  0
 21 48  1  0  0  0  0
 22 23  1  0  0  0  0
 22 49  1  0  0  0  0
 22 50  1  0  0  0  0
 23 24  1  0  0  0  0
 24 25  1  0  0  0  0
 24 51  1  0  0  0  0
 24 52  1  0  0  0  0
 25 53  1  0  0  0  0
 25 54  1  0  0  0  0
M  CHG  1  18   1
M  CHG  1  20   1
M  END
> <s_m_source_file>
AV-unprocessed.smi

> <i_m_source_file_index>
1157

> <i_lp_mmshare_version>
43012

> <i_f3d_flags>
0

> <s_epik_input>
W0NIMl0xW0NIMl1PW0NIMl1bQ0gyXU4xQyhbQ0gzXSkoW0NIM10pW0NIMl1bTkhdQyg9TylbTkhdYzJbY0hdW2NIXWMobltjSF0yKU4zW0NIMl1bQ0gyXVtDSDJdW0NIMl0z

> <s_epik_cmdline>
J2VwaWtfcHl0aG9uJywgJy1waCcsICc3LjAnLCAnLXRuJywgJzgnLCAnLW1hJywgJzIwMCcsICctbWV0YWxfYmluZGluZycsICctaW1hZScsICc8aW5maWxlLm1hZT4nLCAnLW9tYWUnLCAnPG91dGZpbGUubWFlPic=

> <r_lp_tautomer_probability>
0.999994

> <r_epik_Ionization_Penalty>
1.80144

> <r_epik_Ionization_Penalty_Charging>
1.80142

> <r_epik_Ionization_Penalty_Neutral>
2.04065e-05

> <r_epik_State_Penalty>
1.84115

> <r_epik_Charging_Adjusted_Penalty>
3.64257

> <i_epik_Tot_Q>
2

> <i_epik_Tot_abs_Q>
2

> <r_epik_Metal_State_Penalty>
1.92436

> <b_epik_Metal_Only>
0

> <s_lp_Force_Field>
OPLS_2005

> <r_lp_Energy>
58.4852

> <b_lp_Chiralities_Consistent>
1

> <s_lp_Variant>
AV-unprocessed.smi:1157-4

> <Gold.Version>
5.8.1

> <Gold.Id.Protein>
6NUR|6NUR_protein|mol2

> <Gold.PLP.Fitness>
49.9192

> <Gold.PLP.PLP>
-42.0010

> <Gold.PLP.part.hbond>
-2.0000

> <Gold.PLP.part.metal>
0.0000

> <Gold.PLP.part.buried>
-4.1866

> <Gold.PLP.part.nonpolar>
-35.6870

> <Gold.PLP.part.repulsive>
0.4388

> <Gold.PLP.ligand.clash>
0.0000

> <Gold.PLP.ligand.torsion>
0.6013

> <Gold.PLP.Chemscore.Hbond>
2.9280

> <Gold.PLP.Chemscore.CHOScore>
0.0000

> <Gold.PLP.Chemscore.Metal>
0.0000

> <Gold.Chemscore.Hbonds>
donor molecule, donor type, donor heavy atom, donor atom, acceptor molecule, acceptor atom, score
      L1  H     5    34       P1  7948  0.91
      L1  H    18    56       P1  8028  2.00

> <Gold.PLP.Chemscore.Internal.Correction>
0.3368

> <Gold.Rescore>
     Score         DG    S(hbond)    S(metal)    S(lipo)     H(rot)  DE(clash)    DE(int)     intcor
     17.81     -20.38       1.91        0.00     104.62       1.45       0.12       2.45       ----

> <Gold.Chemscore.Fitness>
17.8131

> <Gold.Chemscore.DG>
-20.3829

> <Gold.Chemscore.ZeroCoef>
-5.4800

> <Gold.Chemscore.Hbond>
1.9053

> <Gold.Chemscore.Metal>
0.0000

> <Gold.Chemscore.Lipo>
104.6202

> <Gold.Chemscore.Internal_Hbond>
0.0000

> <Gold.Chemscore.DEClash>
0.1248

> <Gold.Chemscore.DEInternal>
2.4451

> <Gold.Chemscore.Rot>
1.4458

> <Gold.Chemscore.Internal.Correction>
   9.000000E+99

> <Gold.Chemscore.Hbonds>
donor molecule, donor type, donor heavy atom, donor atom, acceptor molecule, acceptor atom, score
      L1  H     5    34       P1  7948  0.89
      L1  H    18    56       P1  8028  1.00

> <Gold.Chemscore.Hbond.Weighted>
-6.3636

> <Gold.Chemscore.Metal.Weighted>
-0.0000

> <Gold.Chemscore.Lipo.Weighted>
-12.2406

> <Gold.Chemscore.Internal_Hbond.Weighted>
0.0000

> <Gold.Chemscore.DEClash.Weighted>
0.1248

> <Gold.Chemscore.DEInternal.Weighted>
2.4451

> <Gold.Chemscore.Rot.Weighted>
3.7012

> <Gold.Chemscore.Internal.Correction.Weighted>
   9.000000E+99

> <Gold.Protein.RotatedTorsions>
[ 6907 6896 6895 6894 ] final  -58.07 input  -60.11 | X-H torsion
[ 7974 7965 7964 7962 ] final -176.46 input  175.53 | X-H torsion
[ 8008 7997 7996 7995 ] final  -83.79 input   59.86 | X-H torsion
[ 10167 10162 10161 10158 ] final   34.01 input  -65.29 | X-H torsion
[ 10718 10713 10712 10709 ] final    6.58 input   66.30 | X-H torsion
[ 10763 10752 10751 10750 ] final  -24.82 input  -60.55 | X-H torsion
[ 11005 11000 10999 10996 ] final  119.23 input  -57.11 | X-H torsion

> <Gold.Protein.ActiveResidues>
 VAL166  LYS551  ARG553  GLY616  TRP617  ASP618  TYR619  PRO620  LYS621  CYS622 
 ASP623  PHE694  ASN695  SER759  ASP760  ASP761  ALA762  ILE779  LEU786  VAL792 
 PHE793  MET794  SER795  GLU796  ALA797  LYS798  CYS799  TRP800  GLU811  SER814 

> <Gold.Protein.RotatedAtoms>
  150.8036  134.7146  159.6622 H   0  0  0  0  0  0  0  0  0  0  0  0  # atno 6907 bound_to 6896
  152.4154  134.6047  160.0019 H   0  0  0  0  0  0  0  0  0  0  0  0  # atno 6908 bound_to 6896
  151.6278  133.3297  159.3138 H   0  0  0  0  0  0  0  0  0  0  0  0  # atno 6909 bound_to 6896
  144.7127  140.1167  143.6408 H   0  0  0  0  0  0  0  0  0  0  0  0  # atno 7974 bound_to 7965
  154.6229  140.0614  156.9637 H   0  0  0  0  0  0  0  0  0  0  0  0  # atno 8008 bound_to 7997
  155.1789  140.3297  155.4360 H   0  0  0  0  0  0  0  0  0  0  0  0  # atno 8009 bound_to 7997
  156.2441  140.1901  156.6887 H   0  0  0  0  0  0  0  0  0  0  0  0  # atno 8010 bound_to 7997
  140.4354  144.1264  150.6165 H   0  0  0  0  0  0  0  0  0  0  0  0  # atno 10167 bound_to 10162
  156.9243  130.5802  149.5648 H   0  0  0  0  0  0  0  0  0  0  0  0  # atno 10718 bound_to 10713
  153.6899  135.6962  153.5093 H   0  0  0  0  0  0  0  0  0  0  0  0  # atno 10763 bound_to 10752
  153.2421  135.4302  155.0708 H   0  0  0  0  0  0  0  0  0  0  0  0  # atno 10764 bound_to 10752
  154.8376  135.3510  154.6441 H   0  0  0  0  0  0  0  0  0  0  0  0  # atno 10765 bound_to 10752
  139.9139  134.9627  156.7624 H   0  0  0  0  0  0  0  0  0  0  0  0  # atno 11005 bound_to 11000
  145.9407  139.2667  143.1270 LP  0  0  0  0  0  0  0  0  0  0  0  0  # atno 17320 bound_to 7965
  145.9427  140.8968  143.0299 LP  0  0  0  0  0  0  0  0  0  0  0  0  # atno 17321 bound_to 7965
  140.4379  143.2539  151.9511 LP  0  0  0  0  0  0  0  0  0  0  0  0  # atno 17342 bound_to 10162
  139.4787  144.5682  151.8131 LP  0  0  0  0  0  0  0  0  0  0  0  0  # atno 17343 bound_to 10162
  156.0476  130.5551  150.8917 LP  0  0  0  0  0  0  0  0  0  0  0  0  # atno 17370 bound_to 10713
  157.5888  131.0945  150.9153 LP  0  0  0  0  0  0  0  0  0  0  0  0  # atno 17371 bound_to 10713
  140.6687  133.9579  155.7844 LP  0  0  0  0  0  0  0  0  0  0  0  0  # atno 17394 bound_to 11000
  141.0593  134.0370  157.3680 LP  0  0  0  0  0  0  0  0  0  0  0  0  # atno 17395 bound_to 11000

$$$$
