#       Name:                AV-unprocessed.smi:235
#       Creating user name   scv26
#       Creation time:       Thu Mar 26 20:38:25 2020


#       File generated by GOLD software.
#

@<TRIPOS>MOLECULE
AV-unprocessed.smi:235
    63    67     1
SMALL
NO_CHARGES


@<TRIPOS>ATOM
      1 ****        -3.4562   0.5281  -2.8154 O.2            1 S1                 0.0000
      2 ****        -3.5302   1.2178  -1.7973 C.2            1 S1                 0.0000
      3 ****        -3.7925   2.5327  -1.8125 N.am           1 S1                 0.0000
      4 ****        -4.0077   3.3212  -2.9818 C.3            1 S1                 0.0000
      5 ****        -3.4003   4.7067  -3.0156 C.3            1 S1                 0.0000
      6 ****        -4.8865   4.5462  -2.8510 C.3            1 S1                 0.0000
      7 ****        -3.3205   0.5862  -0.4117 C.3            1 S1                 0.0000
      8 ****        -4.5177  -0.2863  -0.0009 C.3            1 S1                 0.0000
      9 ****        -3.9058  -1.3173   0.9418 C.3            1 S1                 0.0000
     10 ****        -2.5210  -1.5621   0.3440 C.3            1 S1                 0.0000
     11 ****        -2.1903  -0.3469  -0.3902 N.pl3          1 S1                 0.0000
     12 ****        -0.8964   0.0695  -0.4475 C.ar           1 S1                 0.0000
     13 ****        -0.6183   1.3985  -0.3661 N.ar           1 S1                 0.0000
     14 ****         0.6432   1.8338  -0.4214 C.ar           1 S1                 0.0000
     15 ****         1.7645   1.1249  -0.5570 N.ar           1 S1                 0.0000
     16 ****         1.4957  -0.2087  -0.6453 C.ar           1 S1                 0.0000
     17 ****         0.2089  -0.8177  -0.5998 C.ar           1 S1                 0.0000
     18 ****         0.3389  -2.1962  -0.7333 N.2            1 S1                 0.0000
     19 ****         1.6247  -2.3901  -0.8418 C.2            1 S1                 0.0000
     20 ****         2.3937  -1.2500  -0.7934 N.pl3          1 S1                 0.0000
     21 ****         3.8399  -1.1695  -0.8850 C.3            1 S1                 0.0000
     22 ****         4.5121  -0.8035   0.4552 C.3            1 S1                 0.0000
     23 ****         5.9054  -0.7511   0.2230 O.3            1 S1                 0.0000
     24 ****         4.2283  -1.7990   1.6019 C.3            1 S1                 0.0000
     25 ****         4.9737  -1.4976   2.9034 C.3            1 S1                 0.0000
     26 ****         4.1329  -2.1896   3.9637 C.3            1 S1                 0.0000
     27 ****         2.7775  -2.3945   3.2826 C.3            1 S1                 0.0000
     28 ****         2.8796  -1.7153   2.0392 O.3            1 S1                 0.0000
     29 ****        -3.8316   3.0148  -0.9262 H              1 S1                 0.0000
     30 ****        -4.0631   2.7969  -3.9348 H              1 S1                 0.0000
     31 ****        -2.8304   5.0339  -2.1478 H              1 S1                 0.0000
     32 ****        -3.0368   5.0702  -3.9746 H              1 S1                 0.0000
     33 ****        -5.5155   4.8056  -3.7002 H              1 S1                 0.0000
     34 ****        -5.3101   4.7680  -1.8732 H              1 S1                 0.0000
     35 ****        -3.1654   1.3578   0.3450 H              1 S1                 0.0000
     36 ****        -5.3114   0.2906   0.4745 H              1 S1                 0.0000
     37 ****        -4.9492  -0.7987  -0.8631 H              1 S1                 0.0000
     38 ****        -3.8065  -0.8862   1.9390 H              1 S1                 0.0000
     39 ****        -4.5003  -2.2275   1.0255 H              1 S1                 0.0000
     40 ****        -1.7960  -1.7938   1.1258 H              1 S1                 0.0000
     41 ****        -2.5474  -2.3977  -0.3565 H              1 S1                 0.0000
     42 ****         0.7722   2.9033  -0.3459 H              1 S1                 0.0000
     43 ****         2.0501  -3.3767  -0.9545 H              1 S1                 0.0000
     44 ****         4.2169  -2.1270  -1.2477 H              1 S1                 0.0000
     45 ****         4.0871  -0.4290  -1.6469 H              1 S1                 0.0000
     46 ****         4.1959   0.1945   0.7609 H              1 S1                 0.0000
     47 ****         6.0750  -0.0905  -0.4311 H              1 S1                 0.0000
     48 ****         4.4386  -2.8214   1.2812 H              1 S1                 0.0000
     49 ****         6.0070  -1.8456   2.8897 H              1 S1                 0.0000
     50 ****         4.9832  -0.4227   3.0899 H              1 S1                 0.0000
     51 ****         4.5661  -3.1503   4.2445 H              1 S1                 0.0000
     52 ****         4.0517  -1.5804   4.8644 H              1 S1                 0.0000
     53 ****         2.5942  -3.4541   3.1001 H              1 S1                 0.0000
     54 ****         1.9486  -2.0018   3.8719 H              1 S1                 0.0000
     55 ****        -3.5948   0.9456  -3.7134 LP             1 S1                 0.0000
     56 ****        -3.2575  -0.4494  -2.7438 LP             1 S1                 0.0000
     57 ****        -1.3651   2.0556  -0.2639 LP             1 S1                 0.0000
     58 ****         2.6826   1.5199  -0.5896 LP             1 S1                 0.0000
     59 ****        -0.3880  -2.8828  -0.7437 LP             1 S1                 0.0000
     60 ****         6.2268  -1.6400  -0.1037 LP             1 S1                 0.0000
     61 ****         6.3803  -0.5161   1.0711 LP             1 S1                 0.0000
     62 ****         2.2777  -2.1462   1.3669 LP             1 S1                 0.0000
     63 ****         2.6191  -0.7567   2.1540 LP             1 S1                 0.0000
@<TRIPOS>BOND
    1    1    2 2     
    2    2    3 am    
    3    2    7 1     
    4    3    4 1     
    5    3   29 1     
    6    4    6 1     
    7    4    5 1     
    8    4   30 1     
    9    5    6 1     
   10    5   31 1     
   11    5   32 1     
   12    6   33 1     
   13    6   34 1     
   14    7   11 1     
   15    7    8 1     
   16    7   35 1     
   17    8    9 1     
   18    8   36 1     
   19    8   37 1     
   20    9   10 1     
   21    9   38 1     
   22    9   39 1     
   23   10   11 1     
   24   10   40 1     
   25   10   41 1     
   26   11   12 1     
   27   12   17 ar    
   28   12   13 ar    
   29   13   14 ar    
   30   14   15 ar    
   31   14   42 1     
   32   15   16 ar    
   33   16   20 1     
   34   16   17 ar    
   35   17   18 1     
   36   18   19 2     
   37   19   20 1     
   38   19   43 1     
   39   20   21 1     
   40   21   22 1     
   41   21   44 1     
   42   21   45 1     
   43   22   23 1     
   44   22   24 1     
   45   22   46 1     
   46   23   47 1     
   47   24   28 1     
   48   24   25 1     
   49   24   48 1     
   50   25   26 1     
   51   25   49 1     
   52   25   50 1     
   53   26   27 1     
   54   26   51 1     
   55   26   52 1     
   56   27   28 1     
   57   27   53 1     
   58   27   54 1     
   59    1   55 1     
   60    1   56 1     
   61   13   57 1     
   62   15   58 1     
   63   18   59 1     
   64   23   60 1     
   65   23   61 1     
   66   28   62 1     
   67   28   63 1     
@<TRIPOS>SUBSTRUCTURE
      1 S1             1
@<TRIPOS>SET
LONE_PAIRS      STATIC     ATOMS    <user>   **** ""
9 55 56 57 58 59 60 61 62 63
DONOR_HYDROGENS      STATIC     ATOMS    <user>   **** ""
2 29 47
ATOM$BLUE        STATIC     ATOMS    COLORGROUP SYSTEM
9 55 56 57 58 59 60 61 62 63
ATOM$RED        STATIC     ATOMS    COLORGROUP SYSTEM
2 29 47
