#       Name:                AV-unprocessed.smi:36
#       Creating user name   scv26
#       Creation time:       Thu Mar 26 16:05:07 2020


#       File generated by GOLD software.
#

@<TRIPOS>MOLECULE
AV-unprocessed.smi:36
    73    76     1
SMALL
NO_CHARGES


@<TRIPOS>ATOM
      1 ****        -2.6711   4.6724  -3.7368 C.3            1 S1                 0.0000
      2 ****        -1.9490   3.4456  -3.1555 C.3            1 S1                 0.0000
      3 ****        -1.8756   3.5597  -1.6232 C.3            1 S1                 0.0000
      4 ****        -2.7024   2.1620  -3.5430 C.3            1 S1                 0.0000
      5 ****        -0.1737   3.3588  -3.8560 Si             1 S1                 0.0000
      6 ****        -0.1791   3.1602  -5.7452 C.3            1 S1                 0.0000
      7 ****         0.8263   4.9004  -3.3694 C.3            1 S1                 0.0000
      8 ****         0.5709   1.9959  -3.1865 O.3            1 S1                 0.0000
      9 ****         1.9076   1.6114  -3.4407 C.3            1 S1                 0.0000
     10 ****         2.5722   1.1707  -2.1283 C.3            1 S1                 0.0000
     11 ****         1.8532   0.0670  -1.5773 O.3            1 S1                 0.0000
     12 ****         1.2514   0.4857  -0.3964 C.3            1 S1                 0.0000
     13 ****         1.0703  -0.6892   0.4996 N.pl3          1 S1                 0.0000
     14 ****         1.6991  -1.9151   0.4667 C.2            1 S1                 0.0000
     15 ****         1.3201  -2.7589   1.3897 N.2            1 S1                 0.0000
     16 ****         0.3639  -2.0586   2.1151 C.ar           1 S1                 0.0000
     17 ****        -0.4448  -2.3706   3.2387 C.ar           1 S1                 0.0000
     18 ****        -0.3672  -3.5936   3.8142 N.am           1 S1                 0.0000
     19 ****        -1.0790  -4.0824   4.9823 C.2            1 S1                 0.0000
     20 ****        -1.9086  -3.3958   5.5796 O.2            1 S1                 0.0000
     21 ****        -0.8037  -5.5048   5.3755 C.ar           1 S1                 0.0000
     22 ****        -1.8057  -6.2652   6.0197 C.ar           1 S1                 0.0000
     23 ****        -1.5544  -7.5966   6.4043 C.ar           1 S1                 0.0000
     24 ****        -0.2966  -8.1769   6.1549 C.ar           1 S1                 0.0000
     25 ****         0.7117  -7.4230   5.5253 C.ar           1 S1                 0.0000
     26 ****         0.4618  -6.0910   5.1403 C.ar           1 S1                 0.0000
     27 ****        -1.2870  -1.4034   3.6902 N.ar           1 S1                 0.0000
     28 ****        -1.3362  -0.2145   3.0816 C.ar           1 S1                 0.0000
     29 ****        -0.6439   0.2100   2.0222 N.ar           1 S1                 0.0000
     30 ****         0.2038  -0.7566   1.5664 C.ar           1 S1                 0.0000
     31 ****         2.2140   1.4924   0.2116 C.3            1 S1                 0.0000
     32 ****         2.6141   2.2563  -1.0343 C.3            1 S1                 0.0000
     33 ****         3.8963   2.8310  -0.8893 O.3            1 S1                 0.0000
     34 ****        -3.6893   4.7507  -3.3537 H              1 S1                 0.0000
     35 ****        -2.7327   4.6191  -4.8242 H              1 S1                 0.0000
     36 ****        -2.1528   5.5969  -3.4813 H              1 S1                 0.0000
     37 ****        -1.3537   4.4661  -1.3159 H              1 S1                 0.0000
     38 ****        -1.3457   2.7122  -1.1874 H              1 S1                 0.0000
     39 ****        -2.8712   3.5890  -1.1793 H              1 S1                 0.0000
     40 ****        -3.7157   2.1598  -3.1405 H              1 S1                 0.0000
     41 ****        -2.1946   1.2748  -3.1623 H              1 S1                 0.0000
     42 ****        -2.7792   2.0579  -4.6258 H              1 S1                 0.0000
     43 ****        -0.6538   4.0092  -6.2363 H              1 S1                 0.0000
     44 ****        -0.7166   2.2634  -6.0527 H              1 S1                 0.0000
     45 ****         0.8332   3.0809  -6.1408 H              1 S1                 0.0000
     46 ****         0.3849   5.8085  -3.7794 H              1 S1                 0.0000
     47 ****         1.8517   4.8465  -3.7339 H              1 S1                 0.0000
     48 ****         0.8737   5.0245  -2.2879 H              1 S1                 0.0000
     49 ****         1.9085   0.7934  -4.1615 H              1 S1                 0.0000
     50 ****         2.4647   2.4351  -3.8882 H              1 S1                 0.0000
     51 ****         3.5800   0.8107  -2.3407 H              1 S1                 0.0000
     52 ****         0.2518   0.8825  -0.5820 H              1 S1                 0.0000
     53 ****         2.4487  -2.1682  -0.2690 H              1 S1                 0.0000
     54 ****         0.2702  -4.2461   3.3816 H              1 S1                 0.0000
     55 ****        -2.7767  -5.8340   6.2188 H              1 S1                 0.0000
     56 ****        -2.3277  -8.1721   6.8913 H              1 S1                 0.0000
     57 ****        -0.1044  -9.1981   6.4499 H              1 S1                 0.0000
     58 ****         1.6790  -7.8659   5.3392 H              1 S1                 0.0000
     59 ****         1.2530  -5.5281   4.6665 H              1 S1                 0.0000
     60 ****        -2.0309   0.4969   3.5028 H              1 S1                 0.0000
     61 ****         1.7288   2.1030   0.9739 H              1 S1                 0.0000
     62 ****         3.0621   0.9620   0.6484 H              1 S1                 0.0000
     63 ****         1.8831   3.0412  -1.2282 H              1 S1                 0.0000
     64 ****         4.5145   2.1429  -0.6962 H              1 S1                 0.0000
     65 ****         2.4828  -0.6863  -1.3876 LP             1 S1                 0.0000
     66 ****         1.1539  -0.2379  -2.2239 LP             1 S1                 0.0000
     67 ****         1.6436  -3.6932   1.5395 LP             1 S1                 0.0000
     68 ****        -2.1112  -2.4689   5.2636 LP             1 S1                 0.0000
     69 ****        -2.3798  -3.7651   6.3806 LP             1 S1                 0.0000
     70 ****        -1.8721  -1.5823   4.4812 LP             1 S1                 0.0000
     71 ****        -0.7350   1.1190   1.6153 LP             1 S1                 0.0000
     72 ****         3.8857   3.4943  -0.1410 LP             1 S1                 0.0000
     73 ****         4.1577   3.2904  -1.7382 LP             1 S1                 0.0000
@<TRIPOS>BOND
    1    1    2 1     
    2    1   34 1     
    3    1   35 1     
    4    1   36 1     
    5    2    3 1     
    6    2    4 1     
    7    2    5 1     
    8    3   37 1     
    9    3   38 1     
   10    3   39 1     
   11    4   40 1     
   12    4   41 1     
   13    4   42 1     
   14    5    6 1     
   15    5    7 1     
   16    5    8 1     
   17    6   43 1     
   18    6   44 1     
   19    6   45 1     
   20    7   46 1     
   21    7   47 1     
   22    7   48 1     
   23    8    9 1     
   24    9   10 1     
   25    9   49 1     
   26    9   50 1     
   27   10   32 1     
   28   10   11 1     
   29   10   51 1     
   30   11   12 1     
   31   12   13 1     
   32   12   31 1     
   33   12   52 1     
   34   13   30 1     
   35   13   14 1     
   36   14   15 2     
   37   14   53 1     
   38   15   16 1     
   39   16   30 ar    
   40   16   17 ar    
   41   17   18 1     
   42   17   27 ar    
   43   18   19 am    
   44   18   54 1     
   45   19   20 2     
   46   19   21 1     
   47   21   26 ar    
   48   21   22 ar    
   49   22   23 ar    
   50   22   55 1     
   51   23   24 ar    
   52   23   56 1     
   53   24   25 ar    
   54   24   57 1     
   55   25   26 ar    
   56   25   58 1     
   57   26   59 1     
   58   27   28 ar    
   59   28   29 ar    
   60   28   60 1     
   61   29   30 ar    
   62   31   32 1     
   63   31   61 1     
   64   31   62 1     
   65   32   33 1     
   66   32   63 1     
   67   33   64 1     
   68   11   65 1     
   69   11   66 1     
   70   15   67 1     
   71   20   68 1     
   72   20   69 1     
   73   27   70 1     
   74   29   71 1     
   75   33   72 1     
   76   33   73 1     
@<TRIPOS>SUBSTRUCTURE
      1 S1             1
@<TRIPOS>SET
LONE_PAIRS      STATIC     ATOMS    <user>   **** ""
9 65 66 67 68 69 70 71 72 73
DONOR_HYDROGENS      STATIC     ATOMS    <user>   **** ""
2 54 64
ATOM$BLUE        STATIC     ATOMS    COLORGROUP SYSTEM
9 65 66 67 68 69 70 71 72 73
ATOM$RED        STATIC     ATOMS    COLORGROUP SYSTEM
2 54 64
