AV-unprocessed.smi:1817|AV-procd|sdf|7376|dock9
  -GOLD-   22720 9 43D 1   1.00000     0.00000
 Structure written by MMmdl.
 42 43  0  0  0  0  0  0  0  0  3 V2000
  152.3181  143.4070  161.2490 C   0  0  0  0  0  0  0  0  0  0  0  0
  152.2198  143.0991  159.7481 C   0  0  0  0  0  0  0  0  0  0  0  0
  151.4561  144.1220  159.0298 N   0  0  0  0  0  0  0  0  0  0  0  0
  151.6765  144.0749  157.5849 C   0  0  0  0  0  0  0  0  0  0  0  0
  151.0359  142.8303  156.9356 C   0  0  0  0  0  0  0  0  0  0  0  0
  149.5712  142.7762  157.1974 N   0  3  0  0  0  0  0  0  0  0  0  0
  148.8729  141.6170  156.5511 C   0  0  2  0  0  0  0  0  0  0  0  0
  149.2921  141.4205  155.0774 C   0  0  0  0  0  0  0  0  0  0  0  0
  147.3313  141.7410  156.6191 C   0  0  0  0  0  0  0  0  0  0  0  0
  146.8214  141.3812  157.9401 N   0  0  0  0  0  0  0  0  0  0  0  0
  146.2112  142.1998  158.8058 C   0  0  0  0  0  0  0  0  0  0  0  0
  146.0244  143.3829  158.5144 O   0  0  0  0  0  0  0  0  0  0  0  0
  145.8573  141.5895  159.9588 N   0  5  0  0  0  0  0  0  0  0  0  0
  145.2937  142.3009  160.9493 C   0  0  0  0  0  0  0  0  0  0  0  0
  144.2628  141.8341  161.6717 N   0  0  0  0  0  0  0  0  0  0  0  0
  143.8323  142.7242  162.6465 N   0  0  0  0  0  0  0  0  0  0  0  0
  144.5601  143.8408  162.6407 C   0  0  0  0  0  0  0  0  0  0  0  0
  145.8386  143.9055  161.4458 S   0  0  0  0  0  0  0  0  0  0  0  0
  149.3274  142.8652  158.6637 C   0  0  0  0  0  0  0  0  0  0  0  0
  150.0117  144.1062  159.2734 C   0  0  0  0  0  0  0  0  0  0  0  0
  152.9887  142.7010  161.7389 H   0  0  0  0  0  0  0  0  0  0  0  0
  151.3521  143.3305  161.7473 H   0  0  0  0  0  0  0  0  0  0  0  0
  152.7116  144.4092  161.4224 H   0  0  0  0  0  0  0  0  0  0  0  0
  153.2323  143.0786  159.3431 H   0  0  0  0  0  0  0  0  0  0  0  0
  151.8069  142.1029  159.5940 H   0  0  0  0  0  0  0  0  0  0  0  0
  151.2558  144.9768  157.1378 H   0  0  0  0  0  0  0  0  0  0  0  0
  152.7466  144.1025  157.3763 H   0  0  0  0  0  0  0  0  0  0  0  0
  151.2293  142.9003  155.8664 H   0  0  0  0  0  0  0  0  0  0  0  0
  151.5132  141.9131  157.2832 H   0  0  0  0  0  0  0  0  0  0  0  0
  149.1568  140.7126  157.0914 H   0  0  0  0  0  0  0  0  0  0  0  0
  148.6888  140.6490  154.5982 H   0  0  0  0  0  0  0  0  0  0  0  0
  150.3275  141.0942  154.9826 H   0  0  0  0  0  0  0  0  0  0  0  0
  149.1675  142.3373  154.5000 H   0  0  0  0  0  0  0  0  0  0  0  0
  147.0343  142.7546  156.3445 H   0  0  0  0  0  0  0  0  0  0  0  0
  146.8562  141.0964  155.8798 H   0  0  0  0  0  0  0  0  0  0  0  0
  146.9374  140.4218  158.2300 H   0  0  0  0  0  0  0  0  0  0  0  0
  144.3456  144.6295  163.3464 H   0  0  0  0  0  0  0  0  0  0  0  0
  148.2616  142.9557  158.8665 H   0  0  0  0  0  0  0  0  0  0  0  0
  149.6582  141.9499  159.1556 H   0  0  0  0  0  0  0  0  0  0  0  0
  149.8043  144.1663  160.3412 H   0  0  0  0  0  0  0  0  0  0  0  0
  149.5789  145.0074  158.8364 H   0  0  0  0  0  0  0  0  0  0  0  0
  149.1779  143.6116  156.7877 H   0  0  0  0  0  0  0  0  0  0  0  0
  1  2  1  0  0  0  0
  1 21  1  0  0  0  0
  1 22  1  0  0  0  0
  1 23  1  0  0  0  0
  2  3  1  0  0  0  0
  2 24  1  0  0  0  0
  2 25  1  0  0  0  0
  3 20  1  0  0  0  0
  3  4  1  0  0  0  0
  4  5  1  0  0  0  0
  4 26  1  0  0  0  0
  4 27  1  0  0  0  0
  5  6  1  0  0  0  0
  5 28  1  0  0  0  0
  5 29  1  0  0  0  0
  6  7  1  0  0  0  0
  6 19  1  0  0  0  0
  6 42  1  0  0  0  0
  7  8  1  0  0  0  0
  7  9  1  0  0  0  0
  7 30  1  0  0  0  0
  8 31  1  0  0  0  0
  8 32  1  0  0  0  0
  8 33  1  0  0  0  0
  9 10  1  0  0  0  0
  9 34  1  0  0  0  0
  9 35  1  0  0  0  0
 10 11  1  0  0  0  0
 10 36  1  0  0  0  0
 11 12  2  0  0  0  0
 11 13  1  0  0  0  0
 13 14  1  0  0  0  0
 14 18  1  0  0  0  0
 14 15  2  0  0  0  0
 15 16  1  0  0  0  0
 16 17  2  0  0  0  0
 17 18  1  0  0  0  0
 17 37  1  0  0  0  0
 19 20  1  0  0  0  0
 19 38  1  0  0  0  0
 19 39  1  0  0  0  0
 20 40  1  0  0  0  0
 20 41  1  0  0  0  0
M  CHG  1   6   1
M  CHG  1  13  -1
M  END
> <s_m_source_file>
AV-unprocessed.smi

> <i_m_source_file_index>
1817

> <i_lp_mmshare_version>
43012

> <i_f3d_flags>
0

> <s_epik_input>
W0NIM11bQ0gyXU4xW0NIMl1bQ0gyXU4oW0NIMl1bQ0gyXTEpW0NASF0oW0NIM10pW0NIMl1bTkhdQyg9TylbTkhdYzJubltjSF1zMg==

> <s_epik_cmdline>
J2VwaWtfcHl0aG9uJywgJy1waCcsICc3LjAnLCAnLXRuJywgJzgnLCAnLW1hJywgJzIwMCcsICctbWV0YWxfYmluZGluZycsICctaW1hZScsICc8aW5maWxlLm1hZT4nLCAnLW9tYWUnLCAnPG91dGZpbGUubWFlPic=

> <r_epik_Ionization_Penalty>
3.16835

> <r_epik_Ionization_Penalty_Charging>
3.13468

> <r_epik_Ionization_Penalty_Neutral>
0.0336711

> <r_epik_State_Penalty>
3.95884

> <r_epik_Charging_Adjusted_Penalty>
7.09351

> <i_epik_Tot_Q>
0

> <i_epik_Tot_abs_Q>
2

> <r_epik_Metal_State_Penalty>
1.39003

> <b_epik_Metal_Only>
1

> <s_lp_Force_Field>
OPLS_2005

> <r_lp_Energy>
20.7646

> <b_lp_Chiralities_Consistent>
1

> <s_lp_Variant>
AV-unprocessed.smi:1817-9

> <Gold.Version>
5.8.1

> <Gold.Id.Protein>
6NUR|6NUR_protein|mol2

> <Gold.PLP.Fitness>
48.3416

> <Gold.PLP.PLP>
-37.7957

> <Gold.PLP.part.hbond>
-5.2779

> <Gold.PLP.part.metal>
0.0000

> <Gold.PLP.part.buried>
-4.3145

> <Gold.PLP.part.nonpolar>
-29.6102

> <Gold.PLP.part.repulsive>
0.3634

> <Gold.PLP.ligand.clash>
0.0000

> <Gold.PLP.ligand.torsion>
0.7642

> <Gold.PLP.Chemscore.Hbond>
4.0000

> <Gold.PLP.Chemscore.CHOScore>
0.0000

> <Gold.PLP.Chemscore.Metal>
0.0000

> <Gold.Chemscore.Hbonds>
donor molecule, donor type, donor heavy atom, donor atom, acceptor molecule, acceptor atom, score
      L1  H     6    42       P1  8028  2.00
      P1  H  6934  6946       L1    13  1.76

> <Gold.PLP.Chemscore.Internal.Correction>
0.0743

> <Gold.Rescore>
     Score         DG    S(hbond)    S(metal)    S(lipo)     H(rot)  DE(clash)    DE(int)     intcor
     13.39     -16.45       1.80        0.00      83.58       1.88       0.04       3.02       ----

> <Gold.Chemscore.Fitness>
13.3873

> <Gold.Chemscore.DG>
-16.4459

> <Gold.Chemscore.ZeroCoef>
-5.4800

> <Gold.Chemscore.Hbond>
1.7984

> <Gold.Chemscore.Metal>
0.0000

> <Gold.Chemscore.Lipo>
83.5761

> <Gold.Chemscore.Internal_Hbond>
0.0000

> <Gold.Chemscore.DEClash>
0.0351

> <Gold.Chemscore.DEInternal>
3.0235

> <Gold.Chemscore.Rot>
1.8825

> <Gold.Chemscore.Internal.Correction>
   9.000000E+99

> <Gold.Chemscore.Hbonds>
donor molecule, donor type, donor heavy atom, donor atom, acceptor molecule, acceptor atom, score
      L1  H     6    42       P1  8028  0.86
      P1  H  6934  6946       L1    13  0.25

> <Gold.Chemscore.Hbond.Weighted>
-6.0067

> <Gold.Chemscore.Metal.Weighted>
-0.0000

> <Gold.Chemscore.Lipo.Weighted>
-9.7784

> <Gold.Chemscore.Internal_Hbond.Weighted>
0.0000

> <Gold.Chemscore.DEClash.Weighted>
0.0351

> <Gold.Chemscore.DEInternal.Weighted>
3.0235

> <Gold.Chemscore.Rot.Weighted>
4.8191

> <Gold.Chemscore.Internal.Correction.Weighted>
   9.000000E+99

> <Gold.Protein.RotatedTorsions>
[ 6907 6896 6895 6894 ] final   90.76 input  -60.11 | X-H torsion
[ 7974 7965 7964 7962 ] final -155.73 input  175.53 | X-H torsion
[ 8008 7997 7996 7995 ] final   84.75 input   59.86 | X-H torsion
[ 10167 10162 10161 10158 ] final   68.31 input  -65.29 | X-H torsion
[ 10718 10713 10712 10709 ] final  -74.95 input   66.30 | X-H torsion
[ 10763 10752 10751 10750 ] final   19.24 input  -60.55 | X-H torsion
[ 11005 11000 10999 10996 ] final   28.01 input  -57.11 | X-H torsion

> <Gold.Protein.ActiveResidues>
 VAL166  LYS551  ARG553  GLY616  TRP617  ASP618  TYR619  PRO620  LYS621  CYS622 
 ASP623  PHE694  ASN695  SER759  ASP760  ASP761  ALA762  ILE779  LEU786  VAL792 
 PHE793  MET794  SER795  GLU796  ALA797  LYS798  CYS799  TRP800  GLU811  SER814 

> <Gold.Protein.RotatedAtoms>
  152.5446  134.1762  159.8616 H   0  0  0  0  0  0  0  0  0  0  0  0  # atno 6907 bound_to 6896
  151.1768  133.4743  159.2601 H   0  0  0  0  0  0  0  0  0  0  0  0  # atno 6908 bound_to 6896
  151.1219  135.0095  159.8597 H   0  0  0  0  0  0  0  0  0  0  0  0  # atno 6909 bound_to 6896
  144.7626  140.4209  143.5965 H   0  0  0  0  0  0  0  0  0  0  0  0  # atno 7974 bound_to 7965
  155.9412  140.3408  155.6328 H   0  0  0  0  0  0  0  0  0  0  0  0  # atno 8008 bound_to 7997
  155.7038  140.0763  157.2418 H   0  0  0  0  0  0  0  0  0  0  0  0  # atno 8009 bound_to 7997
  154.4103  140.1635  156.2207 H   0  0  0  0  0  0  0  0  0  0  0  0  # atno 8010 bound_to 7997
  140.0800  144.5079  150.7168 H   0  0  0  0  0  0  0  0  0  0  0  0  # atno 10167 bound_to 10162
  156.0224  130.4429  150.2970 H   0  0  0  0  0  0  0  0  0  0  0  0  # atno 10718 bound_to 10713
  153.1179  135.6712  153.9386 H   0  0  0  0  0  0  0  0  0  0  0  0  # atno 10763 bound_to 10752
  153.8910  135.3047  155.3448 H   0  0  0  0  0  0  0  0  0  0  0  0  # atno 10764 bound_to 10752
  154.7594  135.4996  153.9514 H   0  0  0  0  0  0  0  0  0  0  0  0  # atno 10765 bound_to 10752
  140.3201  134.2553  155.7718 H   0  0  0  0  0  0  0  0  0  0  0  0  # atno 11005 bound_to 11000
  145.6570  139.1574  143.2830 LP  0  0  0  0  0  0  0  0  0  0  0  0  # atno 17320 bound_to 7965
  146.1704  140.6654  142.9236 LP  0  0  0  0  0  0  0  0  0  0  0  0  # atno 17321 bound_to 7965
  140.7082  143.2484  151.4661 LP  0  0  0  0  0  0  0  0  0  0  0  0  # atno 17342 bound_to 10162
  139.5785  144.1763  152.1936 LP  0  0  0  0  0  0  0  0  0  0  0  0  # atno 17343 bound_to 10162
  157.1073  131.0212  151.3062 LP  0  0  0  0  0  0  0  0  0  0  0  0  # atno 17370 bound_to 10713
  157.4733  130.7721  149.7344 LP  0  0  0  0  0  0  0  0  0  0  0  0  # atno 17371 bound_to 10713
  141.2088  133.7766  157.0034 LP  0  0  0  0  0  0  0  0  0  0  0  0  # atno 17394 bound_to 11000
  140.0949  134.9570  157.1834 LP  0  0  0  0  0  0  0  0  0  0  0  0  # atno 17395 bound_to 11000

$$$$
