AV-unprocessed.smi:51|AV-procd|sdf|499|dock5
  -GOLD-   2262016373D 1   1.00000     0.00000
 Structure written by MMmdl.
 25 26  0  0  0  0  0  0  0  0  2 V2000
  152.9051  136.6035  156.4853 O   0  0  0  0  0  0  0  0  0  0  0  0
  152.7881  137.7453  156.9808 C   0  0  0  0  0  0  0  0  0  0  0  0
  153.6297  138.3041  157.7197 O   0  5  0  0  0  0  0  0  0  0  0  0
  151.4975  138.5102  156.6589 C   0  0  2  0  0  0  0  0  0  0  0  0
  150.6413  137.8233  155.5767 C   0  0  0  0  0  0  0  0  0  0  0  0
  150.9298  138.6352  154.3156 C   0  0  1  0  0  0  0  0  0  0  0  0
  149.8767  138.5725  153.3768 O   0  0  0  0  0  0  0  0  0  0  0  0
  151.1322  140.0412  154.8750 C   0  0  0  0  0  0  0  0  0  0  0  0
  151.8287  139.8370  156.1376 N   0  0  0  0  0  0  0  0  0  0  0  0
  151.7500  140.8929  157.0562 C   0  0  0  0  0  0  0  0  0  0  0  0
  150.9728  142.0287  156.7480 C   0  0  0  0  0  0  0  0  0  0  0  0
  150.9429  143.0518  157.7164 C   0  0  0  0  0  0  0  0  0  0  0  0
  151.6184  142.9494  158.8816 N   0  0  0  0  0  0  0  0  0  0  0  0
  152.3213  141.8296  159.0701 C   0  0  0  0  0  0  0  0  0  0  0  0
  152.4235  140.7985  158.2283 N   0  0  0  0  0  0  0  0  0  0  0  0
  150.9135  138.5836  157.5779 H   0  0  0  0  0  0  0  0  0  0  0  0
  150.8544  136.7608  155.4499 H   0  0  0  0  0  0  0  0  0  0  0  0
  149.5885  137.9141  155.8490 H   0  0  0  0  0  0  0  0  0  0  0  0
  151.8526  138.2834  153.8521 H   0  0  0  0  0  0  0  0  0  0  0  0
  149.9084  137.7300  152.9505 H   0  0  0  0  0  0  0  0  0  0  0  0
  151.7187  140.6623  154.1973 H   0  0  0  0  0  0  0  0  0  0  0  0
  150.1716  140.5331  155.0383 H   0  0  0  0  0  0  0  0  0  0  0  0
  150.4338  142.1137  155.8158 H   0  0  0  0  0  0  0  0  0  0  0  0
  150.3735  143.9552  157.5560 H   0  0  0  0  0  0  0  0  0  0  0  0
  152.8607  141.7480  160.0021 H   0  0  0  0  0  0  0  0  0  0  0  0
  1  2  2  0  0  0  0
  2  3  1  0  0  0  0
  2  4  1  0  0  0  0
  4  9  1  0  0  0  0
  4  5  1  0  0  0  0
  4 16  1  0  0  0  0
  5  6  1  0  0  0  0
  5 17  1  0  0  0  0
  5 18  1  0  0  0  0
  6  7  1  0  0  0  0
  6  8  1  0  0  0  0
  6 19  1  0  0  0  0
  7 20  1  0  0  0  0
  8  9  1  0  0  0  0
  8 21  1  0  0  0  0
  8 22  1  0  0  0  0
  9 10  1  0  0  0  0
 10 15  1  0  0  0  0
 10 11  2  0  0  0  0
 11 12  1  0  0  0  0
 11 23  1  0  0  0  0
 12 13  2  0  0  0  0
 12 24  1  0  0  0  0
 13 14  1  0  0  0  0
 14 15  2  0  0  0  0
 14 25  1  0  0  0  0
M  CHG  1   3  -1
M  END
> <s_m_source_file>
AV-unprocessed.smi

> <i_m_source_file_index>
51

> <i_lp_mmshare_version>
43012

> <i_f3d_flags>
0

> <s_epik_input>
Tz1DKFtPSF0pW0NAQEhdMVtDSDJdW0NAQEhdKFtPSF0pW0NIMl1OMWMyW2NIXVtjSF1uW2NIXW4y

> <s_epik_cmdline>
J2VwaWtfcHl0aG9uJywgJy1waCcsICc3LjAnLCAnLXRuJywgJzgnLCAnLW1hJywgJzIwMCcsICctbWV0YWxfYmluZGluZycsICctaW1hZScsICc8aW5maWxlLm1hZT4nLCAnLW9tYWUnLCAnPG91dGZpbGUubWFlPic=

> <r_lp_tautomer_probability>
1

> <r_epik_Ionization_Penalty>
0.225251

> <r_epik_Ionization_Penalty_Charging>
0.000248217

> <r_epik_Ionization_Penalty_Neutral>
0.225002

> <r_epik_State_Penalty>
0.21284

> <r_epik_Charging_Adjusted_Penalty>
0.213088

> <i_epik_Tot_Q>
-1

> <i_epik_Tot_abs_Q>
1

> <r_epik_Metal_State_Penalty>
0.154111

> <b_epik_Metal_Only>
0

> <s_lp_Force_Field>
OPLS_2005

> <r_lp_Energy>
17.878

> <b_lp_Chiralities_Consistent>
1

> <s_lp_Variant>
AV-unprocessed.smi:51-1

> <Gold.Version>
5.8.1

> <Gold.Id.Protein>
6NUR|6NUR_protein|mol2

> <Gold.PLP.Fitness>
38.8040

> <Gold.PLP.PLP>
-21.5989

> <Gold.PLP.part.hbond>
-4.1642

> <Gold.PLP.part.metal>
0.0000

> <Gold.PLP.part.buried>
-1.6083

> <Gold.PLP.part.nonpolar>
-15.1925

> <Gold.PLP.part.repulsive>
0.0206

> <Gold.PLP.ligand.clash>
0.5205

> <Gold.PLP.ligand.torsion>
0.1868

> <Gold.PLP.Chemscore.Hbond>
5.0000

> <Gold.PLP.Chemscore.CHOScore>
1.0000

> <Gold.PLP.Chemscore.Metal>
0.0000

> <Gold.Chemscore.Hbonds>
donor molecule, donor type, donor heavy atom, donor atom, acceptor molecule, acceptor atom, score
      L1  H     7    20       P1  7948  0.99
      P1  H  7997  8010       L1     3  1.72
      P1  H 10752 10764       L1     1  1.98
      L1  C    12    24       P1  8028  1.00

> <Gold.PLP.Chemscore.Internal.Correction>
0.0992

> <Gold.Rescore>
     Score         DG    S(hbond)    S(metal)    S(lipo)     H(rot)  DE(clash)    DE(int)     intcor
     11.64     -13.85       2.82        0.00      39.77       2.23       0.68       1.53       ----

> <Gold.Chemscore.Fitness>
11.6416

> <Gold.Chemscore.DG>
-13.8495

> <Gold.Chemscore.ZeroCoef>
-5.4800

> <Gold.Chemscore.Hbond>
2.8208

> <Gold.Chemscore.Metal>
0.0000

> <Gold.Chemscore.Lipo>
39.7701

> <Gold.Chemscore.Internal_Hbond>
0.0000

> <Gold.Chemscore.DEClash>
0.6785

> <Gold.Chemscore.DEInternal>
1.5293

> <Gold.Chemscore.Rot>
2.2285

> <Gold.Chemscore.Internal.Correction>
   9.000000E+99

> <Gold.Chemscore.Hbonds>
donor molecule, donor type, donor heavy atom, donor atom, acceptor molecule, acceptor atom, score
      L1  H     7    20       P1  7948  0.31
      P1  H  7997  8010       L1     3  0.76
      P1  H 10752 10764       L1     1  0.94

> <Gold.Chemscore.Hbond.Weighted>
-9.4213

> <Gold.Chemscore.Metal.Weighted>
-0.0000

> <Gold.Chemscore.Lipo.Weighted>
-4.6531

> <Gold.Chemscore.Internal_Hbond.Weighted>
0.0000

> <Gold.Chemscore.DEClash.Weighted>
0.6785

> <Gold.Chemscore.DEInternal.Weighted>
1.5293

> <Gold.Chemscore.Rot.Weighted>
5.7050

> <Gold.Chemscore.Internal.Correction.Weighted>
   9.000000E+99

> <Gold.Protein.RotatedTorsions>
[ 6907 6896 6895 6894 ] final  -58.18 input  -60.11 | X-H torsion
[ 7974 7965 7964 7962 ] final   35.03 input  175.53 | X-H torsion
[ 8008 7997 7996 7995 ] final   39.34 input   59.86 | X-H torsion
[ 10167 10162 10161 10158 ] final  115.71 input  -65.29 | X-H torsion
[ 10718 10713 10712 10709 ] final -130.23 input   66.30 | X-H torsion
[ 10763 10752 10751 10750 ] final   -7.50 input  -60.55 | X-H torsion
[ 11005 11000 10999 10996 ] final -146.57 input  -57.11 | X-H torsion

> <Gold.Protein.ActiveResidues>
 VAL166  LYS551  ARG553  GLY616  TRP617  ASP618  TYR619  PRO620  LYS621  CYS622 
 ASP623  PHE694  ASN695  SER759  ASP760  ASP761  ALA762  ILE779  LEU786  VAL792 
 PHE793  MET794  SER795  GLU796  ALA797  LYS798  CYS799  TRP800  GLU811  SER814 

> <Gold.Protein.RotatedAtoms>
  150.8027  134.7131  159.6614 H   0  0  0  0  0  0  0  0  0  0  0  0  # atno 6907 bound_to 6896
  152.4144  134.6063  160.0023 H   0  0  0  0  0  0  0  0  0  0  0  0  # atno 6908 bound_to 6896
  151.6297  133.3296  159.3142 H   0  0  0  0  0  0  0  0  0  0  0  0  # atno 6909 bound_to 6896
  146.1311  139.6193  142.9226 H   0  0  0  0  0  0  0  0  0  0  0  0  # atno 7974 bound_to 7965
  155.2350  140.3341  155.4299 H   0  0  0  0  0  0  0  0  0  0  0  0  # atno 8008 bound_to 7997
  156.2279  140.1837  156.7362 H   0  0  0  0  0  0  0  0  0  0  0  0  # atno 8009 bound_to 7997
  154.5929  140.0635  156.9249 H   0  0  0  0  0  0  0  0  0  0  0  0  # atno 8010 bound_to 7997
  139.6298  144.7113  151.2456 H   0  0  0  0  0  0  0  0  0  0  0  0  # atno 10167 bound_to 10162
  156.2124  130.6927  151.0665 H   0  0  0  0  0  0  0  0  0  0  0  0  # atno 10718 bound_to 10713
  153.4273  135.7011  153.6254 H   0  0  0  0  0  0  0  0  0  0  0  0  # atno 10763 bound_to 10752
  153.4684  135.3720  155.2377 H   0  0  0  0  0  0  0  0  0  0  0  0  # atno 10764 bound_to 10752
  154.8724  135.4037  154.3651 H   0  0  0  0  0  0  0  0  0  0  0  0  # atno 10765 bound_to 10752
  140.7806  134.3083  157.5046 H   0  0  0  0  0  0  0  0  0  0  0  0  # atno 11005 bound_to 11000
  145.5258  141.0429  143.2410 LP  0  0  0  0  0  0  0  0  0  0  0  0  # atno 17320 bound_to 7965
  144.7692  139.6775  143.7202 LP  0  0  0  0  0  0  0  0  0  0  0  0  # atno 17321 bound_to 7965
  140.7432  143.6501  150.8256 LP  0  0  0  0  0  0  0  0  0  0  0  0  # atno 17342 bound_to 10162
  140.0124  143.5628  152.2833 LP  0  0  0  0  0  0  0  0  0  0  0  0  # atno 17343 bound_to 10162
  157.7045  131.0762  150.6711 LP  0  0  0  0  0  0  0  0  0  0  0  0  # atno 17370 bound_to 10713
  156.6771  130.4556  149.5639 LP  0  0  0  0  0  0  0  0  0  0  0  0  # atno 17371 bound_to 10713
  139.8743  134.9316  156.3533 LP  0  0  0  0  0  0  0  0  0  0  0  0  # atno 17394 bound_to 11000
  140.9486  133.7466  156.0241 LP  0  0  0  0  0  0  0  0  0  0  0  0  # atno 17395 bound_to 11000

$$$$
