AV-unprocessed.smi:821|AV-procd|sdf|3838|dock10
  -GOLD-   22720 1283D 1   1.00000     0.00000
 Structure written by MMmdl.
 44 45  0  0  0  0  0  0  0  0  1 V2000
  145.8910  143.1736  156.5788 C   0  0  0  0  0  0  0  0  0  0  0  0
  146.7488  142.6336  157.7360 C   0  0  2  0  0  0  0  0  0  0  0  0
  146.6418  143.5401  158.9819 C   0  0  0  0  0  0  0  0  0  0  0  0
  145.6194  143.1525  159.9542 N   0  0  0  0  0  0  0  0  0  0  0  0
  145.7521  143.8585  161.2267 C   0  0  0  0  0  0  0  0  0  0  0  0
  144.6483  143.4622  162.2229 C   0  0  0  0  0  0  0  0  0  0  0  0
  143.3702  143.6965  161.6411 O   0  0  0  0  0  0  0  0  0  0  0  0
  143.1839  142.9829  160.4234 C   0  0  0  0  0  0  0  0  0  0  0  0
  144.2804  143.3824  159.4213 C   0  0  0  0  0  0  0  0  0  0  0  0
  148.1425  142.5545  157.3048 N   0  0  0  0  0  0  0  0  0  0  0  0
  148.8915  141.4416  157.2898 C   0  0  0  0  0  0  0  0  0  0  0  0
  148.4807  140.3439  157.6674 O   0  0  0  0  0  0  0  0  0  0  0  0
  150.3324  141.6023  156.7875 C   0  0  0  0  0  0  0  0  0  0  0  0
  151.2345  142.1507  157.8145 N   0  0  0  0  0  0  0  0  0  0  0  0
  151.1868  143.5391  158.0334 C   0  0  0  0  0  0  0  0  0  0  0  0
  151.9642  144.1361  158.9469 C   0  0  0  0  0  0  0  0  0  0  0  0
  152.8673  143.3149  159.7158 C   0  0  0  0  0  0  0  0  0  0  0  0
  152.9342  141.9764  159.5293 C   0  0  0  0  0  0  0  0  0  0  0  0
  153.8815  141.0918  160.3369 C   0  0  0  0  0  0  0  0  0  0  0  0
  155.0959  141.0793  159.7858 F   0  0  0  0  0  0  0  0  0  0  0  0
  153.9954  141.5458  161.5857 F   0  0  0  0  0  0  0  0  0  0  0  0
  153.4496  139.8313  160.3992 F   0  0  0  0  0  0  0  0  0  0  0  0
  152.0719  141.3284  158.5202 C   0  0  0  0  0  0  0  0  0  0  0  0
  152.0961  140.1135  158.3146 O   0  0  0  0  0  0  0  0  0  0  0  0
  144.8404  143.2330  156.8644 H   0  0  0  0  0  0  0  0  0  0  0  0
  145.9520  142.5270  155.7026 H   0  0  0  0  0  0  0  0  0  0  0  0
  146.2117  144.1717  156.2786 H   0  0  0  0  0  0  0  0  0  0  0  0
  146.3803  141.6372  157.9887 H   0  0  0  0  0  0  0  0  0  0  0  0
  147.6138  143.6334  159.4698 H   0  0  0  0  0  0  0  0  0  0  0  0
  146.3991  144.5461  158.6364 H   0  0  0  0  0  0  0  0  0  0  0  0
  146.7201  143.6421  161.6782 H   0  0  0  0  0  0  0  0  0  0  0  0
  145.7177  144.9359  161.0585 H   0  0  0  0  0  0  0  0  0  0  0  0
  144.7408  142.4119  162.5037 H   0  0  0  0  0  0  0  0  0  0  0  0
  144.7360  144.0469  163.1386 H   0  0  0  0  0  0  0  0  0  0  0  0
  143.2072  141.9092  160.6154 H   0  0  0  0  0  0  0  0  0  0  0  0
  142.1983  143.2157  160.0200 H   0  0  0  0  0  0  0  0  0  0  0  0
  144.1618  144.4354  159.1609 H   0  0  0  0  0  0  0  0  0  0  0  0
  144.1465  142.8165  158.4988 H   0  0  0  0  0  0  0  0  0  0  0  0
  148.5661  143.4129  156.9838 H   0  0  0  0  0  0  0  0  0  0  0  0
  150.7124  140.6429  156.4304 H   0  0  0  0  0  0  0  0  0  0  0  0
  150.3125  142.2454  155.9068 H   0  0  0  0  0  0  0  0  0  0  0  0
  150.4794  144.0804  157.4220 H   0  0  0  0  0  0  0  0  0  0  0  0
  151.9134  145.2030  159.1062 H   0  0  0  0  0  0  0  0  0  0  0  0
  153.4948  143.7941  160.4523 H   0  0  0  0  0  0  0  0  0  0  0  0
  1  2  1  0  0  0  0
  1 25  1  0  0  0  0
  1 26  1  0  0  0  0
  1 27  1  0  0  0  0
  2  3  1  0  0  0  0
  2 10  1  0  0  0  0
  2 28  1  0  0  0  0
  3  4  1  0  0  0  0
  3 29  1  0  0  0  0
  3 30  1  0  0  0  0
  4  9  1  0  0  0  0
  4  5  1  0  0  0  0
  5  6  1  0  0  0  0
  5 31  1  0  0  0  0
  5 32  1  0  0  0  0
  6  7  1  0  0  0  0
  6 33  1  0  0  0  0
  6 34  1  0  0  0  0
  7  8  1  0  0  0  0
  8  9  1  0  0  0  0
  8 35  1  0  0  0  0
  8 36  1  0  0  0  0
  9 37  1  0  0  0  0
  9 38  1  0  0  0  0
 10 11  1  0  0  0  0
 10 39  1  0  0  0  0
 11 12  2  0  0  0  0
 11 13  1  0  0  0  0
 13 14  1  0  0  0  0
 13 40  1  0  0  0  0
 13 41  1  0  0  0  0
 14 23  1  0  0  0  0
 14 15  1  0  0  0  0
 15 16  2  0  0  0  0
 15 42  1  0  0  0  0
 16 17  1  0  0  0  0
 16 43  1  0  0  0  0
 17 18  2  0  0  0  0
 17 44  1  0  0  0  0
 18 19  1  0  0  0  0
 18 23  1  0  0  0  0
 19 20  1  0  0  0  0
 19 21  1  0  0  0  0
 19 22  1  0  0  0  0
 23 24  2  0  0  0  0
M  END
> <s_m_source_file>
AV-unprocessed.smi

> <i_m_source_file_index>
821

> <i_lp_mmshare_version>
43012

> <i_f3d_flags>
0

> <s_epik_input>
W0NIMl0xW0NIMl1PW0NIMl1bQ0gyXU4xW0NIMl1bQ0BASF0oW0NIM10pW05IXUMoPU8pW0NIMl1uMltjSF1bY0hdW2NIXWMoQyhGKShGKUYpYzI9Tw==

> <s_epik_cmdline>
J2VwaWtfcHl0aG9uJywgJy1waCcsICc3LjAnLCAnLXRuJywgJzgnLCAnLW1hJywgJzIwMCcsICctbWV0YWxfYmluZGluZycsICctaW1hZScsICc8aW5maWxlLm1hZT4nLCAnLW9tYWUnLCAnPG91dGZpbGUubWFlPic=

> <r_lp_tautomer_probability>
1

> <r_epik_Ionization_Penalty>
0.237382

> <r_epik_Ionization_Penalty_Charging>
1.90699e-09

> <r_epik_Ionization_Penalty_Neutral>
0.237382

> <r_epik_State_Penalty>
0.228245

> <r_epik_Charging_Adjusted_Penalty>
0.228245

> <i_epik_Tot_Q>
0

> <i_epik_Tot_abs_Q>
0

> <r_epik_Metal_State_Penalty>
0.228219

> <b_epik_Metal_Only>
0

> <s_lp_Force_Field>
OPLS_2005

> <r_lp_Energy>
36.3962

> <b_lp_Chiralities_Consistent>
1

> <s_lp_Variant>
AV-unprocessed.smi:821-1

> <Gold.Version>
5.8.1

> <Gold.Id.Protein>
6NUR|6NUR_protein|mol2

> <Gold.PLP.Fitness>
46.8368

> <Gold.PLP.PLP>
-44.7160

> <Gold.PLP.part.hbond>
-1.0000

> <Gold.PLP.part.metal>
0.0000

> <Gold.PLP.part.buried>
-5.1234

> <Gold.PLP.part.nonpolar>
-37.2102

> <Gold.PLP.part.repulsive>
0.1454

> <Gold.PLP.ligand.clash>
0.0000

> <Gold.PLP.ligand.torsion>
2.1101

> <Gold.PLP.Chemscore.Hbond>
1.0000

> <Gold.PLP.Chemscore.CHOScore>
1.0000

> <Gold.PLP.Chemscore.Metal>
0.0000

> <Gold.Chemscore.Hbonds>
donor molecule, donor type, donor heavy atom, donor atom, acceptor molecule, acceptor atom, score
      L1  H    10    39       P1  8028  1.00
      L1  C    15    42       P1  8028  1.00

> <Gold.PLP.Chemscore.Internal.Correction>
0.3410

> <Gold.Rescore>
     Score         DG    S(hbond)    S(metal)    S(lipo)     H(rot)  DE(clash)    DE(int)     intcor
      9.16     -12.97       0.83        0.00      86.06       2.09       0.12       3.69       ----

> <Gold.Chemscore.Fitness>
9.1614

> <Gold.Chemscore.DG>
-12.9725

> <Gold.Chemscore.ZeroCoef>
-5.4800

> <Gold.Chemscore.Hbond>
0.8325

> <Gold.Chemscore.Metal>
0.0000

> <Gold.Chemscore.Lipo>
86.0575

> <Gold.Chemscore.Internal_Hbond>
0.0000

> <Gold.Chemscore.DEClash>
0.1231

> <Gold.Chemscore.DEInternal>
3.6881

> <Gold.Chemscore.Rot>
2.0924

> <Gold.Chemscore.Internal.Correction>
   9.000000E+99

> <Gold.Chemscore.Hbonds>
donor molecule, donor type, donor heavy atom, donor atom, acceptor molecule, acceptor atom, score
      L1  H    10    39       P1  8028  0.29

> <Gold.Chemscore.Hbond.Weighted>
-2.7804

> <Gold.Chemscore.Metal.Weighted>
-0.0000

> <Gold.Chemscore.Lipo.Weighted>
-10.0687

> <Gold.Chemscore.Internal_Hbond.Weighted>
0.0000

> <Gold.Chemscore.DEClash.Weighted>
0.1231

> <Gold.Chemscore.DEInternal.Weighted>
3.6881

> <Gold.Chemscore.Rot.Weighted>
5.3566

> <Gold.Chemscore.Internal.Correction.Weighted>
   9.000000E+99

> <Gold.Protein.RotatedTorsions>
[ 6907 6896 6895 6894 ] final   98.29 input  -60.11 | X-H torsion
[ 7974 7965 7964 7962 ] final   31.30 input  175.53 | X-H torsion
[ 8008 7997 7996 7995 ] final   35.89 input   59.86 | X-H torsion
[ 10167 10162 10161 10158 ] final   29.51 input  -65.29 | X-H torsion
[ 10718 10713 10712 10709 ] final  139.20 input   66.30 | X-H torsion
[ 10763 10752 10751 10750 ] final   52.57 input  -60.55 | X-H torsion
[ 11005 11000 10999 10996 ] final  168.37 input  -57.11 | X-H torsion

> <Gold.Protein.ActiveResidues>
 VAL166  LYS551  ARG553  GLY616  TRP617  ASP618  TYR619  PRO620  LYS621  CYS622 
 ASP623  PHE694  ASN695  SER759  ASP760  ASP761  ALA762  ILE779  LEU786  VAL792 
 PHE793  MET794  SER795  GLU796  ALA797  LYS798  CYS799  TRP800  GLU811  SER814 

> <Gold.Protein.RotatedAtoms>
  152.5411  134.0603  159.8148 H   0  0  0  0  0  0  0  0  0  0  0  0  # atno 6907 bound_to 6896
  151.0732  133.5442  159.2633 H   0  0  0  0  0  0  0  0  0  0  0  0  # atno 6908 bound_to 6896
  151.2297  135.0558  159.9037 H   0  0  0  0  0  0  0  0  0  0  0  0  # atno 6909 bound_to 6896
  146.1559  139.6675  142.9067 H   0  0  0  0  0  0  0  0  0  0  0  0  # atno 7974 bound_to 7965
  155.1785  140.3298  155.4379 H   0  0  0  0  0  0  0  0  0  0  0  0  # atno 8008 bound_to 7997
  156.2485  140.1931  156.6834 H   0  0  0  0  0  0  0  0  0  0  0  0  # atno 8009 bound_to 7997
  154.6288  140.0585  156.9692 H   0  0  0  0  0  0  0  0  0  0  0  0  # atno 8010 bound_to 7997
  140.4759  144.0691  150.6250 H   0  0  0  0  0  0  0  0  0  0  0  0  # atno 10167 bound_to 10162
  157.4170  131.1034  151.0394 H   0  0  0  0  0  0  0  0  0  0  0  0  # atno 10718 bound_to 10713
  152.9789  135.5808  154.4601 H   0  0  0  0  0  0  0  0  0  0  0  0  # atno 10763 bound_to 10752
  154.4178  135.2771  155.1997 H   0  0  0  0  0  0  0  0  0  0  0  0  # atno 10764 bound_to 10752
  154.3759  135.6157  153.5819 H   0  0  0  0  0  0  0  0  0  0  0  0  # atno 10765 bound_to 10752
  140.2865  134.7707  157.3803 H   0  0  0  0  0  0  0  0  0  0  0  0  # atno 11005 bound_to 11000
  145.4710  141.0436  143.2699 LP  0  0  0  0  0  0  0  0  0  0  0  0  # atno 17320 bound_to 7965
  144.7962  139.6229  143.7091 LP  0  0  0  0  0  0  0  0  0  0  0  0  # atno 17321 bound_to 7965
  140.3919  143.2748  152.0050 LP  0  0  0  0  0  0  0  0  0  0  0  0  # atno 17342 bound_to 10162
  139.4825  144.6070  151.7503 LP  0  0  0  0  0  0  0  0  0  0  0  0  # atno 17343 bound_to 10162
  157.1338  130.6113  149.5536 LP  0  0  0  0  0  0  0  0  0  0  0  0  # atno 17370 bound_to 10713
  155.9868  130.4905  150.7097 LP  0  0  0  0  0  0  0  0  0  0  0  0  # atno 17371 bound_to 10713
  140.1234  134.5189  155.8164 LP  0  0  0  0  0  0  0  0  0  0  0  0  # atno 17394 bound_to 11000
  141.2154  133.6764  156.6908 LP  0  0  0  0  0  0  0  0  0  0  0  0  # atno 17395 bound_to 11000

$$$$
