AV-unprocessed.smi:529|AV-procd|sdf|2840|dock3
  -GOLD-   2262023333D 1   1.00000     0.00000
 Structure written by MMmdl.
 30 31  0  0  0  0  0  0  0  0  1 V2000
  150.2209  140.2923  153.9010 N   0  0  0  0  0  0  0  0  0  0  0  0
  150.7397  139.3622  154.6230 C   0  0  0  0  0  0  0  0  0  0  0  0
  151.3056  137.7238  154.0450 S   0  0  0  0  0  0  0  0  0  0  0  0
  151.7997  137.3284  155.6773 C   0  0  0  0  0  0  0  0  0  0  0  0
  151.5533  138.3205  156.5311 C   0  0  0  0  0  0  0  0  0  0  0  0
  150.9663  139.4503  155.9986 N   0  0  0  0  0  0  0  0  0  0  0  0
  150.6712  140.6346  156.8061 C   0  0  0  0  0  0  0  0  0  0  0  0
  151.8481  141.0877  157.6812 C   0  0  0  0  0  0  0  0  0  0  0  0
  152.8522  140.3862  157.8123 O   0  0  0  0  0  0  0  0  0  0  0  0
  151.6994  142.2744  158.2888 N   0  0  0  0  0  0  0  0  0  0  0  0
  152.6878  142.8963  159.1658 C   0  0  0  0  0  0  0  0  0  0  0  0
  152.8536  142.1163  160.4872 C   0  0  0  0  0  0  0  0  0  0  0  0
  152.7457  143.1517  161.6080 C   0  0  0  0  0  0  0  0  0  0  0  0
  151.8390  144.2354  161.0336 C   0  0  0  0  0  0  0  0  0  0  0  0
  152.2435  144.3165  159.5616 C   0  0  0  0  0  0  0  0  0  0  0  0
  150.1585  139.9956  152.9382 H   0  0  0  0  0  0  0  0  0  0  0  0
  152.2509  136.3754  155.9105 H   0  0  0  0  0  0  0  0  0  0  0  0
  151.7691  138.3231  157.5896 H   0  0  0  0  0  0  0  0  0  0  0  0
  150.3573  141.4593  156.1644 H   0  0  0  0  0  0  0  0  0  0  0  0
  149.8217  140.4224  157.4568 H   0  0  0  0  0  0  0  0  0  0  0  0
  150.8423  142.7849  158.1332 H   0  0  0  0  0  0  0  0  0  0  0  0
  153.6436  142.9604  158.6423 H   0  0  0  0  0  0  0  0  0  0  0  0
  152.0541  141.3830  160.6052 H   0  0  0  0  0  0  0  0  0  0  0  0
  153.7968  141.5707  160.5260 H   0  0  0  0  0  0  0  0  0  0  0  0
  152.3603  142.7277  162.5357 H   0  0  0  0  0  0  0  0  0  0  0  0
  153.7305  143.5715  161.8169 H   0  0  0  0  0  0  0  0  0  0  0  0
  150.7970  143.9226  161.1130 H   0  0  0  0  0  0  0  0  0  0  0  0
  151.9422  145.1893  161.5512 H   0  0  0  0  0  0  0  0  0  0  0  0
  153.0900  144.9972  159.4620 H   0  0  0  0  0  0  0  0  0  0  0  0
  151.4418  144.7116  158.9362 H   0  0  0  0  0  0  0  0  0  0  0  0
  1  2  2  0  0  0  0
  1 16  1  0  0  0  0
  2  6  1  0  0  0  0
  2  3  1  0  0  0  0
  3  4  1  0  0  0  0
  4  5  2  0  0  0  0
  4 17  1  0  0  0  0
  5  6  1  0  0  0  0
  5 18  1  0  0  0  0
  6  7  1  0  0  0  0
  7  8  1  0  0  0  0
  7 19  1  0  0  0  0
  7 20  1  0  0  0  0
  8  9  2  0  0  0  0
  8 10  1  0  0  0  0
 10 11  1  0  0  0  0
 10 21  1  0  0  0  0
 11 15  1  0  0  0  0
 11 12  1  0  0  0  0
 11 22  1  0  0  0  0
 12 13  1  0  0  0  0
 12 23  1  0  0  0  0
 12 24  1  0  0  0  0
 13 14  1  0  0  0  0
 13 25  1  0  0  0  0
 13 26  1  0  0  0  0
 14 15  1  0  0  0  0
 14 27  1  0  0  0  0
 14 28  1  0  0  0  0
 15 29  1  0  0  0  0
 15 30  1  0  0  0  0
M  END
> <s_m_source_file>
AV-unprocessed.smi

> <i_m_source_file_index>
529

> <i_lp_mmshare_version>
43012

> <i_f3d_flags>
0

> <s_epik_input>
W0hdL049YzFcc1tjSF1bY0hdbjFbQ0gyXUMoPU8pW05IXVtDSF0yW0NIMl1bQ0gyXVtDSDJdW0NIMl0y

> <s_epik_cmdline>
J2VwaWtfcHl0aG9uJywgJy1waCcsICc3LjAnLCAnLXRuJywgJzgnLCAnLW1hJywgJzIwMCcsICctbWV0YWxfYmluZGluZycsICctaW1hZScsICc8aW5maWxlLm1hZT4nLCAnLW9tYWUnLCAnPG91dGZpbGUubWFlPic=

> <r_epik_Ionization_Penalty>
2.18041

> <r_epik_Ionization_Penalty_Charging>
2.18041

> <r_epik_Ionization_Penalty_Neutral>
1.25369e-07

> <r_epik_State_Penalty>
2.33404

> <r_epik_Charging_Adjusted_Penalty>
4.51444

> <i_epik_Tot_Q>
0

> <i_epik_Tot_abs_Q>
0

> <r_epik_Metal_State_Penalty>
2.33404

> <b_epik_Metal_Only>
0

> <s_lp_Force_Field>
OPLS_2005

> <r_lp_Energy>
15.3577

> <b_lp_Chiralities_Consistent>
1

> <s_lp_Variant>
AV-unprocessed.smi:529-2

> <Gold.Version>
5.8.1

> <Gold.Id.Protein>
6NUR|6NUR_protein|mol2

> <Gold.PLP.Fitness>
41.0226

> <Gold.PLP.PLP>
-34.9376

> <Gold.PLP.part.hbond>
-2.9634

> <Gold.PLP.part.metal>
0.0000

> <Gold.PLP.part.buried>
-2.3165

> <Gold.PLP.part.nonpolar>
-29.8531

> <Gold.PLP.part.repulsive>
0.0611

> <Gold.PLP.ligand.clash>
0.0000

> <Gold.PLP.ligand.torsion>
0.2408

> <Gold.PLP.Chemscore.Hbond>
2.1856

> <Gold.PLP.Chemscore.CHOScore>
0.0000

> <Gold.PLP.Chemscore.Metal>
0.0000

> <Gold.Chemscore.Hbonds>
donor molecule, donor type, donor heavy atom, donor atom, acceptor molecule, acceptor atom, score
      L1  H     1    16       P1  7957  1.00
      P1  H  7989  7998       L1     1  0.12
      P1  H  7997  8008       L1     9  0.90

> <Gold.PLP.Chemscore.Internal.Correction>
0.0098

> <Gold.Rescore>
     Score         DG    S(hbond)    S(metal)    S(lipo)     H(rot)  DE(clash)    DE(int)     intcor
     15.45     -17.27       1.74        0.00      85.22       1.56       0.08       1.74       ----

> <Gold.Chemscore.Fitness>
15.4543

> <Gold.Chemscore.DG>
-17.2708

> <Gold.Chemscore.ZeroCoef>
-5.4800

> <Gold.Chemscore.Hbond>
1.7434

> <Gold.Chemscore.Metal>
0.0000

> <Gold.Chemscore.Lipo>
85.2167

> <Gold.Chemscore.Internal_Hbond>
0.0000

> <Gold.Chemscore.DEClash>
0.0769

> <Gold.Chemscore.DEInternal>
1.7396

> <Gold.Chemscore.Rot>
1.5635

> <Gold.Chemscore.Internal.Correction>
   9.000000E+99

> <Gold.Chemscore.Hbonds>
donor molecule, donor type, donor heavy atom, donor atom, acceptor molecule, acceptor atom, score
      L1  H     1    16       P1  7957  0.99
      P1  H  7997  8008       L1     9  0.86

> <Gold.Chemscore.Hbond.Weighted>
-5.8230

> <Gold.Chemscore.Metal.Weighted>
-0.0000

> <Gold.Chemscore.Lipo.Weighted>
-9.9703

> <Gold.Chemscore.Internal_Hbond.Weighted>
0.0000

> <Gold.Chemscore.DEClash.Weighted>
0.0769

> <Gold.Chemscore.DEInternal.Weighted>
1.7396

> <Gold.Chemscore.Rot.Weighted>
4.0025

> <Gold.Chemscore.Internal.Correction.Weighted>
   9.000000E+99

> <Gold.Protein.RotatedTorsions>
[ 6907 6896 6895 6894 ] final -164.54 input  -60.11 | X-H torsion
[ 7974 7965 7964 7962 ] final  127.67 input  175.53 | X-H torsion
[ 8008 7997 7996 7995 ] final  -72.55 input   59.86 | X-H torsion
[ 10167 10162 10161 10158 ] final -155.85 input  -65.29 | X-H torsion
[ 10718 10713 10712 10709 ] final   27.31 input   66.30 | X-H torsion
[ 10763 10752 10751 10750 ] final  -69.12 input  -60.55 | X-H torsion
[ 11005 11000 10999 10996 ] final  -11.06 input  -57.11 | X-H torsion

> <Gold.Protein.ActiveResidues>
 VAL166  LYS551  ARG553  GLY616  TRP617  ASP618  TYR619  PRO620  LYS621  CYS622 
 ASP623  PHE694  ASN695  SER759  ASP760  ASP761  ALA762  ILE779  LEU786  VAL792 
 PHE793  MET794  SER795  GLU796  ALA797  LYS798  CYS799  TRP800  GLU811  SER814 

> <Gold.Protein.RotatedAtoms>
  151.4134  133.3720  159.2746 H   0  0  0  0  0  0  0  0  0  0  0  0  # atno 6907 bound_to 6896
  150.9346  134.8761  159.7584 H   0  0  0  0  0  0  0  0  0  0  0  0  # atno 6908 bound_to 6896
  152.5044  134.4081  159.9491 H   0  0  0  0  0  0  0  0  0  0  0  0  # atno 6909 bound_to 6896
  145.0480  139.3907  143.5068 H   0  0  0  0  0  0  0  0  0  0  0  0  # atno 7974 bound_to 7965
  154.5175  140.0795  156.8110 H   0  0  0  0  0  0  0  0  0  0  0  0  # atno 8008 bound_to 7997
  155.3647  140.3420  155.4223 H   0  0  0  0  0  0  0  0  0  0  0  0  # atno 8009 bound_to 7997
  156.1645  140.1599  156.8543 H   0  0  0  0  0  0  0  0  0  0  0  0  # atno 8010 bound_to 7997
  139.6898  143.9440  152.2379 H   0  0  0  0  0  0  0  0  0  0  0  0  # atno 10167 bound_to 10162
  157.2185  130.6968  149.6260 H   0  0  0  0  0  0  0  0  0  0  0  0  # atno 10718 bound_to 10713
  154.3989  135.6035  153.5885 H   0  0  0  0  0  0  0  0  0  0  0  0  # atno 10763 bound_to 10752
  152.9788  135.5901  154.4208 H   0  0  0  0  0  0  0  0  0  0  0  0  # atno 10764 bound_to 10752
  154.4004  135.2843  155.2078 H   0  0  0  0  0  0  0  0  0  0  0  0  # atno 10765 bound_to 10752
  140.7513  133.8590  155.9047 H   0  0  0  0  0  0  0  0  0  0  0  0  # atno 11005 bound_to 11000
  146.3515  140.0115  142.8666 LP  0  0  0  0  0  0  0  0  0  0  0  0  # atno 17320 bound_to 7965
  145.1563  140.9649  143.4403 LP  0  0  0  0  0  0  0  0  0  0  0  0  # atno 17321 bound_to 7965
  139.9253  144.6775  150.8419 LP  0  0  0  0  0  0  0  0  0  0  0  0  # atno 17342 bound_to 10162
  140.7679  143.3346  151.2336 LP  0  0  0  0  0  0  0  0  0  0  0  0  # atno 17343 bound_to 10162
  155.9684  130.4527  150.5786 LP  0  0  0  0  0  0  0  0  0  0  0  0  # atno 17370 bound_to 10713
  157.3600  131.0748  151.1644 LP  0  0  0  0  0  0  0  0  0  0  0  0  # atno 17371 bound_to 10713
  140.9748  134.1483  157.4545 LP  0  0  0  0  0  0  0  0  0  0  0  0  # atno 17394 bound_to 11000
  139.8787  134.9991  156.5935 LP  0  0  0  0  0  0  0  0  0  0  0  0  # atno 17395 bound_to 11000

$$$$
