#       Name:                AV-unprocessed.smi:2898
#       Creating user name   scv26
#       Creation time:       Fri Mar 27 16:01:58 2020


#       File generated by GOLD software.
#

@<TRIPOS>MOLECULE
AV-unprocessed.smi:2898
    50    51     1
SMALL
NO_CHARGES


@<TRIPOS>ATOM
      1 ****        -3.0794  -0.6297   0.5170 C.3            1 S1                 0.0000
      2 ****        -2.5569   0.2339  -0.5951 C.2            1 S1                 0.0000
      3 ****        -2.6144  -0.2041  -1.8405 N.2            1 S1                 0.0000
      4 ****        -2.0350   0.7974  -2.6233 O.3            1 S1                 0.0000
      5 ****        -1.6439   1.8107  -1.8093 C.2            1 S1                 0.0000
      6 ****        -0.9770   2.9671  -2.4751 C.3            1 S1                 0.0000
      7 ****        -1.9531   1.5220  -0.5057 C.2            1 S1                 0.0000
      8 ****        -1.6971   2.3226   0.7552 C.3            1 S1                 0.0000
      9 ****        -2.2617   3.7477   0.6502 C.3            1 S1                 0.0000
     10 ****        -0.2040   2.3338   1.1489 C.3            1 S1                 0.0000
     11 ****         0.3379   0.9809   1.2542 N.am           1 S1                 0.0000
     12 ****         1.0934   0.3616   0.3301 C.2            1 S1                 0.0000
     13 ****         1.4935   0.9316  -0.6864 O.2            1 S1                 0.0000
     14 ****         1.4306  -1.1287   0.5584 C.3            1 S1                 0.0000
     15 ****         0.8449  -1.6251   1.8218 C.1            1 S1                 0.0000
     16 ****         0.3853  -2.0138   2.8109 N.1            1 S1                 0.0000
     17 ****         0.8688  -1.9582  -0.6245 C.3            1 S1                 0.0000
     18 ****         1.2650  -3.4425  -0.5358 C.3            1 S1                 0.0000
     19 ****         2.7910  -3.6018  -0.4607 C.3            1 S1                 0.0000
     20 ****         3.3838  -2.7838   0.6963 C.3            1 S1                 0.0000
     21 ****         2.9692  -1.3050   0.5967 C.3            1 S1                 0.0000
     22 ****        -2.2832  -0.8823   1.2178 H              1 S1                 0.0000
     23 ****        -3.4978  -1.5649   0.1427 H              1 S1                 0.0000
     24 ****        -3.8631  -0.1162   1.0740 H              1 S1                 0.0000
     25 ****        -0.1299   3.3200  -1.8878 H              1 S1                 0.0000
     26 ****        -1.6743   3.7954  -2.5992 H              1 S1                 0.0000
     27 ****        -0.6048   2.6890  -3.4613 H              1 S1                 0.0000
     28 ****        -2.2290   1.8502   1.5820 H              1 S1                 0.0000
     29 ****        -3.3271   3.7314   0.4189 H              1 S1                 0.0000
     30 ****        -1.7602   4.3270  -0.1245 H              1 S1                 0.0000
     31 ****        -2.1384   4.2853   1.5906 H              1 S1                 0.0000
     32 ****         0.3729   2.9271   0.4381 H              1 S1                 0.0000
     33 ****        -0.0813   2.8226   2.1158 H              1 S1                 0.0000
     34 ****         0.0604   0.4487   2.0663 H              1 S1                 0.0000
     35 ****        -0.2189  -1.8784  -0.6528 H              1 S1                 0.0000
     36 ****         1.2259  -1.5589  -1.5753 H              1 S1                 0.0000
     37 ****         0.8035  -3.9015   0.3390 H              1 S1                 0.0000
     38 ****         0.8799  -3.9805  -1.4023 H              1 S1                 0.0000
     39 ****         3.0503  -4.6544  -0.3438 H              1 S1                 0.0000
     40 ****         3.2369  -3.2767  -1.4015 H              1 S1                 0.0000
     41 ****         3.0549  -3.2012   1.6485 H              1 S1                 0.0000
     42 ****         4.4711  -2.8644   0.6862 H              1 S1                 0.0000
     43 ****         3.4246  -0.8750  -0.2970 H              1 S1                 0.0000
     44 ****         3.3857  -0.7570   1.4431 H              1 S1                 0.0000
     45 ****        -2.9943  -1.0732  -2.1573 LP             1 S1                 0.0000
     46 ****        -2.7031   1.1360  -3.2859 LP             1 S1                 0.0000
     47 ****        -1.2417   0.4294  -3.1083 LP             1 S1                 0.0000
     48 ****         1.2581   1.8900  -0.8477 LP             1 S1                 0.0000
     49 ****         2.0537   0.4357  -1.3501 LP             1 S1                 0.0000
     50 ****        -0.0116  -2.3495   3.6651 LP             1 S1                 0.0000
@<TRIPOS>BOND
    1    1    2 1     
    2    1   22 1     
    3    1   23 1     
    4    1   24 1     
    5    2    7 1     
    6    2    3 2     
    7    3    4 1     
    8    4    5 1     
    9    5    6 1     
   10    5    7 2     
   11    6   25 1     
   12    6   26 1     
   13    6   27 1     
   14    7    8 1     
   15    8    9 1     
   16    8   10 1     
   17    8   28 1     
   18    9   29 1     
   19    9   30 1     
   20    9   31 1     
   21   10   11 1     
   22   10   32 1     
   23   10   33 1     
   24   11   12 am    
   25   11   34 1     
   26   12   13 2     
   27   12   14 1     
   28   14   21 1     
   29   14   15 1     
   30   14   17 1     
   31   15   16 3     
   32   17   18 1     
   33   17   35 1     
   34   17   36 1     
   35   18   19 1     
   36   18   37 1     
   37   18   38 1     
   38   19   20 1     
   39   19   39 1     
   40   19   40 1     
   41   20   21 1     
   42   20   41 1     
   43   20   42 1     
   44   21   43 1     
   45   21   44 1     
   46    3   45 1     
   47    4   46 1     
   48    4   47 1     
   49   13   48 1     
   50   13   49 1     
   51   16   50 1     
@<TRIPOS>SUBSTRUCTURE
      1 S1             1
@<TRIPOS>SET
LONE_PAIRS      STATIC     ATOMS    <user>   **** ""
6 45 46 47 48 49 50
DONOR_HYDROGENS      STATIC     ATOMS    <user>   **** ""
1 34
ATOM$BLUE        STATIC     ATOMS    COLORGROUP SYSTEM
6 45 46 47 48 49 50
ATOM$RED        STATIC     ATOMS    COLORGROUP SYSTEM
1 34
