AV-unprocessed.smi:1966|AV-procd|sdf|7950|dock6
  -GOLD-   2272010113D 1   1.00000     0.00000
 Structure written by MMmdl.
 53 54  0  0  0  0  0  0  0  0  1 V2000
  142.1360  137.7084  153.2779 C   0  0  0  0  0  0  0  0  0  0  0  0
  143.5600  137.1704  153.3620 C   0  0  0  0  0  0  0  0  0  0  0  0
  143.7587  135.9617  153.4811 O   0  0  0  0  0  0  0  0  0  0  0  0
  144.5434  138.0822  153.2992 N   0  0  0  0  0  0  0  0  0  0  0  0
  145.9771  137.7933  153.3774 C   0  0  2  0  0  0  0  0  0  0  0  0
  146.6253  138.7755  154.3735 C   0  0  0  0  0  0  0  0  0  0  0  0
  145.9132  139.4906  155.0794 O   0  0  0  0  0  0  0  0  0  0  0  0
  147.9711  138.8009  154.3693 N   0  0  0  0  0  0  0  0  0  0  0  0
  148.8559  139.5698  155.1736 C   0  0  0  0  0  0  0  0  0  0  0  0
  150.0995  140.0825  154.7361 C   0  0  0  0  0  0  0  0  0  0  0  0
  150.8734  140.8493  155.6281 C   0  0  0  0  0  0  0  0  0  0  0  0
  150.3863  141.0977  156.9328 C   0  0  0  0  0  0  0  0  0  0  0  0
  151.1458  141.8699  157.8386 N   0  0  0  0  0  0  0  0  0  0  0  0
  151.8709  141.1707  158.8959 C   0  0  0  0  0  0  0  0  0  0  0  0
  152.8908  142.1117  159.5614 C   0  0  2  0  0  0  0  0  0  0  0  0
  153.5759  141.4538  160.7635 C   0  0  0  0  0  0  0  0  0  0  0  0
  152.2270  143.2881  160.0216 O   0  0  0  0  0  0  0  0  0  0  0  0
  151.5323  144.0180  159.0081 C   0  0  1  0  0  0  0  0  0  0  0  0
  152.4948  144.7325  158.0425 C   0  0  0  0  0  0  0  0  0  0  0  0
  150.5146  143.1054  158.2955 C   0  0  0  0  0  0  0  0  0  0  0  0
  149.1919  140.6085  157.3470 N   0  0  0  0  0  0  0  0  0  0  0  0
  148.4533  139.8740  156.4893 C   0  0  0  0  0  0  0  0  0  0  0  0
  146.6023  137.9675  151.9614 C   0  0  0  0  0  0  0  0  0  0  0  0
  146.6599  139.4493  151.5395 C   0  0  0  0  0  0  0  0  0  0  0  0
  145.8673  137.1613  150.8702 C   0  0  0  0  0  0  0  0  0  0  0  0
  141.9435  138.4039  154.0954 H   0  0  0  0  0  0  0  0  0  0  0  0
  141.4100  136.8972  153.3419 H   0  0  0  0  0  0  0  0  0  0  0  0
  141.9814  138.2319  152.3342 H   0  0  0  0  0  0  0  0  0  0  0  0
  144.2830  139.0532  153.2061 H   0  0  0  0  0  0  0  0  0  0  0  0
  146.1257  136.7651  153.7148 H   0  0  0  0  0  0  0  0  0  0  0  0
  148.4179  138.2148  153.6789 H   0  0  0  0  0  0  0  0  0  0  0  0
  150.4730  139.9172  153.7380 H   0  0  0  0  0  0  0  0  0  0  0  0
  151.8313  141.2284  155.3047 H   0  0  0  0  0  0  0  0  0  0  0  0
  151.1585  140.8015  159.6351 H   0  0  0  0  0  0  0  0  0  0  0  0
  152.3940  140.3058  158.4857 H   0  0  0  0  0  0  0  0  0  0  0  0
  153.6626  142.3827  158.8410 H   0  0  0  0  0  0  0  0  0  0  0  0
  154.1109  140.5519  160.4653 H   0  0  0  0  0  0  0  0  0  0  0  0
  152.8498  141.1758  161.5282 H   0  0  0  0  0  0  0  0  0  0  0  0
  154.2967  142.1328  161.2196 H   0  0  0  0  0  0  0  0  0  0  0  0
  150.9721  144.7968  159.5263 H   0  0  0  0  0  0  0  0  0  0  0  0
  151.9464  145.3929  157.3704 H   0  0  0  0  0  0  0  0  0  0  0  0
  153.0530  144.0325  157.4212 H   0  0  0  0  0  0  0  0  0  0  0  0
  153.2137  145.3425  158.5897 H   0  0  0  0  0  0  0  0  0  0  0  0
  150.0483  143.6545  157.4787 H   0  0  0  0  0  0  0  0  0  0  0  0
  149.7148  142.8408  158.9883 H   0  0  0  0  0  0  0  0  0  0  0  0
  147.5079  139.5157  156.8702 H   0  0  0  0  0  0  0  0  0  0  0  0
  147.6314  137.6049  151.9905 H   0  0  0  0  0  0  0  0  0  0  0  0
  145.6637  139.8920  151.5182 H   0  0  0  0  0  0  0  0  0  0  0  0
  147.0912  139.5575  150.5440 H   0  0  0  0  0  0  0  0  0  0  0  0
  147.2736  140.0443  152.2160 H   0  0  0  0  0  0  0  0  0  0  0  0
  144.8127  137.4344  150.8211 H   0  0  0  0  0  0  0  0  0  0  0  0
  145.9268  136.0866  151.0416 H   0  0  0  0  0  0  0  0  0  0  0  0
  146.3024  137.3457  149.8875 H   0  0  0  0  0  0  0  0  0  0  0  0
  1  2  1  0  0  0  0
  1 26  1  0  0  0  0
  1 27  1  0  0  0  0
  1 28  1  0  0  0  0
  2  3  2  0  0  0  0
  2  4  1  0  0  0  0
  4  5  1  0  0  0  0
  4 29  1  0  0  0  0
  5  6  1  0  0  0  0
  5 23  1  0  0  0  0
  5 30  1  0  0  0  0
  6  7  2  0  0  0  0
  6  8  1  0  0  0  0
  8  9  1  0  0  0  0
  8 31  1  0  0  0  0
  9 22  1  0  0  0  0
  9 10  2  0  0  0  0
 10 11  1  0  0  0  0
 10 32  1  0  0  0  0
 11 12  2  0  0  0  0
 11 33  1  0  0  0  0
 12 13  1  0  0  0  0
 12 21  1  0  0  0  0
 13 20  1  0  0  0  0
 13 14  1  0  0  0  0
 14 15  1  0  0  0  0
 14 34  1  0  0  0  0
 14 35  1  0  0  0  0
 15 16  1  0  0  0  0
 15 17  1  0  0  0  0
 15 36  1  0  0  0  0
 16 37  1  0  0  0  0
 16 38  1  0  0  0  0
 16 39  1  0  0  0  0
 17 18  1  0  0  0  0
 18 19  1  0  0  0  0
 18 20  1  0  0  0  0
 18 40  1  0  0  0  0
 19 41  1  0  0  0  0
 19 42  1  0  0  0  0
 19 43  1  0  0  0  0
 20 44  1  0  0  0  0
 20 45  1  0  0  0  0
 21 22  2  0  0  0  0
 22 46  1  0  0  0  0
 23 24  1  0  0  0  0
 23 25  1  0  0  0  0
 23 47  1  0  0  0  0
 24 48  1  0  0  0  0
 24 49  1  0  0  0  0
 24 50  1  0  0  0  0
 25 51  1  0  0  0  0
 25 52  1  0  0  0  0
 25 53  1  0  0  0  0
M  END
> <s_m_source_file>
AV-unprocessed.smi

> <i_m_source_file_index>
1966

> <i_lp_mmshare_version>
43012

> <i_f3d_flags>
0

> <s_epik_input>
W0NIM11DKD1PKVtOSF1bQ0BASF0oW0NIXShbQ0gzXSlbQ0gzXSlDKD1PKVtOSF1jMVtjSF1bY0hdYyhuW2NIXTEpTjJbQ0gyXVtDQEBIXShbQ0gzXSlPW0NAQEhdKFtDSDNdKVtDSDJdMg==

> <s_epik_cmdline>
J2VwaWtfcHl0aG9uJywgJy1waCcsICc3LjAnLCAnLXRuJywgJzgnLCAnLW1hJywgJzIwMCcsICctbWV0YWxfYmluZGluZycsICctaW1hZScsICc8aW5maWxlLm1hZT4nLCAnLW9tYWUnLCAnPG91dGZpbGUubWFlPic=

> <r_lp_tautomer_probability>
1

> <r_epik_Ionization_Penalty>
0.000679699

> <r_epik_Ionization_Penalty_Charging>
0

> <r_epik_Ionization_Penalty_Neutral>
0.000679699

> <r_epik_State_Penalty>
0.000430485

> <r_epik_Charging_Adjusted_Penalty>
0.000430485

> <i_epik_Tot_Q>
0

> <i_epik_Tot_abs_Q>
0

> <r_epik_Metal_State_Penalty>
-0

> <b_epik_Metal_Only>
0

> <s_lp_Force_Field>
OPLS_2005

> <r_lp_Energy>
28.7238

> <b_lp_Chiralities_Consistent>
1

> <s_lp_Variant>
AV-unprocessed.smi:1966-3

> <Gold.Version>
5.8.1

> <Gold.Id.Protein>
6NUR|6NUR_protein|mol2

> <Gold.PLP.Fitness>
42.5530

> <Gold.PLP.PLP>
-41.0114

> <Gold.PLP.part.hbond>
-1.0000

> <Gold.PLP.part.metal>
0.0000

> <Gold.PLP.part.buried>
4.7018

> <Gold.PLP.part.nonpolar>
-44.3782

> <Gold.PLP.part.repulsive>
0.2196

> <Gold.PLP.ligand.clash>
0.0000

> <Gold.PLP.ligand.torsion>
0.8970

> <Gold.PLP.Chemscore.Hbond>
1.0000

> <Gold.PLP.Chemscore.CHOScore>
0.0000

> <Gold.PLP.Chemscore.Metal>
0.0000

> <Gold.Chemscore.Hbonds>
donor molecule, donor type, donor heavy atom, donor atom, acceptor molecule, acceptor atom, score
      L1  H     4    29       P1 10175  1.00

> <Gold.PLP.Chemscore.Internal.Correction>
0.3356

> <Gold.Rescore>
     Score         DG    S(hbond)    S(metal)    S(lipo)     H(rot)  DE(clash)    DE(int)     intcor
     13.98     -18.68       1.00        0.00     120.96       1.68       2.69       2.01       ----

> <Gold.Chemscore.Fitness>
13.9802

> <Gold.Chemscore.DG>
-18.6798

> <Gold.Chemscore.ZeroCoef>
-5.4800

> <Gold.Chemscore.Hbond>
0.9994

> <Gold.Chemscore.Metal>
0.0000

> <Gold.Chemscore.Lipo>
120.9559

> <Gold.Chemscore.Internal_Hbond>
0.0000

> <Gold.Chemscore.DEClash>
2.6897

> <Gold.Chemscore.DEInternal>
2.0099

> <Gold.Chemscore.Rot>
1.6759

> <Gold.Chemscore.Internal.Correction>
   9.000000E+99

> <Gold.Chemscore.Hbonds>
donor molecule, donor type, donor heavy atom, donor atom, acceptor molecule, acceptor atom, score
      L1  H     4    29       P1 10175  0.99

> <Gold.Chemscore.Hbond.Weighted>
-3.3381

> <Gold.Chemscore.Metal.Weighted>
-0.0000

> <Gold.Chemscore.Lipo.Weighted>
-14.1518

> <Gold.Chemscore.Internal_Hbond.Weighted>
0.0000

> <Gold.Chemscore.DEClash.Weighted>
2.6897

> <Gold.Chemscore.DEInternal.Weighted>
2.0099

> <Gold.Chemscore.Rot.Weighted>
4.2902

> <Gold.Chemscore.Internal.Correction.Weighted>
   9.000000E+99

> <Gold.Protein.RotatedTorsions>
[ 6907 6896 6895 6894 ] final -163.91 input  -60.11 | X-H torsion
[ 7974 7965 7964 7962 ] final   24.51 input  175.53 | X-H torsion
[ 8008 7997 7996 7995 ] final  116.49 input   59.86 | X-H torsion
[ 10167 10162 10161 10158 ] final -134.20 input  -65.29 | X-H torsion
[ 10718 10713 10712 10709 ] final  -24.73 input   66.30 | X-H torsion
[ 10763 10752 10751 10750 ] final  155.78 input  -60.55 | X-H torsion
[ 11005 11000 10999 10996 ] final  -14.67 input  -57.11 | X-H torsion

> <Gold.Protein.ActiveResidues>
 VAL166  LYS551  ARG553  GLY616  TRP617  ASP618  TYR619  PRO620  LYS621  CYS622 
 ASP623  PHE694  ASN695  SER759  ASP760  ASP761  ALA762  ILE779  LEU786  VAL792 
 PHE793  MET794  SER795  GLU796  ALA797  LYS798  CYS799  TRP800  GLU811  SER814 

> <Gold.Protein.RotatedAtoms>
  151.4034  133.3750  159.2734 H   0  0  0  0  0  0  0  0  0  0  0  0  # atno 6907 bound_to 6896
  150.9416  134.8826  159.7626 H   0  0  0  0  0  0  0  0  0  0  0  0  # atno 6908 bound_to 6896
  152.5074  134.3985  159.9460 H   0  0  0  0  0  0  0  0  0  0  0  0  # atno 6909 bound_to 6896
  146.1934  139.7594  142.8815 H   0  0  0  0  0  0  0  0  0  0  0  0  # atno 7974 bound_to 7965
  156.2442  140.2916  156.0531 H   0  0  0  0  0  0  0  0  0  0  0  0  # atno 8008 bound_to 7997
  155.1859  140.0405  157.2908 H   0  0  0  0  0  0  0  0  0  0  0  0  # atno 8009 bound_to 7997
  154.6227  140.2480  155.7536 H   0  0  0  0  0  0  0  0  0  0  0  0  # atno 8010 bound_to 7997
  139.8905  143.6729  152.2613 H   0  0  0  0  0  0  0  0  0  0  0  0  # atno 10167 bound_to 10162
  156.4737  130.4530  149.6853 H   0  0  0  0  0  0  0  0  0  0  0  0  # atno 10718 bound_to 10713
  154.1739  135.2803  155.3073 H   0  0  0  0  0  0  0  0  0  0  0  0  # atno 10763 bound_to 10752
  154.6054  135.5516  153.7421 H   0  0  0  0  0  0  0  0  0  0  0  0  # atno 10764 bound_to 10752
  153.0157  135.6402  154.1879 H   0  0  0  0  0  0  0  0  0  0  0  0  # atno 10765 bound_to 10752
  140.7888  133.8304  155.9360 H   0  0  0  0  0  0  0  0  0  0  0  0  # atno 11005 bound_to 11000
  145.3722  141.0344  143.3225 LP  0  0  0  0  0  0  0  0  0  0  0  0  # atno 17320 bound_to 7965
  144.8531  139.5291  143.6847 LP  0  0  0  0  0  0  0  0  0  0  0  0  # atno 17321 bound_to 7965
  139.7114  144.7619  151.1105 LP  0  0  0  0  0  0  0  0  0  0  0  0  # atno 17342 bound_to 10162
  140.7727  143.5325  150.9406 LP  0  0  0  0  0  0  0  0  0  0  0  0  # atno 17343 bound_to 10162
  156.3592  130.7472  151.2442 LP  0  0  0  0  0  0  0  0  0  0  0  0  # atno 17370 bound_to 10713
  157.7489  131.0355  150.4366 LP  0  0  0  0  0  0  0  0  0  0  0  0  # atno 17371 bound_to 10713
  140.9410  134.1901  157.4798 LP  0  0  0  0  0  0  0  0  0  0  0  0  # atno 17394 bound_to 11000
  139.8733  134.9871  156.5356 LP  0  0  0  0  0  0  0  0  0  0  0  0  # atno 17395 bound_to 11000

$$$$
