AV-unprocessed.smi:435|AV-procd|sdf|2557|dock10
  -GOLD-   2262022523D 1   1.00000     0.00000
 Structure written by MMmdl.
 44 45  0  0  0  0  0  0  0  0  1 V2000
  145.5129  137.1999  162.4568 C   0  0  0  0  0  0  0  0  0  0  0  0
  146.4427  136.4913  161.5090 C   0  0  0  0  0  0  0  0  0  0  0  0
  146.9521  137.2013  160.5565 N   0  0  0  0  0  0  0  0  0  0  0  0
  147.8130  136.6480  159.6283 N   0  0  0  0  0  0  0  0  0  0  0  0
  148.2859  137.5938  158.6069 C   0  0  0  0  0  0  0  0  0  0  0  0
  149.8161  137.7075  158.5556 C   0  0  0  0  0  0  0  0  0  0  0  0
  150.5258  136.8905  159.1441 O   0  0  0  0  0  0  0  0  0  0  0  0
  150.3070  138.7183  157.8227 N   0  0  0  0  0  0  0  0  0  0  0  0
  151.7243  139.0113  157.6173 C   0  0  2  0  0  0  0  0  0  0  0  0
  152.4074  139.3159  158.9645 C   0  0  0  0  0  0  0  0  0  0  0  0
  151.9607  140.6654  159.5551 C   0  0  0  0  0  0  0  0  0  0  0  0
  152.1743  141.8224  158.5606 C   0  0  2  0  0  0  0  0  0  0  0  0
  151.7196  143.1627  159.1554 C   0  0  0  0  0  0  0  0  0  0  0  0
  151.4610  141.5254  157.2274 C   0  0  0  0  0  0  0  0  0  0  0  0
  151.9126  140.1809  156.6294 C   0  0  0  0  0  0  0  0  0  0  0  0
  148.2112  135.3431  159.6194 C   0  0  0  0  0  0  0  0  0  0  0  0
  148.9863  134.8929  158.7741 O   0  0  0  0  0  0  0  0  0  0  0  0
  147.6313  134.5451  160.7019 C   0  0  0  0  0  0  0  0  0  0  0  0
  148.0179  133.1713  160.7252 C   0  0  0  0  0  0  0  0  0  0  0  0
  148.3147  132.0527  160.7547 N   0  0  0  0  0  0  0  0  0  0  0  0
  146.7839  135.0764  161.6184 C   0  0  0  0  0  0  0  0  0  0  0  0
  146.1551  134.2899  162.7605 C   0  0  0  0  0  0  0  0  0  0  0  0
  145.9287  137.2182  163.4643 H   0  0  0  0  0  0  0  0  0  0  0  0
  144.5456  136.6988  162.4984 H   0  0  0  0  0  0  0  0  0  0  0  0
  145.3340  138.2331  162.1546 H   0  0  0  0  0  0  0  0  0  0  0  0
  147.9396  137.2887  157.6178 H   0  0  0  0  0  0  0  0  0  0  0  0
  147.8451  138.5777  158.7795 H   0  0  0  0  0  0  0  0  0  0  0  0
  149.6483  139.3354  157.3700 H   0  0  0  0  0  0  0  0  0  0  0  0
  152.2021  138.1233  157.1991 H   0  0  0  0  0  0  0  0  0  0  0  0
  152.2119  138.5134  159.6770 H   0  0  0  0  0  0  0  0  0  0  0  0
  153.4881  139.3332  158.8193 H   0  0  0  0  0  0  0  0  0  0  0  0
  150.9088  140.6120  159.8386 H   0  0  0  0  0  0  0  0  0  0  0  0
  152.5146  140.8590  160.4744 H   0  0  0  0  0  0  0  0  0  0  0  0
  153.2439  141.8992  158.3591 H   0  0  0  0  0  0  0  0  0  0  0  0
  150.6531  143.1542  159.3825 H   0  0  0  0  0  0  0  0  0  0  0  0
  151.9058  143.9836  158.4628 H   0  0  0  0  0  0  0  0  0  0  0  0
  152.2552  143.3837  160.0790 H   0  0  0  0  0  0  0  0  0  0  0  0
  150.3808  141.5140  157.3803 H   0  0  0  0  0  0  0  0  0  0  0  0
  151.6595  142.3250  156.5128 H   0  0  0  0  0  0  0  0  0  0  0  0
  152.9665  140.2504  156.3571 H   0  0  0  0  0  0  0  0  0  0  0  0
  151.3754  139.9857  155.7006 H   0  0  0  0  0  0  0  0  0  0  0  0
  146.5327  133.2694  162.8156 H   0  0  0  0  0  0  0  0  0  0  0  0
  145.0734  134.2351  162.6341 H   0  0  0  0  0  0  0  0  0  0  0  0
  146.3665  134.7653  163.7189 H   0  0  0  0  0  0  0  0  0  0  0  0
  1  2  1  0  0  0  0
  1 23  1  0  0  0  0
  1 24  1  0  0  0  0
  1 25  1  0  0  0  0
  2 21  1  0  0  0  0
  2  3  2  0  0  0  0
  3  4  1  0  0  0  0
  4  5  1  0  0  0  0
  4 16  1  0  0  0  0
  5  6  1  0  0  0  0
  5 26  1  0  0  0  0
  5 27  1  0  0  0  0
  6  7  2  0  0  0  0
  6  8  1  0  0  0  0
  8  9  1  0  0  0  0
  8 28  1  0  0  0  0
  9 15  1  0  0  0  0
  9 10  1  0  0  0  0
  9 29  1  0  0  0  0
 10 11  1  0  0  0  0
 10 30  1  0  0  0  0
 10 31  1  0  0  0  0
 11 12  1  0  0  0  0
 11 32  1  0  0  0  0
 11 33  1  0  0  0  0
 12 13  1  0  0  0  0
 12 14  1  0  0  0  0
 12 34  1  0  0  0  0
 13 35  1  0  0  0  0
 13 36  1  0  0  0  0
 13 37  1  0  0  0  0
 14 15  1  0  0  0  0
 14 38  1  0  0  0  0
 14 39  1  0  0  0  0
 15 40  1  0  0  0  0
 15 41  1  0  0  0  0
 16 17  2  0  0  0  0
 16 18  1  0  0  0  0
 18 19  1  0  0  0  0
 18 21  2  0  0  0  0
 19 20  3  0  0  0  0
 21 22  1  0  0  0  0
 22 42  1  0  0  0  0
 22 43  1  0  0  0  0
 22 44  1  0  0  0  0
M  END
> <s_m_source_file>
AV-unprocessed.smi

> <i_m_source_file_index>
435

> <i_lp_mmshare_version>
43012

> <i_f3d_flags>
0

> <s_epik_input>
TiNDYyhjMVtDSDNdKWMoPU8pbihuYzFbQ0gzXSlbQ0gyXUMoPU8pW05IXVtDQEBIXTJbQ0gyXVtDSDJdW0NAQEhdKFtDSDNdKVtDSDJdW0NIMl0y

> <s_epik_cmdline>
J2VwaWtfcHl0aG9uJywgJy1waCcsICc3LjAnLCAnLXRuJywgJzgnLCAnLW1hJywgJzIwMCcsICctbWV0YWxfYmluZGluZycsICctaW1hZScsICc8aW5maWxlLm1hZT4nLCAnLW9tYWUnLCAnPG91dGZpbGUubWFlPic=

> <r_lp_tautomer_probability>
1

> <r_epik_Ionization_Penalty>
1.90703e-08

> <r_epik_Ionization_Penalty_Charging>
2.32563e-11

> <r_epik_Ionization_Penalty_Neutral>
1.90471e-08

> <r_epik_State_Penalty>
-0

> <r_epik_Charging_Adjusted_Penalty>
2.32563e-11

> <i_epik_Tot_Q>
0

> <i_epik_Tot_abs_Q>
0

> <r_epik_Metal_State_Penalty>
-0

> <b_epik_Metal_Only>
0

> <s_lp_Force_Field>
OPLS_2005

> <r_lp_Energy>
22.9488

> <b_lp_Chiralities_Consistent>
1

> <s_lp_Variant>
AV-unprocessed.smi:435-2

> <Gold.Version>
5.8.1

> <Gold.Id.Protein>
6NUR|6NUR_protein|mol2

> <Gold.PLP.Fitness>
39.3562

> <Gold.PLP.PLP>
-33.6502

> <Gold.PLP.part.hbond>
-3.0000

> <Gold.PLP.part.metal>
0.0000

> <Gold.PLP.part.buried>
-4.7963

> <Gold.PLP.part.nonpolar>
-25.6627

> <Gold.PLP.part.repulsive>
0.0635

> <Gold.PLP.ligand.clash>
0.0000

> <Gold.PLP.ligand.torsion>
0.1508

> <Gold.PLP.Chemscore.Hbond>
2.0000

> <Gold.PLP.Chemscore.CHOScore>
0.0000

> <Gold.PLP.Chemscore.Metal>
0.0000

> <Gold.Chemscore.Hbonds>
donor molecule, donor type, donor heavy atom, donor atom, acceptor molecule, acceptor atom, score
      P1  H  6896  6907       L1     7  0.99
      P1  H  6934  6947       L1     3  1.00

> <Gold.PLP.Chemscore.Internal.Correction>
0.0078

> <Gold.Rescore>
     Score         DG    S(hbond)    S(metal)    S(lipo)     H(rot)  DE(clash)    DE(int)     intcor
     18.21     -19.41       2.00        0.00      94.00       1.46       0.86       0.34       ----

> <Gold.Chemscore.Fitness>
18.2139

> <Gold.Chemscore.DG>
-19.4140

> <Gold.Chemscore.ZeroCoef>
-5.4800

> <Gold.Chemscore.Hbond>
1.9993

> <Gold.Chemscore.Metal>
0.0000

> <Gold.Chemscore.Lipo>
93.9979

> <Gold.Chemscore.Internal_Hbond>
0.0000

> <Gold.Chemscore.DEClash>
0.8637

> <Gold.Chemscore.DEInternal>
0.3364

> <Gold.Chemscore.Rot>
1.4615

> <Gold.Chemscore.Internal.Correction>
   9.000000E+99

> <Gold.Chemscore.Hbonds>
donor molecule, donor type, donor heavy atom, donor atom, acceptor molecule, acceptor atom, score
      P1  H  6896  6907       L1     7  0.92
      P1  H  6934  6947       L1     3  0.87

> <Gold.Chemscore.Hbond.Weighted>
-6.6776

> <Gold.Chemscore.Metal.Weighted>
-0.0000

> <Gold.Chemscore.Lipo.Weighted>
-10.9978

> <Gold.Chemscore.Internal_Hbond.Weighted>
0.0000

> <Gold.Chemscore.DEClash.Weighted>
0.8637

> <Gold.Chemscore.DEInternal.Weighted>
0.3364

> <Gold.Chemscore.Rot.Weighted>
3.7414

> <Gold.Chemscore.Internal.Correction.Weighted>
   9.000000E+99

> <Gold.Protein.RotatedTorsions>
[ 6907 6896 6895 6894 ] final  -34.27 input  -60.11 | X-H torsion
[ 7974 7965 7964 7962 ] final  -42.20 input  175.53 | X-H torsion
[ 8008 7997 7996 7995 ] final -173.04 input   59.86 | X-H torsion
[ 10167 10162 10161 10158 ] final   21.78 input  -65.29 | X-H torsion
[ 10718 10713 10712 10709 ] final    6.88 input   66.30 | X-H torsion
[ 10763 10752 10751 10750 ] final  -90.17 input  -60.55 | X-H torsion
[ 11005 11000 10999 10996 ] final   35.13 input  -57.11 | X-H torsion

> <Gold.Protein.ActiveResidues>
 VAL166  LYS551  ARG553  GLY616  TRP617  ASP618  TYR619  PRO620  LYS621  CYS622 
 ASP623  PHE694  ASN695  SER759  ASP760  ASP761  ALA762  ILE779  LEU786  VAL792 
 PHE793  MET794  SER795  GLU796  ALA797  LYS798  CYS799  TRP800  GLU811  SER814 

> <Gold.Protein.RotatedAtoms>
  151.0548  134.9697  159.8229 H   0  0  0  0  0  0  0  0  0  0  0  0  # atno 6907 bound_to 6896
  152.5386  134.2492  159.8902 H   0  0  0  0  0  0  0  0  0  0  0  0  # atno 6908 bound_to 6896
  151.2509  133.4308  159.2645 H   0  0  0  0  0  0  0  0  0  0  0  0  # atno 6909 bound_to 6896
  146.0138  140.6932  142.9211 H   0  0  0  0  0  0  0  0  0  0  0  0  # atno 7974 bound_to 7965
  155.9523  140.1128  157.0966 H   0  0  0  0  0  0  0  0  0  0  0  0  # atno 8008 bound_to 7997
  154.4112  140.1198  156.5135 H   0  0  0  0  0  0  0  0  0  0  0  0  # atno 8009 bound_to 7997
  155.6826  140.3473  155.4864 H   0  0  0  0  0  0  0  0  0  0  0  0  # atno 8010 bound_to 7997
  140.5400  143.9694  150.6513 H   0  0  0  0  0  0  0  0  0  0  0  0  # atno 10167 bound_to 10162
  156.9288  130.5818  149.5649 H   0  0  0  0  0  0  0  0  0  0  0  0  # atno 10718 bound_to 10713
  154.6629  135.5314  153.8041 H   0  0  0  0  0  0  0  0  0  0  0  0  # atno 10763 bound_to 10752
  153.0453  135.6510  154.0844 H   0  0  0  0  0  0  0  0  0  0  0  0  # atno 10764 bound_to 10752
  154.0750  135.2951  155.3281 H   0  0  0  0  0  0  0  0  0  0  0  0  # atno 10765 bound_to 10752
  140.2458  134.3361  155.7908 H   0  0  0  0  0  0  0  0  0  0  0  0  # atno 11005 bound_to 11000
  144.6963  140.3446  143.7193 LP  0  0  0  0  0  0  0  0  0  0  0  0  # atno 17320 bound_to 7965
  145.7300  139.1733  143.2436 LP  0  0  0  0  0  0  0  0  0  0  0  0  # atno 17321 bound_to 7965
  140.3092  143.3209  152.0896 LP  0  0  0  0  0  0  0  0  0  0  0  0  # atno 17342 bound_to 10162
  139.4985  144.6647  151.6383 LP  0  0  0  0  0  0  0  0  0  0  0  0  # atno 17343 bound_to 10162
  156.0457  130.5534  150.8875 LP  0  0  0  0  0  0  0  0  0  0  0  0  # atno 17370 bound_to 10713
  157.5860  131.0945  150.9195 LP  0  0  0  0  0  0  0  0  0  0  0  0  # atno 17371 bound_to 10713
  141.2206  133.7325  156.8958 LP  0  0  0  0  0  0  0  0  0  0  0  0  # atno 17394 bound_to 11000
  140.1607  134.9167  157.2711 LP  0  0  0  0  0  0  0  0  0  0  0  0  # atno 17395 bound_to 11000

$$$$
