AV-unprocessed.smi:1703|AV-procd|sdf|6869|dock9
  -GOLD-   22720 8 63D 1   1.00000     0.00000
 Structure written by MMmdl.
 49 51  0  0  0  0  0  0  0  0  2 V2000
  148.0639  134.3959  157.7426 C   0  0  0  0  0  0  0  0  0  0  0  0
  149.5046  134.0207  157.3619 C   0  0  2  0  0  0  0  0  0  0  0  0
  150.4124  135.2412  157.1034 C   0  0  0  0  0  0  0  0  0  0  0  0
  150.1559  135.8850  155.8162 N   0  0  0  0  0  0  0  0  0  0  0  0
  151.0629  137.0052  155.5620 C   0  0  0  0  0  0  0  0  0  0  0  0
  150.5675  138.3953  156.0210 C   0  0  1  0  0  0  0  0  0  0  0  0
  149.8914  138.2215  157.2478 O   0  0  0  0  0  0  0  0  0  0  0  0
  151.6889  139.4271  156.2742 C   0  0  0  0  0  0  0  0  0  0  0  0
  151.1971  140.7777  156.5873 N   0  0  0  0  0  0  0  0  0  0  0  0
  150.2358  141.5386  155.9857 C   0  0  0  0  0  0  0  0  0  0  0  0
  149.3870  141.1629  154.8136 C   0  0  0  0  0  0  0  0  0  0  0  0
  148.6070  142.2380  154.3356 O   0  0  0  0  0  0  0  0  0  0  0  0
  150.1853  142.7247  156.6562 N   0  3  0  0  0  0  0  0  0  0  0  0
  151.1102  142.7194  157.7000 C   0  0  0  0  0  0  0  0  0  0  0  0
  151.4139  143.6863  158.6532 C   0  0  0  0  0  0  0  0  0  0  0  0
  152.4120  143.3556  159.5932 C   0  0  0  0  0  0  0  0  0  0  0  0
  153.0672  142.1073  159.5603 C   0  0  0  0  0  0  0  0  0  0  0  0
  152.7530  141.1368  158.5859 C   0  0  0  0  0  0  0  0  0  0  0  0
  151.7620  141.4704  157.6636 C   0  0  0  0  0  0  0  0  0  0  0  0
  150.2530  134.8869  154.7595 C   0  0  0  0  0  0  0  0  0  0  0  0
  149.2744  133.7212  154.9810 C   0  0  1  0  0  0  0  0  0  0  0  0
  149.4144  132.6382  153.9067 C   0  0  0  0  0  0  0  0  0  0  0  0
  149.5369  133.1249  156.2499 O   0  0  0  0  0  0  0  0  0  0  0  0
  148.0464  135.0210  158.6357 H   0  0  0  0  0  0  0  0  0  0  0  0
  147.4725  133.5044  157.9505 H   0  0  0  0  0  0  0  0  0  0  0  0
  147.5647  134.9460  156.9473 H   0  0  0  0  0  0  0  0  0  0  0  0
  149.9205  133.4731  158.2079 H   0  0  0  0  0  0  0  0  0  0  0  0
  150.2884  135.9508  157.9202 H   0  0  0  0  0  0  0  0  0  0  0  0
  151.4524  134.9126  157.1389 H   0  0  0  0  0  0  0  0  0  0  0  0
  152.0208  136.7902  156.0389 H   0  0  0  0  0  0  0  0  0  0  0  0
  151.2794  137.0639  154.4946 H   0  0  0  0  0  0  0  0  0  0  0  0
  149.8376  138.7993  155.3213 H   0  0  0  0  0  0  0  0  0  0  0  0
  149.0644  138.6767  157.2030 H   0  0  0  0  0  0  0  0  0  0  0  0
  152.3299  139.1049  157.0961 H   0  0  0  0  0  0  0  0  0  0  0  0
  152.3382  139.5037  155.4014 H   0  0  0  0  0  0  0  0  0  0  0  0
  150.0284  140.8006  154.0103 H   0  0  0  0  0  0  0  0  0  0  0  0
  148.7169  140.3486  155.0865 H   0  0  0  0  0  0  0  0  0  0  0  0
  148.7995  143.0031  154.8562 H   0  0  0  0  0  0  0  0  0  0  0  0
  150.9118  144.6422  158.6807 H   0  0  0  0  0  0  0  0  0  0  0  0
  152.6800  144.0737  160.3547 H   0  0  0  0  0  0  0  0  0  0  0  0
  153.8276  141.8895  160.2964 H   0  0  0  0  0  0  0  0  0  0  0  0
  153.2605  140.1837  158.5678 H   0  0  0  0  0  0  0  0  0  0  0  0
  150.0422  135.3506  153.7951 H   0  0  0  0  0  0  0  0  0  0  0  0
  151.2735  134.5040  154.7043 H   0  0  0  0  0  0  0  0  0  0  0  0
  148.2507  134.0959  154.9574 H   0  0  0  0  0  0  0  0  0  0  0  0
  149.2111  133.0413  152.9144 H   0  0  0  0  0  0  0  0  0  0  0  0
  148.7142  131.8213  154.0837 H   0  0  0  0  0  0  0  0  0  0  0  0
  150.4207  132.2184  153.8978 H   0  0  0  0  0  0  0  0  0  0  0  0
  149.5518  143.4768  156.4173 H   0  0  0  0  0  0  0  0  0  0  0  0
  1  2  1  0  0  0  0
  1 24  1  0  0  0  0
  1 25  1  0  0  0  0
  1 26  1  0  0  0  0
  2 23  1  0  0  0  0
  2  3  1  0  0  0  0
  2 27  1  0  0  0  0
  3  4  1  0  0  0  0
  3 28  1  0  0  0  0
  3 29  1  0  0  0  0
  4  5  1  0  0  0  0
  4 20  1  0  0  0  0
  5  6  1  0  0  0  0
  5 30  1  0  0  0  0
  5 31  1  0  0  0  0
  6  7  1  0  0  0  0
  6  8  1  0  0  0  0
  6 32  1  0  0  0  0
  7 33  1  0  0  0  0
  8  9  1  0  0  0  0
  8 34  1  0  0  0  0
  8 35  1  0  0  0  0
  9 19  1  0  0  0  0
  9 10  1  0  0  0  0
 10 11  1  0  0  0  0
 10 13  2  0  0  0  0
 11 12  1  0  0  0  0
 11 36  1  0  0  0  0
 11 37  1  0  0  0  0
 12 38  1  0  0  0  0
 13 14  1  0  0  0  0
 13 49  1  0  0  0  0
 14 19  2  0  0  0  0
 14 15  1  0  0  0  0
 15 16  2  0  0  0  0
 15 39  1  0  0  0  0
 16 17  1  0  0  0  0
 16 40  1  0  0  0  0
 17 18  2  0  0  0  0
 17 41  1  0  0  0  0
 18 19  1  0  0  0  0
 18 42  1  0  0  0  0
 20 21  1  0  0  0  0
 20 43  1  0  0  0  0
 20 44  1  0  0  0  0
 21 22  1  0  0  0  0
 21 23  1  0  0  0  0
 21 45  1  0  0  0  0
 22 46  1  0  0  0  0
 22 47  1  0  0  0  0
 22 48  1  0  0  0  0
M  CHG  1  13   1
M  END
> <s_m_source_file>
AV-unprocessed.smi

> <i_m_source_file_index>
1703

> <i_lp_mmshare_version>
43012

> <i_f3d_flags>
0

> <s_epik_input>
W0NIM11bQ0BASF0xW0NIMl1OKFtDSDJdW0NASF0oTzEpW0NIM10pW0NIMl1bQ0BIXShbT0hdKVtDSDJdbihjKG4yKVtDSDJdW09IXSljKGMyMylbY0hdW2NIXVtjSF1bY0hdMw==

> <s_epik_cmdline>
J2VwaWtfcHl0aG9uJywgJy1waCcsICc3LjAnLCAnLXRuJywgJzgnLCAnLW1hJywgJzIwMCcsICctbWV0YWxfYmluZGluZycsICctaW1hZScsICc8aW5maWxlLm1hZT4nLCAnLW9tYWUnLCAnPG91dGZpbGUubWFlPic=

> <r_epik_Ionization_Penalty>
1.7682

> <r_epik_Ionization_Penalty_Charging>
1.55298

> <r_epik_Ionization_Penalty_Neutral>
0.215215

> <r_epik_State_Penalty>
1.83821

> <r_epik_Charging_Adjusted_Penalty>
3.39119

> <i_epik_Tot_Q>
1

> <i_epik_Tot_abs_Q>
1

> <r_epik_Metal_State_Penalty>
5.89206

> <b_epik_Metal_Only>
0

> <s_lp_Force_Field>
OPLS_2005

> <r_lp_Energy>
30.0096

> <b_lp_Chiralities_Consistent>
1

> <s_lp_Variant>
AV-unprocessed.smi:1703-17

> <Gold.Version>
5.8.1

> <Gold.Id.Protein>
6NUR|6NUR_protein|mol2

> <Gold.PLP.Fitness>
49.0362

> <Gold.PLP.PLP>
-41.3135

> <Gold.PLP.part.hbond>
-3.0000

> <Gold.PLP.part.metal>
0.0000

> <Gold.PLP.part.buried>
-4.3821

> <Gold.PLP.part.nonpolar>
-33.3117

> <Gold.PLP.part.repulsive>
0.1420

> <Gold.PLP.ligand.clash>
0.0000

> <Gold.PLP.ligand.torsion>
0.8903

> <Gold.PLP.Chemscore.Hbond>
3.1643

> <Gold.PLP.Chemscore.CHOScore>
0.0000

> <Gold.PLP.Chemscore.Metal>
0.0000

> <Gold.Chemscore.Hbonds>
donor molecule, donor type, donor heavy atom, donor atom, acceptor molecule, acceptor atom, score
      L1  H    12    38       P1  8028  1.00
      L1  H    13    49       P1  8028  2.00
      P1  H  8011  8017       L1    12  0.06

> <Gold.PLP.Chemscore.Internal.Correction>
0.0105

> <Gold.Rescore>
     Score         DG    S(hbond)    S(metal)    S(lipo)     H(rot)  DE(clash)    DE(int)     intcor
     16.19     -17.22       2.02        0.00     107.43       2.96       0.09       0.94       ----

> <Gold.Chemscore.Fitness>
16.1881

> <Gold.Chemscore.DG>
-17.2150

> <Gold.Chemscore.ZeroCoef>
-5.4800

> <Gold.Chemscore.Hbond>
2.0154

> <Gold.Chemscore.Metal>
0.0000

> <Gold.Chemscore.Lipo>
107.4328

> <Gold.Chemscore.Internal_Hbond>
0.0000

> <Gold.Chemscore.DEClash>
0.0891

> <Gold.Chemscore.DEInternal>
0.9379

> <Gold.Chemscore.Rot>
2.9555

> <Gold.Chemscore.Internal.Correction>
   9.000000E+99

> <Gold.Chemscore.Hbonds>
donor molecule, donor type, donor heavy atom, donor atom, acceptor molecule, acceptor atom, score
      L1  H    12    38       P1  8028  1.00
      L1  H    13    49       P1  8028  0.98

> <Gold.Chemscore.Hbond.Weighted>
-6.7314

> <Gold.Chemscore.Metal.Weighted>
-0.0000

> <Gold.Chemscore.Lipo.Weighted>
-12.5696

> <Gold.Chemscore.Internal_Hbond.Weighted>
0.0000

> <Gold.Chemscore.DEClash.Weighted>
0.0891

> <Gold.Chemscore.DEInternal.Weighted>
0.9379

> <Gold.Chemscore.Rot.Weighted>
7.5660

> <Gold.Chemscore.Internal.Correction.Weighted>
   9.000000E+99

> <Gold.Protein.RotatedTorsions>
[ 6907 6896 6895 6894 ] final   50.16 input  -60.11 | X-H torsion
[ 7974 7965 7964 7962 ] final -104.90 input  175.53 | X-H torsion
[ 8008 7997 7996 7995 ] final  -26.94 input   59.86 | X-H torsion
[ 10167 10162 10161 10158 ] final    7.03 input  -65.29 | X-H torsion
[ 10718 10713 10712 10709 ] final -115.27 input   66.30 | X-H torsion
[ 10763 10752 10751 10750 ] final  -78.06 input  -60.55 | X-H torsion
[ 11005 11000 10999 10996 ] final  153.18 input  -57.11 | X-H torsion

> <Gold.Protein.ActiveResidues>
 VAL166  LYS551  ARG553  GLY616  TRP617  ASP618  TYR619  PRO620  LYS621  CYS622 
 ASP623  PHE694  ASN695  SER759  ASP760  ASP761  ALA762  ILE779  LEU786  VAL792 
 PHE793  MET794  SER795  GLU796  ALA797  LYS798  CYS799  TRP800  GLU811  SER814 

> <Gold.Protein.RotatedAtoms>
  152.2987  134.7636  160.0362 H   0  0  0  0  0  0  0  0  0  0  0  0  # atno 6907 bound_to 6896
  151.8157  133.3382  159.3577 H   0  0  0  0  0  0  0  0  0  0  0  0  # atno 6908 bound_to 6896
  150.7263  134.5551  159.5858 H   0  0  0  0  0  0  0  0  0  0  0  0  # atno 6909 bound_to 6896
  145.2372  140.9192  143.3170 H   0  0  0  0  0  0  0  0  0  0  0  0  # atno 7974 bound_to 7965
  154.4401  140.1886  156.0854 H   0  0  0  0  0  0  0  0  0  0  0  0  # atno 8008 bound_to 7997
  156.0407  140.3320  155.7214 H   0  0  0  0  0  0  0  0  0  0  0  0  # atno 8009 bound_to 7997
  155.5704  140.0612  157.2798 H   0  0  0  0  0  0  0  0  0  0  0  0  # atno 8010 bound_to 7997
  140.6395  143.7808  150.7407 H   0  0  0  0  0  0  0  0  0  0  0  0  # atno 10167 bound_to 10162
  156.0885  130.6072  150.8884 H   0  0  0  0  0  0  0  0  0  0  0  0  # atno 10718 bound_to 10713
  154.5210  135.5742  153.6681 H   0  0  0  0  0  0  0  0  0  0  0  0  # atno 10763 bound_to 10752
  152.9917  135.6182  154.2754 H   0  0  0  0  0  0  0  0  0  0  0  0  # atno 10764 bound_to 10752
  154.2675  135.2854  155.2732 H   0  0  0  0  0  0  0  0  0  0  0  0  # atno 10765 bound_to 10752
  140.1374  134.8761  157.2286 H   0  0  0  0  0  0  0  0  0  0  0  0  # atno 11005 bound_to 11000
  144.9622  139.3968  143.6350 LP  0  0  0  0  0  0  0  0  0  0  0  0  # atno 17320 bound_to 7965
  146.3338  139.8680  142.8845 LP  0  0  0  0  0  0  0  0  0  0  0  0  # atno 17321 bound_to 7965
  140.1436  143.4419  152.2177 LP  0  0  0  0  0  0  0  0  0  0  0  0  # atno 17342 bound_to 10162
  139.5604  144.7402  151.4171 LP  0  0  0  0  0  0  0  0  0  0  0  0  # atno 17343 bound_to 10162
  157.6027  131.0940  150.8933 LP  0  0  0  0  0  0  0  0  0  0  0  0  # atno 17370 bound_to 10713
  156.9087  130.5273  149.5281 LP  0  0  0  0  0  0  0  0  0  0  0  0  # atno 17371 bound_to 10713
  140.2765  134.3400  155.7356 LP  0  0  0  0  0  0  0  0  0  0  0  0  # atno 17394 bound_to 11000
  141.2180  133.7453  156.9300 LP  0  0  0  0  0  0  0  0  0  0  0  0  # atno 17395 bound_to 11000

$$$$
