#       Name:                AV-unprocessed.smi:212
#       Creating user name   scv26
#       Creation time:       Thu Mar 26 19:58:11 2020


#       File generated by GOLD software.
#

@<TRIPOS>MOLECULE
AV-unprocessed.smi:212
    74    77     1
SMALL
NO_CHARGES


@<TRIPOS>ATOM
      1 ****        -3.7996  -0.1706  -0.4725 C.3            1 S1                 0.0000
      2 ****        -2.3813   0.2835  -0.8570 C.3            1 S1                 0.0000
      3 ****        -2.3841   1.2371  -2.0712 C.3            1 S1                 0.0000
      4 ****        -2.9009   2.5831  -1.7113 N.4            1 S1                 1.0000
      5 ****        -3.0378   3.4921  -2.8796 C.3            1 S1                 0.0000
      6 ****        -4.4544   4.1029  -2.9899 C.3            1 S1                 0.0000
      7 ****        -4.5343   5.0399  -4.2067 C.3            1 S1                 0.0000
      8 ****        -5.5510   3.0247  -3.0752 C.3            1 S1                 0.0000
      9 ****        -4.7028   4.9007  -1.8491 O.3            1 S1                 0.0000
     10 ****        -2.1525   3.1876  -0.5798 C.3            1 S1                 0.0000
     11 ****        -2.1462   2.2484   0.6398 C.3            1 S1                 0.0000
     12 ****        -1.6894   0.9064   0.2744 N.pl3          1 S1                 0.0000
     13 ****        -0.3717   0.6028   0.4107 C.ar           1 S1                 0.0000
     14 ****         0.5594   1.5934   0.3865 N.ar           1 S1                 0.0000
     15 ****         1.8582   1.3042   0.5095 C.ar           1 S1                 0.0000
     16 ****         2.4360   0.1121   0.6661 N.ar           1 S1                 0.0000
     17 ****         1.5072  -0.8853   0.7020 C.ar           1 S1                 0.0000
     18 ****         0.0974  -0.7306   0.5816 C.ar           1 S1                 0.0000
     19 ****        -0.5232  -1.9715   0.6732 N.2            1 S1                 0.0000
     20 ****         0.4635  -2.8116   0.8296 C.2            1 S1                 0.0000
     21 ****         1.7164  -2.2426   0.8650 N.pl3          1 S1                 0.0000
     22 ****         2.9848  -2.9303   1.0291 C.3            1 S1                 0.0000
     23 ****         3.5947  -2.7312   2.4407 C.3            1 S1                 0.0000
     24 ****         2.7132  -3.3813   3.5318 C.3            1 S1                 0.0000
     25 ****         3.1237  -2.9872   4.8245 O.3            1 S1                 0.0000
     26 ****         5.0762  -3.1874   2.5416 C.3            1 S1                 0.0000
     27 ****         5.3651  -4.6409   2.1818 C.3            1 S1                 0.0000
     28 ****         6.8159  -4.5757   1.7264 C.3            1 S1                 0.0000
     29 ****         6.8556  -3.3656   0.9888 O.3            1 S1                 0.0000
     30 ****         6.0740  -2.3950   1.6774 C.3            1 S1                 0.0000
     31 ****        -4.2809  -0.6879  -1.3028 H              1 S1                 0.0000
     32 ****        -4.4383   0.6678  -0.1943 H              1 S1                 0.0000
     33 ****        -3.7705  -0.8613   0.3706 H              1 S1                 0.0000
     34 ****        -1.8453  -0.6131  -1.1676 H              1 S1                 0.0000
     35 ****        -1.3691   1.3421  -2.4587 H              1 S1                 0.0000
     36 ****        -2.9850   0.8094  -2.8751 H              1 S1                 0.0000
     37 ****        -2.2828   4.2793  -2.8348 H              1 S1                 0.0000
     38 ****        -2.8272   2.9447  -3.7999 H              1 S1                 0.0000
     39 ****        -4.3611   4.4951  -5.1356 H              1 S1                 0.0000
     40 ****        -3.7897   5.8350  -4.1484 H              1 S1                 0.0000
     41 ****        -5.5144   5.5127  -4.2836 H              1 S1                 0.0000
     42 ****        -5.3975   2.3761  -3.9383 H              1 S1                 0.0000
     43 ****        -6.5406   3.4726  -3.1742 H              1 S1                 0.0000
     44 ****        -5.5704   2.3922  -2.1872 H              1 S1                 0.0000
     45 ****        -5.5476   5.3139  -1.9474 H              1 S1                 0.0000
     46 ****        -1.1308   3.4012  -0.8967 H              1 S1                 0.0000
     47 ****        -2.6006   4.1413  -0.3012 H              1 S1                 0.0000
     48 ****        -1.5363   2.6659   1.4422 H              1 S1                 0.0000
     49 ****        -3.1542   2.1694   1.0468 H              1 S1                 0.0000
     50 ****         2.5310   2.1486   0.4786 H              1 S1                 0.0000
     51 ****         0.3028  -3.8751   0.9323 H              1 S1                 0.0000
     52 ****         2.8239  -3.9886   0.8237 H              1 S1                 0.0000
     53 ****         3.6548  -2.5661   0.2511 H              1 S1                 0.0000
     54 ****         3.5956  -1.6576   2.6361 H              1 S1                 0.0000
     55 ****         1.6710  -3.0829   3.4219 H              1 S1                 0.0000
     56 ****         2.7414  -4.4688   3.4587 H              1 S1                 0.0000
     57 ****         2.5570  -3.3990   5.4591 H              1 S1                 0.0000
     58 ****         5.4049  -3.0468   3.5724 H              1 S1                 0.0000
     59 ****         5.2153  -5.3239   3.0185 H              1 S1                 0.0000
     60 ****         4.7495  -4.9850   1.3520 H              1 S1                 0.0000
     61 ****         7.4931  -4.5104   2.5796 H              1 S1                 0.0000
     62 ****         7.1069  -5.4306   1.1158 H              1 S1                 0.0000
     63 ****         5.5993  -1.7230   0.9632 H              1 S1                 0.0000
     64 ****         6.7248  -1.7878   2.3082 H              1 S1                 0.0000
     65 ****        -3.8409   2.4316  -1.3746 H              1 S1                 0.0000
     66 ****        -3.9932   5.6004  -1.7665 LP             1 S1                 0.0000
     67 ****        -4.7019   4.3268  -1.0301 LP             1 S1                 0.0000
     68 ****         0.2704   2.5443   0.2760 LP             1 S1                 0.0000
     69 ****         3.4224  -0.0314   0.7467 LP             1 S1                 0.0000
     70 ****        -1.5015  -2.1740   0.6293 LP             1 S1                 0.0000
     71 ****         3.0591  -1.9930   4.9101 LP             1 S1                 0.0000
     72 ****         4.0688  -3.2745   4.9802 LP             1 S1                 0.0000
     73 ****         6.4799  -3.5149   0.0742 LP             1 S1                 0.0000
     74 ****         7.8004  -3.0469   0.9132 LP             1 S1                 0.0000
@<TRIPOS>BOND
    1    1    2 1     
    2    1   31 1     
    3    1   32 1     
    4    1   33 1     
    5    2   12 1     
    6    2    3 1     
    7    2   34 1     
    8    3    4 1     
    9    3   35 1     
   10    3   36 1     
   11    4    5 1     
   12    4   10 1     
   13    4   65 1     
   14    5    6 1     
   15    5   37 1     
   16    5   38 1     
   17    6    7 1     
   18    6    8 1     
   19    6    9 1     
   20    7   39 1     
   21    7   40 1     
   22    7   41 1     
   23    8   42 1     
   24    8   43 1     
   25    8   44 1     
   26    9   45 1     
   27   10   11 1     
   28   10   46 1     
   29   10   47 1     
   30   11   12 1     
   31   11   48 1     
   32   11   49 1     
   33   12   13 1     
   34   13   18 ar    
   35   13   14 ar    
   36   14   15 ar    
   37   15   16 ar    
   38   15   50 1     
   39   16   17 ar    
   40   17   21 1     
   41   17   18 ar    
   42   18   19 1     
   43   19   20 2     
   44   20   21 1     
   45   20   51 1     
   46   21   22 1     
   47   22   23 1     
   48   22   52 1     
   49   22   53 1     
   50   23   24 1     
   51   23   26 1     
   52   23   54 1     
   53   24   25 1     
   54   24   55 1     
   55   24   56 1     
   56   25   57 1     
   57   26   30 1     
   58   26   27 1     
   59   26   58 1     
   60   27   28 1     
   61   27   59 1     
   62   27   60 1     
   63   28   29 1     
   64   28   61 1     
   65   28   62 1     
   66   29   30 1     
   67   30   63 1     
   68   30   64 1     
   69    9   66 1     
   70    9   67 1     
   71   14   68 1     
   72   16   69 1     
   73   19   70 1     
   74   25   71 1     
   75   25   72 1     
   76   29   73 1     
   77   29   74 1     
@<TRIPOS>SUBSTRUCTURE
      1 S1             1
@<TRIPOS>SET
LONE_PAIRS      STATIC     ATOMS    <user>   **** ""
9 66 67 68 69 70 71 72 73 74
DONOR_HYDROGENS      STATIC     ATOMS    <user>   **** ""
3 65 45 57
ATOM$BLUE        STATIC     ATOMS    COLORGROUP SYSTEM
9 66 67 68 69 70 71 72 73 74
ATOM$RED        STATIC     ATOMS    COLORGROUP SYSTEM
3 65 45 57
