#       Name:                AV-unprocessed.smi:153
#       Creating user name   scv26
#       Creation time:       Thu Mar 26 18:51:44 2020


#       File generated by GOLD software.
#

@<TRIPOS>MOLECULE
AV-unprocessed.smi:153
    71    74     1
SMALL
NO_CHARGES


@<TRIPOS>ATOM
      1 ****        -4.3734  -2.2000   1.7966 C.3            1 S1                 0.0000
      2 ****        -3.5128  -1.7974   0.5830 C.3            1 S1                 0.0000
      3 ****        -2.4306  -1.0099   1.0694 O.3            1 S1                 0.0000
      4 ****        -2.7494   0.3772   0.9943 C.3            1 S1                 0.0000
      5 ****        -4.0395   0.4854   0.1770 C.3            1 S1                 0.0000
      6 ****        -4.2080  -0.8929  -0.4568 C.3            1 S1                 0.0000
      7 ****        -5.5863  -1.1929  -0.5763 O.3            1 S1                 0.0000
      8 ****        -3.6135  -1.0114  -1.8881 C.3            1 S1                 0.0000
      9 ****        -2.2008  -0.6804  -1.9889 N.pl3          1 S1                 0.0000
     10 ****        -1.1386  -1.5254  -1.7647 C.2            1 S1                 0.0000
     11 ****         0.0387  -0.9787  -1.8849 N.2            1 S1                 0.0000
     12 ****        -0.2254   0.3425  -2.2300 C.ar           1 S1                 0.0000
     13 ****         0.5832   1.4900  -2.4863 C.ar           1 S1                 0.0000
     14 ****         1.9386   1.5067  -2.3567 N.pl3          1 S1                 0.0000
     15 ****         2.6768   2.6000  -2.9837 C.3            1 S1                 0.0000
     16 ****         2.5030   0.9226  -1.1385 C.3            1 S1                 0.0000
     17 ****         2.2777   1.7835   0.1266 C.3            1 S1                 0.0000
     18 ****         0.9334   1.7280   0.5628 O.3            1 S1                 0.0000
     19 ****         3.1927   1.3821   1.3057 C.3            1 S1                 0.0000
     20 ****         3.3951  -0.0545   1.5255 N.3            1 S1                 0.0000
     21 ****         2.1873  -0.7451   1.9763 C.3            1 S1                 0.0000
     22 ****         2.4384  -2.2419   2.2279 C.3            1 S1                 0.0000
     23 ****         3.4968  -2.4017   3.1663 O.3            1 S1                 0.0000
     24 ****         4.7062  -1.7853   2.7375 C.3            1 S1                 0.0000
     25 ****         4.4607  -0.2860   2.4954 C.3            1 S1                 0.0000
     26 ****        -0.0621   2.6317  -2.8485 N.ar           1 S1                 0.0000
     27 ****        -1.3949   2.6659  -2.9245 C.ar           1 S1                 0.0000
     28 ****        -2.2688   1.6890  -2.6805 N.ar           1 S1                 0.0000
     29 ****        -1.6332   0.5339  -2.3345 C.ar           1 S1                 0.0000
     30 ****        -5.2039  -2.8406   1.4998 H              1 S1                 0.0000
     31 ****        -4.7872  -1.3312   2.3086 H              1 S1                 0.0000
     32 ****        -3.7789  -2.7562   2.5215 H              1 S1                 0.0000
     33 ****        -3.1299  -2.7073   0.1205 H              1 S1                 0.0000
     34 ****        -2.8783   0.7927   1.9940 H              1 S1                 0.0000
     35 ****        -1.9265   0.9085   0.5164 H              1 S1                 0.0000
     36 ****        -4.8656   0.6931   0.8592 H              1 S1                 0.0000
     37 ****        -4.0174   1.2971  -0.5498 H              1 S1                 0.0000
     38 ****        -5.9814  -0.5605  -1.1568 H              1 S1                 0.0000
     39 ****        -3.7465  -2.0273  -2.2628 H              1 S1                 0.0000
     40 ****        -4.1609  -0.3643  -2.5748 H              1 S1                 0.0000
     41 ****        -1.2636  -2.5622  -1.4889 H              1 S1                 0.0000
     42 ****         2.3841   2.7180  -4.0278 H              1 S1                 0.0000
     43 ****         3.7485   2.4015  -2.9623 H              1 S1                 0.0000
     44 ****         2.4966   3.5416  -2.4639 H              1 S1                 0.0000
     45 ****         2.1638  -0.0982  -0.9815 H              1 S1                 0.0000
     46 ****         3.5772   0.8323  -1.3027 H              1 S1                 0.0000
     47 ****         2.4853   2.8282  -0.1066 H              1 S1                 0.0000
     48 ****         0.7281   0.8322   0.7823 H              1 S1                 0.0000
     49 ****         4.1677   1.8255   1.0991 H              1 S1                 0.0000
     50 ****         2.8495   1.8597   2.2249 H              1 S1                 0.0000
     51 ****         1.8132  -0.2809   2.8901 H              1 S1                 0.0000
     52 ****         1.3977  -0.6567   1.2316 H              1 S1                 0.0000
     53 ****         1.5386  -2.7158   2.6204 H              1 S1                 0.0000
     54 ****         2.6887  -2.7519   1.2963 H              1 S1                 0.0000
     55 ****         5.4689  -1.9262   3.5032 H              1 S1                 0.0000
     56 ****         5.0691  -2.2695   1.8296 H              1 S1                 0.0000
     57 ****         5.3852   0.1756   2.1470 H              1 S1                 0.0000
     58 ****         4.2104   0.1946   3.4424 H              1 S1                 0.0000
     59 ****        -1.8224   3.6151  -3.2116 H              1 S1                 0.0000
     60 ****        -1.6173  -1.1911   0.5166 LP             1 S1                 0.0000
     61 ****        -2.2476  -1.2545   2.0216 LP             1 S1                 0.0000
     62 ****        -6.0215  -1.1437   0.3227 LP             1 S1                 0.0000
     63 ****        -5.7001  -2.1128  -0.9517 LP             1 S1                 0.0000
     64 ****         0.9310  -1.4119  -1.7576 LP             1 S1                 0.0000
     65 ****         0.3279   2.0441  -0.1676 LP             1 S1                 0.0000
     66 ****         0.8154   2.3087   1.3683 LP             1 S1                 0.0000
     67 ****         3.6480  -0.4315   0.6345 LP             1 S1                 0.0000
     68 ****         3.6642  -3.3789   3.2970 LP             1 S1                 0.0000
     69 ****         3.2190  -1.9920   4.0352 LP             1 S1                 0.0000
     70 ****         0.4670   3.4535  -3.0599 LP             1 S1                 0.0000
     71 ****        -3.2617   1.7905  -2.7432 LP             1 S1                 0.0000
@<TRIPOS>BOND
    1    1    2 1     
    2    1   30 1     
    3    1   31 1     
    4    1   32 1     
    5    2    6 1     
    6    2    3 1     
    7    2   33 1     
    8    3    4 1     
    9    4    5 1     
   10    4   34 1     
   11    4   35 1     
   12    5    6 1     
   13    5   36 1     
   14    5   37 1     
   15    6    7 1     
   16    6    8 1     
   17    7   38 1     
   18    8    9 1     
   19    8   39 1     
   20    8   40 1     
   21    9   29 1     
   22    9   10 1     
   23   10   11 2     
   24   10   41 1     
   25   11   12 1     
   26   12   29 ar    
   27   12   13 ar    
   28   13   14 1     
   29   13   26 ar    
   30   14   15 1     
   31   14   16 1     
   32   15   42 1     
   33   15   43 1     
   34   15   44 1     
   35   16   17 1     
   36   16   45 1     
   37   16   46 1     
   38   17   18 1     
   39   17   19 1     
   40   17   47 1     
   41   18   48 1     
   42   19   20 1     
   43   19   49 1     
   44   19   50 1     
   45   20   25 1     
   46   20   21 1     
   47   21   22 1     
   48   21   51 1     
   49   21   52 1     
   50   22   23 1     
   51   22   53 1     
   52   22   54 1     
   53   23   24 1     
   54   24   25 1     
   55   24   55 1     
   56   24   56 1     
   57   25   57 1     
   58   25   58 1     
   59   26   27 ar    
   60   27   28 ar    
   61   27   59 1     
   62   28   29 ar    
   63    3   60 1     
   64    3   61 1     
   65    7   62 1     
   66    7   63 1     
   67   11   64 1     
   68   18   65 1     
   69   18   66 1     
   70   20   67 1     
   71   23   68 1     
   72   23   69 1     
   73   26   70 1     
   74   28   71 1     
@<TRIPOS>SUBSTRUCTURE
      1 S1             1
@<TRIPOS>SET
LONE_PAIRS      STATIC     ATOMS    <user>   **** ""
12 60 61 62 63 64 65 66 67 68 69 70 71
DONOR_HYDROGENS      STATIC     ATOMS    <user>   **** ""
2 38 48
ATOM$BLUE        STATIC     ATOMS    COLORGROUP SYSTEM
12 60 61 62 63 64 65 66 67 68 69 70 71
ATOM$RED        STATIC     ATOMS    COLORGROUP SYSTEM
2 38 48
