AV-unprocessed.smi:1116|AV-procd|sdf|4807|dock10
  -GOLD-   22720 3353D 1   1.00000     0.00000
 Structure written by MMmdl.
 36 37  0  0  0  0  0  0  0  0  1 V2000
  152.5923  144.4697  161.0726 C   0  0  0  0  0  0  0  0  0  0  0  0
  152.8073  143.0797  160.5802 C   0  0  0  0  0  0  0  0  0  0  0  0
  152.1215  142.5376  159.5703 N   0  0  0  0  0  0  0  0  0  0  0  0
  152.5055  141.2192  159.3048 C   0  0  0  0  0  0  0  0  0  0  0  0
  151.8335  140.4480  158.2095 C   0  0  0  0  0  0  0  0  0  0  0  0
  150.8083  141.3025  157.4450 C   0  0  0  0  0  0  0  0  0  0  0  0
  150.0226  140.5047  156.5104 N   0  0  0  0  0  0  0  0  0  0  0  0
  150.4887  139.9579  155.3772 C   0  0  0  0  0  0  0  0  0  0  0  0
  151.6552  140.0725  155.0018 O   0  0  0  0  0  0  0  0  0  0  0  0
  149.4807  139.1678  154.5382 C   0  0  0  0  0  0  0  0  0  0  0  0
  148.3900  138.5008  155.3977 C   0  0  0  0  0  0  0  0  0  0  0  0
  147.1346  138.1154  154.5905 C   0  0  2  0  0  0  0  0  0  0  0  0
  147.4221  137.8584  153.1894 N   0  0  0  0  0  0  0  0  0  0  0  0
  146.7518  138.6787  152.3692 C   0  0  0  0  0  0  0  0  0  0  0  0
  146.8078  138.6758  151.1419 O   0  0  0  0  0  0  0  0  0  0  0  0
  146.0127  139.5008  153.1216 N   0  0  0  0  0  0  0  0  0  0  0  0
  146.1634  139.2711  154.4249 C   0  0  0  0  0  0  0  0  0  0  0  0
  145.6248  139.8754  155.3502 O   0  0  0  0  0  0  0  0  0  0  0  0
  153.5059  140.7708  160.1310 C   0  0  0  0  0  0  0  0  0  0  0  0
  153.9970  141.9872  161.2772 S   0  0  0  0  0  0  0  0  0  0  0  0
  151.7287  144.9221  160.5842 H   0  0  0  0  0  0  0  0  0  0  0  0
  153.4720  145.0786  160.8634 H   0  0  0  0  0  0  0  0  0  0  0  0
  152.4197  144.4609  162.1490 H   0  0  0  0  0  0  0  0  0  0  0  0
  152.5834  140.0623  157.5179 H   0  0  0  0  0  0  0  0  0  0  0  0
  151.3350  139.5723  158.6269 H   0  0  0  0  0  0  0  0  0  0  0  0
  150.1171  141.7666  158.1491 H   0  0  0  0  0  0  0  0  0  0  0  0
  151.3052  142.1169  156.9149 H   0  0  0  0  0  0  0  0  0  0  0  0
  149.0495  140.3630  156.7397 H   0  0  0  0  0  0  0  0  0  0  0  0
  149.0229  139.8309  153.8026 H   0  0  0  0  0  0  0  0  0  0  0  0
  150.0256  138.4087  153.9762 H   0  0  0  0  0  0  0  0  0  0  0  0
  148.7952  137.6013  155.8643 H   0  0  0  0  0  0  0  0  0  0  0  0
  148.1137  139.1684  156.2161 H   0  0  0  0  0  0  0  0  0  0  0  0
  146.6244  137.2579  155.0311 H   0  0  0  0  0  0  0  0  0  0  0  0
  148.0523  137.1321  152.8816 H   0  0  0  0  0  0  0  0  0  0  0  0
  145.4148  140.2211  152.7436 H   0  0  0  0  0  0  0  0  0  0  0  0
  153.9810  139.8010  160.1363 H   0  0  0  0  0  0  0  0  0  0  0  0
  1  2  1  0  0  0  0
  1 21  1  0  0  0  0
  1 22  1  0  0  0  0
  1 23  1  0  0  0  0
  2 20  1  0  0  0  0
  2  3  2  0  0  0  0
  3  4  1  0  0  0  0
  4  5  1  0  0  0  0
  4 19  2  0  0  0  0
  5  6  1  0  0  0  0
  5 24  1  0  0  0  0
  5 25  1  0  0  0  0
  6  7  1  0  0  0  0
  6 26  1  0  0  0  0
  6 27  1  0  0  0  0
  7  8  1  0  0  0  0
  7 28  1  0  0  0  0
  8  9  2  0  0  0  0
  8 10  1  0  0  0  0
 10 11  1  0  0  0  0
 10 29  1  0  0  0  0
 10 30  1  0  0  0  0
 11 12  1  0  0  0  0
 11 31  1  0  0  0  0
 11 32  1  0  0  0  0
 12 17  1  0  0  0  0
 12 13  1  0  0  0  0
 12 33  1  0  0  0  0
 13 14  1  0  0  0  0
 13 34  1  0  0  0  0
 14 15  2  0  0  0  0
 14 16  1  0  0  0  0
 16 17  1  0  0  0  0
 16 35  1  0  0  0  0
 17 18  2  0  0  0  0
 19 20  1  0  0  0  0
 19 36  1  0  0  0  0
M  END
> <s_m_source_file>
AV-unprocessed.smi

> <i_m_source_file_index>
1116

> <i_lp_mmshare_version>
43012

> <i_f3d_flags>
0

> <s_epik_input>
W0NIM11jMW5jKFtjSF1zMSlbQ0gyXVtDSDJdW05IXUMoPU8pW0NIMl1bQ0gyXVtDQEBIXTJbTkhdQyg9TylbTkhdQzI9Tw==

> <s_epik_cmdline>
J2VwaWtfcHl0aG9uJywgJy1waCcsICc3LjAnLCAnLXRuJywgJzgnLCAnLW1hJywgJzIwMCcsICctbWV0YWxfYmluZGluZycsICctaW1hZScsICc8aW5maWxlLm1hZT4nLCAnLW9tYWUnLCAnPG91dGZpbGUubWFlPic=

> <r_lp_tautomer_probability>
1

> <r_epik_Ionization_Penalty>
0.00889251

> <r_epik_Ionization_Penalty_Charging>
0

> <r_epik_Ionization_Penalty_Neutral>
0.00889251

> <r_epik_State_Penalty>
0.00583796

> <r_epik_Charging_Adjusted_Penalty>
0.00583796

> <i_epik_Tot_Q>
0

> <i_epik_Tot_abs_Q>
0

> <r_epik_Metal_State_Penalty>
0.408839

> <b_epik_Metal_Only>
0

> <s_lp_Force_Field>
OPLS_2005

> <r_lp_Energy>
12.4074

> <b_lp_Chiralities_Consistent>
1

> <s_lp_Variant>
AV-unprocessed.smi:1116-1

> <Gold.Version>
5.8.1

> <Gold.Id.Protein>
6NUR|6NUR_protein|mol2

> <Gold.PLP.Fitness>
45.5335

> <Gold.PLP.PLP>
-35.6951

> <Gold.PLP.part.hbond>
-3.8489

> <Gold.PLP.part.metal>
0.0000

> <Gold.PLP.part.buried>
-7.3237

> <Gold.PLP.part.nonpolar>
-26.2032

> <Gold.PLP.part.repulsive>
1.1506

> <Gold.PLP.ligand.clash>
0.0000

> <Gold.PLP.ligand.torsion>
0.8856

> <Gold.PLP.Chemscore.Hbond>
3.8463

> <Gold.PLP.Chemscore.CHOScore>
0.0000

> <Gold.PLP.Chemscore.Metal>
0.0000

> <Gold.Chemscore.Hbonds>
donor molecule, donor type, donor heavy atom, donor atom, acceptor molecule, acceptor atom, score
      L1  H    13    34       P1  7948  1.00
      L1  H    16    35       P1 10175  0.77
      P1  H  7954  7966       L1    15  0.99
      P1  H  7989  7998       L1     9  1.00

> <Gold.PLP.Chemscore.Internal.Correction>
0.0708

> <Gold.Rescore>
     Score         DG    S(hbond)    S(metal)    S(lipo)     H(rot)  DE(clash)    DE(int)     intcor
     18.42     -19.38       3.83        0.00      71.47       2.83       0.18       0.78       ----

> <Gold.Chemscore.Fitness>
18.4199

> <Gold.Chemscore.DG>
-19.3773

> <Gold.Chemscore.ZeroCoef>
-5.4800

> <Gold.Chemscore.Hbond>
3.8283

> <Gold.Chemscore.Metal>
0.0000

> <Gold.Chemscore.Lipo>
71.4688

> <Gold.Chemscore.Internal_Hbond>
0.0000

> <Gold.Chemscore.DEClash>
0.1751

> <Gold.Chemscore.DEInternal>
0.7822

> <Gold.Chemscore.Rot>
2.8324

> <Gold.Chemscore.Internal.Correction>
   9.000000E+99

> <Gold.Chemscore.Hbonds>
donor molecule, donor type, donor heavy atom, donor atom, acceptor molecule, acceptor atom, score
      L1  H    13    34       P1  7948  0.99
      L1  H    16    35       P1 10175  0.72
      P1  H  7954  7966       L1    15  0.90
      P1  H  7989  7998       L1     9  0.66

> <Gold.Chemscore.Hbond.Weighted>
-12.7864

> <Gold.Chemscore.Metal.Weighted>
-0.0000

> <Gold.Chemscore.Lipo.Weighted>
-8.3619

> <Gold.Chemscore.Internal_Hbond.Weighted>
0.0000

> <Gold.Chemscore.DEClash.Weighted>
0.1751

> <Gold.Chemscore.DEInternal.Weighted>
0.7822

> <Gold.Chemscore.Rot.Weighted>
7.2510

> <Gold.Chemscore.Internal.Correction.Weighted>
   9.000000E+99

> <Gold.Protein.RotatedTorsions>
[ 6907 6896 6895 6894 ] final -170.73 input  -60.11 | X-H torsion
[ 7974 7965 7964 7962 ] final -149.05 input  175.53 | X-H torsion
[ 8008 7997 7996 7995 ] final  -69.10 input   59.86 | X-H torsion
[ 10167 10162 10161 10158 ] final -123.78 input  -65.29 | X-H torsion
[ 10718 10713 10712 10709 ] final  121.62 input   66.30 | X-H torsion
[ 10763 10752 10751 10750 ] final   59.58 input  -60.55 | X-H torsion
[ 11005 11000 10999 10996 ] final -112.15 input  -57.11 | X-H torsion

> <Gold.Protein.ActiveResidues>
 VAL166  LYS551  ARG553  GLY616  TRP617  ASP618  TYR619  PRO620  LYS621  CYS622 
 ASP623  PHE694  ASN695  SER759  ASP760  ASP761  ALA762  ILE779  LEU786  VAL792 
 PHE793  MET794  SER795  GLU796  ALA797  LYS798  CYS799  TRP800  GLU811  SER814 

> <Gold.Protein.RotatedAtoms>
  151.5123  133.3482  159.2886 H   0  0  0  0  0  0  0  0  0  0  0  0  # atno 6907 bound_to 6896
  150.8704  134.8079  159.7161 H   0  0  0  0  0  0  0  0  0  0  0  0  # atno 6908 bound_to 6896
  152.4694  134.5007  159.9775 H   0  0  0  0  0  0  0  0  0  0  0  0  # atno 6909 bound_to 6896
  144.7991  140.5115  143.5719 H   0  0  0  0  0  0  0  0  0  0  0  0  # atno 7974 bound_to 7965
  154.4915  140.0860  156.7604 H   0  0  0  0  0  0  0  0  0  0  0  0  # atno 8008 bound_to 7997
  155.4220  140.3446  155.4254 H   0  0  0  0  0  0  0  0  0  0  0  0  # atno 8009 bound_to 7997
  156.1336  140.1508  156.9017 H   0  0  0  0  0  0  0  0  0  0  0  0  # atno 8010 bound_to 7997
  139.9998  143.5552  152.2308 H   0  0  0  0  0  0  0  0  0  0  0  0  # atno 10167 bound_to 10162
  157.5804  131.1075  150.8198 H   0  0  0  0  0  0  0  0  0  0  0  0  # atno 10718 bound_to 10713
  152.9898  135.5566  154.5735 H   0  0  0  0  0  0  0  0  0  0  0  0  # atno 10763 bound_to 10752
  154.5131  135.2803  155.1328 H   0  0  0  0  0  0  0  0  0  0  0  0  # atno 10764 bound_to 10752
  154.2712  135.6363  153.5363 H   0  0  0  0  0  0  0  0  0  0  0  0  # atno 10765 bound_to 10752
  141.0692  133.9408  157.2519 H   0  0  0  0  0  0  0  0  0  0  0  0  # atno 11005 bound_to 11000
  145.5598  139.1479  143.3347 LP  0  0  0  0  0  0  0  0  0  0  0  0  # atno 17320 bound_to 7965
  146.2268  140.5734  142.8993 LP  0  0  0  0  0  0  0  0  0  0  0  0  # atno 17321 bound_to 7965
  139.6280  144.7640  151.2597 LP  0  0  0  0  0  0  0  0  0  0  0  0  # atno 17342 bound_to 10162
  140.7423  143.6530  150.8232 LP  0  0  0  0  0  0  0  0  0  0  0  0  # atno 17343 bound_to 10162
  156.8646  130.5125  149.5301 LP  0  0  0  0  0  0  0  0  0  0  0  0  # atno 17370 bound_to 10713
  156.0850  130.5850  150.9631 LP  0  0  0  0  0  0  0  0  0  0  0  0  # atno 17371 bound_to 10713
  139.9506  135.0176  156.8983 LP  0  0  0  0  0  0  0  0  0  0  0  0  # atno 17394 bound_to 11000
  140.5709  134.0444  155.7430 LP  0  0  0  0  0  0  0  0  0  0  0  0  # atno 17395 bound_to 11000

$$$$
