AV-unprocessed.smi:2709|AV-procd|sdf|10461|dock6
  -GOLD-   2272014503D 1   1.00000     0.00000
 Structure written by MMmdl.
 40 42  0  0  0  0  0  0  0  0  1 V2000
  146.5124  133.1857  150.6728 C   0  0  0  0  0  0  0  0  0  0  0  0
  146.4036  134.4458  151.3173 O   0  0  0  0  0  0  0  0  0  0  0  0
  145.2074  135.1514  150.9974 C   0  0  1  0  0  0  0  0  0  0  0  0
  144.0425  134.3418  151.5769 C   0  0  0  0  0  0  0  0  0  0  0  0
  143.8553  134.8864  152.9884 C   0  0  0  0  0  0  0  0  0  0  0  0
  144.0989  136.3863  152.8357 C   0  0  0  0  0  0  0  0  0  0  0  0
  145.1281  136.5333  151.6989 C   0  0  1  0  0  0  0  0  0  0  0  0
  146.4160  136.9673  152.2400 N   0  0  0  0  0  0  0  0  0  0  0  0
  146.6292  138.0633  152.9806 C   0  0  0  0  0  0  0  0  0  0  0  0
  145.7397  138.8452  153.3132 O   0  0  0  0  0  0  0  0  0  0  0  0
  147.9287  138.1761  153.3035 N   0  0  0  0  0  0  0  0  0  0  0  0
  148.5796  139.1879  154.0604 C   0  0  0  0  0  0  0  0  0  0  0  0
  147.9485  140.3062  154.6602 C   0  0  0  0  0  0  0  0  0  0  0  0
  148.6493  141.2275  155.3565 N   0  0  0  0  0  0  0  0  0  0  0  0
  149.9697  141.0467  155.4444 C   0  0  0  0  0  0  0  0  0  0  0  0
  150.7357  142.0513  156.2481 C   0  0  0  0  0  0  0  0  0  0  0  0
  151.5820  141.6224  157.4297 C   0  0  0  0  0  0  0  0  0  0  0  0
  150.3120  142.3923  157.6621 C   0  0  0  0  0  0  0  0  0  0  0  0
  150.6698  140.0326  154.9297 N   0  0  0  0  0  0  0  0  0  0  0  0
  149.9773  139.1066  154.2330 C   0  0  0  0  0  0  0  0  0  0  0  0
  147.4693  132.7285  150.9235 H   0  0  0  0  0  0  0  0  0  0  0  0
  146.4584  133.2809  149.5881 H   0  0  0  0  0  0  0  0  0  0  0  0
  145.7219  132.5099  151.0014 H   0  0  0  0  0  0  0  0  0  0  0  0
  145.0872  135.2416  149.9159 H   0  0  0  0  0  0  0  0  0  0  0  0
  143.1401  134.5355  150.9952 H   0  0  0  0  0  0  0  0  0  0  0  0
  144.2196  133.2659  151.5578 H   0  0  0  0  0  0  0  0  0  0  0  0
  142.8721  134.6598  153.4016 H   0  0  0  0  0  0  0  0  0  0  0  0
  144.6059  134.4551  153.6521 H   0  0  0  0  0  0  0  0  0  0  0  0
  143.1673  136.8723  152.5425 H   0  0  0  0  0  0  0  0  0  0  0  0
  144.4162  136.8459  153.7729 H   0  0  0  0  0  0  0  0  0  0  0  0
  144.7429  137.2655  150.9872 H   0  0  0  0  0  0  0  0  0  0  0  0
  147.2123  136.3899  152.0122 H   0  0  0  0  0  0  0  0  0  0  0  0
  148.5272  137.4292  152.9822 H   0  0  0  0  0  0  0  0  0  0  0  0
  146.8891  140.4934  154.5914 H   0  0  0  0  0  0  0  0  0  0  0  0
  151.1099  142.8581  155.6207 H   0  0  0  0  0  0  0  0  0  0  0  0
  151.5845  140.5675  157.6973 H   0  0  0  0  0  0  0  0  0  0  0  0
  152.5235  142.1450  157.5861 H   0  0  0  0  0  0  0  0  0  0  0  0
  150.4034  143.4295  157.9774 H   0  0  0  0  0  0  0  0  0  0  0  0
  149.4693  141.8489  158.0853 H   0  0  0  0  0  0  0  0  0  0  0  0
  150.5469  138.2911  153.8119 H   0  0  0  0  0  0  0  0  0  0  0  0
  1  2  1  0  0  0  0
  1 21  1  0  0  0  0
  1 22  1  0  0  0  0
  1 23  1  0  0  0  0
  2  3  1  0  0  0  0
  3  7  1  0  0  0  0
  3  4  1  0  0  0  0
  3 24  1  0  0  0  0
  4  5  1  0  0  0  0
  4 25  1  0  0  0  0
  4 26  1  0  0  0  0
  5  6  1  0  0  0  0
  5 27  1  0  0  0  0
  5 28  1  0  0  0  0
  6  7  1  0  0  0  0
  6 29  1  0  0  0  0
  6 30  1  0  0  0  0
  7  8  1  0  0  0  0
  7 31  1  0  0  0  0
  8  9  1  0  0  0  0
  8 32  1  0  0  0  0
  9 10  2  0  0  0  0
  9 11  1  0  0  0  0
 11 12  1  0  0  0  0
 11 33  1  0  0  0  0
 12 20  1  0  0  0  0
 12 13  2  0  0  0  0
 13 14  1  0  0  0  0
 13 34  1  0  0  0  0
 14 15  2  0  0  0  0
 15 16  1  0  0  0  0
 15 19  1  0  0  0  0
 16 18  1  0  0  0  0
 16 17  1  0  0  0  0
 16 35  1  0  0  0  0
 17 18  1  0  0  0  0
 17 36  1  0  0  0  0
 17 37  1  0  0  0  0
 18 38  1  0  0  0  0
 18 39  1  0  0  0  0
 19 20  2  0  0  0  0
 20 40  1  0  0  0  0
M  END
> <s_m_source_file>
AV-unprocessed.smi

> <i_m_source_file_index>
2709

> <i_lp_mmshare_version>
43012

> <i_f3d_flags>
0

> <s_epik_input>
W0NIM11PW0NAQEhdMVtDSDJdW0NIMl1bQ0gyXVtDQEhdMVtOSF1DKD1PKVtOSF1jMltjSF1uYyhuW2NIXTIpW0NIXTNbQ0gyXVtDSDJdMw==

> <s_epik_cmdline>
J2VwaWtfcHl0aG9uJywgJy1waCcsICc3LjAnLCAnLXRuJywgJzgnLCAnLW1hJywgJzIwMCcsICctbWV0YWxfYmluZGluZycsICctaW1hZScsICc8aW5maWxlLm1hZT4nLCAnLW9tYWUnLCAnPG91dGZpbGUubWFlPic=

> <r_lp_tautomer_probability>
1

> <r_epik_Ionization_Penalty>
2.49969e-05

> <r_epik_Ionization_Penalty_Charging>
0

> <r_epik_Ionization_Penalty_Neutral>
2.49969e-05

> <r_epik_State_Penalty>
-0

> <r_epik_Charging_Adjusted_Penalty>
0

> <i_epik_Tot_Q>
0

> <i_epik_Tot_abs_Q>
0

> <r_epik_Metal_State_Penalty>
-0

> <b_epik_Metal_Only>
0

> <s_lp_Force_Field>
OPLS_2005

> <r_lp_Energy>
20.4457

> <b_lp_Chiralities_Consistent>
1

> <s_lp_Variant>
AV-unprocessed.smi:2709-2

> <Gold.Version>
5.8.1

> <Gold.Id.Protein>
6NUR|6NUR_protein|mol2

> <Gold.PLP.Fitness>
39.0385

> <Gold.PLP.PLP>
-30.1779

> <Gold.PLP.part.hbond>
-3.1090

> <Gold.PLP.part.metal>
0.0000

> <Gold.PLP.part.buried>
-4.4798

> <Gold.PLP.part.nonpolar>
-25.8527

> <Gold.PLP.part.repulsive>
2.9416

> <Gold.PLP.ligand.clash>
0.0000

> <Gold.PLP.ligand.torsion>
0.0960

> <Gold.PLP.Chemscore.Hbond>
2.9760

> <Gold.PLP.Chemscore.CHOScore>
0.0000

> <Gold.PLP.Chemscore.Metal>
0.0000

> <Gold.Chemscore.Hbonds>
donor molecule, donor type, donor heavy atom, donor atom, acceptor molecule, acceptor atom, score
      L1  H     8    32       P1  7948  0.99
      L1  H    11    33       P1  7948  1.00
      P1  H  7989  7998       L1    19  1.00

> <Gold.PLP.Chemscore.Internal.Correction>
0.1246

> <Gold.Rescore>
     Score         DG    S(hbond)    S(metal)    S(lipo)     H(rot)  DE(clash)    DE(int)     intcor
     14.68     -17.31       2.12        0.00      71.45       1.41       1.41       1.22       ----

> <Gold.Chemscore.Fitness>
14.6769

> <Gold.Chemscore.DG>
-17.3094

> <Gold.Chemscore.ZeroCoef>
-5.4800

> <Gold.Chemscore.Hbond>
2.1206

> <Gold.Chemscore.Metal>
0.0000

> <Gold.Chemscore.Lipo>
71.4517

> <Gold.Chemscore.Internal_Hbond>
0.0000

> <Gold.Chemscore.DEClash>
1.4077

> <Gold.Chemscore.DEInternal>
1.2248

> <Gold.Chemscore.Rot>
1.4114

> <Gold.Chemscore.Internal.Correction>
   9.000000E+99

> <Gold.Chemscore.Hbonds>
donor molecule, donor type, donor heavy atom, donor atom, acceptor molecule, acceptor atom, score
      L1  H     8    32       P1  7948  0.93
      L1  H    11    33       P1  7948  0.96
      P1  H  7989  7998       L1    19  0.10

> <Gold.Chemscore.Hbond.Weighted>
-7.0828

> <Gold.Chemscore.Metal.Weighted>
-0.0000

> <Gold.Chemscore.Lipo.Weighted>
-8.3598

> <Gold.Chemscore.Internal_Hbond.Weighted>
0.0000

> <Gold.Chemscore.DEClash.Weighted>
1.4077

> <Gold.Chemscore.DEInternal.Weighted>
1.2248

> <Gold.Chemscore.Rot.Weighted>
3.6133

> <Gold.Chemscore.Internal.Correction.Weighted>
   9.000000E+99

> <Gold.Protein.RotatedTorsions>
[ 6907 6896 6895 6894 ] final   58.73 input  -60.11 | X-H torsion
[ 7974 7965 7964 7962 ] final   89.77 input  175.53 | X-H torsion
[ 8008 7997 7996 7995 ] final -175.18 input   59.86 | X-H torsion
[ 10167 10162 10161 10158 ] final  175.57 input  -65.29 | X-H torsion
[ 10718 10713 10712 10709 ] final -117.31 input   66.30 | X-H torsion
[ 10763 10752 10751 10750 ] final    2.05 input  -60.55 | X-H torsion
[ 11005 11000 10999 10996 ] final  -68.16 input  -57.11 | X-H torsion

> <Gold.Protein.ActiveResidues>
 VAL166  LYS551  ARG553  GLY616  TRP617  ASP618  TYR619  PRO620  LYS621  CYS622 
 ASP623  PHE694  ASN695  SER759  ASP760  ASP761  ALA762  ILE779  LEU786  VAL792 
 PHE793  MET794  SER795  GLU796  ALA797  LYS798  CYS799  TRP800  GLU811  SER814 

> <Gold.Protein.RotatedAtoms>
  152.3851  134.6530  160.0128 H   0  0  0  0  0  0  0  0  0  0  0  0  # atno 6907 bound_to 6896
  151.6782  133.3307  159.3221 H   0  0  0  0  0  0  0  0  0  0  0  0  # atno 6908 bound_to 6896
  150.7779  134.6740  159.6452 H   0  0  0  0  0  0  0  0  0  0  0  0  # atno 6909 bound_to 6896
  145.5280  139.2282  143.2635 H   0  0  0  0  0  0  0  0  0  0  0  0  # atno 7974 bound_to 7965
  155.9794  140.1178  157.0740 H   0  0  0  0  0  0  0  0  0  0  0  0  # atno 8008 bound_to 7997
  154.4178  140.1147  156.5482 H   0  0  0  0  0  0  0  0  0  0  0  0  # atno 8009 bound_to 7997
  155.6491  140.3473  155.4744 H   0  0  0  0  0  0  0  0  0  0  0  0  # atno 8010 bound_to 7997
  139.5182  144.3016  152.0373 H   0  0  0  0  0  0  0  0  0  0  0  0  # atno 10167 bound_to 10162
  156.1025  130.6183  150.9148 H   0  0  0  0  0  0  0  0  0  0  0  0  # atno 10718 bound_to 10713
  153.3003  135.6955  153.7209 H   0  0  0  0  0  0  0  0  0  0  0  0  # atno 10763 bound_to 10752
  153.6125  135.3442  155.2984 H   0  0  0  0  0  0  0  0  0  0  0  0  # atno 10764 bound_to 10752
  154.8549  135.4367  154.2113 H   0  0  0  0  0  0  0  0  0  0  0  0  # atno 10765 bound_to 10752
  141.1525  133.6735  156.6404 H   0  0  0  0  0  0  0  0  0  0  0  0  # atno 11005 bound_to 11000
  146.2063  140.6095  142.9079 LP  0  0  0  0  0  0  0  0  0  0  0  0  # atno 17320 bound_to 7965
  144.7641  140.5490  143.6715 LP  0  0  0  0  0  0  0  0  0  0  0  0  # atno 17321 bound_to 7965
  140.2464  144.4216  150.6239 LP  0  0  0  0  0  0  0  0  0  0  0  0  # atno 17342 bound_to 10162
  140.6255  143.2181  151.6605 LP  0  0  0  0  0  0  0  0  0  0  0  0  # atno 17343 bound_to 10162
  157.6197  131.0930  150.8645 LP  0  0  0  0  0  0  0  0  0  0  0  0  # atno 17370 bound_to 10713
  156.8771  130.5166  149.5293 LP  0  0  0  0  0  0  0  0  0  0  0  0  # atno 17371 bound_to 10713
  140.3398  134.7859  157.4389 LP  0  0  0  0  0  0  0  0  0  0  0  0  # atno 17394 bound_to 11000
  140.0947  134.5553  155.8409 LP  0  0  0  0  0  0  0  0  0  0  0  0  # atno 17395 bound_to 11000

$$$$
