AV-unprocessed.smi:2588|AV-procd|sdf|10150|dock8
  -GOLD-   2272014163D 1   1.00000     0.00000
 Structure written by MMmdl.
 39 40  0  0  0  0  0  0  0  0  1 V2000
  152.1806  144.8654  159.7958 C   0  0  0  0  0  0  0  0  0  0  0  0
  151.6528  143.6694  160.6196 C   0  0  0  0  0  0  0  0  0  0  0  0
  152.5557  143.5058  161.8630 C   0  0  0  0  0  0  0  0  0  0  0  0
  151.5921  142.4292  159.8171 N   0  0  0  0  0  0  0  0  0  0  0  0
  152.9393  141.9178  159.5146 C   0  0  0  0  0  0  0  0  0  0  0  0
  152.8821  140.5838  158.7503 C   0  0  0  0  0  0  0  0  0  0  0  0
  152.1139  140.7346  157.4311 C   0  0  0  0  0  0  0  0  0  0  0  0
  151.9471  139.4436  156.7707 N   0  0  0  0  0  0  0  0  0  0  0  0
  151.4215  139.2622  155.5496 C   0  0  0  0  0  0  0  0  0  0  0  0
  150.9976  140.1861  154.8537 O   0  0  0  0  0  0  0  0  0  0  0  0
  151.3503  137.8115  155.0551 C   0  0  0  0  0  0  0  0  0  0  0  0
  150.4281  136.9858  155.8363 N   0  0  0  0  0  0  0  0  0  0  0  0
  149.1124  137.3315  155.8557 N   0  0  0  0  0  0  0  0  0  0  0  0
  148.4238  136.5165  156.5653 C   0  0  0  0  0  0  0  0  0  0  0  0
  149.3190  135.1932  157.3237 S   0  0  0  0  0  0  0  0  0  0  0  0
  150.7927  135.8574  156.5657 C   0  0  0  0  0  0  0  0  0  0  0  0
  151.9093  135.3600  156.7005 O   0  0  0  0  0  0  0  0  0  0  0  0
  150.7449  141.3477  157.7395 C   0  0  0  0  0  0  0  0  0  0  0  0
  150.8897  142.6520  158.5427 C   0  0  0  0  0  0  0  0  0  0  0  0
  152.3732  145.7274  160.4352 H   0  0  0  0  0  0  0  0  0  0  0  0
  151.4637  145.2073  159.0501 H   0  0  0  0  0  0  0  0  0  0  0  0
  153.1145  144.6202  159.2884 H   0  0  0  0  0  0  0  0  0  0  0  0
  150.6460  143.9137  160.9620 H   0  0  0  0  0  0  0  0  0  0  0  0
  152.7231  144.4646  162.3546 H   0  0  0  0  0  0  0  0  0  0  0  0
  153.5329  143.1013  161.5964 H   0  0  0  0  0  0  0  0  0  0  0  0
  152.1121  142.8607  162.6205 H   0  0  0  0  0  0  0  0  0  0  0  0
  153.5017  142.6581  158.9432 H   0  0  0  0  0  0  0  0  0  0  0  0
  153.4981  141.7274  160.4286 H   0  0  0  0  0  0  0  0  0  0  0  0
  153.8958  140.2311  158.5574 H   0  0  0  0  0  0  0  0  0  0  0  0
  152.4061  139.8280  159.3770 H   0  0  0  0  0  0  0  0  0  0  0  0
  152.6579  141.4130  156.7707 H   0  0  0  0  0  0  0  0  0  0  0  0
  152.2651  138.6294  157.2761 H   0  0  0  0  0  0  0  0  0  0  0  0
  151.0390  137.7954  154.0093 H   0  0  0  0  0  0  0  0  0  0  0  0
  152.3549  137.3866  155.0841 H   0  0  0  0  0  0  0  0  0  0  0  0
  147.3491  136.5657  156.7406 H   0  0  0  0  0  0  0  0  0  0  0  0
  150.2083  141.5462  156.8112 H   0  0  0  0  0  0  0  0  0  0  0  0
  150.1351  140.6413  158.3051 H   0  0  0  0  0  0  0  0  0  0  0  0
  149.8826  143.0260  158.7136 H   0  0  0  0  0  0  0  0  0  0  0  0
  151.4152  143.4048  157.9531 H   0  0  0  0  0  0  0  0  0  0  0  0
  1  2  1  0  0  0  0
  1 20  1  0  0  0  0
  1 21  1  0  0  0  0
  1 22  1  0  0  0  0
  2  3  1  0  0  0  0
  2  4  1  0  0  0  0
  2 23  1  0  0  0  0
  3 24  1  0  0  0  0
  3 25  1  0  0  0  0
  3 26  1  0  0  0  0
  4 19  1  0  0  0  0
  4  5  1  0  0  0  0
  5  6  1  0  0  0  0
  5 27  1  0  0  0  0
  5 28  1  0  0  0  0
  6  7  1  0  0  0  0
  6 29  1  0  0  0  0
  6 30  1  0  0  0  0
  7  8  1  0  0  0  0
  7 18  1  0  0  0  0
  7 31  1  0  0  0  0
  8  9  1  0  0  0  0
  8 32  1  0  0  0  0
  9 10  2  0  0  0  0
  9 11  1  0  0  0  0
 11 12  1  0  0  0  0
 11 33  1  0  0  0  0
 11 34  1  0  0  0  0
 12 16  1  0  0  0  0
 12 13  1  0  0  0  0
 13 14  2  0  0  0  0
 14 15  1  0  0  0  0
 14 35  1  0  0  0  0
 15 16  1  0  0  0  0
 16 17  2  0  0  0  0
 18 19  1  0  0  0  0
 18 36  1  0  0  0  0
 18 37  1  0  0  0  0
 19 38  1  0  0  0  0
 19 39  1  0  0  0  0
M  END
> <s_m_source_file>
AV-unprocessed.smi

> <i_m_source_file_index>
2588

> <i_lp_mmshare_version>
43012

> <i_f3d_flags>
0

> <s_epik_input>
W0NIM11bQ0hdKFtDSDNdKU4xW0NIMl1bQ0gyXVtDSF0oW0NIMl1bQ0gyXTEpW05IXUMoPU8pW0NIMl1uMm5bY0hdc2MyPU8=

> <s_epik_cmdline>
J2VwaWtfcHl0aG9uJywgJy1waCcsICc3LjAnLCAnLXRuJywgJzgnLCAnLW1hJywgJzIwMCcsICctbWV0YWxfYmluZGluZycsICctaW1hZScsICc8aW5maWxlLm1hZT4nLCAnLW9tYWUnLCAnPG91dGZpbGUubWFlPic=

> <r_lp_tautomer_probability>
1

> <r_epik_Ionization_Penalty>
2.47038

> <r_epik_Ionization_Penalty_Charging>
1.38606e-08

> <r_epik_Ionization_Penalty_Neutral>
2.47038

> <r_epik_State_Penalty>
2.63325

> <r_epik_Charging_Adjusted_Penalty>
2.63325

> <i_epik_Tot_Q>
0

> <i_epik_Tot_abs_Q>
0

> <r_epik_Metal_State_Penalty>
2.63325

> <b_epik_Metal_Only>
0

> <s_lp_Force_Field>
OPLS_2005

> <r_lp_Energy>
19.6439

> <b_lp_Chiralities_Consistent>
1

> <s_lp_Variant>
AV-unprocessed.smi:2588-3

> <Gold.Version>
5.8.1

> <Gold.Id.Protein>
6NUR|6NUR_protein|mol2

> <Gold.PLP.Fitness>
38.8868

> <Gold.PLP.PLP>
-33.2186

> <Gold.PLP.part.hbond>
-2.3055

> <Gold.PLP.part.metal>
0.0000

> <Gold.PLP.part.buried>
-5.0099

> <Gold.PLP.part.nonpolar>
-24.3417

> <Gold.PLP.part.repulsive>
0.2381

> <Gold.PLP.ligand.clash>
0.0000

> <Gold.PLP.ligand.torsion>
0.1690

> <Gold.PLP.Chemscore.Hbond>
2.0000

> <Gold.PLP.Chemscore.CHOScore>
0.0000

> <Gold.PLP.Chemscore.Metal>
0.0000

> <Gold.Chemscore.Hbonds>
donor molecule, donor type, donor heavy atom, donor atom, acceptor molecule, acceptor atom, score
      P1  H  7989  7998       L1    10  1.00
      P1  H 10752 10765       L1    17  0.98

> <Gold.PLP.Chemscore.Internal.Correction>
0.0062

> <Gold.Rescore>
     Score         DG    S(hbond)    S(metal)    S(lipo)     H(rot)  DE(clash)    DE(int)     intcor
     17.13     -17.31       1.97        0.00      85.12       1.83       0.01       0.17       ----

> <Gold.Chemscore.Fitness>
17.1295

> <Gold.Chemscore.DG>
-17.3123

> <Gold.Chemscore.ZeroCoef>
-5.4800

> <Gold.Chemscore.Hbond>
1.9661

> <Gold.Chemscore.Metal>
0.0000

> <Gold.Chemscore.Lipo>
85.1153

> <Gold.Chemscore.Internal_Hbond>
0.0000

> <Gold.Chemscore.DEClash>
0.0089

> <Gold.Chemscore.DEInternal>
0.1740

> <Gold.Chemscore.Rot>
1.8332

> <Gold.Chemscore.Internal.Correction>
   9.000000E+99

> <Gold.Chemscore.Hbonds>
donor molecule, donor type, donor heavy atom, donor atom, acceptor molecule, acceptor atom, score
      P1  H  7989  7998       L1    10  0.99
      P1  H 10752 10765       L1    17  0.91

> <Gold.Chemscore.Hbond.Weighted>
-6.5668

> <Gold.Chemscore.Metal.Weighted>
-0.0000

> <Gold.Chemscore.Lipo.Weighted>
-9.9585

> <Gold.Chemscore.Internal_Hbond.Weighted>
0.0000

> <Gold.Chemscore.DEClash.Weighted>
0.0089

> <Gold.Chemscore.DEInternal.Weighted>
0.1740

> <Gold.Chemscore.Rot.Weighted>
4.6930

> <Gold.Chemscore.Internal.Correction.Weighted>
   9.000000E+99

> <Gold.Protein.RotatedTorsions>
[ 6907 6896 6895 6894 ] final  -28.57 input  -60.11 | X-H torsion
[ 7974 7965 7964 7962 ] final -164.28 input  175.53 | X-H torsion
[ 8008 7997 7996 7995 ] final    4.80 input   59.86 | X-H torsion
[ 10167 10162 10161 10158 ] final -152.24 input  -65.29 | X-H torsion
[ 10718 10713 10712 10709 ] final -151.38 input   66.30 | X-H torsion
[ 10763 10752 10751 10750 ] final -137.76 input  -60.55 | X-H torsion
[ 11005 11000 10999 10996 ] final  145.73 input  -57.11 | X-H torsion

> <Gold.Protein.ActiveResidues>
 VAL166  LYS551  ARG553  GLY616  TRP617  ASP618  TYR619  PRO620  LYS621  CYS622 
 ASP623  PHE694  ASN695  SER759  ASP760  ASP761  ALA762  ILE779  LEU786  VAL792 
 PHE793  MET794  SER795  GLU796  ALA797  LYS798  CYS799  TRP800  GLU811  SER814 

> <Gold.Protein.RotatedAtoms>
  151.1312  135.0131  159.8582 H   0  0  0  0  0  0  0  0  0  0  0  0  # atno 6907 bound_to 6896
  152.5451  134.1609  159.8567 H   0  0  0  0  0  0  0  0  0  0  0  0  # atno 6908 bound_to 6896
  151.1675  133.4760  159.2627 H   0  0  0  0  0  0  0  0  0  0  0  0  # atno 6909 bound_to 6896
  144.7301  140.2983  143.6209 H   0  0  0  0  0  0  0  0  0  0  0  0  # atno 7974 bound_to 7965
  154.7204  140.2710  155.6546 H   0  0  0  0  0  0  0  0  0  0  0  0  # atno 8008 bound_to 7997
  156.2822  140.2735  156.1799 H   0  0  0  0  0  0  0  0  0  0  0  0  # atno 8009 bound_to 7997
  155.0514  140.0371  157.2535 H   0  0  0  0  0  0  0  0  0  0  0  0  # atno 8010 bound_to 7997
  139.7198  143.8975  152.2499 H   0  0  0  0  0  0  0  0  0  0  0  0  # atno 10167 bound_to 10162
  156.4585  130.8202  151.2433 H   0  0  0  0  0  0  0  0  0  0  0  0  # atno 10718 bound_to 10713
  154.8654  135.3632  154.5275 H   0  0  0  0  0  0  0  0  0  0  0  0  # atno 10763 bound_to 10752
  153.5902  135.7016  153.5431 H   0  0  0  0  0  0  0  0  0  0  0  0  # atno 10764 bound_to 10752
  153.3380  135.4106  155.1511 H   0  0  0  0  0  0  0  0  0  0  0  0  # atno 10765 bound_to 10752
  140.0735  134.9138  157.1385 H   0  0  0  0  0  0  0  0  0  0  0  0  # atno 11005 bound_to 11000
  145.7785  139.1883  143.2171 LP  0  0  0  0  0  0  0  0  0  0  0  0  # atno 17320 bound_to 7965
  146.0853  140.7718  142.9622 LP  0  0  0  0  0  0  0  0  0  0  0  0  # atno 17321 bound_to 7965
  139.8867  144.6988  150.8816 LP  0  0  0  0  0  0  0  0  0  0  0  0  # atno 17342 bound_to 10162
  140.7751  143.3618  151.1814 LP  0  0  0  0  0  0  0  0  0  0  0  0  # atno 17343 bound_to 10162
  157.7499  131.0115  150.3347 LP  0  0  0  0  0  0  0  0  0  0  0  0  # atno 17370 bound_to 10713
  156.3741  130.3869  149.7152 LP  0  0  0  0  0  0  0  0  0  0  0  0  # atno 17371 bound_to 10713
  140.3591  134.2513  155.7189 LP  0  0  0  0  0  0  0  0  0  0  0  0  # atno 17394 bound_to 11000
  141.2021  133.7946  157.0408 LP  0  0  0  0  0  0  0  0  0  0  0  0  # atno 17395 bound_to 11000

$$$$
