AV-unprocessed.smi:3316|AV-procd|sdf|12754|dock2
  -GOLD-   2272019 93D 1   1.00000     0.00000
 Structure written by MMmdl.
 41 43  0  0  0  0  0  0  0  0  2 V2000
  148.7236  141.6502  154.0139 C   0  0  0  0  0  0  0  0  0  0  0  0
  149.7565  141.5148  155.1438 C   0  0  1  0  0  0  0  0  0  0  0  0
  149.0758  141.4128  156.5226 C   0  0  0  0  0  0  0  0  0  0  0  0
  148.7764  142.7482  157.0783 N   0  3  0  0  0  0  0  0  0  0  0  0
  149.4610  143.0407  158.3520 C   0  0  0  0  0  0  0  0  0  0  0  0
  150.9814  143.1707  158.1435 C   0  0  2  0  0  0  0  0  0  0  0  0
  151.8061  141.9278  158.6037 C   0  0  0  0  0  0  0  0  0  0  0  0
  152.8617  142.5429  159.5510 C   0  0  2  0  0  0  0  0  0  0  0  0
  152.1372  143.0335  160.7857 C   0  0  0  0  0  0  0  0  0  0  0  0
  151.4146  144.0953  160.4253 C   0  0  0  0  0  0  0  0  0  0  0  0
  151.6486  144.3201  158.9444 C   0  0  1  0  0  0  0  0  0  0  0  0
  153.1135  143.8780  158.8419 C   0  0  0  0  0  0  0  0  0  0  0  0
  150.7053  140.3487  154.8913 C   0  0  0  0  0  0  0  0  0  0  0  0
  150.4337  139.4110  153.8725 C   0  0  0  0  0  0  0  0  0  0  0  0
  151.3460  138.3569  153.6647 C   0  0  0  0  0  0  0  0  0  0  0  0
  152.4736  138.1987  154.3897 N   0  0  0  0  0  0  0  0  0  0  0  0
  152.7290  139.0967  155.3645 C   0  0  0  0  0  0  0  0  0  0  0  0
  151.8826  140.1857  155.6538 C   0  0  0  0  0  0  0  0  0  0  0  0
  149.2145  141.7709  153.0478 H   0  0  0  0  0  0  0  0  0  0  0  0
  148.0851  142.5206  154.1681 H   0  0  0  0  0  0  0  0  0  0  0  0
  148.0771  140.7745  153.9512 H   0  0  0  0  0  0  0  0  0  0  0  0
  150.3501  142.4303  155.1391 H   0  0  0  0  0  0  0  0  0  0  0  0
  148.1435  140.8527  156.4389 H   0  0  0  0  0  0  0  0  0  0  0  0
  149.7126  140.8657  157.2194 H   0  0  0  0  0  0  0  0  0  0  0  0
  149.0588  143.4430  156.4015 H   0  0  0  0  0  0  0  0  0  0  0  0
  149.0629  143.9708  158.7592 H   0  0  0  0  0  0  0  0  0  0  0  0
  149.2353  142.2516  159.0704 H   0  0  0  0  0  0  0  0  0  0  0  0
  151.1692  143.3466  157.0827 H   0  0  0  0  0  0  0  0  0  0  0  0
  151.1987  141.1786  159.1142 H   0  0  0  0  0  0  0  0  0  0  0  0
  152.2806  141.4428  157.7498 H   0  0  0  0  0  0  0  0  0  0  0  0
  153.7473  141.9385  159.7483 H   0  0  0  0  0  0  0  0  0  0  0  0
  152.1898  142.5671  161.7582 H   0  0  0  0  0  0  0  0  0  0  0  0
  150.7488  144.6820  161.0409 H   0  0  0  0  0  0  0  0  0  0  0  0
  151.4449  145.3330  158.5958 H   0  0  0  0  0  0  0  0  0  0  0  0
  153.7950  144.5305  159.3918 H   0  0  0  0  0  0  0  0  0  0  0  0
  153.4767  143.7735  157.8176 H   0  0  0  0  0  0  0  0  0  0  0  0
  149.5474  139.4904  153.2599 H   0  0  0  0  0  0  0  0  0  0  0  0
  151.1660  137.6229  152.8932 H   0  0  0  0  0  0  0  0  0  0  0  0
  153.6366  138.9451  155.9299 H   0  0  0  0  0  0  0  0  0  0  0  0
  152.1375  140.8757  156.4446 H   0  0  0  0  0  0  0  0  0  0  0  0
  147.7794  142.8240  157.2211 H   0  0  0  0  0  0  0  0  0  0  0  0
  1  2  1  0  0  0  0
  1 19  1  0  0  0  0
  1 20  1  0  0  0  0
  1 21  1  0  0  0  0
  2  3  1  0  0  0  0
  2 13  1  0  0  0  0
  2 22  1  0  0  0  0
  3  4  1  0  0  0  0
  3 23  1  0  0  0  0
  3 24  1  0  0  0  0
  4  5  1  0  0  0  0
  4 25  1  0  0  0  0
  4 41  1  0  0  0  0
  5  6  1  0  0  0  0
  5 26  1  0  0  0  0
  5 27  1  0  0  0  0
  6 11  1  0  0  0  0
  6  7  1  0  0  0  0
  6 28  1  0  0  0  0
  7  8  1  0  0  0  0
  7 29  1  0  0  0  0
  7 30  1  0  0  0  0
  8 12  1  0  0  0  0
  8  9  1  0  0  0  0
  8 31  1  0  0  0  0
  9 10  2  0  0  0  0
  9 32  1  0  0  0  0
 10 11  1  0  0  0  0
 10 33  1  0  0  0  0
 11 12  1  0  0  0  0
 11 34  1  0  0  0  0
 12 35  1  0  0  0  0
 12 36  1  0  0  0  0
 13 18  1  0  0  0  0
 13 14  2  0  0  0  0
 14 15  1  0  0  0  0
 14 37  1  0  0  0  0
 15 16  2  0  0  0  0
 15 38  1  0  0  0  0
 16 17  1  0  0  0  0
 17 18  2  0  0  0  0
 17 39  1  0  0  0  0
 18 40  1  0  0  0  0
M  CHG  1   4   1
M  END
> <s_m_source_file>
AV-unprocessed.smi

> <i_m_source_file_index>
3316

> <i_lp_mmshare_version>
43012

> <i_f3d_flags>
0

> <s_epik_input>
W2NIXTFbY0hdbltjSF1bY0hdYzFbQ0BIXShbQ0gzXSlbQ0gyXVtOSF1bQ0gyXVtDQEhdKFtDSDJdW0NASF0yMylbQ0BIXShbQ0gyXTMpW0NIXT1bQ0hdMg==

> <s_epik_cmdline>
J2VwaWtfcHl0aG9uJywgJy1waCcsICc3LjAnLCAnLXRuJywgJzgnLCAnLW1hJywgJzIwMCcsICctbWV0YWxfYmluZGluZycsICctaW1hZScsICc8aW5maWxlLm1hZT4nLCAnLW9tYWUnLCAnPG91dGZpbGUubWFlPic=

> <r_lp_tautomer_probability>
1

> <r_epik_Ionization_Penalty>
0.00280406

> <r_epik_Ionization_Penalty_Charging>
0.000446589

> <r_epik_Ionization_Penalty_Neutral>
0.00235747

> <r_epik_State_Penalty>
-0

> <r_epik_Charging_Adjusted_Penalty>
0.000446589

> <i_epik_Tot_Q>
1

> <i_epik_Tot_abs_Q>
1

> <r_epik_Metal_State_Penalty>
-0

> <b_epik_Metal_Only>
0

> <s_lp_Force_Field>
OPLS_2005

> <r_lp_Energy>
65.6542

> <b_lp_Chiralities_Consistent>
1

> <s_lp_Variant>
AV-unprocessed.smi:3316-2

> <Gold.Version>
5.8.1

> <Gold.Id.Protein>
6NUR|6NUR_protein|mol2

> <Gold.PLP.Fitness>
52.9675

> <Gold.PLP.PLP>
-46.3236

> <Gold.PLP.part.hbond>
-1.3098

> <Gold.PLP.part.metal>
0.0000

> <Gold.PLP.part.buried>
-4.7698

> <Gold.PLP.part.nonpolar>
-40.8133

> <Gold.PLP.part.repulsive>
0.1219

> <Gold.PLP.ligand.clash>
0.0000

> <Gold.PLP.ligand.torsion>
1.4807

> <Gold.PLP.Chemscore.Hbond>
2.0000

> <Gold.PLP.Chemscore.CHOScore>
1.1560

> <Gold.PLP.Chemscore.Metal>
0.0000

> <Gold.Chemscore.Hbonds>
donor molecule, donor type, donor heavy atom, donor atom, acceptor molecule, acceptor atom, score
      L1  H     4    25       P1  8028  1.76
      L1  C    15    38       P1  7949  1.00

> <Gold.PLP.Chemscore.Internal.Correction>
0.1373

> <Gold.Rescore>
     Score         DG    S(hbond)    S(metal)    S(lipo)     H(rot)  DE(clash)    DE(int)     intcor
     20.72     -22.20       0.95        0.00     145.51       1.36       0.09       1.39       ----

> <Gold.Chemscore.Fitness>
20.7162

> <Gold.Chemscore.DG>
-22.1978

> <Gold.Chemscore.ZeroCoef>
-5.4800

> <Gold.Chemscore.Hbond>
0.9535

> <Gold.Chemscore.Metal>
0.0000

> <Gold.Chemscore.Lipo>
145.5120

> <Gold.Chemscore.Internal_Hbond>
0.0000

> <Gold.Chemscore.DEClash>
0.0896

> <Gold.Chemscore.DEInternal>
1.3920

> <Gold.Chemscore.Rot>
1.3640

> <Gold.Chemscore.Internal.Correction>
   9.000000E+99

> <Gold.Chemscore.Hbonds>
donor molecule, donor type, donor heavy atom, donor atom, acceptor molecule, acceptor atom, score
      L1  H     4    25       P1  8028  0.81

> <Gold.Chemscore.Hbond.Weighted>
-3.1848

> <Gold.Chemscore.Metal.Weighted>
-0.0000

> <Gold.Chemscore.Lipo.Weighted>
-17.0249

> <Gold.Chemscore.Internal_Hbond.Weighted>
0.0000

> <Gold.Chemscore.DEClash.Weighted>
0.0896

> <Gold.Chemscore.DEInternal.Weighted>
1.3920

> <Gold.Chemscore.Rot.Weighted>
3.4919

> <Gold.Chemscore.Internal.Correction.Weighted>
   9.000000E+99

> <Gold.Protein.RotatedTorsions>
[ 6907 6896 6895 6894 ] final -162.27 input  -60.11 | X-H torsion
[ 7974 7965 7964 7962 ] final   60.37 input  175.53 | X-H torsion
[ 8008 7997 7996 7995 ] final  121.34 input   59.86 | X-H torsion
[ 10167 10162 10161 10158 ] final -116.92 input  -65.29 | X-H torsion
[ 10718 10713 10712 10709 ] final -128.45 input   66.30 | X-H torsion
[ 10763 10752 10751 10750 ] final  118.68 input  -60.55 | X-H torsion
[ 11005 11000 10999 10996 ] final   67.53 input  -57.11 | X-H torsion

> <Gold.Protein.ActiveResidues>
 VAL166  LYS551  ARG553  GLY616  TRP617  ASP618  TYR619  PRO620  LYS621  CYS622 
 ASP623  PHE694  ASN695  SER759  ASP760  ASP761  ALA762  ILE779  LEU786  VAL792 
 PHE793  MET794  SER795  GLU796  ALA797  LYS798  CYS799  TRP800  GLU811  SER814 

> <Gold.Protein.RotatedAtoms>
  151.3776  133.3832  159.2706 H   0  0  0  0  0  0  0  0  0  0  0  0  # atno 6907 bound_to 6896
  150.9602  134.8992  159.7736 H   0  0  0  0  0  0  0  0  0  0  0  0  # atno 6908 bound_to 6896
  152.5146  134.3735  159.9378 H   0  0  0  0  0  0  0  0  0  0  0  0  # atno 6909 bound_to 6896
  145.8967  139.3551  143.0617 H   0  0  0  0  0  0  0  0  0  0  0  0  # atno 7974 bound_to 7965
  156.2682  140.2810  156.1293 H   0  0  0  0  0  0  0  0  0  0  0  0  # atno 8008 bound_to 7997
  155.1071  140.0390  157.2731 H   0  0  0  0  0  0  0  0  0  0  0  0  # atno 8009 bound_to 7997
  154.6771  140.2600  155.6953 H   0  0  0  0  0  0  0  0  0  0  0  0  # atno 8010 bound_to 7997
  140.0740  143.4851  152.1964 H   0  0  0  0  0  0  0  0  0  0  0  0  # atno 10167 bound_to 10162
  156.1952  130.6821  151.0473 H   0  0  0  0  0  0  0  0  0  0  0  0  # atno 10718 bound_to 10713
  153.5713  135.3501  155.2839 H   0  0  0  0  0  0  0  0  0  0  0  0  # atno 10763 bound_to 10752
  154.8681  135.4160  154.2722 H   0  0  0  0  0  0  0  0  0  0  0  0  # atno 10764 bound_to 10752
  153.3488  135.7054  153.6875 H   0  0  0  0  0  0  0  0  0  0  0  0  # atno 10765 bound_to 10752
  139.9765  134.6813  156.0343 H   0  0  0  0  0  0  0  0  0  0  0  0  # atno 11005 bound_to 11000
  145.8841  140.9344  143.0586 LP  0  0  0  0  0  0  0  0  0  0  0  0  # atno 17320 bound_to 7965
  144.6733  140.0819  143.7469 LP  0  0  0  0  0  0  0  0  0  0  0  0  # atno 17321 bound_to 7965
  139.5819  144.7514  151.3618 LP  0  0  0  0  0  0  0  0  0  0  0  0  # atno 17342 bound_to 10162
  140.7111  143.7387  150.7569 LP  0  0  0  0  0  0  0  0  0  0  0  0  # atno 17343 bound_to 10162
  157.6953  131.0796  150.6987 LP  0  0  0  0  0  0  0  0  0  0  0  0  # atno 17370 bound_to 10713
  156.7044  130.4633  149.5564 LP  0  0  0  0  0  0  0  0  0  0  0  0  # atno 17371 bound_to 10713
  141.1442  133.6559  156.3818 LP  0  0  0  0  0  0  0  0  0  0  0  0  # atno 17394 bound_to 11000
  140.5183  134.6329  157.5309 LP  0  0  0  0  0  0  0  0  0  0  0  0  # atno 17395 bound_to 11000

$$$$
