AV-unprocessed.smi:1431|AV-procd|sdf|5830|dock2
  -GOLD-   22720 5493D 1   1.00000     0.00000
 Structure written by MMmdl.
 33 34  0  0  0  0  0  0  0  0  1 V2000
  144.5925  136.7706  152.1819 O   0  0  0  0  0  0  0  0  0  0  0  0
  145.7951  136.5456  152.0428 C   0  0  0  0  0  0  0  0  0  0  0  0
  146.7534  137.4144  152.3951 N   0  0  0  0  0  0  0  0  0  0  0  0
  146.5162  138.7343  152.9706 C   0  0  0  0  0  0  0  0  0  0  0  0
  147.8302  139.4672  153.3047 C   0  0  1  0  0  0  0  0  0  0  0  0
  147.5883  140.8977  153.8243 C   0  0  0  0  0  0  0  0  0  0  0  0
  148.9058  141.4416  154.3849 C   0  0  0  0  0  0  0  0  0  0  0  0
  149.7507  139.9999  155.1333 S   0  0  0  0  0  0  0  0  0  0  0  0
  151.1182  139.9135  154.5994 O   0  0  0  0  0  0  0  0  0  0  0  0
  149.5011  139.9846  156.5826 O   0  0  0  0  0  0  0  0  0  0  0  0
  148.6971  138.7275  154.3391 C   0  0  0  0  0  0  0  0  0  0  0  0
  146.3233  135.4236  151.5232 N   0  0  0  0  0  0  0  0  0  0  0  0
  145.6428  134.2731  151.0428 C   0  0  0  0  0  0  0  0  0  0  0  0
  146.4763  133.2642  150.5090 C   0  0  0  0  0  0  0  0  0  0  0  0
  145.8988  132.0809  150.0093 C   0  0  0  0  0  0  0  0  0  0  0  0
  144.5007  131.9369  150.0558 C   0  0  0  0  0  0  0  0  0  0  0  0
  143.7437  132.9895  150.6027 C   0  0  0  0  0  0  0  0  0  0  0  0
  144.2951  134.1243  151.0824 N   0  0  0  0  0  0  0  0  0  0  0  0
  147.7161  137.1490  152.2470 H   0  0  0  0  0  0  0  0  0  0  0  0
  145.9107  139.3333  152.2883 H   0  0  0  0  0  0  0  0  0  0  0  0
  145.9208  138.6033  153.8745 H   0  0  0  0  0  0  0  0  0  0  0  0
  148.4206  139.5588  152.3918 H   0  0  0  0  0  0  0  0  0  0  0  0
  147.1891  141.5489  153.0459 H   0  0  0  0  0  0  0  0  0  0  0  0
  146.8497  140.8695  154.6263 H   0  0  0  0  0  0  0  0  0  0  0  0
  149.5372  141.8241  153.5826 H   0  0  0  0  0  0  0  0  0  0  0  0
  148.7667  142.2277  155.1273 H   0  0  0  0  0  0  0  0  0  0  0  0
  148.0824  138.2736  155.1169 H   0  0  0  0  0  0  0  0  0  0  0  0
  149.3198  137.9521  153.8923 H   0  0  0  0  0  0  0  0  0  0  0  0
  147.3302  135.3865  151.4658 H   0  0  0  0  0  0  0  0  0  0  0  0
  147.5489  133.3909  150.4814 H   0  0  0  0  0  0  0  0  0  0  0  0
  146.5186  131.2977  149.5978 H   0  0  0  0  0  0  0  0  0  0  0  0
  144.0213  131.0442  149.6826 H   0  0  0  0  0  0  0  0  0  0  0  0
  142.6674  132.9189  150.6571 H   0  0  0  0  0  0  0  0  0  0  0  0
  1  2  2  0  0  0  0
  2  3  1  0  0  0  0
  2 12  1  0  0  0  0
  3  4  1  0  0  0  0
  3 19  1  0  0  0  0
  4  5  1  0  0  0  0
  4 20  1  0  0  0  0
  4 21  1  0  0  0  0
  5 11  1  0  0  0  0
  5  6  1  0  0  0  0
  5 22  1  0  0  0  0
  6  7  1  0  0  0  0
  6 23  1  0  0  0  0
  6 24  1  0  0  0  0
  7  8  1  0  0  0  0
  7 25  1  0  0  0  0
  7 26  1  0  0  0  0
  8  9  2  0  0  0  0
  8 10  2  0  0  0  0
  8 11  1  0  0  0  0
 11 27  1  0  0  0  0
 11 28  1  0  0  0  0
 12 13  1  0  0  0  0
 12 29  1  0  0  0  0
 13 18  1  0  0  0  0
 13 14  2  0  0  0  0
 14 15  1  0  0  0  0
 14 30  1  0  0  0  0
 15 16  2  0  0  0  0
 15 31  1  0  0  0  0
 16 17  1  0  0  0  0
 16 32  1  0  0  0  0
 17 18  2  0  0  0  0
 17 33  1  0  0  0  0
M  END
> <s_m_source_file>
AV-unprocessed.smi

> <i_m_source_file_index>
1431

> <i_lp_mmshare_version>
43012

> <i_f3d_flags>
0

> <s_epik_input>
bjFbY0hdW2NIXVtjSF1bY0hdYzFbTkhdQyg9TylbTkhdW0NIMl1bQ0BASF0oW0NIMl0yKVtDSDJdW0NIMl1TMig9Tyk9Tw==

> <s_epik_cmdline>
J2VwaWtfcHl0aG9uJywgJy1waCcsICc3LjAnLCAnLXRuJywgJzgnLCAnLW1hJywgJzIwMCcsICctbWV0YWxfYmluZGluZycsICctaW1hZScsICc8aW5maWxlLm1hZT4nLCAnLW9tYWUnLCAnPG91dGZpbGUubWFlPic=

> <r_lp_tautomer_probability>
1

> <r_epik_Ionization_Penalty>
4.47006e-05

> <r_epik_Ionization_Penalty_Charging>
0

> <r_epik_Ionization_Penalty_Neutral>
4.47006e-05

> <r_epik_State_Penalty>
-0

> <r_epik_Charging_Adjusted_Penalty>
0

> <i_epik_Tot_Q>
0

> <i_epik_Tot_abs_Q>
0

> <r_epik_Metal_State_Penalty>
-0

> <b_epik_Metal_Only>
0

> <s_lp_Force_Field>
OPLS_2005

> <r_lp_Energy>
3.91714

> <b_lp_Chiralities_Consistent>
1

> <s_lp_Variant>
AV-unprocessed.smi:1431-2

> <Gold.Version>
5.8.1

> <Gold.Id.Protein>
6NUR|6NUR_protein|mol2

> <Gold.PLP.Fitness>
43.9628

> <Gold.PLP.PLP>
-32.1652

> <Gold.PLP.part.hbond>
-3.0000

> <Gold.PLP.part.metal>
0.0000

> <Gold.PLP.part.buried>
-2.4494

> <Gold.PLP.part.nonpolar>
-27.9416

> <Gold.PLP.part.repulsive>
1.0081

> <Gold.PLP.ligand.clash>
0.0000

> <Gold.PLP.ligand.torsion>
0.0070

> <Gold.PLP.Chemscore.Hbond>
2.9760

> <Gold.PLP.Chemscore.CHOScore>
0.9604

> <Gold.PLP.Chemscore.Metal>
0.0000

> <Gold.Chemscore.Hbonds>
donor molecule, donor type, donor heavy atom, donor atom, acceptor molecule, acceptor atom, score
      L1  H     3    19       P1  7948  1.00
      L1  H    12    29       P1  7948  0.98
      P1  H  7989  7998       L1     9  1.00
      L1  C    17    33       P1 10186  0.95

> <Gold.PLP.Chemscore.Internal.Correction>
0.0024

> <Gold.Rescore>
     Score         DG    S(hbond)    S(metal)    S(lipo)     H(rot)  DE(clash)    DE(int)     intcor
     18.60     -19.91       2.96        0.00      67.98       1.33       0.02       1.29       ----

> <Gold.Chemscore.Fitness>
18.6002

> <Gold.Chemscore.DG>
-19.9134

> <Gold.Chemscore.ZeroCoef>
-5.4800

> <Gold.Chemscore.Hbond>
2.9577

> <Gold.Chemscore.Metal>
0.0000

> <Gold.Chemscore.Lipo>
67.9845

> <Gold.Chemscore.Internal_Hbond>
0.0000

> <Gold.Chemscore.DEClash>
0.0232

> <Gold.Chemscore.DEInternal>
1.2900

> <Gold.Chemscore.Rot>
1.3280

> <Gold.Chemscore.Internal.Correction>
   9.000000E+99

> <Gold.Chemscore.Hbonds>
donor molecule, donor type, donor heavy atom, donor atom, acceptor molecule, acceptor atom, score
      L1  H     3    19       P1  7948  0.97
      L1  H    12    29       P1  7948  0.84
      P1  H  7989  7998       L1     9  0.94

> <Gold.Chemscore.Hbond.Weighted>
-9.8788

> <Gold.Chemscore.Metal.Weighted>
-0.0000

> <Gold.Chemscore.Lipo.Weighted>
-7.9542

> <Gold.Chemscore.Internal_Hbond.Weighted>
0.0000

> <Gold.Chemscore.DEClash.Weighted>
0.0232

> <Gold.Chemscore.DEInternal.Weighted>
1.2900

> <Gold.Chemscore.Rot.Weighted>
3.3996

> <Gold.Chemscore.Internal.Correction.Weighted>
   9.000000E+99

> <Gold.Protein.RotatedTorsions>
[ 6907 6896 6895 6894 ] final  -23.67 input  -60.11 | X-H torsion
[ 7974 7965 7964 7962 ] final   63.61 input  175.53 | X-H torsion
[ 8008 7997 7996 7995 ] final   18.11 input   59.86 | X-H torsion
[ 10167 10162 10161 10158 ] final -106.08 input  -65.29 | X-H torsion
[ 10718 10713 10712 10709 ] final   78.38 input   66.30 | X-H torsion
[ 10763 10752 10751 10750 ] final  168.24 input  -60.55 | X-H torsion
[ 11005 11000 10999 10996 ] final   50.56 input  -57.11 | X-H torsion

> <Gold.Protein.ActiveResidues>
 VAL166  LYS551  ARG553  GLY616  TRP617  ASP618  TYR619  PRO620  LYS621  CYS622 
 ASP623  PHE694  ASN695  SER759  ASP760  ASP761  ALA762  ILE779  LEU786  VAL792 
 PHE793  MET794  SER795  GLU796  ALA797  LYS798  CYS799  TRP800  GLU811  SER814 

> <Gold.Protein.RotatedAtoms>
  151.2006  135.0441  159.8870 H   0  0  0  0  0  0  0  0  0  0  0  0  # atno 6907 bound_to 6896
  152.5433  134.0854  159.8264 H   0  0  0  0  0  0  0  0  0  0  0  0  # atno 6908 bound_to 6896
  151.0994  133.5207  159.2642 H   0  0  0  0  0  0  0  0  0  0  0  0  # atno 6909 bound_to 6896
  145.8598  139.3307  143.0826 H   0  0  0  0  0  0  0  0  0  0  0  0  # atno 7974 bound_to 7965
  154.9013  140.3001  155.5316 H   0  0  0  0  0  0  0  0  0  0  0  0  # atno 8008 bound_to 7997
  156.3018  140.2406  156.3976 H   0  0  0  0  0  0  0  0  0  0  0  0  # atno 8009 bound_to 7997
  154.8519  140.0409  157.1598 H   0  0  0  0  0  0  0  0  0  0  0  0  # atno 8010 bound_to 7997
  140.1916  143.3887  152.1201 H   0  0  0  0  0  0  0  0  0  0  0  0  # atno 10167 bound_to 10162
  157.6743  130.9865  150.1778 H   0  0  0  0  0  0  0  0  0  0  0  0  # atno 10718 bound_to 10713
  154.3657  135.2753  155.2295 H   0  0  0  0  0  0  0  0  0  0  0  0  # atno 10763 bound_to 10752
  154.4464  135.5942  153.6166 H   0  0  0  0  0  0  0  0  0  0  0  0  # atno 10764 bound_to 10752
  152.9841  135.6031  154.3882 H   0  0  0  0  0  0  0  0  0  0  0  0  # atno 10765 bound_to 10752
  140.1007  134.5085  155.8765 H   0  0  0  0  0  0  0  0  0  0  0  0  # atno 11005 bound_to 11000
  145.9261  140.9081  143.0380 LP  0  0  0  0  0  0  0  0  0  0  0  0  # atno 17320 bound_to 7965
  144.6727  140.1355  143.7441 LP  0  0  0  0  0  0  0  0  0  0  0  0  # atno 17321 bound_to 7965
  139.5253  144.7095  151.5252 LP  0  0  0  0  0  0  0  0  0  0  0  0  # atno 17342 bound_to 10162
  140.6452  143.8810  150.6730 LP  0  0  0  0  0  0  0  0  0  0  0  0  # atno 17343 bound_to 10162
  156.2517  130.3701  149.8225 LP  0  0  0  0  0  0  0  0  0  0  0  0  # atno 17370 bound_to 10713
  156.5996  130.8541  151.3428 LP  0  0  0  0  0  0  0  0  0  0  0  0  # atno 17371 bound_to 10713
  141.2105  133.6695  156.6512 LP  0  0  0  0  0  0  0  0  0  0  0  0  # atno 17394 bound_to 11000
  140.3224  134.7997  157.4263 LP  0  0  0  0  0  0  0  0  0  0  0  0  # atno 17395 bound_to 11000

$$$$
