AV-unprocessed.smi:3215|AV-procd|sdf|12285|dock5
  -GOLD-   2272018123D 1   1.00000     0.00000
 Structure written by MMmdl.
 38 39  0  0  0  0  0  0  0  0  2 V2000
  146.2911  143.3905  153.8972 C   0  0  0  0  0  0  0  0  0  0  0  0
  146.9253  142.0321  153.9859 C   0  0  0  0  0  0  0  0  0  0  0  0
  148.0605  141.6442  154.7527 C   0  0  0  0  0  0  0  0  0  0  0  0
  148.3632  140.3642  154.6103 N   0  0  0  0  0  0  0  0  0  0  0  0
  147.4326  139.8895  153.7555 N   0  0  0  0  0  0  0  0  0  0  0  0
  147.4574  138.4918  153.3600 C   0  0  0  0  0  0  0  0  0  0  0  0
  146.2677  138.1084  152.4633 C   0  0  0  0  0  0  0  0  0  0  0  0
  146.3820  136.7170  151.9823 N   0  3  0  0  0  0  0  0  0  0  0  0
  145.4779  136.3833  150.8632 C   0  0  0  0  0  0  0  0  0  0  0  0
  144.3231  135.4715  151.3021 C   0  0  0  0  0  0  0  0  0  0  0  0
  143.4467  135.9140  152.0468 O   0  0  0  0  0  0  0  0  0  0  0  0
  144.3072  134.1997  150.8528 N   0  0  0  0  0  0  0  0  0  0  0  0
  145.3214  133.6481  149.9563 C   0  0  0  0  0  0  0  0  0  0  0  0
  144.7810  132.2911  149.5058 C   0  0  0  0  0  0  0  0  0  0  0  0
  143.8477  131.8714  150.6327 C   0  0  0  0  0  0  0  0  0  0  0  0
  143.2976  133.1914  151.1746 C   0  0  0  0  0  0  0  0  0  0  0  0
  146.5593  140.8779  153.3534 C   0  0  0  0  0  0  0  0  0  0  0  0
  146.8024  144.1191  154.5267 H   0  0  0  0  0  0  0  0  0  0  0  0
  145.2482  143.3688  154.2139 H   0  0  0  0  0  0  0  0  0  0  0  0
  146.3100  143.7770  152.8783 H   0  0  0  0  0  0  0  0  0  0  0  0
  148.6697  142.2520  155.4054 H   0  0  0  0  0  0  0  0  0  0  0  0
  148.3980  138.2898  152.8458 H   0  0  0  0  0  0  0  0  0  0  0  0
  147.4576  137.8814  154.2639 H   0  0  0  0  0  0  0  0  0  0  0  0
  145.3383  138.2166  153.0234 H   0  0  0  0  0  0  0  0  0  0  0  0
  146.2033  138.7842  151.6092 H   0  0  0  0  0  0  0  0  0  0  0  0
  147.3324  136.5630  151.6759 H   0  0  0  0  0  0  0  0  0  0  0  0
  145.0731  137.3067  150.4475 H   0  0  0  0  0  0  0  0  0  0  0  0
  146.0498  135.8862  150.0786 H   0  0  0  0  0  0  0  0  0  0  0  0
  145.5157  134.3001  149.1031 H   0  0  0  0  0  0  0  0  0  0  0  0
  146.2541  133.5248  150.5086 H   0  0  0  0  0  0  0  0  0  0  0  0
  144.2086  132.4131  148.5853 H   0  0  0  0  0  0  0  0  0  0  0  0
  145.5699  131.5632  149.3143 H   0  0  0  0  0  0  0  0  0  0  0  0
  143.0639  131.1894  150.3016 H   0  0  0  0  0  0  0  0  0  0  0  0
  144.4224  131.3677  151.4112 H   0  0  0  0  0  0  0  0  0  0  0  0
  143.1030  133.1211  152.2455 H   0  0  0  0  0  0  0  0  0  0  0  0
  142.3637  133.4490  150.6727 H   0  0  0  0  0  0  0  0  0  0  0  0
  145.7535  140.6808  152.6613 H   0  0  0  0  0  0  0  0  0  0  0  0
  146.1875  136.0883  152.7486 H   0  0  0  0  0  0  0  0  0  0  0  0
  1  2  1  0  0  0  0
  1 18  1  0  0  0  0
  1 19  1  0  0  0  0
  1 20  1  0  0  0  0
  2 17  2  0  0  0  0
  2  3  1  0  0  0  0
  3  4  2  0  0  0  0
  3 21  1  0  0  0  0
  4  5  1  0  0  0  0
  5  6  1  0  0  0  0
  5 17  1  0  0  0  0
  6  7  1  0  0  0  0
  6 22  1  0  0  0  0
  6 23  1  0  0  0  0
  7  8  1  0  0  0  0
  7 24  1  0  0  0  0
  7 25  1  0  0  0  0
  8  9  1  0  0  0  0
  8 26  1  0  0  0  0
  8 38  1  0  0  0  0
  9 10  1  0  0  0  0
  9 27  1  0  0  0  0
  9 28  1  0  0  0  0
 10 11  2  0  0  0  0
 10 12  1  0  0  0  0
 12 16  1  0  0  0  0
 12 13  1  0  0  0  0
 13 14  1  0  0  0  0
 13 29  1  0  0  0  0
 13 30  1  0  0  0  0
 14 15  1  0  0  0  0
 14 31  1  0  0  0  0
 14 32  1  0  0  0  0
 15 16  1  0  0  0  0
 15 33  1  0  0  0  0
 15 34  1  0  0  0  0
 16 35  1  0  0  0  0
 16 36  1  0  0  0  0
 17 37  1  0  0  0  0
M  CHG  1   8   1
M  END
> <s_m_source_file>
AV-unprocessed.smi

> <i_m_source_file_index>
3215

> <i_lp_mmshare_version>
43012

> <i_f3d_flags>
0

> <s_epik_input>
W0NIM11jMVtjSF1ubihbY0hdMSlbQ0gyXVtDSDJdW05IXVtDSDJdQyg9TylOMltDSDJdW0NIMl1bQ0gyXVtDSDJdMg==

> <s_epik_cmdline>
J2VwaWtfcHl0aG9uJywgJy1waCcsICc3LjAnLCAnLXRuJywgJzgnLCAnLW1hJywgJzIwMCcsICctbWV0YWxfYmluZGluZycsICctaW1hZScsICc8aW5maWxlLm1hZT4nLCAnLW9tYWUnLCAnPG91dGZpbGUubWFlPic=

> <r_lp_tautomer_probability>
1

> <r_epik_Ionization_Penalty>
0.203173

> <r_epik_Ionization_Penalty_Charging>
0.203168

> <r_epik_Ionization_Penalty_Neutral>
4.79177e-06

> <r_epik_State_Penalty>
0.193773

> <r_epik_Charging_Adjusted_Penalty>
0.396942

> <i_epik_Tot_Q>
1

> <i_epik_Tot_abs_Q>
1

> <r_epik_Metal_State_Penalty>
0.194058

> <b_epik_Metal_Only>
0

> <s_lp_Force_Field>
OPLS_2005

> <r_lp_Energy>
25.9096

> <b_lp_Chiralities_Consistent>
1

> <s_lp_Variant>
AV-unprocessed.smi:3215-1

> <Gold.Version>
5.8.1

> <Gold.Id.Protein>
6NUR|6NUR_protein|mol2

> <Gold.PLP.Fitness>
43.4207

> <Gold.PLP.PLP>
-32.3678

> <Gold.PLP.part.hbond>
-0.8779

> <Gold.PLP.part.metal>
0.0000

> <Gold.PLP.part.buried>
1.5443

> <Gold.PLP.part.nonpolar>
-32.7883

> <Gold.PLP.part.repulsive>
0.3220

> <Gold.PLP.ligand.clash>
0.0000

> <Gold.PLP.ligand.torsion>
0.4912

> <Gold.PLP.Chemscore.Hbond>
2.0000

> <Gold.PLP.Chemscore.CHOScore>
2.0000

> <Gold.PLP.Chemscore.Metal>
0.0000

> <Gold.Chemscore.Hbonds>
donor molecule, donor type, donor heavy atom, donor atom, acceptor molecule, acceptor atom, score
      L1  H     8    26       P1  7948  2.00
      L1  C     3    21       P1  8028  1.00
      L1  C    17    37       P1 10175  1.00

> <Gold.PLP.Chemscore.Internal.Correction>
0.0353

> <Gold.Rescore>
     Score         DG    S(hbond)    S(metal)    S(lipo)     H(rot)  DE(clash)    DE(int)     intcor
     12.91     -13.55       0.97        0.00      81.04       1.81       0.27       0.37       ----

> <Gold.Chemscore.Fitness>
12.9097

> <Gold.Chemscore.DG>
-13.5500

> <Gold.Chemscore.ZeroCoef>
-5.4800

> <Gold.Chemscore.Hbond>
0.9674

> <Gold.Chemscore.Metal>
0.0000

> <Gold.Chemscore.Lipo>
81.0444

> <Gold.Chemscore.Internal_Hbond>
0.0000

> <Gold.Chemscore.DEClash>
0.2721

> <Gold.Chemscore.DEInternal>
0.3682

> <Gold.Chemscore.Rot>
1.8137

> <Gold.Chemscore.Internal.Correction>
   9.000000E+99

> <Gold.Chemscore.Hbonds>
donor molecule, donor type, donor heavy atom, donor atom, acceptor molecule, acceptor atom, score
      L1  H     8    26       P1  7948  0.99

> <Gold.Chemscore.Hbond.Weighted>
-3.2310

> <Gold.Chemscore.Metal.Weighted>
-0.0000

> <Gold.Chemscore.Lipo.Weighted>
-9.4822

> <Gold.Chemscore.Internal_Hbond.Weighted>
0.0000

> <Gold.Chemscore.DEClash.Weighted>
0.2721

> <Gold.Chemscore.DEInternal.Weighted>
0.3682

> <Gold.Chemscore.Rot.Weighted>
4.6431

> <Gold.Chemscore.Internal.Correction.Weighted>
   9.000000E+99

> <Gold.Protein.RotatedTorsions>
[ 6907 6896 6895 6894 ] final -119.53 input  -60.11 | X-H torsion
[ 7974 7965 7964 7962 ] final   20.04 input  175.53 | X-H torsion
[ 8008 7997 7996 7995 ] final   44.77 input   59.86 | X-H torsion
[ 10167 10162 10161 10158 ] final  -29.94 input  -65.29 | X-H torsion
[ 10718 10713 10712 10709 ] final  123.82 input   66.30 | X-H torsion
[ 10763 10752 10751 10750 ] final  160.10 input  -60.55 | X-H torsion
[ 11005 11000 10999 10996 ] final  -61.68 input  -57.11 | X-H torsion

> <Gold.Protein.ActiveResidues>
 VAL166  LYS551  ARG553  GLY616  TRP617  ASP618  TYR619  PRO620  LYS621  CYS622 
 ASP623  PHE694  ASN695  SER759  ASP760  ASP761  ALA762  ILE779  LEU786  VAL792 
 PHE793  MET794  SER795  GLU796  ALA797  LYS798  CYS799  TRP800  GLU811  SER814 

> <Gold.Protein.RotatedAtoms>
  150.8313  133.8086  159.3097 H   0  0  0  0  0  0  0  0  0  0  0  0  # atno 6907 bound_to 6896
  151.5815  135.1056  160.0028 H   0  0  0  0  0  0  0  0  0  0  0  0  # atno 6908 bound_to 6896
  152.4392  133.7375  159.6678 H   0  0  0  0  0  0  0  0  0  0  0  0  # atno 6909 bound_to 6896
  146.2127  139.8227  142.8676 H   0  0  0  0  0  0  0  0  0  0  0  0  # atno 7974 bound_to 7965
  155.3248  140.3399  155.4240 H   0  0  0  0  0  0  0  0  0  0  0  0  # atno 8008 bound_to 7997
  156.1891  140.1691  156.8165 H   0  0  0  0  0  0  0  0  0  0  0  0  # atno 8009 bound_to 7997
  154.5421  140.0723  156.8510 H   0  0  0  0  0  0  0  0  0  0  0  0  # atno 8010 bound_to 7997
  140.7255  143.3888  151.1466 H   0  0  0  0  0  0  0  0  0  0  0  0  # atno 10167 bound_to 10162
  157.5634  131.1088  150.8497 H   0  0  0  0  0  0  0  0  0  0  0  0  # atno 10718 bound_to 10713
  154.2421  135.2774  155.2849 H   0  0  0  0  0  0  0  0  0  0  0  0  # atno 10763 bound_to 10752
  154.5536  135.5668  153.6947 H   0  0  0  0  0  0  0  0  0  0  0  0  # atno 10764 bound_to 10752
  152.9997  135.6280  154.2566 H   0  0  0  0  0  0  0  0  0  0  0  0  # atno 10765 bound_to 10752
  141.1333  133.6632  156.5412 H   0  0  0  0  0  0  0  0  0  0  0  0  # atno 11005 bound_to 11000
  145.3080  141.0212  143.3571 LP  0  0  0  0  0  0  0  0  0  0  0  0  # atno 17320 bound_to 7965
  144.8957  139.4715  143.6656 LP  0  0  0  0  0  0  0  0  0  0  0  0  # atno 17321 bound_to 7965
  139.7490  143.8807  152.3071 LP  0  0  0  0  0  0  0  0  0  0  0  0  # atno 17342 bound_to 10162
  139.8655  144.7095  150.9049 LP  0  0  0  0  0  0  0  0  0  0  0  0  # atno 17343 bound_to 10162
  156.8989  130.5239  149.5283 LP  0  0  0  0  0  0  0  0  0  0  0  0  # atno 17370 bound_to 10713
  156.0684  130.5723  150.9335 LP  0  0  0  0  0  0  0  0  0  0  0  0  # atno 17371 bound_to 10713
  140.4138  134.7249  157.4851 LP  0  0  0  0  0  0  0  0  0  0  0  0  # atno 17394 bound_to 11000
  140.0408  134.6270  155.8983 LP  0  0  0  0  0  0  0  0  0  0  0  0  # atno 17395 bound_to 11000

$$$$
