AV-unprocessed.smi:52|AV-procd|sdf|507|dock1
  -GOLD-   2262016373D 1   1.00000     0.00000
 Structure written by MMmdl.
 27 28  0  0  0  0  0  0  0  0  3 V2000
  151.6069  135.6462  156.1713 O   0  0  0  0  0  0  0  0  0  0  0  0
  150.4705  135.3173  156.5773 C   0  0  0  0  0  0  0  0  0  0  0  0
  150.1240  135.4701  157.7693 O   0  5  0  0  0  0  0  0  0  0  0  0
  149.5058  134.7239  155.6161 C   0  0  0  0  0  0  0  0  0  0  0  0
  149.7034  133.6157  154.8315 C   0  0  0  0  0  0  0  0  0  0  0  0
  148.5764  133.3817  154.0909 O   0  0  0  0  0  0  0  0  0  0  0  0
  147.7235  134.3763  154.4574 C   0  0  0  0  0  0  0  0  0  0  0  0
  146.3585  134.4186  153.8540 C   0  0  0  0  0  0  0  0  0  0  0  0
  146.6020  134.3397  152.3934 N   0  3  2  0  0  0  0  0  0  0  0  0
  145.4781  134.8372  151.5637 C   0  0  0  0  0  0  0  0  0  0  0  0
  145.2379  133.7948  150.4647 C   0  0  0  0  0  0  0  0  0  0  0  0
  146.5386  132.9996  150.4202 C   0  0  2  0  0  0  0  0  0  0  0  0
  146.3437  131.6953  149.9158 O   0  0  0  0  0  0  0  0  0  0  0  0
  146.9774  133.0005  151.8821 C   0  0  0  0  0  0  0  0  0  0  0  0
  148.2281  135.2082  155.3650 N   0  0  0  0  0  0  0  0  0  0  0  0
  147.2748  133.5244  149.8094 H   0  0  0  0  0  0  0  0  0  0  0  0
  150.5287  132.9317  154.6980 H   0  0  0  0  0  0  0  0  0  0  0  0
  145.7426  133.5938  154.2150 H   0  0  0  0  0  0  0  0  0  0  0  0
  145.8780  135.3605  154.1212 H   0  0  0  0  0  0  0  0  0  0  0  0
  144.5701  134.9995  152.1467 H   0  0  0  0  0  0  0  0  0  0  0  0
  145.7684  135.7954  151.1317 H   0  0  0  0  0  0  0  0  0  0  0  0
  144.4118  133.1453  150.7602 H   0  0  0  0  0  0  0  0  0  0  0  0
  144.9817  134.2421  149.5036 H   0  0  0  0  0  0  0  0  0  0  0  0
  147.1818  131.2606  149.8649 H   0  0  0  0  0  0  0  0  0  0  0  0
  148.0438  132.8036  151.9975 H   0  0  0  0  0  0  0  0  0  0  0  0
  146.4315  132.2333  152.4350 H   0  0  0  0  0  0  0  0  0  0  0  0
  147.3816  134.9503  152.1942 H   0  0  0  0  0  0  0  0  0  0  0  0
  1  2  2  0  0  0  0
  2  3  1  0  0  0  0
  2  4  1  0  0  0  0
  4 15  1  0  0  0  0
  4  5  2  0  0  0  0
  5  6  1  0  0  0  0
  5 17  1  0  0  0  0
  6  7  1  0  0  0  0
  7  8  1  0  0  0  0
  7 15  2  0  0  0  0
  8  9  1  0  0  0  0
  8 18  1  0  0  0  0
  8 19  1  0  0  0  0
  9 14  1  0  0  0  0
  9 10  1  0  0  0  0
  9 27  1  0  0  0  0
 10 11  1  0  0  0  0
 10 20  1  0  0  0  0
 10 21  1  0  0  0  0
 11 12  1  0  0  0  0
 11 22  1  0  0  0  0
 11 23  1  0  0  0  0
 12 16  1  0  0  0  0
 12 13  1  0  0  0  0
 12 14  1  0  0  0  0
 13 24  1  0  0  0  0
 14 25  1  0  0  0  0
 14 26  1  0  0  0  0
M  CHG  1   3  -1
M  CHG  1   9   1
M  END
> <s_m_source_file>
AV-unprocessed.smi

> <i_m_source_file_index>
52

> <i_lp_mmshare_version>
43012

> <i_f3d_flags>
0

> <s_epik_input>
Tz1DKFtPSF0pYzFbY0hdb2MobjEpW0NIMl1OMltDSDJdW0NIMl1bQ0BIXShbT0hdKVtDSDJdMg==

> <s_epik_cmdline>
J2VwaWtfcHl0aG9uJywgJy1waCcsICc3LjAnLCAnLXRuJywgJzgnLCAnLW1hJywgJzIwMCcsICctbWV0YWxfYmluZGluZycsICctaW1hZScsICc8aW5maWxlLm1hZT4nLCAnLW9tYWUnLCAnPG91dGZpbGUubWFlPic=

> <r_epik_Ionization_Penalty>
0.0376014

> <r_epik_Ionization_Penalty_Charging>
0.0376013

> <r_epik_Ionization_Penalty_Neutral>
1.78687e-08

> <r_epik_State_Penalty>
0.0314164

> <r_epik_Charging_Adjusted_Penalty>
0.0690177

> <i_epik_Tot_Q>
0

> <i_epik_Tot_abs_Q>
2

> <r_epik_Metal_State_Penalty>
0.0314164

> <b_epik_Metal_Only>
0

> <s_lp_Force_Field>
OPLS_2005

> <r_lp_Energy>
21.1951

> <b_lp_Chiralities_Consistent>
1

> <s_lp_Variant>
AV-unprocessed.smi:52-1

> <Gold.Version>
5.8.1

> <Gold.Id.Protein>
6NUR|6NUR_protein|mol2

> <Gold.PLP.Fitness>
37.8632

> <Gold.PLP.PLP>
-20.7505

> <Gold.PLP.part.hbond>
-3.9805

> <Gold.PLP.part.metal>
0.0000

> <Gold.PLP.part.buried>
-3.4516

> <Gold.PLP.part.nonpolar>
-14.3766

> <Gold.PLP.part.repulsive>
0.2029

> <Gold.PLP.ligand.clash>
0.0000

> <Gold.PLP.ligand.torsion>
1.2555

> <Gold.PLP.Chemscore.Hbond>
6.5360

> <Gold.PLP.Chemscore.CHOScore>
0.0000

> <Gold.PLP.Chemscore.Metal>
0.0000

> <Gold.Chemscore.Hbonds>
donor molecule, donor type, donor heavy atom, donor atom, acceptor molecule, acceptor atom, score
      L1  H     9    27       P1  7948  2.00
      L1  H    13    24       P1 10747  1.00
      P1  H  6896  6908       L1     3  1.47
      P1  H 10752 10763       L1     1  2.00

> <Gold.PLP.Chemscore.Internal.Correction>
0.0158

> <Gold.Rescore>
     Score         DG    S(hbond)    S(metal)    S(lipo)     H(rot)  DE(clash)    DE(int)     intcor
     14.50     -17.24       3.71        0.00      38.14       1.99       0.01       2.73       ----

> <Gold.Chemscore.Fitness>
14.5004

> <Gold.Chemscore.DG>
-17.2370

> <Gold.Chemscore.ZeroCoef>
-5.4800

> <Gold.Chemscore.Hbond>
3.7106

> <Gold.Chemscore.Metal>
0.0000

> <Gold.Chemscore.Lipo>
38.1431

> <Gold.Chemscore.Internal_Hbond>
0.0000

> <Gold.Chemscore.DEClash>
0.0095

> <Gold.Chemscore.DEInternal>
2.7272

> <Gold.Chemscore.Rot>
1.9919

> <Gold.Chemscore.Internal.Correction>
   9.000000E+99

> <Gold.Chemscore.Hbonds>
donor molecule, donor type, donor heavy atom, donor atom, acceptor molecule, acceptor atom, score
      L1  H     9    27       P1  7948  0.90
      L1  H    13    24       P1 10747  1.00
      P1  H  6896  6908       L1     3  0.70
      P1  H 10752 10763       L1     1  1.00

> <Gold.Chemscore.Hbond.Weighted>
-12.3934

> <Gold.Chemscore.Metal.Weighted>
-0.0000

> <Gold.Chemscore.Lipo.Weighted>
-4.4627

> <Gold.Chemscore.Internal_Hbond.Weighted>
0.0000

> <Gold.Chemscore.DEClash.Weighted>
0.0095

> <Gold.Chemscore.DEInternal.Weighted>
2.7272

> <Gold.Chemscore.Rot.Weighted>
5.0991

> <Gold.Chemscore.Internal.Correction.Weighted>
   9.000000E+99

> <Gold.Protein.RotatedTorsions>
[ 6907 6896 6895 6894 ] final  161.85 input  -60.11 | X-H torsion
[ 7974 7965 7964 7962 ] final  111.36 input  175.53 | X-H torsion
[ 8008 7997 7996 7995 ] final   -8.77 input   59.86 | X-H torsion
[ 10167 10162 10161 10158 ] final  -21.56 input  -65.29 | X-H torsion
[ 10718 10713 10712 10709 ] final  -68.47 input   66.30 | X-H torsion
[ 10763 10752 10751 10750 ] final   93.07 input  -60.55 | X-H torsion
[ 11005 11000 10999 10996 ] final  172.83 input  -57.11 | X-H torsion

> <Gold.Protein.ActiveResidues>
 VAL166  LYS551  ARG553  GLY616  TRP617  ASP618  TYR619  PRO620  LYS621  CYS622 
 ASP623  PHE694  ASN695  SER759  ASP760  ASP761  ALA762  ILE779  LEU786  VAL792 
 PHE793  MET794  SER795  GLU796  ALA797  LYS798  CYS799  TRP800  GLU811  SER814 

> <Gold.Protein.RotatedAtoms>
  151.9494  133.3661  159.3994 H   0  0  0  0  0  0  0  0  0  0  0  0  # atno 6907 bound_to 6896
  150.6983  134.4356  159.5278 H   0  0  0  0  0  0  0  0  0  0  0  0  # atno 6908 bound_to 6896
  152.2026  134.8574  160.0557 H   0  0  0  0  0  0  0  0  0  0  0  0  # atno 6909 bound_to 6896
  145.2433  139.2770  143.4106 H   0  0  0  0  0  0  0  0  0  0  0  0  # atno 7974 bound_to 7965
  154.5710  140.2372  155.8192 H   0  0  0  0  0  0  0  0  0  0  0  0  # atno 8008 bound_to 7997
  156.2106  140.3027  155.9682 H   0  0  0  0  0  0  0  0  0  0  0  0  # atno 8009 bound_to 7997
  155.2713  140.0418  157.2997 H   0  0  0  0  0  0  0  0  0  0  0  0  # atno 8010 bound_to 7997
  140.7282  143.4616  151.0371 H   0  0  0  0  0  0  0  0  0  0  0  0  # atno 10167 bound_to 10162
  156.0504  130.4295  150.2005 H   0  0  0  0  0  0  0  0  0  0  0  0  # atno 10718 bound_to 10713
  153.2262  135.4338  155.0544 H   0  0  0  0  0  0  0  0  0  0  0  0  # atno 10763 bound_to 10752
  154.8274  135.3368  154.6854 H   0  0  0  0  0  0  0  0  0  0  0  0  # atno 10764 bound_to 10752
  153.7284  135.7012  153.5051 H   0  0  0  0  0  0  0  0  0  0  0  0  # atno 10765 bound_to 10752
  140.3339  134.7334  157.4154 H   0  0  0  0  0  0  0  0  0  0  0  0  # atno 11005 bound_to 11000
  146.3322  140.2802  142.8610 LP  0  0  0  0  0  0  0  0  0  0  0  0  # atno 17320 bound_to 7965
  144.9569  140.8236  143.5537 LP  0  0  0  0  0  0  0  0  0  0  0  0  # atno 17321 bound_to 7965
  139.8301  143.7702  152.3179 LP  0  0  0  0  0  0  0  0  0  0  0  0  # atno 17342 bound_to 10162
  139.7815  144.7443  151.0082 LP  0  0  0  0  0  0  0  0  0  0  0  0  # atno 17343 bound_to 10162
  157.0089  130.9945  151.3371 LP  0  0  0  0  0  0  0  0  0  0  0  0  # atno 17370 bound_to 10713
  157.5424  130.8128  149.8044 LP  0  0  0  0  0  0  0  0  0  0  0  0  # atno 17371 bound_to 10713
  140.0838  134.5695  155.8514 LP  0  0  0  0  0  0  0  0  0  0  0  0  # atno 17394 bound_to 11000
  141.2056  133.6648  156.6192 LP  0  0  0  0  0  0  0  0  0  0  0  0  # atno 17395 bound_to 11000

$$$$
