#       Name:                AV-unprocessed.smi:21
#       Creating user name   scv26
#       Creation time:       Thu Mar 26 15:41:27 2020


#       File generated by GOLD software.
#

@<TRIPOS>MOLECULE
AV-unprocessed.smi:21
    71    74     1
SMALL
NO_CHARGES


@<TRIPOS>ATOM
      1 ****        -3.7509  -5.4596  -1.7133 C.3            1 S1                 0.0000
      2 ****        -3.2325  -4.1525  -1.5271 O.3            1 S1                 0.0000
      3 ****        -3.5058  -3.6140  -0.2413 C.3            1 S1                 0.0000
      4 ****        -2.7130  -2.3153  -0.0265 C.3            1 S1                 0.0000
      5 ****        -3.7855  -1.2289   0.1552 C.3            1 S1                 0.0000
      6 ****        -3.3204  -0.0432   1.0275 C.3            1 S1                 0.0000
      7 ****        -2.2539   0.7346   0.3916 N.pl3          1 S1                 0.0000
      8 ****        -2.6175   1.6111  -0.7147 C.3            1 S1                 0.0000
      9 ****        -0.9447   0.4220   0.6132 C.ar           1 S1                 0.0000
     10 ****        -0.6144  -0.1540   1.7999 N.ar           1 S1                 0.0000
     11 ****         0.6491  -0.4851   2.0756 C.ar           1 S1                 0.0000
     12 ****         1.7342  -0.3281   1.3189 N.ar           1 S1                 0.0000
     13 ****         1.4228   0.2524   0.1261 C.ar           1 S1                 0.0000
     14 ****         0.1244   0.6528  -0.3084 C.ar           1 S1                 0.0000
     15 ****         0.2150   1.1834  -1.5920 N.2            1 S1                 0.0000
     16 ****         1.4815   1.1069  -1.8924 C.2            1 S1                 0.0000
     17 ****         2.2839   0.5817  -0.9069 N.pl3          1 S1                 0.0000
     18 ****         3.7202   0.3748  -0.9801 C.3            1 S1                 0.0000
     19 ****         4.5528   1.1318   0.0933 C.3            1 S1                 0.0000
     20 ****         6.0299   0.6768   0.0003 C.3            1 S1                 0.0000
     21 ****         6.1659  -0.6994   0.2903 O.3            1 S1                 0.0000
     22 ****         4.4315   2.6826  -0.0085 C.3            1 S1                 0.0000
     23 ****         3.0853   3.2731   0.3940 C.3            1 S1                 0.0000
     24 ****         3.4063   4.7223   0.7567 C.3            1 S1                 0.0000
     25 ****         4.8071   4.7748   0.9910 O.3            1 S1                 0.0000
     26 ****         5.3414   3.4610   0.9484 C.3            1 S1                 0.0000
     27 ****        -4.9440  -1.9421   0.6693 N.3            1 S1                 0.0000
     28 ****        -6.1920  -1.1985   0.5568 C.3            1 S1                 0.0000
     29 ****        -4.9677  -3.1678  -0.1044 C.3            1 S1                 0.0000
     30 ****        -3.2415  -4.3263   0.5424 H              1 S1                 0.0000
     31 ****        -4.0364  -0.8494  -0.8372 H              1 S1                 0.0000
     32 ****        -3.4926  -5.8150  -2.7107 H              1 S1                 0.0000
     33 ****        -4.8376  -5.4776  -1.6236 H              1 S1                 0.0000
     34 ****        -3.3286  -6.1574  -0.9894 H              1 S1                 0.0000
     35 ****        -2.1027  -2.4113   0.8723 H              1 S1                 0.0000
     36 ****        -2.0425  -2.0865  -0.8558 H              1 S1                 0.0000
     37 ****        -4.1548   0.6379   1.1932 H              1 S1                 0.0000
     38 ****        -3.0432  -0.3933   2.0217 H              1 S1                 0.0000
     39 ****        -2.0074   2.5148  -0.7123 H              1 S1                 0.0000
     40 ****        -3.6604   1.9190  -0.6377 H              1 S1                 0.0000
     41 ****        -2.4911   1.0998  -1.6693 H              1 S1                 0.0000
     42 ****         0.8141  -0.9384   3.0418 H              1 S1                 0.0000
     43 ****         1.8675   1.4449  -2.8431 H              1 S1                 0.0000
     44 ****         3.8819  -0.7004  -0.9011 H              1 S1                 0.0000
     45 ****         4.0605   0.6588  -1.9768 H              1 S1                 0.0000
     46 ****         4.1962   0.8393   1.0814 H              1 S1                 0.0000
     47 ****         6.4366   0.8795  -0.9908 H              1 S1                 0.0000
     48 ****         6.6575   1.2030   0.7181 H              1 S1                 0.0000
     49 ****         7.0802  -0.9310   0.2293 H              1 S1                 0.0000
     50 ****         4.6616   2.9969  -1.0277 H              1 S1                 0.0000
     51 ****         2.3371   3.2252  -0.3951 H              1 S1                 0.0000
     52 ****         2.6898   2.7543   1.2683 H              1 S1                 0.0000
     53 ****         3.1641   5.3953  -0.0660 H              1 S1                 0.0000
     54 ****         2.8506   5.0490   1.6361 H              1 S1                 0.0000
     55 ****         5.3076   3.0336   1.9519 H              1 S1                 0.0000
     56 ****         6.3811   3.4870   0.6214 H              1 S1                 0.0000
     57 ****        -7.0305  -1.8045   0.9011 H              1 S1                 0.0000
     58 ****        -6.3879  -0.9053  -0.4755 H              1 S1                 0.0000
     59 ****        -6.1677  -0.2967   1.1680 H              1 S1                 0.0000
     60 ****        -5.3788  -2.9695  -1.0959 H              1 S1                 0.0000
     61 ****        -5.5918  -3.9283   0.3657 H              1 S1                 0.0000
     62 ****        -3.6370  -3.5503  -2.2153 LP             1 S1                 0.0000
     63 ****        -2.2410  -4.1840  -1.6531 LP             1 S1                 0.0000
     64 ****        -1.3289  -0.3323   2.4765 LP             1 S1                 0.0000
     65 ****         2.6571  -0.6008   1.5909 LP             1 S1                 0.0000
     66 ****        -0.5266   1.5433  -2.1581 LP             1 S1                 0.0000
     67 ****         5.6376  -1.2363  -0.3675 LP             1 S1                 0.0000
     68 ****         5.8326  -0.8835   1.2150 LP             1 S1                 0.0000
     69 ****         4.9802   5.1764   1.8904 LP             1 S1                 0.0000
     70 ****         5.2425   5.3351   0.2864 LP             1 S1                 0.0000
     71 ****        -4.8662  -2.1005   1.6536 LP             1 S1                 0.0000
@<TRIPOS>BOND
    1    1    2 1     
    2    1   32 1     
    3    1   33 1     
    4    1   34 1     
    5    2    3 1     
    6    3   30 1     
    7    3   29 1     
    8    3    4 1     
    9    4    5 1     
   10    4   35 1     
   11    4   36 1     
   12    5   31 1     
   13    5    6 1     
   14    5   27 1     
   15    6    7 1     
   16    6   37 1     
   17    6   38 1     
   18    7    8 1     
   19    7    9 1     
   20    8   39 1     
   21    8   40 1     
   22    8   41 1     
   23    9   14 ar    
   24    9   10 ar    
   25   10   11 ar    
   26   11   12 ar    
   27   11   42 1     
   28   12   13 ar    
   29   13   17 1     
   30   13   14 ar    
   31   14   15 1     
   32   15   16 2     
   33   16   17 1     
   34   16   43 1     
   35   17   18 1     
   36   18   19 1     
   37   18   44 1     
   38   18   45 1     
   39   19   20 1     
   40   19   22 1     
   41   19   46 1     
   42   20   21 1     
   43   20   47 1     
   44   20   48 1     
   45   21   49 1     
   46   22   26 1     
   47   22   23 1     
   48   22   50 1     
   49   23   24 1     
   50   23   51 1     
   51   23   52 1     
   52   24   25 1     
   53   24   53 1     
   54   24   54 1     
   55   25   26 1     
   56   26   55 1     
   57   26   56 1     
   58   27   28 1     
   59   27   29 1     
   60   28   57 1     
   61   28   58 1     
   62   28   59 1     
   63   29   60 1     
   64   29   61 1     
   65    2   62 1     
   66    2   63 1     
   67   10   64 1     
   68   12   65 1     
   69   15   66 1     
   70   21   67 1     
   71   21   68 1     
   72   25   69 1     
   73   25   70 1     
   74   27   71 1     
@<TRIPOS>SUBSTRUCTURE
      1 S1             1
@<TRIPOS>SET
LONE_PAIRS      STATIC     ATOMS    <user>   **** ""
10 62 63 64 65 66 67 68 69 70 71
DONOR_HYDROGENS      STATIC     ATOMS    <user>   **** ""
1 49
ATOM$BLUE        STATIC     ATOMS    COLORGROUP SYSTEM
10 62 63 64 65 66 67 68 69 70 71
ATOM$RED        STATIC     ATOMS    COLORGROUP SYSTEM
1 49
