AV-unprocessed.smi:3287|AV-procd|sdf|12605|dock3
  -GOLD-   2272018533D 1   1.00000     0.00000
 Structure written by MMmdl.
 43 44  0  0  0  0  0  0  0  0  2 V2000
  153.0087  142.9049  161.1236 C   0  0  0  0  0  0  0  0  0  0  0  0
  152.5151  142.7588  159.6731 C   0  0  1  0  0  0  0  0  0  0  0  0
  151.8425  141.3834  159.4877 C   0  0  0  0  0  0  0  0  0  0  0  0
  151.3287  141.1747  158.0564 C   0  0  0  0  0  0  0  0  0  0  0  0
  150.3536  142.2955  157.6511 C   0  0  2  0  0  0  0  0  0  0  0  0
  149.8754  142.1311  156.2605 N   0  3  0  0  0  0  0  0  0  0  0  0
  148.8448  141.0882  156.0653 C   0  0  0  0  0  0  0  0  0  0  0  0
  149.0092  140.3802  154.7093 C   0  0  1  0  0  0  0  0  0  0  0  0
  149.2802  141.3514  153.7174 O   0  0  0  0  0  0  0  0  0  0  0  0
  150.0972  139.3198  154.7755 C   0  0  0  0  0  0  0  0  0  0  0  0
  151.4458  139.6672  155.0093 C   0  0  0  0  0  0  0  0  0  0  0  0
  152.4060  138.6375  155.0709 C   0  0  0  0  0  0  0  0  0  0  0  0
  152.1020  137.3308  154.9202 N   0  0  0  0  0  0  0  0  0  0  0  0
  150.8110  137.0037  154.6990 C   0  0  0  0  0  0  0  0  0  0  0  0
  149.7745  137.9553  154.6193 C   0  0  0  0  0  0  0  0  0  0  0  0
  151.0377  143.6643  157.8087 C   0  0  0  0  0  0  0  0  0  0  0  0
  151.5552  143.8997  159.2432 C   0  0  2  0  0  0  0  0  0  0  0  0
  152.1982  145.2945  159.3450 C   0  0  0  0  0  0  0  0  0  0  0  0
  152.1739  142.9596  161.8232 H   0  0  0  0  0  0  0  0  0  0  0  0
  153.6183  143.7981  161.2571 H   0  0  0  0  0  0  0  0  0  0  0  0
  153.6273  142.0551  161.4137 H   0  0  0  0  0  0  0  0  0  0  0  0
  153.3911  142.7885  159.0233 H   0  0  0  0  0  0  0  0  0  0  0  0
  152.5472  140.5888  159.7357 H   0  0  0  0  0  0  0  0  0  0  0  0
  151.0111  141.2839  160.1871 H   0  0  0  0  0  0  0  0  0  0  0  0
  152.1725  141.1455  157.3655 H   0  0  0  0  0  0  0  0  0  0  0  0
  150.8446  140.2002  157.9966 H   0  0  0  0  0  0  0  0  0  0  0  0
  149.4863  142.2735  158.3130 H   0  0  0  0  0  0  0  0  0  0  0  0
  149.4704  143.0100  155.9715 H   0  0  0  0  0  0  0  0  0  0  0  0
  148.8877  140.3595  156.8749 H   0  0  0  0  0  0  0  0  0  0  0  0
  147.8618  141.5591  156.1109 H   0  0  0  0  0  0  0  0  0  0  0  0
  148.0703  139.8936  154.4403 H   0  0  0  0  0  0  0  0  0  0  0  0
  149.6794  140.9197  152.9768 H   0  0  0  0  0  0  0  0  0  0  0  0
  151.7427  140.6973  155.1413 H   0  0  0  0  0  0  0  0  0  0  0  0
  153.4457  138.8697  155.2483 H   0  0  0  0  0  0  0  0  0  0  0  0
  150.5967  135.9515  154.5844 H   0  0  0  0  0  0  0  0  0  0  0  0
  148.7570  137.6384  154.4432 H   0  0  0  0  0  0  0  0  0  0  0  0
  151.8683  143.7432  157.1050 H   0  0  0  0  0  0  0  0  0  0  0  0
  150.3337  144.4534  157.5406 H   0  0  0  0  0  0  0  0  0  0  0  0
  150.6928  143.8880  159.9118 H   0  0  0  0  0  0  0  0  0  0  0  0
  153.1106  145.3559  158.7511 H   0  0  0  0  0  0  0  0  0  0  0  0
  152.4497  145.5507  160.3738 H   0  0  0  0  0  0  0  0  0  0  0  0
  151.5173  146.0668  158.9862 H   0  0  0  0  0  0  0  0  0  0  0  0
  150.6635  141.9318  155.6606 H   0  0  0  0  0  0  0  0  0  0  0  0
  1  2  1  0  0  0  0
  1 19  1  0  0  0  0
  1 20  1  0  0  0  0
  1 21  1  0  0  0  0
  2 17  1  0  0  0  0
  2  3  1  0  0  0  0
  2 22  1  0  0  0  0
  3  4  1  0  0  0  0
  3 23  1  0  0  0  0
  3 24  1  0  0  0  0
  4  5  1  0  0  0  0
  4 25  1  0  0  0  0
  4 26  1  0  0  0  0
  5  6  1  0  0  0  0
  5 16  1  0  0  0  0
  5 27  1  0  0  0  0
  6  7  1  0  0  0  0
  6 28  1  0  0  0  0
  6 43  1  0  0  0  0
  7  8  1  0  0  0  0
  7 29  1  0  0  0  0
  7 30  1  0  0  0  0
  8  9  1  0  0  0  0
  8 10  1  0  0  0  0
  8 31  1  0  0  0  0
  9 32  1  0  0  0  0
 10 15  1  0  0  0  0
 10 11  2  0  0  0  0
 11 12  1  0  0  0  0
 11 33  1  0  0  0  0
 12 13  2  0  0  0  0
 12 34  1  0  0  0  0
 13 14  1  0  0  0  0
 14 15  2  0  0  0  0
 14 35  1  0  0  0  0
 15 36  1  0  0  0  0
 16 17  1  0  0  0  0
 16 37  1  0  0  0  0
 16 38  1  0  0  0  0
 17 18  1  0  0  0  0
 17 39  1  0  0  0  0
 18 40  1  0  0  0  0
 18 41  1  0  0  0  0
 18 42  1  0  0  0  0
M  CHG  1   6   1
M  END
> <s_m_source_file>
AV-unprocessed.smi

> <i_m_source_file_index>
3287

> <i_lp_mmshare_version>
43012

> <i_f3d_flags>
0

> <s_epik_input>
W0NIM11bQ0BASF0xW0NIMl1bQ0gyXVtDQEhdKFtDSDJdW0NASF0xW0NIM10pW05IXVtDSDJdW0NASF0oW09IXSljMltjSF1bY0hdbltjSF1bY0hdMg==

> <s_epik_cmdline>
J2VwaWtfcHl0aG9uJywgJy1waCcsICc3LjAnLCAnLXRuJywgJzgnLCAnLW1hJywgJzIwMCcsICctbWV0YWxfYmluZGluZycsICctaW1hZScsICc8aW5maWxlLm1hZT4nLCAnLW9tYWUnLCAnPG91dGZpbGUubWFlPic=

> <r_lp_tautomer_probability>
1

> <r_epik_Ionization_Penalty>
0.00537262

> <r_epik_Ionization_Penalty_Charging>
0.00321624

> <r_epik_Ionization_Penalty_Neutral>
0.00215638

> <r_epik_State_Penalty>
-0

> <r_epik_Charging_Adjusted_Penalty>
0.00321624

> <i_epik_Tot_Q>
1

> <i_epik_Tot_abs_Q>
1

> <r_epik_Metal_State_Penalty>
-0

> <b_epik_Metal_Only>
0

> <s_lp_Force_Field>
OPLS_2005

> <r_lp_Energy>
15.7065

> <b_lp_Chiralities_Consistent>
1

> <s_lp_Variant>
AV-unprocessed.smi:3287-16

> <Gold.Version>
5.8.1

> <Gold.Id.Protein>
6NUR|6NUR_protein|mol2

> <Gold.PLP.Fitness>
54.5048

> <Gold.PLP.PLP>
-44.0874

> <Gold.PLP.part.hbond>
-5.0000

> <Gold.PLP.part.metal>
0.0000

> <Gold.PLP.part.buried>
-3.8457

> <Gold.PLP.part.nonpolar>
-36.9273

> <Gold.PLP.part.repulsive>
0.1707

> <Gold.PLP.ligand.clash>
0.0000

> <Gold.PLP.ligand.torsion>
0.5846

> <Gold.PLP.Chemscore.Hbond>
3.8480

> <Gold.PLP.Chemscore.CHOScore>
0.0000

> <Gold.PLP.Chemscore.Metal>
0.0000

> <Gold.Chemscore.Hbonds>
donor molecule, donor type, donor heavy atom, donor atom, acceptor molecule, acceptor atom, score
      L1  H     6    28       P1  8028  2.00
      L1  H     9    32       P1  7957  1.00
      P1  H 10752 10765       L1    13  0.83

> <Gold.PLP.Chemscore.Internal.Correction>
0.0426

> <Gold.Rescore>
     Score         DG    S(hbond)    S(metal)    S(lipo)     H(rot)  DE(clash)    DE(int)     intcor
     24.18     -25.03       2.93        0.00     125.01       1.90       0.23       0.63       ----

> <Gold.Chemscore.Fitness>
24.1783

> <Gold.Chemscore.DG>
-25.0312

> <Gold.Chemscore.ZeroCoef>
-5.4800

> <Gold.Chemscore.Hbond>
2.9335

> <Gold.Chemscore.Metal>
0.0000

> <Gold.Chemscore.Lipo>
125.0116

> <Gold.Chemscore.Internal_Hbond>
0.0000

> <Gold.Chemscore.DEClash>
0.2267

> <Gold.Chemscore.DEInternal>
0.6262

> <Gold.Chemscore.Rot>
1.9035

> <Gold.Chemscore.Internal.Correction>
   9.000000E+99

> <Gold.Chemscore.Hbonds>
donor molecule, donor type, donor heavy atom, donor atom, acceptor molecule, acceptor atom, score
      L1  H     6    28       P1  8028  1.00
      L1  H     9    32       P1  7957  0.92
      P1  H 10752 10765       L1    13  0.21

> <Gold.Chemscore.Hbond.Weighted>
-9.7977

> <Gold.Chemscore.Metal.Weighted>
-0.0000

> <Gold.Chemscore.Lipo.Weighted>
-14.6264

> <Gold.Chemscore.Internal_Hbond.Weighted>
0.0000

> <Gold.Chemscore.DEClash.Weighted>
0.2267

> <Gold.Chemscore.DEInternal.Weighted>
0.6262

> <Gold.Chemscore.Rot.Weighted>
4.8729

> <Gold.Chemscore.Internal.Correction.Weighted>
   9.000000E+99

> <Gold.Protein.RotatedTorsions>
[ 6907 6896 6895 6894 ] final  -95.95 input  -60.11 | X-H torsion
[ 7974 7965 7964 7962 ] final -102.33 input  175.53 | X-H torsion
[ 8008 7997 7996 7995 ] final   16.14 input   59.86 | X-H torsion
[ 10167 10162 10161 10158 ] final  101.58 input  -65.29 | X-H torsion
[ 10718 10713 10712 10709 ] final  -89.36 input   66.30 | X-H torsion
[ 10763 10752 10751 10750 ] final  173.84 input  -60.55 | X-H torsion
[ 11005 11000 10999 10996 ] final  140.14 input  -57.11 | X-H torsion

> <Gold.Protein.ActiveResidues>
 VAL166  LYS551  ARG553  GLY616  TRP617  ASP618  TYR619  PRO620  LYS621  CYS622 
 ASP623  PHE694  ASN695  SER759  ASP760  ASP761  ALA762  ILE779  LEU786  VAL792 
 PHE793  MET794  SER795  GLU796  ALA797  LYS798  CYS799  TRP800  GLU811  SER814 

> <Gold.Protein.RotatedAtoms>
  150.6976  134.1578  159.4164 H   0  0  0  0  0  0  0  0  0  0  0  0  # atno 6907 bound_to 6896
  151.9560  135.0144  160.0554 H   0  0  0  0  0  0  0  0  0  0  0  0  # atno 6908 bound_to 6896
  152.1969  133.4778  159.5074 H   0  0  0  0  0  0  0  0  0  0  0  0  # atno 6909 bound_to 6896
  145.2701  140.9296  143.2991 H   0  0  0  0  0  0  0  0  0  0  0  0  # atno 7974 bound_to 7965
  154.8726  140.2961  155.5472 H   0  0  0  0  0  0  0  0  0  0  0  0  # atno 8008 bound_to 7997
  156.3021  140.2457  156.3651 H   0  0  0  0  0  0  0  0  0  0  0  0  # atno 8009 bound_to 7997
  154.8800  140.0398  157.1766 H   0  0  0  0  0  0  0  0  0  0  0  0  # atno 8010 bound_to 7997
  139.7426  144.7007  151.0553 H   0  0  0  0  0  0  0  0  0  0  0  0  # atno 10167 bound_to 10162
  155.9984  130.4869  150.5159 H   0  0  0  0  0  0  0  0  0  0  0  0  # atno 10718 bound_to 10713
  154.4457  135.2763  155.1816 H   0  0  0  0  0  0  0  0  0  0  0  0  # atno 10763 bound_to 10752
  154.3664  135.6118  153.5721 H   0  0  0  0  0  0  0  0  0  0  0  0  # atno 10764 bound_to 10752
  152.9843  135.5847  154.4792 H   0  0  0  0  0  0  0  0  0  0  0  0  # atno 10765 bound_to 10752
  140.0306  134.9354  157.0654 H   0  0  0  0  0  0  0  0  0  0  0  0  # atno 11005 bound_to 11000
  144.9343  139.4262  143.6480 LP  0  0  0  0  0  0  0  0  0  0  0  0  # atno 17320 bound_to 7965
  146.3249  139.8270  142.8916 LP  0  0  0  0  0  0  0  0  0  0  0  0  # atno 17321 bound_to 7965
  140.7788  143.4906  150.9898 LP  0  0  0  0  0  0  0  0  0  0  0  0  # atno 17342 bound_to 10162
  139.8594  143.7334  152.3174 LP  0  0  0  0  0  0  0  0  0  0  0  0  # atno 17343 bound_to 10162
  157.3126  131.0666  151.1990 LP  0  0  0  0  0  0  0  0  0  0  0  0  # atno 17370 bound_to 10713
  157.2931  130.6806  149.6124 LP  0  0  0  0  0  0  0  0  0  0  0  0  # atno 17371 bound_to 10713
  140.4232  134.1858  155.7165 LP  0  0  0  0  0  0  0  0  0  0  0  0  # atno 17394 bound_to 11000
  141.1828  133.8376  157.1195 LP  0  0  0  0  0  0  0  0  0  0  0  0  # atno 17395 bound_to 11000

$$$$
