AV-unprocessed.smi:193|AV-procd|sdf|1516|dock5
  -GOLD-   2262019353D 1   1.00000     0.00000
 Structure written by MMmdl.
 61 65  0  0  0  0  0  0  0  0  1 V2000
  147.0393  141.3117  153.6183 C   0  0  0  0  0  0  0  0  0  0  0  0
  147.9340  140.3302  154.3888 C   0  0  2  0  0  0  0  0  0  0  0  0
  147.1378  139.6398  155.5164 C   0  0  0  0  0  0  0  0  0  0  0  0
  147.7132  138.3363  155.8571 N   0  0  0  0  0  0  0  0  0  0  0  0
  147.3956  137.2620  155.0775 C   0  0  0  0  0  0  0  0  0  0  0  0
  148.1246  136.1267  155.2478 N   0  0  0  0  0  0  0  0  0  0  0  0
  147.8793  135.0356  154.5190 C   0  0  0  0  0  0  0  0  0  0  0  0
  146.9609  134.8581  153.5707 N   0  0  0  0  0  0  0  0  0  0  0  0
  146.2190  135.9861  153.3861 C   0  0  0  0  0  0  0  0  0  0  0  0
  146.3620  137.2196  154.0888 C   0  0  0  0  0  0  0  0  0  0  0  0
  145.4037  138.1186  153.6288 N   0  0  0  0  0  0  0  0  0  0  0  0
  144.7466  137.4638  152.7130 C   0  0  0  0  0  0  0  0  0  0  0  0
  145.1794  136.1780  152.4924 N   0  0  0  0  0  0  0  0  0  0  0  0
  144.6332  135.2271  151.5357 C   0  0  0  0  0  0  0  0  0  0  0  0
  144.4427  133.7914  152.0995 C   0  0  0  0  0  0  0  0  0  0  0  0
  144.0474  133.9105  153.4532 O   0  0  0  0  0  0  0  0  0  0  0  0
  143.3240  133.0351  151.3562 C   0  0  0  0  0  0  0  0  0  0  0  0
  143.7801  132.5815  149.9568 C   0  0  0  0  0  0  0  0  0  0  0  0
  144.9597  131.7905  150.0581 O   0  0  0  0  0  0  0  0  0  0  0  0
  146.0602  132.4918  150.6276 C   0  0  0  0  0  0  0  0  0  0  0  0
  145.7176  132.9218  152.0645 C   0  0  0  0  0  0  0  0  0  0  0  0
  148.9426  138.3535  156.6398 C   0  0  0  0  0  0  0  0  0  0  0  0
  150.1096  139.0273  155.8959 C   0  0  0  0  0  0  0  0  0  0  0  0
  149.9442  140.4743  155.9910 N   0  0  0  0  0  0  0  0  0  0  0  0
  151.2443  141.1239  156.0923 C   0  0  2  0  0  0  0  0  0  0  0  0
  152.0682  140.8548  157.3319 C   0  0  0  0  0  0  0  0  0  0  0  0
  151.4409  142.2137  157.1314 C   0  0  2  0  0  0  0  0  0  0  0  0
  150.3329  142.6833  158.0547 C   0  0  0  0  0  0  0  0  0  0  0  0
  149.2257  141.0541  154.8515 C   0  0  0  0  0  0  0  0  0  0  0  0
  146.6780  142.1114  154.2660 H   0  0  0  0  0  0  0  0  0  0  0  0
  146.1698  140.8051  153.1985 H   0  0  0  0  0  0  0  0  0  0  0  0
  147.5813  141.7706  152.7908 H   0  0  0  0  0  0  0  0  0  0  0  0
  148.2254  139.5617  153.6710 H   0  0  0  0  0  0  0  0  0  0  0  0
  147.1250  140.2726  156.4049 H   0  0  0  0  0  0  0  0  0  0  0  0
  146.0915  139.5345  155.2304 H   0  0  0  0  0  0  0  0  0  0  0  0
  148.5106  134.1836  154.7241 H   0  0  0  0  0  0  0  0  0  0  0  0
  143.9271  137.9063  152.1658 H   0  0  0  0  0  0  0  0  0  0  0  0
  143.6797  135.6174  151.1773 H   0  0  0  0  0  0  0  0  0  0  0  0
  145.2926  135.2186  150.6685 H   0  0  0  0  0  0  0  0  0  0  0  0
  143.6014  133.1175  153.7081 H   0  0  0  0  0  0  0  0  0  0  0  0
  143.0382  132.1490  151.9253 H   0  0  0  0  0  0  0  0  0  0  0  0
  142.4273  133.6513  151.2801 H   0  0  0  0  0  0  0  0  0  0  0  0
  142.9989  131.9824  149.4890 H   0  0  0  0  0  0  0  0  0  0  0  0
  143.9554  133.4330  149.2988 H   0  0  0  0  0  0  0  0  0  0  0  0
  146.9275  131.8315  150.6341 H   0  0  0  0  0  0  0  0  0  0  0  0
  146.3227  133.3494  150.0072 H   0  0  0  0  0  0  0  0  0  0  0  0
  146.5638  133.4320  152.5238 H   0  0  0  0  0  0  0  0  0  0  0  0
  145.5595  132.0200  152.6580 H   0  0  0  0  0  0  0  0  0  0  0  0
  148.7508  138.8751  157.5785 H   0  0  0  0  0  0  0  0  0  0  0  0
  149.2119  137.3407  156.9363 H   0  0  0  0  0  0  0  0  0  0  0  0
  151.0264  138.7353  156.4095 H   0  0  0  0  0  0  0  0  0  0  0  0
  150.2140  138.6925  154.8632 H   0  0  0  0  0  0  0  0  0  0  0  0
  151.8258  141.2464  155.1800 H   0  0  0  0  0  0  0  0  0  0  0  0
  151.6404  140.2067  158.0949 H   0  0  0  0  0  0  0  0  0  0  0  0
  153.1468  140.7782  157.2103 H   0  0  0  0  0  0  0  0  0  0  0  0
  152.1219  143.0120  156.8426 H   0  0  0  0  0  0  0  0  0  0  0  0
  149.6946  141.8534  158.3594 H   0  0  0  0  0  0  0  0  0  0  0  0
  149.7185  143.4303  157.5526 H   0  0  0  0  0  0  0  0  0  0  0  0
  150.7613  143.1331  158.9503 H   0  0  0  0  0  0  0  0  0  0  0  0
  149.8983  141.1217  153.9949 H   0  0  0  0  0  0  0  0  0  0  0  0
  148.9819  142.0818  155.1225 H   0  0  0  0  0  0  0  0  0  0  0  0
  1  2  1  0  0  0  0
  1 30  1  0  0  0  0
  1 31  1  0  0  0  0
  1 32  1  0  0  0  0
  2 29  1  0  0  0  0
  2  3  1  0  0  0  0
  2 33  1  0  0  0  0
  3  4  1  0  0  0  0
  3 34  1  0  0  0  0
  3 35  1  0  0  0  0
  4  5  1  0  0  0  0
  4 22  1  0  0  0  0
  5 10  1  0  0  0  0
  5  6  2  0  0  0  0
  6  7  1  0  0  0  0
  7  8  2  0  0  0  0
  7 36  1  0  0  0  0
  8  9  1  0  0  0  0
  9 13  1  0  0  0  0
  9 10  2  0  0  0  0
 10 11  1  0  0  0  0
 11 12  2  0  0  0  0
 12 13  1  0  0  0  0
 12 37  1  0  0  0  0
 13 14  1  0  0  0  0
 14 15  1  0  0  0  0
 14 38  1  0  0  0  0
 14 39  1  0  0  0  0
 15 21  1  0  0  0  0
 15 16  1  0  0  0  0
 15 17  1  0  0  0  0
 16 40  1  0  0  0  0
 17 18  1  0  0  0  0
 17 41  1  0  0  0  0
 17 42  1  0  0  0  0
 18 19  1  0  0  0  0
 18 43  1  0  0  0  0
 18 44  1  0  0  0  0
 19 20  1  0  0  0  0
 20 21  1  0  0  0  0
 20 45  1  0  0  0  0
 20 46  1  0  0  0  0
 21 47  1  0  0  0  0
 21 48  1  0  0  0  0
 22 23  1  0  0  0  0
 22 49  1  0  0  0  0
 22 50  1  0  0  0  0
 23 24  1  0  0  0  0
 23 51  1  0  0  0  0
 23 52  1  0  0  0  0
 24 25  1  0  0  0  0
 24 29  1  0  0  0  0
 25 27  1  0  0  0  0
 25 26  1  0  0  0  0
 25 53  1  0  0  0  0
 26 27  1  0  0  0  0
 26 54  1  0  0  0  0
 26 55  1  0  0  0  0
 27 28  1  0  0  0  0
 27 56  1  0  0  0  0
 28 57  1  0  0  0  0
 28 58  1  0  0  0  0
 28 59  1  0  0  0  0
 29 60  1  0  0  0  0
 29 61  1  0  0  0  0
M  END
> <s_m_source_file>
AV-unprocessed.smi

> <i_m_source_file_index>
193

> <i_lp_mmshare_version>
43012

> <i_f3d_flags>
0

> <s_epik_input>
W0NIM11bQ0BASF0xW0NIMl1bQ0BIXTFOKFtDSDJdMilbQ0gyXVtDSDJdTihbQ0gyXVtDQEhdMltDSDNdKWMobltjSF1uMyljKGMzNCluW2NIXW40W0NIMl1DNShbT0hdKVtDSDJdW0NIMl1PW0NIMl1bQ0gyXTU=

> <s_epik_cmdline>
J2VwaWtfcHl0aG9uJywgJy1waCcsICc3LjAnLCAnLXRuJywgJzgnLCAnLW1hJywgJzIwMCcsICctbWV0YWxfYmluZGluZycsICctaW1hZScsICc8aW5maWxlLm1hZT4nLCAnLW9tYWUnLCAnPG91dGZpbGUubWFlPic=

> <r_lp_tautomer_probability>
1

> <r_epik_Ionization_Penalty>
1.45227

> <r_epik_Ionization_Penalty_Charging>
0

> <r_epik_Ionization_Penalty_Neutral>
1.45227

> <r_epik_State_Penalty>
2.02377

> <r_epik_Charging_Adjusted_Penalty>
2.02377

> <i_epik_Tot_Q>
0

> <i_epik_Tot_abs_Q>
0

> <r_epik_Metal_State_Penalty>
2.01937

> <b_epik_Metal_Only>
0

> <s_lp_Force_Field>
OPLS_2005

> <r_lp_Energy>
54.596

> <b_lp_Chiralities_Consistent>
1

> <s_lp_Variant>
AV-unprocessed.smi:193-21

> <Gold.Version>
5.8.1

> <Gold.Id.Protein>
6NUR|6NUR_protein|mol2

> <Gold.PLP.Fitness>
41.1378

> <Gold.PLP.PLP>
-34.3644

> <Gold.PLP.part.hbond>
-1.0000

> <Gold.PLP.part.metal>
0.0000

> <Gold.PLP.part.buried>
-4.6534

> <Gold.PLP.part.nonpolar>
-28.9202

> <Gold.PLP.part.repulsive>
0.4824

> <Gold.PLP.ligand.clash>
0.0000

> <Gold.PLP.ligand.torsion>
1.3326

> <Gold.PLP.Chemscore.Hbond>
1.0000

> <Gold.PLP.Chemscore.CHOScore>
1.7029

> <Gold.PLP.Chemscore.Metal>
0.0000

> <Gold.Chemscore.Hbonds>
donor molecule, donor type, donor heavy atom, donor atom, acceptor molecule, acceptor atom, score
      L1  H    16    40       P1 10957  1.00
      L1  C    12    37       P1 10171  0.98
      L1  C    12    37       P1 10175  0.67

> <Gold.PLP.Chemscore.Internal.Correction>
1.3298

> <Gold.Rescore>
     Score         DG    S(hbond)    S(metal)    S(lipo)     H(rot)  DE(clash)    DE(int)     intcor
     11.22     -15.06       0.99        0.00      95.41       1.91       0.07       3.77       ----

> <Gold.Chemscore.Fitness>
11.2191

> <Gold.Chemscore.DG>
-15.0577

> <Gold.Chemscore.ZeroCoef>
-5.4800

> <Gold.Chemscore.Hbond>
0.9869

> <Gold.Chemscore.Metal>
0.0000

> <Gold.Chemscore.Lipo>
95.4081

> <Gold.Chemscore.Internal_Hbond>
0.0000

> <Gold.Chemscore.DEClash>
0.0689

> <Gold.Chemscore.DEInternal>
3.7697

> <Gold.Chemscore.Rot>
1.9068

> <Gold.Chemscore.Internal.Correction>
   9.000000E+99

> <Gold.Chemscore.Hbonds>
donor molecule, donor type, donor heavy atom, donor atom, acceptor molecule, acceptor atom, score
      L1  H    16    40       P1 10957  0.96

> <Gold.Chemscore.Hbond.Weighted>
-3.2964

> <Gold.Chemscore.Metal.Weighted>
-0.0000

> <Gold.Chemscore.Lipo.Weighted>
-11.1628

> <Gold.Chemscore.Internal_Hbond.Weighted>
0.0000

> <Gold.Chemscore.DEClash.Weighted>
0.0689

> <Gold.Chemscore.DEInternal.Weighted>
3.7697

> <Gold.Chemscore.Rot.Weighted>
4.8814

> <Gold.Chemscore.Internal.Correction.Weighted>
   9.000000E+99

> <Gold.Protein.RotatedTorsions>
[ 6907 6896 6895 6894 ] final   79.97 input  -60.11 | X-H torsion
[ 7974 7965 7964 7962 ] final  122.77 input  175.53 | X-H torsion
[ 8008 7997 7996 7995 ] final  -82.23 input   59.86 | X-H torsion
[ 10167 10162 10161 10158 ] final   67.63 input  -65.29 | X-H torsion
[ 10718 10713 10712 10709 ] final  122.12 input   66.30 | X-H torsion
[ 10763 10752 10751 10750 ] final -132.45 input  -60.55 | X-H torsion
[ 11005 11000 10999 10996 ] final   17.73 input  -57.11 | X-H torsion

> <Gold.Protein.ActiveResidues>
 VAL166  LYS551  ARG553  GLY616  TRP617  ASP618  TYR619  PRO620  LYS621  CYS622 
 ASP623  PHE694  ASN695  SER759  ASP760  ASP761  ALA762  ILE779  LEU786  VAL792 
 PHE793  MET794  SER795  GLU796  ALA797  LYS798  CYS799  TRP800  GLU811  SER814 

> <Gold.Protein.RotatedAtoms>
  152.5218  134.3429  159.9223 H   0  0  0  0  0  0  0  0  0  0  0  0  # atno 6907 bound_to 6896
  151.3379  133.3968  159.2676 H   0  0  0  0  0  0  0  0  0  0  0  0  # atno 6908 bound_to 6896
  150.9827  134.9197  159.7911 H   0  0  0  0  0  0  0  0  0  0  0  0  # atno 6909 bound_to 6896
  145.1037  139.3501  143.4799 H   0  0  0  0  0  0  0  0  0  0  0  0  # atno 7974 bound_to 7965
  154.6064  140.0636  156.9436 H   0  0  0  0  0  0  0  0  0  0  0  0  # atno 8008 bound_to 7997
  155.2046  140.3318  155.4319 H   0  0  0  0  0  0  0  0  0  0  0  0  # atno 8009 bound_to 7997
  156.2350  140.1858  156.7126 H   0  0  0  0  0  0  0  0  0  0  0  0  # atno 8010 bound_to 7997
  140.0874  144.5018  150.7121 H   0  0  0  0  0  0  0  0  0  0  0  0  # atno 10167 bound_to 10162
  157.5766  131.1079  150.8267 H   0  0  0  0  0  0  0  0  0  0  0  0  # atno 10718 bound_to 10713
  154.8743  135.3797  154.4411 H   0  0  0  0  0  0  0  0  0  0  0  0  # atno 10763 bound_to 10752
  153.5096  135.7030  153.5793 H   0  0  0  0  0  0  0  0  0  0  0  0  # atno 10764 bound_to 10752
  153.4088  135.3930  155.2003 H   0  0  0  0  0  0  0  0  0  0  0  0  # atno 10765 bound_to 10752
  140.4327  134.1403  155.7682 H   0  0  0  0  0  0  0  0  0  0  0  0  # atno 11005 bound_to 11000
  146.3529  140.0925  142.8612 LP  0  0  0  0  0  0  0  0  0  0  0  0  # atno 17320 bound_to 7965
  145.0926  140.9294  143.4760 LP  0  0  0  0  0  0  0  0  0  0  0  0  # atno 17321 bound_to 7965
  140.7046  143.2459  151.4764 LP  0  0  0  0  0  0  0  0  0  0  0  0  # atno 17342 bound_to 10162
  139.5744  144.1853  152.1882 LP  0  0  0  0  0  0  0  0  0  0  0  0  # atno 17343 bound_to 10162
  156.8725  130.5151  149.5296 LP  0  0  0  0  0  0  0  0  0  0  0  0  # atno 17370 bound_to 10713
  156.0811  130.5821  150.9564 LP  0  0  0  0  0  0  0  0  0  0  0  0  # atno 17371 bound_to 10713
  141.1738  133.8554  157.1485 LP  0  0  0  0  0  0  0  0  0  0  0  0  # atno 17394 bound_to 11000
  140.0123  134.9983  157.0421 LP  0  0  0  0  0  0  0  0  0  0  0  0  # atno 17395 bound_to 11000

$$$$
