#       Name:                AV-unprocessed.smi:3002
#       Creating user name   scv26
#       Creation time:       Fri Mar 27 16:36:26 2020


#       File generated by GOLD software.
#

@<TRIPOS>MOLECULE
AV-unprocessed.smi:3002
    38    39     1
SMALL
NO_CHARGES


@<TRIPOS>ATOM
      1 ****        -2.5860  -0.8795  -3.0697 C.3            1 S1                 0.0000
      2 ****        -2.2219  -0.1388  -1.7665 C.3            1 S1                 0.0000
      3 ****        -0.7538   0.3125  -1.7244 C.2            1 S1                 0.0000
      4 ****         0.0922  -0.2258  -2.4395 O.2            1 S1                 0.0000
      5 ****        -0.4623   1.2892  -0.8501 N.am           1 S1                 0.0000
      6 ****         0.8767   1.7811  -0.5440 C.3            1 S1                 0.0000
      7 ****         1.4234   1.1638   0.7584 C.3            1 S1                 0.0000
      8 ****         1.5637  -0.3738   0.7168 C.3            1 S1                 0.0000
      9 ****         2.3733  -0.8280   1.9348 C.3            1 S1                 0.0000
     10 ****         3.5727   0.5160   2.2623 S.o2           1 S1                 0.0000
     11 ****         3.4279   0.9563   3.6581 O.2            1 S1                 0.0000
     12 ****         4.8875   0.1458   1.7174 O.2            1 S1                 0.0000
     13 ****         2.7913   1.7447   1.1486 C.3            1 S1                 0.0000
     14 ****        -2.5289  -0.9294  -0.5800 N.pl3          1 S1                 0.0000
     15 ****        -3.1084  -0.5661   0.5664 C.2            1 S1                 0.0000
     16 ****        -3.1769  -1.5362   1.4672 N.2            1 S1                 0.0000
     17 ****        -2.5715  -2.5406   0.7669 C.2            1 S1                 0.0000
     18 ****        -2.1544  -2.2279  -0.4597 N.2            1 S1                 0.0000
     19 ****        -2.4022  -0.2526  -3.9428 H              1 S1                 0.0000
     20 ****        -3.6423  -1.1496  -3.0800 H              1 S1                 0.0000
     21 ****        -2.0102  -1.7974  -3.1951 H              1 S1                 0.0000
     22 ****        -2.8390   0.7604  -1.7221 H              1 S1                 0.0000
     23 ****        -1.2212   1.6804  -0.3110 H              1 S1                 0.0000
     24 ****         1.5629   1.5976  -1.3727 H              1 S1                 0.0000
     25 ****         0.8146   2.8643  -0.4362 H              1 S1                 0.0000
     26 ****         0.7302   1.4008   1.5673 H              1 S1                 0.0000
     27 ****         0.5949  -0.8735   0.6866 H              1 S1                 0.0000
     28 ****         2.0978  -0.6599  -0.1905 H              1 S1                 0.0000
     29 ****         1.7310  -0.9282   2.8101 H              1 S1                 0.0000
     30 ****         2.8953  -1.7715   1.7737 H              1 S1                 0.0000
     31 ****         3.4346   1.8551   0.2752 H              1 S1                 0.0000
     32 ****         2.7170   2.7106   1.6483 H              1 S1                 0.0000
     33 ****        -3.4800   0.4314   0.7495 H              1 S1                 0.0000
     34 ****        -2.4268  -3.5296   1.1762 H              1 S1                 0.0000
     35 ****        -0.1731  -0.9662  -3.0572 LP             1 S1                 0.0000
     36 ****         1.0444   0.0774  -2.4024 LP             1 S1                 0.0000
     37 ****        -3.5603  -1.5335   2.3908 LP             1 S1                 0.0000
     38 ****        -1.6829  -2.8063  -1.1255 LP             1 S1                 0.0000
@<TRIPOS>BOND
    1    1    2 1     
    2    1   19 1     
    3    1   20 1     
    4    1   21 1     
    5    2    3 1     
    6    2   14 1     
    7    2   22 1     
    8    3    4 2     
    9    3    5 am    
   10    5    6 1     
   11    5   23 1     
   12    6    7 1     
   13    6   24 1     
   14    6   25 1     
   15    7   13 1     
   16    7    8 1     
   17    7   26 1     
   18    8    9 1     
   19    8   27 1     
   20    8   28 1     
   21    9   10 1     
   22    9   29 1     
   23    9   30 1     
   24   10   11 2     
   25   10   12 2     
   26   10   13 1     
   27   13   31 1     
   28   13   32 1     
   29   14   18 1     
   30   14   15 1     
   31   15   16 2     
   32   15   33 1     
   33   16   17 1     
   34   17   18 2     
   35   17   34 1     
   36    4   35 1     
   37    4   36 1     
   38   16   37 1     
   39   18   38 1     
@<TRIPOS>SUBSTRUCTURE
      1 S1             1
@<TRIPOS>SET
LONE_PAIRS      STATIC     ATOMS    <user>   **** ""
6 35 36 11 12 37 38
DONOR_HYDROGENS      STATIC     ATOMS    <user>   **** ""
1 23
ATOM$BLUE        STATIC     ATOMS    COLORGROUP SYSTEM
6 35 36 11 12 37 38
ATOM$RED        STATIC     ATOMS    COLORGROUP SYSTEM
1 23
