AV-unprocessed.smi:171|AV-procd|sdf|1419|dock10
  -GOLD-   2262019183D 1   1.00000     0.00000
 Structure written by MMmdl.
 56 59  0  0  0  0  0  0  0  0  1 V2000
  152.7493  138.8664  155.1561 C   0  0  0  0  0  0  0  0  0  0  0  0
  151.2242  138.8543  155.3555 C   0  0  0  0  0  0  0  0  0  0  0  0
  150.5866  137.7108  154.5520 C   0  0  0  0  0  0  0  0  0  0  0  0
  150.5654  140.2060  154.9917 C   0  0  0  0  0  0  0  0  0  0  0  0
  149.0451  140.3004  155.2699 C   0  0  1  0  0  0  0  0  0  0  0  0
  148.6779  141.7184  155.7634 C   0  0  0  0  0  0  0  0  0  0  0  0
  149.0614  142.0930  156.8696 O   0  0  0  0  0  0  0  0  0  0  0  0
  147.9412  142.5195  154.9723 N   0  0  0  0  0  0  0  0  0  0  0  0
  147.4157  142.1707  153.6528 C   0  0  0  0  0  0  0  0  0  0  0  0
  148.1095  140.9405  153.0439 C   0  0  0  0  0  0  0  0  0  0  0  0
  148.2936  139.9147  154.0657 N   0  0  0  0  0  0  0  0  0  0  0  0
  147.2712  139.0308  154.1814 C   0  0  0  0  0  0  0  0  0  0  0  0
  146.7249  138.7702  155.3986 N   0  0  0  0  0  0  0  0  0  0  0  0
  145.7103  137.9076  155.5093 C   0  0  0  0  0  0  0  0  0  0  0  0
  145.0982  137.2107  154.5494 N   0  0  0  0  0  0  0  0  0  0  0  0
  145.6425  137.4710  153.3262 C   0  0  0  0  0  0  0  0  0  0  0  0
  146.7214  138.3583  153.0562 C   0  0  0  0  0  0  0  0  0  0  0  0
  147.0098  138.3572  151.6968 N   0  0  0  0  0  0  0  0  0  0  0  0
  146.1449  137.5212  151.1906 C   0  0  0  0  0  0  0  0  0  0  0  0
  145.2806  136.9490  152.0968 N   0  0  0  0  0  0  0  0  0  0  0  0
  144.2215  135.9949  151.8087 C   0  0  0  0  0  0  0  0  0  0  0  0
  144.7260  134.7124  151.1059 C   0  0  1  0  0  0  0  0  0  0  0  0
  144.3495  134.7671  149.7385 O   0  0  0  0  0  0  0  0  0  0  0  0
  146.2348  134.5218  151.1739 C   0  0  0  0  0  0  0  0  0  0  0  0
  146.3823  133.0143  151.0167 C   0  0  0  0  0  0  0  0  0  0  0  0
  145.2877  132.4785  151.7465 O   0  0  0  0  0  0  0  0  0  0  0  0
  144.2105  133.4145  151.7718 C   0  0  2  0  0  0  0  0  0  0  0  0
  142.9376  132.7924  151.1744 C   0  0  0  0  0  0  0  0  0  0  0  0
  153.0135  139.1262  154.1304 H   0  0  0  0  0  0  0  0  0  0  0  0
  153.1802  137.8885  155.3727 H   0  0  0  0  0  0  0  0  0  0  0  0
  153.2355  139.5812  155.8197 H   0  0  0  0  0  0  0  0  0  0  0  0
  151.0302  138.6438  156.4079 H   0  0  0  0  0  0  0  0  0  0  0  0
  150.7391  137.8458  153.4806 H   0  0  0  0  0  0  0  0  0  0  0  0
  149.5126  137.6543  154.7311 H   0  0  0  0  0  0  0  0  0  0  0  0
  151.0151  136.7473  154.8298 H   0  0  0  0  0  0  0  0  0  0  0  0
  151.0792  141.0004  155.5355 H   0  0  0  0  0  0  0  0  0  0  0  0
  150.7494  140.4108  153.9359 H   0  0  0  0  0  0  0  0  0  0  0  0
  148.8228  139.6221  156.0943 H   0  0  0  0  0  0  0  0  0  0  0  0
  147.7177  143.4409  155.3197 H   0  0  0  0  0  0  0  0  0  0  0  0
  146.3501  141.9692  153.7677 H   0  0  0  0  0  0  0  0  0  0  0  0
  147.5039  143.0282  152.9854 H   0  0  0  0  0  0  0  0  0  0  0  0
  147.5430  140.5767  152.1860 H   0  0  0  0  0  0  0  0  0  0  0  0
  149.0900  141.2212  152.6581 H   0  0  0  0  0  0  0  0  0  0  0  0
  145.3346  137.7544  156.5103 H   0  0  0  0  0  0  0  0  0  0  0  0
  146.1105  137.3011  150.1335 H   0  0  0  0  0  0  0  0  0  0  0  0
  143.7328  135.7426  152.7507 H   0  0  0  0  0  0  0  0  0  0  0  0
  143.4659  136.4894  151.1968 H   0  0  0  0  0  0  0  0  0  0  0  0
  145.1264  134.6673  149.2095 H   0  0  0  0  0  0  0  0  0  0  0  0
  146.7847  135.0876  150.4206 H   0  0  0  0  0  0  0  0  0  0  0  0
  146.6094  134.8175  152.1549 H   0  0  0  0  0  0  0  0  0  0  0  0
  146.2889  132.7251  149.9690 H   0  0  0  0  0  0  0  0  0  0  0  0
  147.3356  132.6410  151.3908 H   0  0  0  0  0  0  0  0  0  0  0  0
  144.0252  133.6116  152.8284 H   0  0  0  0  0  0  0  0  0  0  0  0
  142.1123  133.5049  151.1802 H   0  0  0  0  0  0  0  0  0  0  0  0
  142.6277  131.9215  151.7523 H   0  0  0  0  0  0  0  0  0  0  0  0
  143.0944  132.4624  150.1468 H   0  0  0  0  0  0  0  0  0  0  0  0
  1  2  1  0  0  0  0
  1 29  1  0  0  0  0
  1 30  1  0  0  0  0
  1 31  1  0  0  0  0
  2  3  1  0  0  0  0
  2  4  1  0  0  0  0
  2 32  1  0  0  0  0
  3 33  1  0  0  0  0
  3 34  1  0  0  0  0
  3 35  1  0  0  0  0
  4  5  1  0  0  0  0
  4 36  1  0  0  0  0
  4 37  1  0  0  0  0
  5 11  1  0  0  0  0
  5  6  1  0  0  0  0
  5 38  1  0  0  0  0
  6  7  2  0  0  0  0
  6  8  1  0  0  0  0
  8  9  1  0  0  0  0
  8 39  1  0  0  0  0
  9 10  1  0  0  0  0
  9 40  1  0  0  0  0
  9 41  1  0  0  0  0
 10 11  1  0  0  0  0
 10 42  1  0  0  0  0
 10 43  1  0  0  0  0
 11 12  1  0  0  0  0
 12 17  1  0  0  0  0
 12 13  2  0  0  0  0
 13 14  1  0  0  0  0
 14 15  2  0  0  0  0
 14 44  1  0  0  0  0
 15 16  1  0  0  0  0
 16 20  1  0  0  0  0
 16 17  2  0  0  0  0
 17 18  1  0  0  0  0
 18 19  2  0  0  0  0
 19 20  1  0  0  0  0
 19 45  1  0  0  0  0
 20 21  1  0  0  0  0
 21 22  1  0  0  0  0
 21 46  1  0  0  0  0
 21 47  1  0  0  0  0
 22 27  1  0  0  0  0
 22 23  1  0  0  0  0
 22 24  1  0  0  0  0
 23 48  1  0  0  0  0
 24 25  1  0  0  0  0
 24 49  1  0  0  0  0
 24 50  1  0  0  0  0
 25 26  1  0  0  0  0
 25 51  1  0  0  0  0
 25 52  1  0  0  0  0
 26 27  1  0  0  0  0
 27 28  1  0  0  0  0
 27 53  1  0  0  0  0
 28 54  1  0  0  0  0
 28 55  1  0  0  0  0
 28 56  1  0  0  0  0
M  END
> <s_m_source_file>
AV-unprocessed.smi

> <i_m_source_file_index>
171

> <i_lp_mmshare_version>
43012

> <i_f3d_flags>
0

> <s_epik_input>
W0NIM11bQ0hdKFtDSDNdKVtDSDJdW0NAQEhdMUMoPU8pW05IXVtDSDJdW0NIMl1OMWMobltjSF1uMiljKGMyMyluW2NIXW4zW0NIMl1bQ0BAXTQoW09IXSlbQ0gyXVtDSDJdT1tDQEhdNFtDSDNd

> <s_epik_cmdline>
J2VwaWtfcHl0aG9uJywgJy1waCcsICc3LjAnLCAnLXRuJywgJzgnLCAnLW1hJywgJzIwMCcsICctbWV0YWxfYmluZGluZycsICctaW1hZScsICc8aW5maWxlLm1hZT4nLCAnLW9tYWUnLCAnPG91dGZpbGUubWFlPic=

> <r_lp_tautomer_probability>
1

> <r_epik_Ionization_Penalty>
0.000670584

> <r_epik_Ionization_Penalty_Charging>
0

> <r_epik_Ionization_Penalty_Neutral>
0.000670584

> <r_epik_State_Penalty>
0.000304767

> <r_epik_Charging_Adjusted_Penalty>
0.000304767

> <i_epik_Tot_Q>
0

> <i_epik_Tot_abs_Q>
0

> <r_epik_Metal_State_Penalty>
-0

> <b_epik_Metal_Only>
0

> <s_lp_Force_Field>
OPLS_2005

> <r_lp_Energy>
42.7998

> <b_lp_Chiralities_Consistent>
1

> <s_lp_Variant>
AV-unprocessed.smi:171-6

> <Gold.Version>
5.8.1

> <Gold.Id.Protein>
6NUR|6NUR_protein|mol2

> <Gold.PLP.Fitness>
42.4848

> <Gold.PLP.PLP>
-40.7943

> <Gold.PLP.part.hbond>
-2.4212

> <Gold.PLP.part.metal>
0.0000

> <Gold.PLP.part.buried>
-0.8219

> <Gold.PLP.part.nonpolar>
-40.0878

> <Gold.PLP.part.repulsive>
0.9597

> <Gold.PLP.ligand.clash>
0.0000

> <Gold.PLP.ligand.torsion>
1.9671

> <Gold.PLP.Chemscore.Hbond>
1.2149

> <Gold.PLP.Chemscore.CHOScore>
0.5387

> <Gold.PLP.Chemscore.Metal>
0.0000

> <Gold.Chemscore.Hbonds>
donor molecule, donor type, donor heavy atom, donor atom, acceptor molecule, acceptor atom, score
      L1  H     8    39       P1  8028  0.54
      L1  H    23    48       P1  7921  1.00
      P1  H  7954  7966       L1    18  0.12
      L1  C    19    45       P1 10171  0.23

> <Gold.PLP.Chemscore.Internal.Correction>
0.3638

> <Gold.Rescore>
     Score         DG    S(hbond)    S(metal)    S(lipo)     H(rot)  DE(clash)    DE(int)     intcor
     10.44     -13.82       0.96        0.00      94.02       2.29       1.56       1.82       ----

> <Gold.Chemscore.Fitness>
10.4416

> <Gold.Chemscore.DG>
-13.8185

> <Gold.Chemscore.ZeroCoef>
-5.4800

> <Gold.Chemscore.Hbond>
0.9604

> <Gold.Chemscore.Metal>
0.0000

> <Gold.Chemscore.Lipo>
94.0199

> <Gold.Chemscore.Internal_Hbond>
0.0000

> <Gold.Chemscore.DEClash>
1.5609

> <Gold.Chemscore.DEInternal>
1.8160

> <Gold.Chemscore.Rot>
2.2928

> <Gold.Chemscore.Internal.Correction>
   9.000000E+99

> <Gold.Chemscore.Hbonds>
donor molecule, donor type, donor heavy atom, donor atom, acceptor molecule, acceptor atom, score
      L1  H     8    39       P1  8028  0.14
      L1  H    23    48       P1  7921  0.98

> <Gold.Chemscore.Hbond.Weighted>
-3.2077

> <Gold.Chemscore.Metal.Weighted>
-0.0000

> <Gold.Chemscore.Lipo.Weighted>
-11.0003

> <Gold.Chemscore.Internal_Hbond.Weighted>
0.0000

> <Gold.Chemscore.DEClash.Weighted>
1.5609

> <Gold.Chemscore.DEInternal.Weighted>
1.8160

> <Gold.Chemscore.Rot.Weighted>
5.8696

> <Gold.Chemscore.Internal.Correction.Weighted>
   9.000000E+99

> <Gold.Protein.RotatedTorsions>
[ 6907 6896 6895 6894 ] final   14.63 input  -60.11 | X-H torsion
[ 7974 7965 7964 7962 ] final  -42.31 input  175.53 | X-H torsion
[ 8008 7997 7996 7995 ] final   76.73 input   59.86 | X-H torsion
[ 10167 10162 10161 10158 ] final  -45.49 input  -65.29 | X-H torsion
[ 10718 10713 10712 10709 ] final -175.98 input   66.30 | X-H torsion
[ 10763 10752 10751 10750 ] final  -24.14 input  -60.55 | X-H torsion
[ 11005 11000 10999 10996 ] final -164.86 input  -57.11 | X-H torsion

> <Gold.Protein.ActiveResidues>
 VAL166  LYS551  ARG553  GLY616  TRP617  ASP618  TYR619  PRO620  LYS621  CYS622 
 ASP623  PHE694  ASN695  SER759  ASP760  ASP761  ALA762  ILE779  LEU786  VAL792 
 PHE793  MET794  SER795  GLU796  ALA797  LYS798  CYS799  TRP800  GLU811  SER814 

> <Gold.Protein.RotatedAtoms>
  151.8052  135.0697  160.0405 H   0  0  0  0  0  0  0  0  0  0  0  0  # atno 6907 bound_to 6896
  152.3060  133.5699  159.5658 H   0  0  0  0  0  0  0  0  0  0  0  0  # atno 6908 bound_to 6896
  150.7296  134.0138  159.3720 H   0  0  0  0  0  0  0  0  0  0  0  0  # atno 6909 bound_to 6896
  146.0128  140.6943  142.9216 H   0  0  0  0  0  0  0  0  0  0  0  0  # atno 7974 bound_to 7965
  155.8315  140.3466  155.5575 H   0  0  0  0  0  0  0  0  0  0  0  0  # atno 8008 bound_to 7997
  155.8237  140.0916  157.1854 H   0  0  0  0  0  0  0  0  0  0  0  0  # atno 8009 bound_to 7997
  154.4004  140.1425  156.3518 H   0  0  0  0  0  0  0  0  0  0  0  0  # atno 8010 bound_to 7997
  140.6856  143.2877  151.3646 H   0  0  0  0  0  0  0  0  0  0  0  0  # atno 10167 bound_to 10162
  156.8079  130.9576  151.3117 H   0  0  0  0  0  0  0  0  0  0  0  0  # atno 10718 bound_to 10713
  153.6791  135.6968  153.5123 H   0  0  0  0  0  0  0  0  0  0  0  0  # atno 10763 bound_to 10752
  153.2499  135.4278  155.0785 H   0  0  0  0  0  0  0  0  0  0  0  0  # atno 10764 bound_to 10752
  154.8405  135.3528  154.6334 H   0  0  0  0  0  0  0  0  0  0  0  0  # atno 10765 bound_to 10752
  140.5822  134.5130  157.5180 H   0  0  0  0  0  0  0  0  0  0  0  0  # atno 11005 bound_to 11000
  144.6959  140.3429  143.7196 LP  0  0  0  0  0  0  0  0  0  0  0  0  # atno 17320 bound_to 7965
  145.7315  139.1737  143.2427 LP  0  0  0  0  0  0  0  0  0  0  0  0  # atno 17321 bound_to 7965
  139.6212  144.0904  152.2392 LP  0  0  0  0  0  0  0  0  0  0  0  0  # atno 17342 bound_to 10162
  140.0349  144.6052  150.7458 LP  0  0  0  0  0  0  0  0  0  0  0  0  # atno 17343 bound_to 10162
  157.6520  130.8893  149.9653 LP  0  0  0  0  0  0  0  0  0  0  0  0  # atno 17370 bound_to 10713
  156.1062  130.3652  150.0130 LP  0  0  0  0  0  0  0  0  0  0  0  0  # atno 17371 bound_to 10713
  139.9312  134.7960  156.0926 LP  0  0  0  0  0  0  0  0  0  0  0  0  # atno 17394 bound_to 11000
  141.0989  133.6685  156.2709 LP  0  0  0  0  0  0  0  0  0  0  0  0  # atno 17395 bound_to 11000

$$$$
