#       Name:                AV-unprocessed.smi:653
#       Creating user name   scv26
#       Creation time:       Fri Mar 27 00:14:18 2020


#       File generated by GOLD software.
#

@<TRIPOS>MOLECULE
AV-unprocessed.smi:653
    49    50     1
SMALL
NO_CHARGES


@<TRIPOS>ATOM
      1 ****        -5.3969   3.5829   3.1282 C.3            1 S1                 0.0000
      2 ****        -4.7165   2.6214   2.1759 C.ar           1 S1                 0.0000
      3 ****        -4.6547   2.9025   0.7951 C.ar           1 S1                 0.0000
      4 ****        -4.0132   1.9768  -0.0499 C.ar           1 S1                 0.0000
      5 ****        -3.4620   0.8080   0.5149 C.ar           1 S1                 0.0000
      6 ****        -2.7601  -0.2219  -0.3528 C.3            1 S1                 0.0000
      7 ****        -1.2413  -0.0377  -0.2988 C.2            1 S1                 0.0000
      8 ****        -0.7409   1.0636  -0.5289 O.2            1 S1                 0.0000
      9 ****        -0.5186  -1.1268   0.0039 N.am           1 S1                 0.0000
     10 ****         0.9362  -1.1659   0.1088 C.3            1 S1                 0.0000
     11 ****         1.6301  -1.1776  -1.2769 C.3            1 S1                 0.0000
     12 ****         1.3026  -2.4275  -2.0830 C.3            1 S1                 0.0000
     13 ****         2.3663  -3.4331  -1.6340 C.3            1 S1                 0.0000
     14 ****         3.3650  -2.6753  -0.9567 O.3            1 S1                 0.0000
     15 ****         3.1630  -1.2933  -1.2207 C.3            1 S1                 0.0000
     16 ****         3.9084  -0.4022  -0.2007 C.3            1 S1                 0.0000
     17 ****         3.6559   1.0936  -0.4585 C.3            1 S1                 0.0000
     18 ****         5.4187  -0.6882  -0.2193 C.3            1 S1                 0.0000
     19 ****        -3.5802   0.6211   1.9088 C.ar           1 S1                 0.0000
     20 ****        -4.1931   1.5036   2.7268 N.ar           1 S1                 0.0000
     21 ****        -5.3164   4.6083   2.7662 H              1 S1                 0.0000
     22 ****        -4.9445   3.5395   4.1196 H              1 S1                 0.0000
     23 ****        -6.4542   3.3343   3.2215 H              1 S1                 0.0000
     24 ****        -5.0875   3.8059   0.3913 H              1 S1                 0.0000
     25 ****        -3.9455   2.1628  -1.1117 H              1 S1                 0.0000
     26 ****        -3.0382  -1.2231  -0.0199 H              1 S1                 0.0000
     27 ****        -3.0929  -0.1292  -1.3873 H              1 S1                 0.0000
     28 ****        -1.0114  -1.9908   0.1775 H              1 S1                 0.0000
     29 ****         1.2622  -0.3122   0.7033 H              1 S1                 0.0000
     30 ****         1.2101  -2.0550   0.6773 H              1 S1                 0.0000
     31 ****         1.3423  -0.2827  -1.8300 H              1 S1                 0.0000
     32 ****         0.2863  -2.7964  -1.9434 H              1 S1                 0.0000
     33 ****         1.4274  -2.2169  -3.1460 H              1 S1                 0.0000
     34 ****         1.9527  -4.1714  -0.9466 H              1 S1                 0.0000
     35 ****         2.7950  -3.9636  -2.4846 H              1 S1                 0.0000
     36 ****         3.5623  -1.0917  -2.2170 H              1 S1                 0.0000
     37 ****         3.5523  -0.6393   0.8019 H              1 S1                 0.0000
     38 ****         4.0066   1.3880  -1.4481 H              1 S1                 0.0000
     39 ****         4.1760   1.7108   0.2746 H              1 S1                 0.0000
     40 ****         2.5968   1.3431  -0.3955 H              1 S1                 0.0000
     41 ****         5.8497  -0.4834  -1.1998 H              1 S1                 0.0000
     42 ****         5.6286  -1.7298   0.0251 H              1 S1                 0.0000
     43 ****         5.9446  -0.0712   0.5098 H              1 S1                 0.0000
     44 ****        -3.1707  -0.2601   2.3809 H              1 S1                 0.0000
     45 ****        -1.3271   1.8424  -0.7522 LP             1 S1                 0.0000
     46 ****         0.2517   1.1792  -0.4925 LP             1 S1                 0.0000
     47 ****         4.2702  -2.9490  -1.2818 LP             1 S1                 0.0000
     48 ****         3.3002  -2.8407   0.0274 LP             1 S1                 0.0000
     49 ****        -4.2578   1.3352   3.7104 LP             1 S1                 0.0000
@<TRIPOS>BOND
    1    1    2 1     
    2    1   21 1     
    3    1   22 1     
    4    1   23 1     
    5    2   20 ar    
    6    2    3 ar    
    7    3    4 ar    
    8    3   24 1     
    9    4    5 ar    
   10    4   25 1     
   11    5    6 1     
   12    5   19 ar    
   13    6    7 1     
   14    6   26 1     
   15    6   27 1     
   16    7    8 2     
   17    7    9 am    
   18    9   10 1     
   19    9   28 1     
   20   10   11 1     
   21   10   29 1     
   22   10   30 1     
   23   11   15 1     
   24   11   12 1     
   25   11   31 1     
   26   12   13 1     
   27   12   32 1     
   28   12   33 1     
   29   13   14 1     
   30   13   34 1     
   31   13   35 1     
   32   14   15 1     
   33   15   16 1     
   34   15   36 1     
   35   16   17 1     
   36   16   18 1     
   37   16   37 1     
   38   17   38 1     
   39   17   39 1     
   40   17   40 1     
   41   18   41 1     
   42   18   42 1     
   43   18   43 1     
   44   19   20 ar    
   45   19   44 1     
   46    8   45 1     
   47    8   46 1     
   48   14   47 1     
   49   14   48 1     
   50   20   49 1     
@<TRIPOS>SUBSTRUCTURE
      1 S1             1
@<TRIPOS>SET
LONE_PAIRS      STATIC     ATOMS    <user>   **** ""
5 45 46 47 48 49
DONOR_HYDROGENS      STATIC     ATOMS    <user>   **** ""
1 28
ATOM$BLUE        STATIC     ATOMS    COLORGROUP SYSTEM
5 45 46 47 48 49
ATOM$RED        STATIC     ATOMS    COLORGROUP SYSTEM
1 28
