AV-unprocessed.smi:265|AV-procd|sdf|2030|dock8
  -GOLD-   2262021233D 1   1.00000     0.00000
 Structure written by MMmdl.
 52 56  0  0  0  0  0  0  0  0  1 V2000
  147.1171  139.5250  155.8816 C   0  0  0  0  0  0  0  0  0  0  0  0
  147.5708  138.8986  154.5540 C   0  0  1  0  0  0  0  0  0  0  0  0
  146.4063  138.4327  153.8765 O   0  0  0  0  0  0  0  0  0  0  0  0
  146.6231  138.5145  152.4792 C   0  0  0  0  0  0  0  0  0  0  0  0
  147.3624  139.8361  152.3408 C   0  0  0  0  0  0  0  0  0  0  0  0
  148.2969  139.8359  153.5477 C   0  0  2  0  0  0  0  0  0  0  0  0
  149.5026  139.1984  153.1607 O   0  0  0  0  0  0  0  0  0  0  0  0
  148.6477  141.2582  154.0592 C   0  0  0  0  0  0  0  0  0  0  0  0
  149.4440  141.2555  155.2770 N   0  0  0  0  0  0  0  0  0  0  0  0
  149.0811  141.7714  156.5005 C   0  0  0  0  0  0  0  0  0  0  0  0
  149.9749  141.6490  157.4431 N   0  0  0  0  0  0  0  0  0  0  0  0
  151.0298  140.9844  156.8279 C   0  0  0  0  0  0  0  0  0  0  0  0
  152.3075  140.5331  157.2654 C   0  0  0  0  0  0  0  0  0  0  0  0
  152.7424  140.6846  158.5424 N   0  0  0  0  0  0  0  0  0  0  0  0
  152.8279  142.0487  159.0764 C   0  0  0  0  0  0  0  0  0  0  0  0
  152.9973  142.0436  160.6080 C   0  0  0  0  0  0  0  0  0  0  0  0
  154.1880  141.1593  161.0005 C   0  0  1  0  0  0  0  0  0  0  0  0
  154.3234  141.0401  162.4086 O   0  0  0  0  0  0  0  0  0  0  0  0
  155.5148  140.3527  162.8071 C   0  0  0  0  0  0  0  0  0  0  0  0
  155.7434  139.0455  162.0185 C   0  0  0  0  0  0  0  0  0  0  0  0
  156.5753  138.2308  162.4112 O   0  0  0  0  0  0  0  0  0  0  0  0
  155.0442  138.8570  160.8873 N   0  0  0  0  0  0  0  0  0  0  0  0
  153.9680  139.7392  160.4572 C   0  0  2  0  0  0  0  0  0  0  0  0
  153.8290  139.7806  158.9281 C   0  0  0  0  0  0  0  0  0  0  0  0
  153.1029  139.9240  156.3456 N   0  0  0  0  0  0  0  0  0  0  0  0
  152.6764  139.7530  155.0907 C   0  0  0  0  0  0  0  0  0  0  0  0
  151.5098  140.1090  154.5503 N   0  0  0  0  0  0  0  0  0  0  0  0
  150.7122  140.7334  155.4631 C   0  0  0  0  0  0  0  0  0  0  0  0
  155.0998  141.5940  160.5849 H   0  0  0  0  0  0  0  0  0  0  0  0
  153.0455  139.3352  160.8781 H   0  0  0  0  0  0  0  0  0  0  0  0
  147.9652  139.8912  156.4606 H   0  0  0  0  0  0  0  0  0  0  0  0
  146.5990  138.7881  156.4956 H   0  0  0  0  0  0  0  0  0  0  0  0
  146.4288  140.3544  155.7186 H   0  0  0  0  0  0  0  0  0  0  0  0
  148.1910  138.0290  154.7799 H   0  0  0  0  0  0  0  0  0  0  0  0
  147.2423  137.6787  152.1498 H   0  0  0  0  0  0  0  0  0  0  0  0
  145.6858  138.4938  151.9233 H   0  0  0  0  0  0  0  0  0  0  0  0
  147.8747  139.9454  151.3837 H   0  0  0  0  0  0  0  0  0  0  0  0
  146.6407  140.6497  152.4261 H   0  0  0  0  0  0  0  0  0  0  0  0
  149.7249  139.4820  152.2872 H   0  0  0  0  0  0  0  0  0  0  0  0
  149.2097  141.8074  153.3035 H   0  0  0  0  0  0  0  0  0  0  0  0
  147.7396  141.8323  154.2468 H   0  0  0  0  0  0  0  0  0  0  0  0
  148.1279  142.2498  156.6723 H   0  0  0  0  0  0  0  0  0  0  0  0
  153.6718  142.5624  158.6134 H   0  0  0  0  0  0  0  0  0  0  0  0
  151.9284  142.6080  158.8153 H   0  0  0  0  0  0  0  0  0  0  0  0
  153.1445  143.0603  160.9728 H   0  0  0  0  0  0  0  0  0  0  0  0
  152.0865  141.6704  161.0783 H   0  0  0  0  0  0  0  0  0  0  0  0
  156.3741  141.0068  162.6545 H   0  0  0  0  0  0  0  0  0  0  0  0
  155.4602  140.1355  163.8740 H   0  0  0  0  0  0  0  0  0  0  0  0
  155.2116  138.0211  160.3462 H   0  0  0  0  0  0  0  0  0  0  0  0
  153.6623  138.7714  158.5536 H   0  0  0  0  0  0  0  0  0  0  0  0
  154.7568  140.1325  158.4749 H   0  0  0  0  0  0  0  0  0  0  0  0
  153.3678  139.2592  154.4241 H   0  0  0  0  0  0  0  0  0  0  0  0
  1  2  1  0  0  0  0
  1 31  1  0  0  0  0
  1 32  1  0  0  0  0
  1 33  1  0  0  0  0
  2  6  1  0  0  0  0
  2  3  1  0  0  0  0
  2 34  1  0  0  0  0
  3  4  1  0  0  0  0
  4  5  1  0  0  0  0
  4 35  1  0  0  0  0
  4 36  1  0  0  0  0
  5  6  1  0  0  0  0
  5 37  1  0  0  0  0
  5 38  1  0  0  0  0
  6  7  1  0  0  0  0
  6  8  1  0  0  0  0
  7 39  1  0  0  0  0
  8  9  1  0  0  0  0
  8 40  1  0  0  0  0
  8 41  1  0  0  0  0
  9 28  1  0  0  0  0
  9 10  1  0  0  0  0
 10 11  2  0  0  0  0
 10 42  1  0  0  0  0
 11 12  1  0  0  0  0
 12 28  2  0  0  0  0
 12 13  1  0  0  0  0
 13 14  1  0  0  0  0
 13 25  2  0  0  0  0
 14 24  1  0  0  0  0
 14 15  1  0  0  0  0
 15 16  1  0  0  0  0
 15 43  1  0  0  0  0
 15 44  1  0  0  0  0
 16 17  1  0  0  0  0
 16 45  1  0  0  0  0
 16 46  1  0  0  0  0
 17 29  1  0  0  0  0
 17 23  1  0  0  0  0
 17 18  1  0  0  0  0
 18 19  1  0  0  0  0
 19 20  1  0  0  0  0
 19 47  1  0  0  0  0
 19 48  1  0  0  0  0
 20 21  2  0  0  0  0
 20 22  1  0  0  0  0
 22 23  1  0  0  0  0
 22 49  1  0  0  0  0
 23 30  1  0  0  0  0
 23 24  1  0  0  0  0
 24 50  1  0  0  0  0
 24 51  1  0  0  0  0
 25 26  1  0  0  0  0
 26 27  2  0  0  0  0
 26 52  1  0  0  0  0
 27 28  1  0  0  0  0
M  END
> <s_m_source_file>
AV-unprocessed.smi

> <i_m_source_file_index>
265

> <i_lp_mmshare_version>
43012

> <i_f3d_flags>
0

> <s_epik_input>
W0NIMl0xW0NIMl1PW0NAQEhdKFtDSDNdKVtDQEBdMShbT0hdKVtDSDJdbihbY0hdbjIpYyhjMjMpbltjSF1uYzNOKFtDSDJdW0NIMl00KVtDSDJdW0NAQEhdKFtDQEhdNDUpW05IXUMoPU8pW0NIMl1PNQ==

> <s_epik_cmdline>
J2VwaWtfcHl0aG9uJywgJy1waCcsICc3LjAnLCAnLXRuJywgJzgnLCAnLW1hJywgJzIwMCcsICctbWV0YWxfYmluZGluZycsICctaW1hZScsICc8aW5maWxlLm1hZT4nLCAnLW9tYWUnLCAnPG91dGZpbGUubWFlPic=

> <r_lp_tautomer_probability>
1

> <r_epik_Ionization_Penalty>
0.00221504

> <r_epik_Ionization_Penalty_Charging>
0

> <r_epik_Ionization_Penalty_Neutral>
0.00221504

> <r_epik_State_Penalty>
-0

> <r_epik_Charging_Adjusted_Penalty>
0

> <i_epik_Tot_Q>
0

> <i_epik_Tot_abs_Q>
0

> <r_epik_Metal_State_Penalty>
-0

> <b_epik_Metal_Only>
0

> <s_lp_Force_Field>
OPLS_2005

> <r_lp_Energy>
44.2788

> <b_lp_Chiralities_Consistent>
1

> <s_lp_Variant>
AV-unprocessed.smi:265-16

> <Gold.Version>
5.8.1

> <Gold.Id.Protein>
6NUR|6NUR_protein|mol2

> <Gold.PLP.Fitness>
51.3444

> <Gold.PLP.PLP>
-41.4768

> <Gold.PLP.part.hbond>
-4.5757

> <Gold.PLP.part.metal>
0.0000

> <Gold.PLP.part.buried>
0.7737

> <Gold.PLP.part.nonpolar>
-37.3078

> <Gold.PLP.part.repulsive>
0.2514

> <Gold.PLP.ligand.clash>
0.0000

> <Gold.PLP.ligand.torsion>
0.3116

> <Gold.PLP.Chemscore.Hbond>
3.0000

> <Gold.PLP.Chemscore.CHOScore>
0.3568

> <Gold.PLP.Chemscore.Metal>
0.0000

> <Gold.Chemscore.Hbonds>
donor molecule, donor type, donor heavy atom, donor atom, acceptor molecule, acceptor atom, score
      L1  H     7    39       P1  7957  0.31
      P1  H  7989  7998       L1    27  0.42
      P1  H  7997  8009       L1    25  0.29
      L1  C    10    42       P1  8028  0.14

> <Gold.PLP.Chemscore.Internal.Correction>
0.4203

> <Gold.Rescore>
     Score         DG    S(hbond)    S(metal)    S(lipo)     H(rot)  DE(clash)    DE(int)     intcor
     12.29     -16.60       2.11        0.00      83.98       2.25       0.66       3.65       ----

> <Gold.Chemscore.Fitness>
12.2892

> <Gold.Chemscore.DG>
-16.5993

> <Gold.Chemscore.ZeroCoef>
-5.4800

> <Gold.Chemscore.Hbond>
2.1082

> <Gold.Chemscore.Metal>
0.0000

> <Gold.Chemscore.Lipo>
83.9810

> <Gold.Chemscore.Internal_Hbond>
0.0000

> <Gold.Chemscore.DEClash>
0.6586

> <Gold.Chemscore.DEInternal>
3.6515

> <Gold.Chemscore.Rot>
2.2453

> <Gold.Chemscore.Internal.Correction>
   9.000000E+99

> <Gold.Chemscore.Hbonds>
donor molecule, donor type, donor heavy atom, donor atom, acceptor molecule, acceptor atom, score
      L1  H     7    39       P1  7957  0.30
      P1  H  7989  7998       L1    27  0.26
      P1  H  7997  8009       L1    25  0.22

> <Gold.Chemscore.Hbond.Weighted>
-7.0414

> <Gold.Chemscore.Metal.Weighted>
-0.0000

> <Gold.Chemscore.Lipo.Weighted>
-9.8258

> <Gold.Chemscore.Internal_Hbond.Weighted>
0.0000

> <Gold.Chemscore.DEClash.Weighted>
0.6586

> <Gold.Chemscore.DEInternal.Weighted>
3.6515

> <Gold.Chemscore.Rot.Weighted>
5.7479

> <Gold.Chemscore.Internal.Correction.Weighted>
   9.000000E+99

> <Gold.Protein.RotatedTorsions>
[ 6907 6896 6895 6894 ] final   11.46 input  -60.11 | X-H torsion
[ 7974 7965 7964 7962 ] final   -0.50 input  175.53 | X-H torsion
[ 8008 7997 7996 7995 ] final -165.40 input   59.86 | X-H torsion
[ 10167 10162 10161 10158 ] final  -70.50 input  -65.29 | X-H torsion
[ 10718 10713 10712 10709 ] final  109.19 input   66.30 | X-H torsion
[ 10763 10752 10751 10750 ] final  -35.06 input  -60.55 | X-H torsion
[ 11005 11000 10999 10996 ] final   85.26 input  -57.11 | X-H torsion

> <Gold.Protein.ActiveResidues>
 VAL166  LYS551  ARG553  GLY616  TRP617  ASP618  TYR619  PRO620  LYS621  CYS622 
 ASP623  PHE694  ASN695  SER759  ASP760  ASP761  ALA762  ILE779  LEU786  VAL792 
 PHE793  MET794  SER795  GLU796  ALA797  LYS798  CYS799  TRP800  GLU811  SER814 

> <Gold.Protein.RotatedAtoms>
  151.7546  135.0824  160.0335 H   0  0  0  0  0  0  0  0  0  0  0  0  # atno 6907 bound_to 6896
  152.3394  133.6045  159.5874 H   0  0  0  0  0  0  0  0  0  0  0  0  # atno 6908 bound_to 6896
  150.7470  133.9662  159.3573 H   0  0  0  0  0  0  0  0  0  0  0  0  # atno 6909 bound_to 6896
  146.2426  140.1279  142.8338 H   0  0  0  0  0  0  0  0  0  0  0  0  # atno 7974 bound_to 7965
  155.8492  140.0960  157.1685 H   0  0  0  0  0  0  0  0  0  0  0  0  # atno 8008 bound_to 7997
  154.3985  140.1386  156.3885 H   0  0  0  0  0  0  0  0  0  0  0  0  # atno 8009 bound_to 7997
  155.7980  140.3454  155.5389 H   0  0  0  0  0  0  0  0  0  0  0  0  # atno 8010 bound_to 7997
  140.5347  143.2319  151.7198 H   0  0  0  0  0  0  0  0  0  0  0  0  # atno 10167 bound_to 10162
  157.6553  131.0909  150.6416 H   0  0  0  0  0  0  0  0  0  0  0  0  # atno 10718 bound_to 10713
  153.8570  135.6843  153.4786 H   0  0  0  0  0  0  0  0  0  0  0  0  # atno 10763 bound_to 10752
  153.1364  135.4676  154.9426 H   0  0  0  0  0  0  0  0  0  0  0  0  # atno 10764 bound_to 10752
  154.7776  135.3258  154.8007 H   0  0  0  0  0  0  0  0  0  0  0  0  # atno 10765 bound_to 10752
  139.8976  134.8274  156.2558 H   0  0  0  0  0  0  0  0  0  0  0  0  # atno 11005 bound_to 11000
  145.0351  140.8901  143.5086 LP  0  0  0  0  0  0  0  0  0  0  0  0  # atno 17320 bound_to 7965
  145.1350  139.2608  143.5520 LP  0  0  0  0  0  0  0  0  0  0  0  0  # atno 17321 bound_to 7965
  139.4966  144.4061  152.0130 LP  0  0  0  0  0  0  0  0  0  0  0  0  # atno 17342 bound_to 10162
  140.3165  144.3477  150.6020 LP  0  0  0  0  0  0  0  0  0  0  0  0  # atno 17343 bound_to 10162
  156.6723  130.4543  149.5653 LP  0  0  0  0  0  0  0  0  0  0  0  0  # atno 17370 bound_to 10713
  156.1988  130.6607  151.1144 LP  0  0  0  0  0  0  0  0  0  0  0  0  # atno 17371 bound_to 10713
  141.0194  133.7050  156.1243 LP  0  0  0  0  0  0  0  0  0  0  0  0  # atno 17394 bound_to 11000
  140.7255  134.4312  157.5571 LP  0  0  0  0  0  0  0  0  0  0  0  0  # atno 17395 bound_to 11000

$$$$
