AV-unprocessed.smi:1642|AV-procd|sdf|6570|dock4
  -GOLD-   22720 7253D 1   1.00000     0.00000
 Structure written by MMmdl.
 35 36  0  0  0  0  0  0  0  0  2 V2000
  153.7447  141.7054  160.6937 C   0  0  0  0  0  0  0  0  0  0  0  0
  152.8901  142.2406  159.5959 C   0  0  0  0  0  0  0  0  0  0  0  0
  152.8429  143.5411  159.2824 N   0  0  0  0  0  0  0  0  0  0  0  0
  151.9792  143.7968  158.2268 N   0  0  0  0  0  0  0  0  0  0  0  0
  151.3993  142.6773  157.7728 C   0  0  0  0  0  0  0  0  0  0  0  0
  150.4712  142.6496  156.6978 N   0  0  0  0  0  0  0  0  0  0  0  0
  150.0014  141.5799  156.0316 C   0  0  0  0  0  0  0  0  0  0  0  0
  150.3107  140.4088  156.2526 O   0  0  0  0  0  0  0  0  0  0  0  0
  149.1363  141.9410  155.0742 N   0  0  0  0  0  0  0  0  0  0  0  0
  148.4656  140.9998  154.1876 C   0  0  0  0  0  0  0  0  0  0  0  0
  146.9396  141.1368  154.2975 C   0  0  0  0  0  0  0  0  0  0  0  0
  146.2354  140.1584  153.4362 N   0  3  0  0  0  0  0  0  0  0  0  0
  146.7153  140.0870  152.0343 C   0  0  0  0  0  0  0  0  0  0  0  0
  146.7593  138.6007  151.6525 C   0  0  0  0  0  0  0  0  0  0  0  0
  145.9724  137.8954  152.7525 C   0  0  0  0  0  0  0  0  0  0  0  0
  146.2209  138.7813  153.9683 C   0  0  0  0  0  0  0  0  0  0  0  0
  151.8678  141.2051  158.6065 S   0  0  0  0  0  0  0  0  0  0  0  0
  154.0468  142.5060  161.3698 H   0  0  0  0  0  0  0  0  0  0  0  0
  154.6389  141.2426  160.2764 H   0  0  0  0  0  0  0  0  0  0  0  0
  153.1956  140.9566  161.2647 H   0  0  0  0  0  0  0  0  0  0  0  0
  150.1267  143.5510  156.4023 H   0  0  0  0  0  0  0  0  0  0  0  0
  148.9313  142.9222  154.9530 H   0  0  0  0  0  0  0  0  0  0  0  0
  148.7837  141.1834  153.1599 H   0  0  0  0  0  0  0  0  0  0  0  0
  148.7797  139.9873  154.4458 H   0  0  0  0  0  0  0  0  0  0  0  0
  146.6136  141.0197  155.3324 H   0  0  0  0  0  0  0  0  0  0  0  0
  146.6505  142.1427  153.9888 H   0  0  0  0  0  0  0  0  0  0  0  0
  146.0229  140.6380  151.3969 H   0  0  0  0  0  0  0  0  0  0  0  0
  147.7025  140.5366  151.9155 H   0  0  0  0  0  0  0  0  0  0  0  0
  146.3536  138.4089  150.6586 H   0  0  0  0  0  0  0  0  0  0  0  0
  147.7924  138.2509  151.6613 H   0  0  0  0  0  0  0  0  0  0  0  0
  144.9096  137.8917  152.5060 H   0  0  0  0  0  0  0  0  0  0  0  0
  146.2877  136.8630  152.9065 H   0  0  0  0  0  0  0  0  0  0  0  0
  147.1934  138.5424  154.4032 H   0  0  0  0  0  0  0  0  0  0  0  0
  145.4629  138.6554  154.7420 H   0  0  0  0  0  0  0  0  0  0  0  0
  145.2675  140.4437  153.3886 H   0  0  0  0  0  0  0  0  0  0  0  0
  1  2  1  0  0  0  0
  1 18  1  0  0  0  0
  1 19  1  0  0  0  0
  1 20  1  0  0  0  0
  2 17  1  0  0  0  0
  2  3  2  0  0  0  0
  3  4  1  0  0  0  0
  4  5  2  0  0  0  0
  5  6  1  0  0  0  0
  5 17  1  0  0  0  0
  6  7  1  0  0  0  0
  6 21  1  0  0  0  0
  7  8  2  0  0  0  0
  7  9  1  0  0  0  0
  9 10  1  0  0  0  0
  9 22  1  0  0  0  0
 10 11  1  0  0  0  0
 10 23  1  0  0  0  0
 10 24  1  0  0  0  0
 11 12  1  0  0  0  0
 11 25  1  0  0  0  0
 11 26  1  0  0  0  0
 12 16  1  0  0  0  0
 12 13  1  0  0  0  0
 12 35  1  0  0  0  0
 13 14  1  0  0  0  0
 13 27  1  0  0  0  0
 13 28  1  0  0  0  0
 14 15  1  0  0  0  0
 14 29  1  0  0  0  0
 14 30  1  0  0  0  0
 15 16  1  0  0  0  0
 15 31  1  0  0  0  0
 15 32  1  0  0  0  0
 16 33  1  0  0  0  0
 16 34  1  0  0  0  0
M  CHG  1  12   1
M  END
> <s_m_source_file>
AV-unprocessed.smi

> <i_m_source_file_index>
1642

> <i_lp_mmshare_version>
43012

> <i_f3d_flags>
0

> <s_epik_input>
W0NIM11jMW5uYyhzMSlbTkhdQyg9TylbTkhdW0NIMl1bQ0gyXU4yW0NIMl1bQ0gyXVtDSDJdW0NIMl0y

> <s_epik_cmdline>
J2VwaWtfcHl0aG9uJywgJy1waCcsICc3LjAnLCAnLXRuJywgJzgnLCAnLW1hJywgJzIwMCcsICctbWV0YWxfYmluZGluZycsICctaW1hZScsICc8aW5maWxlLm1hZT4nLCAnLW9tYWUnLCAnPG91dGZpbGUubWFlPic=

> <r_lp_tautomer_probability>
1

> <r_epik_Ionization_Penalty>
0.00661496

> <r_epik_Ionization_Penalty_Charging>
0.0023443

> <r_epik_Ionization_Penalty_Neutral>
0.00427066

> <r_epik_State_Penalty>
0.00184107

> <r_epik_Charging_Adjusted_Penalty>
0.00418537

> <i_epik_Tot_Q>
1

> <i_epik_Tot_abs_Q>
1

> <r_epik_Metal_State_Penalty>
0.375387

> <b_epik_Metal_Only>
0

> <s_lp_Force_Field>
OPLS_2005

> <r_lp_Energy>
26.1101

> <b_lp_Chiralities_Consistent>
1

> <s_lp_Variant>
AV-unprocessed.smi:1642-1

> <Gold.Version>
5.8.1

> <Gold.Id.Protein>
6NUR|6NUR_protein|mol2

> <Gold.PLP.Fitness>
44.5135

> <Gold.PLP.PLP>
-32.7577

> <Gold.PLP.part.hbond>
-3.0000

> <Gold.PLP.part.metal>
0.0000

> <Gold.PLP.part.buried>
-2.1412

> <Gold.PLP.part.nonpolar>
-29.4042

> <Gold.PLP.part.repulsive>
0.3358

> <Gold.PLP.ligand.clash>
0.0000

> <Gold.PLP.ligand.torsion>
0.1291

> <Gold.PLP.Chemscore.Hbond>
4.0000

> <Gold.PLP.Chemscore.CHOScore>
0.0000

> <Gold.PLP.Chemscore.Metal>
0.0000

> <Gold.Chemscore.Hbonds>
donor molecule, donor type, donor heavy atom, donor atom, acceptor molecule, acceptor atom, score
      L1  H     6    21       P1  8028  1.00
      L1  H     9    22       P1  8028  1.00
      L1  H    12    35       P1 10175  1.98

> <Gold.PLP.Chemscore.Internal.Correction>
0.0140

> <Gold.Rescore>
     Score         DG    S(hbond)    S(metal)    S(lipo)     H(rot)  DE(clash)    DE(int)     intcor
     16.96     -19.52       2.90        0.00      72.76       1.63       1.24       1.32       ----

> <Gold.Chemscore.Fitness>
16.9560

> <Gold.Chemscore.DG>
-19.5168

> <Gold.Chemscore.ZeroCoef>
-5.4800

> <Gold.Chemscore.Hbond>
2.9029

> <Gold.Chemscore.Metal>
0.0000

> <Gold.Chemscore.Lipo>
72.7633

> <Gold.Chemscore.Internal_Hbond>
0.0000

> <Gold.Chemscore.DEClash>
1.2365

> <Gold.Chemscore.DEInternal>
1.3243

> <Gold.Chemscore.Rot>
1.6297

> <Gold.Chemscore.Internal.Correction>
   9.000000E+99

> <Gold.Chemscore.Hbonds>
donor molecule, donor type, donor heavy atom, donor atom, acceptor molecule, acceptor atom, score
      L1  H     6    21       P1  8028  0.98
      L1  H     9    22       P1  8028  0.95
      L1  H    12    35       P1 10175  0.93

> <Gold.Chemscore.Hbond.Weighted>
-9.6955

> <Gold.Chemscore.Metal.Weighted>
-0.0000

> <Gold.Chemscore.Lipo.Weighted>
-8.5133

> <Gold.Chemscore.Internal_Hbond.Weighted>
0.0000

> <Gold.Chemscore.DEClash.Weighted>
1.2365

> <Gold.Chemscore.DEInternal.Weighted>
1.3243

> <Gold.Chemscore.Rot.Weighted>
4.1720

> <Gold.Chemscore.Internal.Correction.Weighted>
   9.000000E+99

> <Gold.Protein.RotatedTorsions>
[ 6907 6896 6895 6894 ] final -159.35 input  -60.11 | X-H torsion
[ 7974 7965 7964 7962 ] final   58.03 input  175.53 | X-H torsion
[ 8008 7997 7996 7995 ] final    1.51 input   59.86 | X-H torsion
[ 10167 10162 10161 10158 ] final    5.42 input  -65.29 | X-H torsion
[ 10718 10713 10712 10709 ] final  118.82 input   66.30 | X-H torsion
[ 10763 10752 10751 10750 ] final  105.29 input  -60.55 | X-H torsion
[ 11005 11000 10999 10996 ] final  -84.33 input  -57.11 | X-H torsion

> <Gold.Protein.ActiveResidues>
 VAL166  LYS551  ARG553  GLY616  TRP617  ASP618  TYR619  PRO620  LYS621  CYS622 
 ASP623  PHE694  ASN695  SER759  ASP760  ASP761  ALA762  ILE779  LEU786  VAL792 
 PHE793  MET794  SER795  GLU796  ALA797  LYS798  CYS799  TRP800  GLU811  SER814 

> <Gold.Protein.RotatedAtoms>
  151.3322  133.3996  159.2663 H   0  0  0  0  0  0  0  0  0  0  0  0  # atno 6907 bound_to 6896
  150.9946  134.9274  159.7929 H   0  0  0  0  0  0  0  0  0  0  0  0  # atno 6908 bound_to 6896
  152.5257  134.3287  159.9227 H   0  0  0  0  0  0  0  0  0  0  0  0  # atno 6909 bound_to 6896
  145.9226  139.3742  143.0469 H   0  0  0  0  0  0  0  0  0  0  0  0  # atno 7974 bound_to 7965
  154.6806  140.2632  155.6912 H   0  0  0  0  0  0  0  0  0  0  0  0  # atno 8008 bound_to 7997
  156.2695  140.2811  156.1271 H   0  0  0  0  0  0  0  0  0  0  0  0  # atno 8009 bound_to 7997
  155.1037  140.0375  157.2694 H   0  0  0  0  0  0  0  0  0  0  0  0  # atno 8010 bound_to 7997
  140.6483  143.7608  150.7534 H   0  0  0  0  0  0  0  0  0  0  0  0  # atno 10167 bound_to 10162
  157.6004  131.1052  150.7809 H   0  0  0  0  0  0  0  0  0  0  0  0  # atno 10718 bound_to 10713
  153.3773  135.3915  155.1832 H   0  0  0  0  0  0  0  0  0  0  0  0  # atno 10763 bound_to 10752
  154.8703  135.3717  154.4901 H   0  0  0  0  0  0  0  0  0  0  0  0  # atno 10764 bound_to 10752
  153.5375  135.7085  153.5714 H   0  0  0  0  0  0  0  0  0  0  0  0  # atno 10765 bound_to 10752
  141.1651  133.7340  156.8851 H   0  0  0  0  0  0  0  0  0  0  0  0  # atno 11005 bound_to 11000
  145.8530  140.9518  143.0740 LP  0  0  0  0  0  0  0  0  0  0  0  0  # atno 17320 bound_to 7965
  144.6755  140.0432  143.7480 LP  0  0  0  0  0  0  0  0  0  0  0  0  # atno 17321 bound_to 7965
  140.1253  143.4574  152.2288 LP  0  0  0  0  0  0  0  0  0  0  0  0  # atno 17342 bound_to 10162
  139.5695  144.7455  151.3929 LP  0  0  0  0  0  0  0  0  0  0  0  0  # atno 17343 bound_to 10162
  156.8210  130.4984  149.5343 LP  0  0  0  0  0  0  0  0  0  0  0  0  # atno 17370 bound_to 10713
  156.1076  130.6016  150.9996 LP  0  0  0  0  0  0  0  0  0  0  0  0  # atno 17371 bound_to 10713
  140.1687  134.9115  157.2806 LP  0  0  0  0  0  0  0  0  0  0  0  0  # atno 17394 bound_to 11000
  140.2527  134.3664  155.7436 LP  0  0  0  0  0  0  0  0  0  0  0  0  # atno 17395 bound_to 11000

$$$$
