AV-unprocessed.smi:652|AV-procd|sdf|3200|dock2
  -GOLD-   22720 0133D 1   1.00000     0.00000
 Structure written by MMmdl.
 49 50  0  0  0  0  0  0  0  0  3 V2000
  148.1704  126.4923  151.4206 C   0  0  0  0  0  0  0  0  0  0  0  0
  148.6776  127.8717  151.8615 C   0  0  0  0  0  0  0  0  0  0  0  0
  149.0344  127.8921  153.3566 C   0  0  0  0  0  0  0  0  0  0  0  0
  147.6634  128.8793  151.5631 N   0  0  0  0  0  0  0  0  0  0  0  0
  146.4721  128.9887  152.1720 C   0  0  0  0  0  0  0  0  0  0  0  0
  146.0992  128.2363  153.0724 O   0  0  0  0  0  0  0  0  0  0  0  0
  145.5622  130.1233  151.6937 C   0  0  0  0  0  0  0  0  0  0  0  0
  146.1819  131.5121  151.9456 C   0  0  0  0  0  0  0  0  0  0  0  0
  146.4278  132.2588  150.6833 N   0  3  1  0  0  0  0  0  0  0  0  0
  145.5006  131.8893  149.5864 C   0  0  0  0  0  0  0  0  0  0  0  0
  144.1248  132.5516  149.7762 C   0  0  0  0  0  0  0  0  0  0  0  0
  144.2902  133.9620  149.8599 O   0  0  0  0  0  0  0  0  0  0  0  0
  145.0785  134.3567  150.9790 C   0  0  2  0  0  0  0  0  0  0  0  0
  145.1369  135.8913  151.0000 C   0  0  0  0  0  0  0  0  0  0  0  0
  146.2623  136.3757  151.7857 N   0  0  0  0  0  0  0  0  0  0  0  0
  146.0431  137.1111  152.9581 C   0  0  0  0  0  0  0  0  0  0  0  0
  144.7627  137.4341  153.4646 C   0  0  0  0  0  0  0  0  0  0  0  0
  144.6848  138.1750  154.6561 C   0  0  0  0  0  0  0  0  0  0  0  0
  145.8928  138.5492  155.2708 C   0  0  0  0  0  0  0  0  0  0  0  0
  147.1075  138.2321  154.7697 N   0  0  0  0  0  0  0  0  0  0  0  0
  147.1488  137.5229  153.6277 N   0  3  0  0  0  0  0  0  0  0  0  0
  146.4871  133.7359  150.8355 C   0  0  0  0  0  0  0  0  0  0  0  0
  148.9209  125.7226  151.6038 H   0  0  0  0  0  0  0  0  0  0  0  0
  147.9404  126.4795  150.3546 H   0  0  0  0  0  0  0  0  0  0  0  0
  147.2660  126.2092  151.9604 H   0  0  0  0  0  0  0  0  0  0  0  0
  149.5783  128.0937  151.2860 H   0  0  0  0  0  0  0  0  0  0  0  0
  149.7919  127.1427  153.5876 H   0  0  0  0  0  0  0  0  0  0  0  0
  148.1616  127.6838  153.9764 H   0  0  0  0  0  0  0  0  0  0  0  0
  149.4330  128.8616  153.6571 H   0  0  0  0  0  0  0  0  0  0  0  0
  147.8872  129.5430  150.8356 H   0  0  0  0  0  0  0  0  0  0  0  0
  145.3685  129.9687  150.6325 H   0  0  0  0  0  0  0  0  0  0  0  0
  144.5993  130.0537  152.2027 H   0  0  0  0  0  0  0  0  0  0  0  0
  145.4850  132.0853  152.5595 H   0  0  0  0  0  0  0  0  0  0  0  0
  147.1000  131.4294  152.5273 H   0  0  0  0  0  0  0  0  0  0  0  0
  145.9339  132.2249  148.6432 H   0  0  0  0  0  0  0  0  0  0  0  0
  145.4036  130.8059  149.5087 H   0  0  0  0  0  0  0  0  0  0  0  0
  143.4799  132.3237  148.9274 H   0  0  0  0  0  0  0  0  0  0  0  0
  143.6206  132.1745  150.6673 H   0  0  0  0  0  0  0  0  0  0  0  0
  144.6091  134.0103  151.9012 H   0  0  0  0  0  0  0  0  0  0  0  0
  145.2446  136.2649  149.9809 H   0  0  0  0  0  0  0  0  0  0  0  0
  144.2054  136.2961  151.3978 H   0  0  0  0  0  0  0  0  0  0  0  0
  147.1804  135.9975  151.6003 H   0  0  0  0  0  0  0  0  0  0  0  0
  143.8560  137.1305  152.9630 H   0  0  0  0  0  0  0  0  0  0  0  0
  143.7322  138.4480  155.0860 H   0  0  0  0  0  0  0  0  0  0  0  0
  145.8865  139.1186  156.1887 H   0  0  0  0  0  0  0  0  0  0  0  0
  147.1192  134.0159  151.6773 H   0  0  0  0  0  0  0  0  0  0  0  0
  146.9714  134.1434  149.9471 H   0  0  0  0  0  0  0  0  0  0  0  0
  147.3441  131.9620  150.3779 H   0  0  0  0  0  0  0  0  0  0  0  0
  148.0624  137.2798  153.2441 H   0  0  0  0  0  0  0  0  0  0  0  0
  1  2  1  0  0  0  0
  1 23  1  0  0  0  0
  1 24  1  0  0  0  0
  1 25  1  0  0  0  0
  2  3  1  0  0  0  0
  2  4  1  0  0  0  0
  2 26  1  0  0  0  0
  3 27  1  0  0  0  0
  3 28  1  0  0  0  0
  3 29  1  0  0  0  0
  4  5  1  0  0  0  0
  4 30  1  0  0  0  0
  5  6  2  0  0  0  0
  5  7  1  0  0  0  0
  7  8  1  0  0  0  0
  7 31  1  0  0  0  0
  7 32  1  0  0  0  0
  8  9  1  0  0  0  0
  8 33  1  0  0  0  0
  8 34  1  0  0  0  0
  9 22  1  0  0  0  0
  9 10  1  0  0  0  0
  9 48  1  0  0  0  0
 10 11  1  0  0  0  0
 10 35  1  0  0  0  0
 10 36  1  0  0  0  0
 11 12  1  0  0  0  0
 11 37  1  0  0  0  0
 11 38  1  0  0  0  0
 12 13  1  0  0  0  0
 13 14  1  0  0  0  0
 13 22  1  0  0  0  0
 13 39  1  0  0  0  0
 14 15  1  0  0  0  0
 14 40  1  0  0  0  0
 14 41  1  0  0  0  0
 15 16  1  0  0  0  0
 15 42  1  0  0  0  0
 16 21  1  0  0  0  0
 16 17  2  0  0  0  0
 17 18  1  0  0  0  0
 17 43  1  0  0  0  0
 18 19  2  0  0  0  0
 18 44  1  0  0  0  0
 19 20  1  0  0  0  0
 19 45  1  0  0  0  0
 20 21  2  0  0  0  0
 21 49  1  0  0  0  0
 22 46  1  0  0  0  0
 22 47  1  0  0  0  0
M  CHG  1   9   1
M  CHG  1  21   1
M  END
> <s_m_source_file>
AV-unprocessed.smi

> <i_m_source_file_index>
652

> <i_lp_mmshare_version>
43012

> <i_f3d_flags>
0

> <s_epik_input>
W0NIM11bQ0hdKFtDSDNdKVtOSF1DKD1PKVtDSDJdW0NIMl1OMVtDSDJdW0NIMl1PW0NASF0oW0NIMl0xKVtDSDJdW05IXWMyW2NIXVtjSF1bY0hdbm4y

> <s_epik_cmdline>
J2VwaWtfcHl0aG9uJywgJy1waCcsICc3LjAnLCAnLXRuJywgJzgnLCAnLW1hJywgJzIwMCcsICctbWV0YWxfYmluZGluZycsICctaW1hZScsICc8aW5maWxlLm1hZT4nLCAnLW9tYWUnLCAnPG91dGZpbGUubWFlPic=

> <r_lp_tautomer_probability>
0.966961

> <r_epik_Ionization_Penalty>
2.79885

> <r_epik_Ionization_Penalty_Charging>
2.79884

> <r_epik_Ionization_Penalty_Neutral>
3.2567e-06

> <r_epik_State_Penalty>
2.43203

> <r_epik_Charging_Adjusted_Penalty>
5.23087

> <i_epik_Tot_Q>
2

> <i_epik_Tot_abs_Q>
2

> <r_epik_Metal_State_Penalty>
2.43963

> <b_epik_Metal_Only>
0

> <s_lp_Force_Field>
OPLS_2005

> <r_lp_Energy>
31.8364

> <b_lp_Chiralities_Consistent>
1

> <s_lp_Variant>
AV-unprocessed.smi:652-9

> <Gold.Version>
5.8.1

> <Gold.Id.Protein>
6NUR|6NUR_protein|mol2

> <Gold.PLP.Fitness>
54.3897

> <Gold.PLP.PLP>
-39.2853

> <Gold.PLP.part.hbond>
-4.0000

> <Gold.PLP.part.metal>
0.0000

> <Gold.PLP.part.buried>
-6.7544

> <Gold.PLP.part.nonpolar>
-28.9994

> <Gold.PLP.part.repulsive>
1.3490

> <Gold.PLP.ligand.clash>
0.0000

> <Gold.PLP.ligand.torsion>
0.9556

> <Gold.PLP.Chemscore.Hbond>
5.6080

> <Gold.PLP.Chemscore.CHOScore>
0.0000

> <Gold.PLP.Chemscore.Metal>
0.0000

> <Gold.Chemscore.Hbonds>
donor molecule, donor type, donor heavy atom, donor atom, acceptor molecule, acceptor atom, score
      L1  H     4    30       P1 10747  0.94
      L1  H     9    48       P1 10747  1.00
      L1  H    15    42       P1  7948  1.86
      L1  H    21    49       P1  7948  1.76

> <Gold.PLP.Chemscore.Internal.Correction>
0.1916

> <Gold.Rescore>
     Score         DG    S(hbond)    S(metal)    S(lipo)     H(rot)  DE(clash)    DE(int)     intcor
     19.06     -20.95       3.45        0.00      84.64       2.33       0.00       1.88       ----

> <Gold.Chemscore.Fitness>
19.0634

> <Gold.Chemscore.DG>
-20.9480

> <Gold.Chemscore.ZeroCoef>
-5.4800

> <Gold.Chemscore.Hbond>
3.4541

> <Gold.Chemscore.Metal>
0.0000

> <Gold.Chemscore.Lipo>
84.6388

> <Gold.Chemscore.Internal_Hbond>
0.0000

> <Gold.Chemscore.DEClash>
0.0040

> <Gold.Chemscore.DEInternal>
1.8806

> <Gold.Chemscore.Rot>
2.3326

> <Gold.Chemscore.Internal.Correction>
   9.000000E+99

> <Gold.Chemscore.Hbonds>
donor molecule, donor type, donor heavy atom, donor atom, acceptor molecule, acceptor atom, score
      L1  H     4    30       P1 10747  0.75
      L1  H     9    48       P1 10747  0.98
      L1  H    15    42       P1  7948  0.90
      L1  H    21    49       P1  7948  0.86

> <Gold.Chemscore.Hbond.Weighted>
-11.5367

> <Gold.Chemscore.Metal.Weighted>
-0.0000

> <Gold.Chemscore.Lipo.Weighted>
-9.9027

> <Gold.Chemscore.Internal_Hbond.Weighted>
0.0000

> <Gold.Chemscore.DEClash.Weighted>
0.0040

> <Gold.Chemscore.DEInternal.Weighted>
1.8806

> <Gold.Chemscore.Rot.Weighted>
5.9714

> <Gold.Chemscore.Internal.Correction.Weighted>
   9.000000E+99

> <Gold.Protein.RotatedTorsions>
[ 6907 6896 6895 6894 ] final  -53.61 input  -60.11 | X-H torsion
[ 7974 7965 7964 7962 ] final   53.69 input  175.53 | X-H torsion
[ 8008 7997 7996 7995 ] final  -86.09 input   59.86 | X-H torsion
[ 10167 10162 10161 10158 ] final   69.90 input  -65.29 | X-H torsion
[ 10718 10713 10712 10709 ] final   46.16 input   66.30 | X-H torsion
[ 10763 10752 10751 10750 ] final    8.72 input  -60.55 | X-H torsion
[ 11005 11000 10999 10996 ] final -173.71 input  -57.11 | X-H torsion

> <Gold.Protein.ActiveResidues>
 VAL166  LYS551  ARG553  GLY616  TRP617  ASP618  TYR619  PRO620  LYS621  CYS622 
 ASP623  PHE694  ASN695  SER759  ASP760  ASP761  ALA762  ILE779  LEU786  VAL792 
 PHE793  MET794  SER795  GLU796  ALA797  LYS798  CYS799  TRP800  GLU811  SER814 

> <Gold.Protein.RotatedAtoms>
  150.8411  134.7703  159.6932 H   0  0  0  0  0  0  0  0  0  0  0  0  # atno 6907 bound_to 6896
  152.4498  134.5414  159.9850 H   0  0  0  0  0  0  0  0  0  0  0  0  # atno 6908 bound_to 6896
  151.5554  133.3373  159.2996 H   0  0  0  0  0  0  0  0  0  0  0  0  # atno 6909 bound_to 6896
  145.9685  139.4126  143.0204 H   0  0  0  0  0  0  0  0  0  0  0  0  # atno 7974 bound_to 7965
  154.6480  140.0583  156.9922 H   0  0  0  0  0  0  0  0  0  0  0  0  # atno 8008 bound_to 7997
  155.1415  140.3266  155.4432 H   0  0  0  0  0  0  0  0  0  0  0  0  # atno 8009 bound_to 7997
  156.2562  140.1963  156.6531 H   0  0  0  0  0  0  0  0  0  0  0  0  # atno 8010 bound_to 7997
  140.0628  144.5218  150.7282 H   0  0  0  0  0  0  0  0  0  0  0  0  # atno 10167 bound_to 10162
  157.4452  130.8105  149.7733 H   0  0  0  0  0  0  0  0  0  0  0  0  # atno 10718 bound_to 10713
  153.2219  135.6882  153.7990 H   0  0  0  0  0  0  0  0  0  0  0  0  # atno 10763 bound_to 10752
  153.7186  135.3271  155.3263 H   0  0  0  0  0  0  0  0  0  0  0  0  # atno 10764 bound_to 10752
  154.8273  135.4607  154.1069 H   0  0  0  0  0  0  0  0  0  0  0  0  # atno 10765 bound_to 10752
  140.4826  134.6060  157.4925 H   0  0  0  0  0  0  0  0  0  0  0  0  # atno 11005 bound_to 11000
  145.7939  140.9802  143.1034 LP  0  0  0  0  0  0  0  0  0  0  0  0  # atno 17320 bound_to 7965
  144.6831  139.9717  143.7482 LP  0  0  0  0  0  0  0  0  0  0  0  0  # atno 17321 bound_to 7965
  140.7163  143.2548  151.4422 LP  0  0  0  0  0  0  0  0  0  0  0  0  # atno 17342 bound_to 10162
  139.5883  144.1555  152.2057 LP  0  0  0  0  0  0  0  0  0  0  0  0  # atno 17343 bound_to 10162
  155.9964  130.3906  150.2779 LP  0  0  0  0  0  0  0  0  0  0  0  0  # atno 17370 bound_to 10713
  157.0947  131.0179  151.3108 LP  0  0  0  0  0  0  0  0  0  0  0  0  # atno 17371 bound_to 10713
  139.9817  134.7127  155.9847 LP  0  0  0  0  0  0  0  0  0  0  0  0  # atno 17394 bound_to 11000
  141.1523  133.6547  156.4053 LP  0  0  0  0  0  0  0  0  0  0  0  0  # atno 17395 bound_to 11000

$$$$
