AV-unprocessed.smi:3147|AV-procd|sdf|11990|dock5
  -GOLD-   2272017393D 1   1.00000     0.00000
 Structure written by MMmdl.
 36 37  0  0  0  0  0  0  0  0  1 V2000
  151.8037  145.8685  160.0990 C   0  0  0  0  0  0  0  0  0  0  0  0
  152.1321  144.4338  159.8196 C   0  0  0  0  0  0  0  0  0  0  0  0
  152.0984  143.9414  158.5172 N   0  0  0  0  0  0  0  0  0  0  0  0
  152.4378  142.6673  158.6500 C   0  0  0  0  0  0  0  0  0  0  0  0
  152.6843  142.2860  159.9106 N   0  0  0  0  0  0  0  0  0  0  0  0
  153.0737  140.9540  160.3497 C   0  0  0  0  0  0  0  0  0  0  0  0
  153.3022  139.9834  159.1843 C   0  0  0  0  0  0  0  0  0  0  0  0
  154.4224  139.5332  158.9384 O   0  0  0  0  0  0  0  0  0  0  0  0
  152.2119  139.6631  158.4716 N   0  0  0  0  0  0  0  0  0  0  0  0
  152.1907  138.7555  157.3301 C   0  0  0  0  0  0  0  0  0  0  0  0
  151.6203  139.4334  156.0733 C   0  0  1  0  0  0  0  0  0  0  0  0
  151.2320  138.4550  154.9691 C   0  0  0  0  0  0  0  0  0  0  0  0
  150.2757  139.2921  154.1490 C   0  0  0  0  0  0  0  0  0  0  0  0
  149.5615  140.1217  155.2165 C   0  0  0  0  0  0  0  0  0  0  0  0
  150.4021  140.1078  156.3688 O   0  0  0  0  0  0  0  0  0  0  0  0
  152.4939  143.4258  160.6907 C   0  0  0  0  0  0  0  0  0  0  0  0
  152.6777  143.4372  162.1753 C   0  0  0  0  0  0  0  0  0  0  0  0
  151.8617  146.1020  161.1614 H   0  0  0  0  0  0  0  0  0  0  0  0
  150.7943  146.1107  159.7662 H   0  0  0  0  0  0  0  0  0  0  0  0
  152.4917  146.5357  159.5793 H   0  0  0  0  0  0  0  0  0  0  0  0
  152.5073  141.9935  157.8086 H   0  0  0  0  0  0  0  0  0  0  0  0
  153.9826  141.0254  160.9478 H   0  0  0  0  0  0  0  0  0  0  0  0
  152.2929  140.5622  161.0034 H   0  0  0  0  0  0  0  0  0  0  0  0
  151.3314  140.0802  158.7368 H   0  0  0  0  0  0  0  0  0  0  0  0
  153.1990  138.3868  157.1344 H   0  0  0  0  0  0  0  0  0  0  0  0
  151.5889  137.8852  157.5936 H   0  0  0  0  0  0  0  0  0  0  0  0
  152.3285  140.1604  155.6717 H   0  0  0  0  0  0  0  0  0  0  0  0
  152.0879  138.0968  154.3962 H   0  0  0  0  0  0  0  0  0  0  0  0
  150.7108  137.5915  155.3852 H   0  0  0  0  0  0  0  0  0  0  0  0
  150.8368  139.9467  153.4808 H   0  0  0  0  0  0  0  0  0  0  0  0
  149.5926  138.6946  153.5448 H   0  0  0  0  0  0  0  0  0  0  0  0
  149.3777  141.1422  154.8792 H   0  0  0  0  0  0  0  0  0  0  0  0
  148.6023  139.6749  155.4797 H   0  0  0  0  0  0  0  0  0  0  0  0
  152.5533  144.4375  162.5880 H   0  0  0  0  0  0  0  0  0  0  0  0
  153.6758  143.0913  162.4446 H   0  0  0  0  0  0  0  0  0  0  0  0
  151.9517  142.7845  162.6603 H   0  0  0  0  0  0  0  0  0  0  0  0
  1  2  1  0  0  0  0
  1 18  1  0  0  0  0
  1 19  1  0  0  0  0
  1 20  1  0  0  0  0
  2 16  2  0  0  0  0
  2  3  1  0  0  0  0
  3  4  2  0  0  0  0
  4  5  1  0  0  0  0
  4 21  1  0  0  0  0
  5  6  1  0  0  0  0
  5 16  1  0  0  0  0
  6  7  1  0  0  0  0
  6 22  1  0  0  0  0
  6 23  1  0  0  0  0
  7  8  2  0  0  0  0
  7  9  1  0  0  0  0
  9 10  1  0  0  0  0
  9 24  1  0  0  0  0
 10 11  1  0  0  0  0
 10 25  1  0  0  0  0
 10 26  1  0  0  0  0
 11 15  1  0  0  0  0
 11 12  1  0  0  0  0
 11 27  1  0  0  0  0
 12 13  1  0  0  0  0
 12 28  1  0  0  0  0
 12 29  1  0  0  0  0
 13 14  1  0  0  0  0
 13 30  1  0  0  0  0
 13 31  1  0  0  0  0
 14 15  1  0  0  0  0
 14 32  1  0  0  0  0
 14 33  1  0  0  0  0
 16 17  1  0  0  0  0
 17 34  1  0  0  0  0
 17 35  1  0  0  0  0
 17 36  1  0  0  0  0
M  END
> <s_m_source_file>
AV-unprocessed.smi

> <i_m_source_file_index>
3147

> <i_lp_mmshare_version>
43012

> <i_f3d_flags>
0

> <s_epik_input>
W0NIM11jMW5bY0hdbihjMVtDSDNdKVtDSDJdQyg9TylbTkhdW0NIMl1bQ0BASF0yW0NIMl1bQ0gyXVtDSDJdTzI=

> <s_epik_cmdline>
J2VwaWtfcHl0aG9uJywgJy1waCcsICc3LjAnLCAnLXRuJywgJzgnLCAnLW1hJywgJzIwMCcsICctbWV0YWxfYmluZGluZycsICctaW1hZScsICc8aW5maWxlLm1hZT4nLCAnLW9tYWUnLCAnPG91dGZpbGUubWFlPic=

> <r_lp_tautomer_probability>
1

> <r_epik_Ionization_Penalty>
0.957393

> <r_epik_Ionization_Penalty_Charging>
0.957393

> <r_epik_Ionization_Penalty_Neutral>
1.43432e-07

> <r_epik_State_Penalty>
1.0022

> <r_epik_Charging_Adjusted_Penalty>
1.9596

> <i_epik_Tot_Q>
0

> <i_epik_Tot_abs_Q>
0

> <r_epik_Metal_State_Penalty>
0.374967

> <b_epik_Metal_Only>
0

> <s_lp_Force_Field>
OPLS_2005

> <r_lp_Energy>
18.0511

> <b_lp_Chiralities_Consistent>
1

> <s_lp_Variant>
AV-unprocessed.smi:3147-4

> <Gold.Version>
5.8.1

> <Gold.Id.Protein>
6NUR|6NUR_protein|mol2

> <Gold.PLP.Fitness>
42.2990

> <Gold.PLP.PLP>
-39.5966

> <Gold.PLP.part.hbond>
-1.0000

> <Gold.PLP.part.metal>
0.0000

> <Gold.PLP.part.buried>
-3.1957

> <Gold.PLP.part.nonpolar>
-33.9253

> <Gold.PLP.part.repulsive>
0.1309

> <Gold.PLP.ligand.clash>
0.0000

> <Gold.PLP.ligand.torsion>
0.1617

> <Gold.PLP.Chemscore.Hbond>
1.0000

> <Gold.PLP.Chemscore.CHOScore>
0.0000

> <Gold.PLP.Chemscore.Metal>
0.0000

> <Gold.Chemscore.Hbonds>
donor molecule, donor type, donor heavy atom, donor atom, acceptor molecule, acceptor atom, score
      P1  H  7997  8009       L1     8  1.00

> <Gold.PLP.Chemscore.Internal.Correction>
0.0257

> <Gold.Rescore>
     Score         DG    S(hbond)    S(metal)    S(lipo)     H(rot)  DE(clash)    DE(int)     intcor
     14.58     -14.84       0.97        0.00      89.62       1.70       0.03       0.23       ----

> <Gold.Chemscore.Fitness>
14.5778

> <Gold.Chemscore.DG>
-14.8409

> <Gold.Chemscore.ZeroCoef>
-5.4800

> <Gold.Chemscore.Hbond>
0.9690

> <Gold.Chemscore.Metal>
0.0000

> <Gold.Chemscore.Lipo>
89.6158

> <Gold.Chemscore.Internal_Hbond>
0.0000

> <Gold.Chemscore.DEClash>
0.0322

> <Gold.Chemscore.DEInternal>
0.2309

> <Gold.Chemscore.Rot>
1.7034

> <Gold.Chemscore.Internal.Correction>
   9.000000E+99

> <Gold.Chemscore.Hbonds>
donor molecule, donor type, donor heavy atom, donor atom, acceptor molecule, acceptor atom, score
      P1  H  7997  8009       L1     8  0.92

> <Gold.Chemscore.Hbond.Weighted>
-3.2365

> <Gold.Chemscore.Metal.Weighted>
-0.0000

> <Gold.Chemscore.Lipo.Weighted>
-10.4851

> <Gold.Chemscore.Internal_Hbond.Weighted>
0.0000

> <Gold.Chemscore.DEClash.Weighted>
0.0322

> <Gold.Chemscore.DEInternal.Weighted>
0.2309

> <Gold.Chemscore.Rot.Weighted>
4.3607

> <Gold.Chemscore.Internal.Correction.Weighted>
   9.000000E+99

> <Gold.Protein.RotatedTorsions>
[ 6907 6896 6895 6894 ] final   77.94 input  -60.11 | X-H torsion
[ 7974 7965 7964 7962 ] final   66.23 input  175.53 | X-H torsion
[ 8008 7997 7996 7995 ] final  118.06 input   59.86 | X-H torsion
[ 10167 10162 10161 10158 ] final   62.37 input  -65.29 | X-H torsion
[ 10718 10713 10712 10709 ] final -101.82 input   66.30 | X-H torsion
[ 10763 10752 10751 10750 ] final  105.24 input  -60.55 | X-H torsion
[ 11005 11000 10999 10996 ] final   77.14 input  -57.11 | X-H torsion

> <Gold.Protein.ActiveResidues>
 VAL166  LYS551  ARG553  GLY616  TRP617  ASP618  TYR619  PRO620  LYS621  CYS622 
 ASP623  PHE694  ASN695  SER759  ASP760  ASP761  ALA762  ILE779  LEU786  VAL792 
 PHE793  MET794  SER795  GLU796  ALA797  LYS798  CYS799  TRP800  GLU811  SER814 

> <Gold.Protein.RotatedAtoms>
  152.5139  134.3740  159.9327 H   0  0  0  0  0  0  0  0  0  0  0  0  # atno 6907 bound_to 6896
  151.3695  133.3854  159.2706 H   0  0  0  0  0  0  0  0  0  0  0  0  # atno 6908 bound_to 6896
  150.9589  134.8999  159.7776 H   0  0  0  0  0  0  0  0  0  0  0  0  # atno 6909 bound_to 6896
  145.8291  139.3128  143.0998 H   0  0  0  0  0  0  0  0  0  0  0  0  # atno 7974 bound_to 7965
  156.2527  140.2883  156.0776 H   0  0  0  0  0  0  0  0  0  0  0  0  # atno 8008 bound_to 7997
  155.1602  140.0399  157.2858 H   0  0  0  0  0  0  0  0  0  0  0  0  # atno 8009 bound_to 7997
  154.6398  140.2519  155.7342 H   0  0  0  0  0  0  0  0  0  0  0  0  # atno 8010 bound_to 7997
  140.1446  144.4521  150.6792 H   0  0  0  0  0  0  0  0  0  0  0  0  # atno 10167 bound_to 10162
  156.0207  130.5391  150.7019 H   0  0  0  0  0  0  0  0  0  0  0  0  # atno 10718 bound_to 10713
  153.3767  135.3916  155.1827 H   0  0  0  0  0  0  0  0  0  0  0  0  # atno 10763 bound_to 10752
  154.8702  135.3715  154.4909 H   0  0  0  0  0  0  0  0  0  0  0  0  # atno 10764 bound_to 10752
  153.5382  135.7085  153.5710 H   0  0  0  0  0  0  0  0  0  0  0  0  # atno 10765 bound_to 10752
  139.9267  134.7658  156.1484 H   0  0  0  0  0  0  0  0  0  0  0  0  # atno 11005 bound_to 11000
  145.9591  140.8849  143.0220 LP  0  0  0  0  0  0  0  0  0  0  0  0  # atno 17320 bound_to 7965
  144.6741  140.1787  143.7407 LP  0  0  0  0  0  0  0  0  0  0  0  0  # atno 17321 bound_to 7965
  140.6740  143.2297  151.5555 LP  0  0  0  0  0  0  0  0  0  0  0  0  # atno 17342 bound_to 10162
  139.5455  144.2532  152.1434 LP  0  0  0  0  0  0  0  0  0  0  0  0  # atno 17343 bound_to 10162
  157.4677  131.0890  151.0676 LP  0  0  0  0  0  0  0  0  0  0  0  0  # atno 17370 bound_to 10713
  157.1146  130.6036  149.5490 LP  0  0  0  0  0  0  0  0  0  0  0  0  # atno 17371 bound_to 10713
  141.0830  133.6746  156.2376 LP  0  0  0  0  0  0  0  0  0  0  0  0  # atno 17394 bound_to 11000
  140.6315  134.5259  157.5560 LP  0  0  0  0  0  0  0  0  0  0  0  0  # atno 17395 bound_to 11000

$$$$
