AV-unprocessed.smi:1419|AV-procd|sdf|5778|dock8
  -GOLD-   22720 5423D 1   1.00000     0.00000
 Structure written by MMmdl.
 42 43  0  0  0  0  0  0  0  0  2 V2000
  150.8192  140.1923  155.5936 C   0  0  0  0  0  0  0  0  0  0  0  0
  149.9818  141.3422  156.1690 C   0  0  2  0  0  0  0  0  0  0  0  0
  149.3527  142.1905  155.0424 C   0  0  0  0  0  0  0  0  0  0  0  0
  148.2414  141.5126  154.3659 N   0  0  0  0  0  0  0  0  0  0  0  0
  148.3047  140.3772  153.5991 C   0  0  0  0  0  0  0  0  0  0  0  0
  147.0244  140.1117  153.1871 C   0  0  0  0  0  0  0  0  0  0  0  0
  146.2361  141.1021  153.7091 N   0  3  0  0  0  0  0  0  0  0  0  0
  146.9792  141.9573  154.4188 C   0  0  0  0  0  0  0  0  0  0  0  0
  150.8348  142.1588  157.0318 N   0  0  0  0  0  0  0  0  0  0  0  0
  151.4957  141.7361  158.1241 C   0  0  0  0  0  0  0  0  0  0  0  0
  151.4296  140.5725  158.5222 O   0  0  0  0  0  0  0  0  0  0  0  0
  152.2120  142.6967  158.7584 N   0  0  0  0  0  0  0  0  0  0  0  0
  152.2141  144.1374  158.4696 C   0  0  0  0  0  0  0  0  0  0  0  0
  151.5551  144.8871  159.6461 C   0  0  1  0  0  0  0  0  0  0  0  0
  150.0346  144.6729  159.7475 C   0  0  0  0  0  0  0  0  0  0  0  0
  152.2138  144.5426  160.8695 O   0  0  0  0  0  0  0  0  0  0  0  0
  152.3206  143.1438  161.1487 C   0  0  2  0  0  0  0  0  0  0  0  0
  153.1130  142.9809  162.4500 C   0  0  0  0  0  0  0  0  0  0  0  0
  153.0002  142.4307  159.9630 C   0  0  0  0  0  0  0  0  0  0  0  0
  150.2106  139.5380  154.9690 H   0  0  0  0  0  0  0  0  0  0  0  0
  151.2467  139.5805  156.3888 H   0  0  0  0  0  0  0  0  0  0  0  0
  151.6408  140.5658  154.9813 H   0  0  0  0  0  0  0  0  0  0  0  0
  149.1842  140.8917  156.7629 H   0  0  0  0  0  0  0  0  0  0  0  0
  148.9996  143.1485  155.4278 H   0  0  0  0  0  0  0  0  0  0  0  0
  150.0978  142.4143  154.2776 H   0  0  0  0  0  0  0  0  0  0  0  0
  149.2304  139.8504  153.4174 H   0  0  0  0  0  0  0  0  0  0  0  0
  146.6261  139.3142  152.5768 H   0  0  0  0  0  0  0  0  0  0  0  0
  146.6262  142.8303  154.9378 H   0  0  0  0  0  0  0  0  0  0  0  0
  150.9391  143.1293  156.7733 H   0  0  0  0  0  0  0  0  0  0  0  0
  153.2476  144.4691  158.3586 H   0  0  0  0  0  0  0  0  0  0  0  0
  151.7265  144.4065  157.5327 H   0  0  0  0  0  0  0  0  0  0  0  0
  151.7201  145.9547  159.4984 H   0  0  0  0  0  0  0  0  0  0  0  0
  149.5352  145.0096  158.8389 H   0  0  0  0  0  0  0  0  0  0  0  0
  149.6187  145.2381  160.5818 H   0  0  0  0  0  0  0  0  0  0  0  0
  149.7740  143.6260  159.8937 H   0  0  0  0  0  0  0  0  0  0  0  0
  151.3249  142.7266  161.3033 H   0  0  0  0  0  0  0  0  0  0  0  0
  153.2131  141.9295  162.7205 H   0  0  0  0  0  0  0  0  0  0  0  0
  152.6154  143.4903  163.2757 H   0  0  0  0  0  0  0  0  0  0  0  0
  154.1155  143.3995  162.3567 H   0  0  0  0  0  0  0  0  0  0  0  0
  153.0998  141.3652  160.1754 H   0  0  0  0  0  0  0  0  0  0  0  0
  154.0158  142.8044  159.8239 H   0  0  0  0  0  0  0  0  0  0  0  0
  145.2355  141.1797  153.5763 H   0  0  0  0  0  0  0  0  0  0  0  0
  1  2  1  0  0  0  0
  1 20  1  0  0  0  0
  1 21  1  0  0  0  0
  1 22  1  0  0  0  0
  2  3  1  0  0  0  0
  2  9  1  0  0  0  0
  2 23  1  0  0  0  0
  3  4  1  0  0  0  0
  3 24  1  0  0  0  0
  3 25  1  0  0  0  0
  4  8  1  0  0  0  0
  4  5  1  0  0  0  0
  5  6  2  0  0  0  0
  5 26  1  0  0  0  0
  6  7  1  0  0  0  0
  6 27  1  0  0  0  0
  7  8  2  0  0  0  0
  7 42  1  0  0  0  0
  8 28  1  0  0  0  0
  9 10  1  0  0  0  0
  9 29  1  0  0  0  0
 10 11  2  0  0  0  0
 10 12  1  0  0  0  0
 12 19  1  0  0  0  0
 12 13  1  0  0  0  0
 13 14  1  0  0  0  0
 13 30  1  0  0  0  0
 13 31  1  0  0  0  0
 14 15  1  0  0  0  0
 14 16  1  0  0  0  0
 14 32  1  0  0  0  0
 15 33  1  0  0  0  0
 15 34  1  0  0  0  0
 15 35  1  0  0  0  0
 16 17  1  0  0  0  0
 17 18  1  0  0  0  0
 17 19  1  0  0  0  0
 17 36  1  0  0  0  0
 18 37  1  0  0  0  0
 18 38  1  0  0  0  0
 18 39  1  0  0  0  0
 19 40  1  0  0  0  0
 19 41  1  0  0  0  0
M  CHG  1   7   1
M  END
> <s_m_source_file>
AV-unprocessed.smi

> <i_m_source_file_index>
1419

> <i_lp_mmshare_version>
43012

> <i_f3d_flags>
0

> <s_epik_input>
W2NIXTFuW2NIXVtjSF1uMVtDSDJdW0NAQEhdKFtDSDNdKVtOSF1DKD1PKU4yW0NIMl1bQ0BASF0oW0NIM10pT1tDQEBIXShbQ0gzXSlbQ0gyXTI=

> <s_epik_cmdline>
J2VwaWtfcHl0aG9uJywgJy1waCcsICc3LjAnLCAnLXRuJywgJzgnLCAnLW1hJywgJzIwMCcsICctbWV0YWxfYmluZGluZycsICctaW1hZScsICc8aW5maWxlLm1hZT4nLCAnLW9tYWUnLCAnPG91dGZpbGUubWFlPic=

> <r_lp_tautomer_probability>
1

> <r_epik_Ionization_Penalty>
0.253607

> <r_epik_Ionization_Penalty_Charging>
0

> <r_epik_Ionization_Penalty_Neutral>
0.253607

> <r_epik_State_Penalty>
0.245018

> <r_epik_Charging_Adjusted_Penalty>
0.245018

> <i_epik_Tot_Q>
1

> <i_epik_Tot_abs_Q>
1

> <r_epik_Metal_State_Penalty>
0.535379

> <b_epik_Metal_Only>
0

> <s_lp_Force_Field>
OPLS_2005

> <r_lp_Energy>
31.638

> <b_lp_Chiralities_Consistent>
1

> <s_lp_Variant>
AV-unprocessed.smi:1419-5

> <Gold.Version>
5.8.1

> <Gold.Id.Protein>
6NUR|6NUR_protein|mol2

> <Gold.PLP.Fitness>
52.2701

> <Gold.PLP.PLP>
-45.2505

> <Gold.PLP.part.hbond>
-1.0000

> <Gold.PLP.part.metal>
0.0000

> <Gold.PLP.part.buried>
1.2672

> <Gold.PLP.part.nonpolar>
-44.2702

> <Gold.PLP.part.repulsive>
0.1996

> <Gold.PLP.ligand.clash>
0.0000

> <Gold.PLP.ligand.torsion>
0.1415

> <Gold.PLP.Chemscore.Hbond>
1.9840

> <Gold.PLP.Chemscore.CHOScore>
0.4392

> <Gold.PLP.Chemscore.Metal>
0.0000

> <Gold.Chemscore.Hbonds>
donor molecule, donor type, donor heavy atom, donor atom, acceptor molecule, acceptor atom, score
      L1  H     7    42       P1 10175  1.76
      L1  C     5    26       P1  7957  0.51

> <Gold.PLP.Chemscore.Internal.Correction>
0.0328

> <Gold.Rescore>
     Score         DG    S(hbond)    S(metal)    S(lipo)     H(rot)  DE(clash)    DE(int)     intcor
     14.45     -16.63       0.93        0.00     104.46       1.63       1.96       0.22       ----

> <Gold.Chemscore.Fitness>
14.4512

> <Gold.Chemscore.DG>
-16.6342

> <Gold.Chemscore.ZeroCoef>
-5.4800

> <Gold.Chemscore.Hbond>
0.9275

> <Gold.Chemscore.Metal>
0.0000

> <Gold.Chemscore.Lipo>
104.4632

> <Gold.Chemscore.Internal_Hbond>
0.0000

> <Gold.Chemscore.DEClash>
1.9589

> <Gold.Chemscore.DEInternal>
0.2241

> <Gold.Chemscore.Rot>
1.6273

> <Gold.Chemscore.Internal.Correction>
   9.000000E+99

> <Gold.Chemscore.Hbonds>
donor molecule, donor type, donor heavy atom, donor atom, acceptor molecule, acceptor atom, score
      L1  H     7    42       P1 10175  0.37

> <Gold.Chemscore.Hbond.Weighted>
-3.0978

> <Gold.Chemscore.Metal.Weighted>
-0.0000

> <Gold.Chemscore.Lipo.Weighted>
-12.2222

> <Gold.Chemscore.Internal_Hbond.Weighted>
0.0000

> <Gold.Chemscore.DEClash.Weighted>
1.9589

> <Gold.Chemscore.DEInternal.Weighted>
0.2241

> <Gold.Chemscore.Rot.Weighted>
4.1658

> <Gold.Chemscore.Internal.Correction.Weighted>
   9.000000E+99

> <Gold.Protein.RotatedTorsions>
[ 6907 6896 6895 6894 ] final   72.20 input  -60.11 | X-H torsion
[ 7974 7965 7964 7962 ] final  -31.89 input  175.53 | X-H torsion
[ 8008 7997 7996 7995 ] final   38.91 input   59.86 | X-H torsion
[ 10167 10162 10161 10158 ] final   78.41 input  -65.29 | X-H torsion
[ 10718 10713 10712 10709 ] final -166.58 input   66.30 | X-H torsion
[ 10763 10752 10751 10750 ] final   20.10 input  -60.55 | X-H torsion
[ 11005 11000 10999 10996 ] final -128.84 input  -57.11 | X-H torsion

> <Gold.Protein.ActiveResidues>
 VAL166  LYS551  ARG553  GLY616  TRP617  ASP618  TYR619  PRO620  LYS621  CYS622 
 ASP623  PHE694  ASN695  SER759  ASP760  ASP761  ALA762  ILE779  LEU786  VAL792 
 PHE793  MET794  SER795  GLU796  ALA797  LYS798  CYS799  TRP800  GLU811  SER814 

> <Gold.Protein.RotatedAtoms>
  152.4854  134.4607  159.9603 H   0  0  0  0  0  0  0  0  0  0  0  0  # atno 6907 bound_to 6896
  151.4604  133.3588  159.2816 H   0  0  0  0  0  0  0  0  0  0  0  0  # atno 6908 bound_to 6896
  150.8960  134.8393  159.7387 H   0  0  0  0  0  0  0  0  0  0  0  0  # atno 6909 bound_to 6896
  146.1032  140.5724  142.8811 H   0  0  0  0  0  0  0  0  0  0  0  0  # atno 7974 bound_to 7965
  155.2279  140.3336  155.4307 H   0  0  0  0  0  0  0  0  0  0  0  0  # atno 8008 bound_to 7997
  156.2307  140.1849  156.7296 H   0  0  0  0  0  0  0  0  0  0  0  0  # atno 8009 bound_to 7997
  154.5973  140.0628  156.9306 H   0  0  0  0  0  0  0  0  0  0  0  0  # atno 8010 bound_to 7997
  139.9712  144.5893  150.7984 H   0  0  0  0  0  0  0  0  0  0  0  0  # atno 10167 bound_to 10162
  156.6699  130.9080  151.3042 H   0  0  0  0  0  0  0  0  0  0  0  0  # atno 10718 bound_to 10713
  153.1106  135.6695  153.9508 H   0  0  0  0  0  0  0  0  0  0  0  0  # atno 10763 bound_to 10752
  153.9052  135.3031  155.3450 H   0  0  0  0  0  0  0  0  0  0  0  0  # atno 10764 bound_to 10752
  154.7525  135.5027  153.9392 H   0  0  0  0  0  0  0  0  0  0  0  0  # atno 10765 bound_to 10752
  140.9482  134.1101  157.4087 H   0  0  0  0  0  0  0  0  0  0  0  0  # atno 11005 bound_to 11000
  144.7449  140.5042  143.6842 LP  0  0  0  0  0  0  0  0  0  0  0  0  # atno 17320 bound_to 7965
  145.5813  139.1489  143.3234 LP  0  0  0  0  0  0  0  0  0  0  0  0  # atno 17321 bound_to 7965
  140.7521  143.2984  151.3143 LP  0  0  0  0  0  0  0  0  0  0  0  0  # atno 17342 bound_to 10162
  139.6480  144.0416  152.2605 LP  0  0  0  0  0  0  0  0  0  0  0  0  # atno 17343 bound_to 10162
  157.7081  130.9408  150.0996 LP  0  0  0  0  0  0  0  0  0  0  0  0  # atno 17370 bound_to 10713
  156.1947  130.3656  149.8865 LP  0  0  0  0  0  0  0  0  0  0  0  0  # atno 17371 bound_to 10713
  139.8839  135.0058  156.6336 LP  0  0  0  0  0  0  0  0  0  0  0  0  # atno 17394 bound_to 11000
  140.7640  133.8794  155.8440 LP  0  0  0  0  0  0  0  0  0  0  0  0  # atno 17395 bound_to 11000

$$$$
