AV-unprocessed.smi:2834|AV-procd|sdf|10917|dock8
  -GOLD-   2272015363D 1   1.00000     0.00000
 Structure written by MMmdl.
 35 36  0  0  0  0  0  0  0  0  1 V2000
  145.0465  135.6712  150.8924 C   0  0  0  0  0  0  0  0  0  0  0  0
  145.4630  134.2386  151.2911 C   0  0  2  0  0  0  0  0  0  0  0  0
  146.8084  134.2413  151.8773 N   0  0  0  0  0  0  0  0  0  0  0  0
  147.5114  133.1794  152.3041 C   0  0  0  0  0  0  0  0  0  0  0  0
  147.1078  132.0182  152.2403 O   0  0  0  0  0  0  0  0  0  0  0  0
  148.7009  133.5541  152.8025 N   0  0  0  0  0  0  0  0  0  0  0  0
  149.6971  132.7201  153.3701 C   0  0  0  0  0  0  0  0  0  0  0  0
  150.7141  133.1613  154.2559 C   0  0  0  0  0  0  0  0  0  0  0  0
  151.4954  132.1580  154.6261 N   0  0  0  0  0  0  0  0  0  0  0  0
  150.9957  131.0695  153.9897 N   0  0  0  0  0  0  0  0  0  0  0  0
  151.6215  129.7739  154.1820 C   0  0  0  0  0  0  0  0  0  0  0  0
  153.0753  129.7458  153.6823 C   0  0  0  0  0  0  0  0  0  0  0  0
  153.6717  128.6429  154.1338 F   0  0  0  0  0  0  0  0  0  0  0  0
  153.1146  129.7363  152.3498 F   0  0  0  0  0  0  0  0  0  0  0  0
  153.7440  130.8070  154.1342 F   0  0  0  0  0  0  0  0  0  0  0  0
  149.8968  131.3778  153.2127 C   0  0  0  0  0  0  0  0  0  0  0  0
  145.4445  133.3106  150.0673 C   0  0  0  0  0  0  0  0  0  0  0  0
  144.5294  132.1573  150.4684 C   0  0  0  0  0  0  0  0  0  0  0  0
  143.6373  132.7611  151.3858 O   0  0  0  0  0  0  0  0  0  0  0  0
  144.4294  133.5790  152.2301 C   0  0  0  0  0  0  0  0  0  0  0  0
  144.0644  135.6782  150.4183 H   0  0  0  0  0  0  0  0  0  0  0  0
  145.7564  136.1070  150.1888 H   0  0  0  0  0  0  0  0  0  0  0  0
  144.9885  136.3342  151.7557 H   0  0  0  0  0  0  0  0  0  0  0  0
  147.2416  135.1477  151.9749 H   0  0  0  0  0  0  0  0  0  0  0  0
  148.9104  134.5414  152.7875 H   0  0  0  0  0  0  0  0  0  0  0  0
  150.9069  134.1536  154.6365 H   0  0  0  0  0  0  0  0  0  0  0  0
  151.5846  129.5306  155.2446 H   0  0  0  0  0  0  0  0  0  0  0  0
  151.0293  129.0156  153.6673 H   0  0  0  0  0  0  0  0  0  0  0  0
  149.3728  130.6280  152.6385 H   0  0  0  0  0  0  0  0  0  0  0  0
  145.0180  133.8196  149.2018 H   0  0  0  0  0  0  0  0  0  0  0  0
  146.4318  132.9536  149.7702 H   0  0  0  0  0  0  0  0  0  0  0  0
  144.0026  131.7214  149.6190 H   0  0  0  0  0  0  0  0  0  0  0  0
  145.0923  131.3675  150.9689 H   0  0  0  0  0  0  0  0  0  0  0  0
  144.9084  132.9368  152.9717 H   0  0  0  0  0  0  0  0  0  0  0  0
  143.8154  134.3027  152.7673 H   0  0  0  0  0  0  0  0  0  0  0  0
  1  2  1  0  0  0  0
  1 21  1  0  0  0  0
  1 22  1  0  0  0  0
  1 23  1  0  0  0  0
  2 20  1  0  0  0  0
  2  3  1  0  0  0  0
  2 17  1  0  0  0  0
  3  4  1  0  0  0  0
  3 24  1  0  0  0  0
  4  5  2  0  0  0  0
  4  6  1  0  0  0  0
  6  7  1  0  0  0  0
  6 25  1  0  0  0  0
  7 16  2  0  0  0  0
  7  8  1  0  0  0  0
  8  9  2  0  0  0  0
  8 26  1  0  0  0  0
  9 10  1  0  0  0  0
 10 11  1  0  0  0  0
 10 16  1  0  0  0  0
 11 12  1  0  0  0  0
 11 27  1  0  0  0  0
 11 28  1  0  0  0  0
 12 13  1  0  0  0  0
 12 14  1  0  0  0  0
 12 15  1  0  0  0  0
 16 29  1  0  0  0  0
 17 18  1  0  0  0  0
 17 30  1  0  0  0  0
 17 31  1  0  0  0  0
 18 19  1  0  0  0  0
 18 32  1  0  0  0  0
 18 33  1  0  0  0  0
 19 20  1  0  0  0  0
 20 34  1  0  0  0  0
 20 35  1  0  0  0  0
M  END
> <s_m_source_file>
AV-unprocessed.smi

> <i_m_source_file_index>
2834

> <i_lp_mmshare_version>
43012

> <i_f3d_flags>
0

> <s_epik_input>
W0NIMl0xT1tDSDJdW0NIMl1bQ0BAXTEoW0NIM10pW05IXUMoPU8pW05IXWMyW2NIXW5uKFtjSF0yKVtDSDJdQyhGKShGKUY=

> <s_epik_cmdline>
J2VwaWtfcHl0aG9uJywgJy1waCcsICc3LjAnLCAnLXRuJywgJzgnLCAnLW1hJywgJzIwMCcsICctbWV0YWxfYmluZGluZycsICctaW1hZScsICc8aW5maWxlLm1hZT4nLCAnLW9tYWUnLCAnPG91dGZpbGUubWFlPic=

> <r_lp_tautomer_probability>
1

> <r_epik_Ionization_Penalty>
3.3002e-05

> <r_epik_Ionization_Penalty_Charging>
0

> <r_epik_Ionization_Penalty_Neutral>
3.3002e-05

> <r_epik_State_Penalty>
-0

> <r_epik_Charging_Adjusted_Penalty>
0

> <i_epik_Tot_Q>
0

> <i_epik_Tot_abs_Q>
0

> <r_epik_Metal_State_Penalty>
-0

> <b_epik_Metal_Only>
0

> <s_lp_Force_Field>
OPLS_2005

> <r_lp_Energy>
22.3443

> <b_lp_Chiralities_Consistent>
1

> <s_lp_Variant>
AV-unprocessed.smi:2834-2

> <Gold.Version>
5.8.1

> <Gold.Id.Protein>
6NUR|6NUR_protein|mol2

> <Gold.PLP.Fitness>
37.8526

> <Gold.PLP.PLP>
-32.3080

> <Gold.PLP.part.hbond>
-2.0000

> <Gold.PLP.part.metal>
0.0000

> <Gold.PLP.part.buried>
-4.1967

> <Gold.PLP.part.nonpolar>
-26.0986

> <Gold.PLP.part.repulsive>
0.3587

> <Gold.PLP.ligand.clash>
0.0000

> <Gold.PLP.ligand.torsion>
0.2436

> <Gold.PLP.Chemscore.Hbond>
2.0000

> <Gold.PLP.Chemscore.CHOScore>
0.0000

> <Gold.PLP.Chemscore.Metal>
0.0000

> <Gold.Chemscore.Hbonds>
donor molecule, donor type, donor heavy atom, donor atom, acceptor molecule, acceptor atom, score
      L1  H     3    24       P1  7948  0.91
      L1  H     6    25       P1  7948  0.45
      L1  C    16    29       P1 10747  0.53

> <Gold.PLP.Chemscore.Internal.Correction>
0.0317

> <Gold.Rescore>
     Score         DG    S(hbond)    S(metal)    S(lipo)     H(rot)  DE(clash)    DE(int)     intcor
     10.40     -13.97       1.65        0.00      54.92       1.34       0.02       3.56       ----

> <Gold.Chemscore.Fitness>
10.3973

> <Gold.Chemscore.DG>
-13.9702

> <Gold.Chemscore.ZeroCoef>
-5.4800

> <Gold.Chemscore.Hbond>
1.6466

> <Gold.Chemscore.Metal>
0.0000

> <Gold.Chemscore.Lipo>
54.9154

> <Gold.Chemscore.Internal_Hbond>
0.0000

> <Gold.Chemscore.DEClash>
0.0174

> <Gold.Chemscore.DEInternal>
3.5555

> <Gold.Chemscore.Rot>
1.3417

> <Gold.Chemscore.Internal.Correction>
   9.000000E+99

> <Gold.Chemscore.Hbonds>
donor molecule, donor type, donor heavy atom, donor atom, acceptor molecule, acceptor atom, score
      L1  H     3    24       P1  7948  0.84
      L1  H     6    25       P1  7948  0.01

> <Gold.Chemscore.Hbond.Weighted>
-5.4998

> <Gold.Chemscore.Metal.Weighted>
-0.0000

> <Gold.Chemscore.Lipo.Weighted>
-6.4251

> <Gold.Chemscore.Internal_Hbond.Weighted>
0.0000

> <Gold.Chemscore.DEClash.Weighted>
0.0174

> <Gold.Chemscore.DEInternal.Weighted>
3.5555

> <Gold.Chemscore.Rot.Weighted>
3.4347

> <Gold.Chemscore.Internal.Correction.Weighted>
   9.000000E+99

> <Gold.Protein.RotatedTorsions>
[ 6907 6896 6895 6894 ] final  -83.69 input  -60.11 | X-H torsion
[ 7974 7965 7964 7962 ] final   15.70 input  175.53 | X-H torsion
[ 8008 7997 7996 7995 ] final  161.64 input   59.86 | X-H torsion
[ 10167 10162 10161 10158 ] final  101.41 input  -65.29 | X-H torsion
[ 10718 10713 10712 10709 ] final   -9.74 input   66.30 | X-H torsion
[ 10763 10752 10751 10750 ] final -148.01 input  -60.55 | X-H torsion
[ 11005 11000 10999 10996 ] final -120.51 input  -57.11 | X-H torsion

> <Gold.Protein.ActiveResidues>
 VAL166  LYS551  ARG553  GLY616  TRP617  ASP618  TYR619  PRO620  LYS621  CYS622 
 ASP623  PHE694  ASN695  SER759  ASP760  ASP761  ALA762  ILE779  LEU786  VAL792 
 PHE793  MET794  SER795  GLU796  ALA797  LYS798  CYS799  TRP800  GLU811  SER814 

> <Gold.Protein.RotatedAtoms>
  150.6883  134.3473  159.4893 H   0  0  0  0  0  0  0  0  0  0  0  0  # atno 6907 bound_to 6896
  152.1319  134.9126  160.0567 H   0  0  0  0  0  0  0  0  0  0  0  0  # atno 6908 bound_to 6896
  152.0293  133.3896  159.4327 H   0  0  0  0  0  0  0  0  0  0  0  0  # atno 6909 bound_to 6896
  146.2271  139.8855  142.8563 H   0  0  0  0  0  0  0  0  0  0  0  0  # atno 7974 bound_to 7965
  156.2089  140.1772  156.7739 H   0  0  0  0  0  0  0  0  0  0  0  0  # atno 8008 bound_to 7997
  154.5694  140.0685  156.8971 H   0  0  0  0  0  0  0  0  0  0  0  0  # atno 8009 bound_to 7997
  155.2701  140.3342  155.4268 H   0  0  0  0  0  0  0  0  0  0  0  0  # atno 8010 bound_to 7997
  139.7441  144.7003  151.0531 H   0  0  0  0  0  0  0  0  0  0  0  0  # atno 10167 bound_to 10162
  156.6836  130.5044  149.5964 H   0  0  0  0  0  0  0  0  0  0  0  0  # atno 10718 bound_to 10713
  154.8255  135.3345  154.6908 H   0  0  0  0  0  0  0  0  0  0  0  0  # atno 10763 bound_to 10752
  153.7534  135.6937  153.4945 H   0  0  0  0  0  0  0  0  0  0  0  0  # atno 10764 bound_to 10752
  153.2160  135.4465  155.0385 H   0  0  0  0  0  0  0  0  0  0  0  0  # atno 10765 bound_to 10752
  141.0138  134.0225  157.3377 H   0  0  0  0  0  0  0  0  0  0  0  0  # atno 11005 bound_to 11000
  145.2470  141.0030  143.3903 LP  0  0  0  0  0  0  0  0  0  0  0  0  # atno 17320 bound_to 7965
  144.9406  139.4194  143.6451 LP  0  0  0  0  0  0  0  0  0  0  0  0  # atno 17321 bound_to 7965
  140.7790  143.4889  150.9920 LP  0  0  0  0  0  0  0  0  0  0  0  0  # atno 17342 bound_to 10162
  139.8577  143.7355  152.3175 LP  0  0  0  0  0  0  0  0  0  0  0  0  # atno 17343 bound_to 10162
  156.1849  130.6523  151.0995 LP  0  0  0  0  0  0  0  0  0  0  0  0  # atno 17370 bound_to 10713
  157.7034  131.0766  150.6745 LP  0  0  0  0  0  0  0  0  0  0  0  0  # atno 17371 bound_to 10713
  139.9105  135.0189  156.7671 LP  0  0  0  0  0  0  0  0  0  0  0  0  # atno 17394 bound_to 11000
  140.6689  133.9578  155.7845 LP  0  0  0  0  0  0  0  0  0  0  0  0  # atno 17395 bound_to 11000

$$$$
