AV-unprocessed.smi:196|AV-procd|sdf|1531|dock7
  -GOLD-   2262019383D 1   1.00000     0.00000
 Structure written by MMmdl.
 47 50  0  0  0  0  0  0  0  0  1 V2000
  148.8970  139.0431  154.1671 C   0  0  0  0  0  0  0  0  0  0  0  0
  150.3209  138.4664  154.1223 C   0  0  1  0  0  0  0  0  0  0  0  0
  151.2239  139.5324  154.4077 O   0  0  0  0  0  0  0  0  0  0  0  0
  152.3537  139.0144  155.0875 C   0  0  0  0  0  0  0  0  0  0  0  0
  151.7338  137.9817  156.0160 C   0  0  0  0  0  0  0  0  0  0  0  0
  150.6542  137.3445  155.1461 C   0  0  2  0  0  0  0  0  0  0  0  0
  151.2492  136.2746  154.4299 O   0  0  0  0  0  0  0  0  0  0  0  0
  149.4613  136.7702  155.9550 C   0  0  0  0  0  0  0  0  0  0  0  0
  148.4209  136.1906  155.1184 N   0  0  0  0  0  0  0  0  0  0  0  0
  147.1624  136.7017  154.8981 C   0  0  0  0  0  0  0  0  0  0  0  0
  146.4083  135.9977  154.0992 N   0  0  0  0  0  0  0  0  0  0  0  0
  147.1994  134.9079  153.7524 C   0  0  0  0  0  0  0  0  0  0  0  0
  147.0099  133.7645  152.9222 C   0  0  0  0  0  0  0  0  0  0  0  0
  145.8563  133.5142  152.2443 N   0  0  0  0  0  0  0  0  0  0  0  0
  145.2403  132.1973  152.3712 C   0  0  0  0  0  0  0  0  0  0  0  0
  144.6763  131.8671  150.9900 C   0  0  2  0  0  0  0  0  0  0  0  0
  145.5996  131.2208  150.2764 F   0  0  0  0  0  0  0  0  0  0  0  0
  144.4270  133.2405  150.3773 C   0  0  0  0  0  0  0  0  0  0  0  0
  145.5732  134.1050  150.9283 C   0  0  1  0  0  0  0  0  0  0  0  0
  145.1743  135.5939  150.9549 C   0  0  0  0  0  0  0  0  0  0  0  0
  145.0171  136.2409  149.7952 N   0  0  0  0  0  0  0  0  0  0  0  0
  145.0046  136.1582  152.0333 O   0  0  0  0  0  0  0  0  0  0  0  0
  148.0556  132.9035  152.8056 N   0  0  0  0  0  0  0  0  0  0  0  0
  149.1975  133.1275  153.4614 C   0  0  0  0  0  0  0  0  0  0  0  0
  149.5082  134.1401  154.2717 N   0  0  0  0  0  0  0  0  0  0  0  0
  148.4710  135.0178  154.3850 C   0  0  0  0  0  0  0  0  0  0  0  0
  143.7868  131.2376  151.0249 H   0  0  0  0  0  0  0  0  0  0  0  0
  146.4435  133.9818  150.2813 H   0  0  0  0  0  0  0  0  0  0  0  0
  148.1506  138.2806  153.9439 H   0  0  0  0  0  0  0  0  0  0  0  0
  148.7813  139.8366  153.4287 H   0  0  0  0  0  0  0  0  0  0  0  0
  148.6688  139.4714  155.1434 H   0  0  0  0  0  0  0  0  0  0  0  0
  150.5206  138.1258  153.1044 H   0  0  0  0  0  0  0  0  0  0  0  0
  153.0338  138.5469  154.3739 H   0  0  0  0  0  0  0  0  0  0  0  0
  152.8944  139.7949  155.6230 H   0  0  0  0  0  0  0  0  0  0  0  0
  152.4579  137.2705  156.4160 H   0  0  0  0  0  0  0  0  0  0  0  0
  151.2779  138.5014  156.8593 H   0  0  0  0  0  0  0  0  0  0  0  0
  150.9977  136.3466  153.5219 H   0  0  0  0  0  0  0  0  0  0  0  0
  149.8018  135.9961  156.6428 H   0  0  0  0  0  0  0  0  0  0  0  0
  149.0070  137.5499  156.5680 H   0  0  0  0  0  0  0  0  0  0  0  0
  146.8225  137.6245  155.3457 H   0  0  0  0  0  0  0  0  0  0  0  0
  145.9367  131.4256  152.7036 H   0  0  0  0  0  0  0  0  0  0  0  0
  144.4358  132.2644  153.1044 H   0  0  0  0  0  0  0  0  0  0  0  0
  144.4046  133.2157  149.2872 H   0  0  0  0  0  0  0  0  0  0  0  0
  143.4601  133.6138  150.7200 H   0  0  0  0  0  0  0  0  0  0  0  0
  144.7590  137.2171  149.7956 H   0  0  0  0  0  0  0  0  0  0  0  0
  145.1602  135.7510  148.9243 H   0  0  0  0  0  0  0  0  0  0  0  0
  149.9728  132.3900  153.3155 H   0  0  0  0  0  0  0  0  0  0  0  0
  1  2  1  0  0  0  0
  1 29  1  0  0  0  0
  1 30  1  0  0  0  0
  1 31  1  0  0  0  0
  2  6  1  0  0  0  0
  2  3  1  0  0  0  0
  2 32  1  0  0  0  0
  3  4  1  0  0  0  0
  4  5  1  0  0  0  0
  4 33  1  0  0  0  0
  4 34  1  0  0  0  0
  5  6  1  0  0  0  0
  5 35  1  0  0  0  0
  5 36  1  0  0  0  0
  6  7  1  0  0  0  0
  6  8  1  0  0  0  0
  7 37  1  0  0  0  0
  8  9  1  0  0  0  0
  8 38  1  0  0  0  0
  8 39  1  0  0  0  0
  9 26  1  0  0  0  0
  9 10  1  0  0  0  0
 10 11  2  0  0  0  0
 10 40  1  0  0  0  0
 11 12  1  0  0  0  0
 12 26  2  0  0  0  0
 12 13  1  0  0  0  0
 13 14  1  0  0  0  0
 13 23  2  0  0  0  0
 14 19  1  0  0  0  0
 14 15  1  0  0  0  0
 15 16  1  0  0  0  0
 15 41  1  0  0  0  0
 15 42  1  0  0  0  0
 16 27  1  0  0  0  0
 16 17  1  0  0  0  0
 16 18  1  0  0  0  0
 18 19  1  0  0  0  0
 18 43  1  0  0  0  0
 18 44  1  0  0  0  0
 19 28  1  0  0  0  0
 19 20  1  0  0  0  0
 20 21  1  0  0  0  0
 20 22  2  0  0  0  0
 21 45  1  0  0  0  0
 21 46  1  0  0  0  0
 23 24  1  0  0  0  0
 24 25  2  0  0  0  0
 24 47  1  0  0  0  0
 25 26  1  0  0  0  0
M  END
> <s_m_source_file>
AV-unprocessed.smi

> <i_m_source_file_index>
196

> <i_lp_mmshare_version>
43012

> <i_f3d_flags>
0

> <s_epik_input>
W0NIMl0xW0NIMl1PW0NAQEhdKFtDSDNdKVtDQEBdMShbT0hdKVtDSDJdbihbY0hdbjIpYyhjMjMpbltjSF1uYzNONFtDSDJdW0NASF0oRilbQ0gyXVtDQEhdNEMoPU8pW05IMl0=

> <s_epik_cmdline>
J2VwaWtfcHl0aG9uJywgJy1waCcsICc3LjAnLCAnLXRuJywgJzgnLCAnLW1hJywgJzIwMCcsICctbWV0YWxfYmluZGluZycsICctaW1hZScsICc8aW5maWxlLm1hZT4nLCAnLW9tYWUnLCAnPG91dGZpbGUubWFlPic=

> <r_lp_tautomer_probability>
1

> <r_epik_Ionization_Penalty>
0.000857933

> <r_epik_Ionization_Penalty_Charging>
0

> <r_epik_Ionization_Penalty_Neutral>
0.000857933

> <r_epik_State_Penalty>
0.000462053

> <r_epik_Charging_Adjusted_Penalty>
0.000462053

> <i_epik_Tot_Q>
0

> <i_epik_Tot_abs_Q>
0

> <r_epik_Metal_State_Penalty>
-0

> <b_epik_Metal_Only>
0

> <s_lp_Force_Field>
OPLS_2005

> <r_lp_Energy>
43.6884

> <b_lp_Chiralities_Consistent>
1

> <s_lp_Variant>
AV-unprocessed.smi:196-4

> <Gold.Version>
5.8.1

> <Gold.Id.Protein>
6NUR|6NUR_protein|mol2

> <Gold.PLP.Fitness>
50.2422

> <Gold.PLP.PLP>
-37.8318

> <Gold.PLP.part.hbond>
-5.0000

> <Gold.PLP.part.metal>
0.0000

> <Gold.PLP.part.buried>
-2.4579

> <Gold.PLP.part.nonpolar>
-30.5312

> <Gold.PLP.part.repulsive>
0.8764

> <Gold.PLP.ligand.clash>
0.0000

> <Gold.PLP.ligand.torsion>
1.4167

> <Gold.PLP.Chemscore.Hbond>
4.9913

> <Gold.PLP.Chemscore.CHOScore>
0.0000

> <Gold.PLP.Chemscore.Metal>
0.0000

> <Gold.Chemscore.Hbonds>
donor molecule, donor type, donor heavy atom, donor atom, acceptor molecule, acceptor atom, score
      L1  H     7    37       P1  7949  0.86
      L1  H    21    45       P1 10171  1.00
      L1  H    21    46       P1  7921  1.00
      P1  H  7989  7998       L1     3  1.00
      P1  H 10752 10764       L1     7  1.00

> <Gold.PLP.Chemscore.Internal.Correction>
0.2699

> <Gold.Rescore>
     Score         DG    S(hbond)    S(metal)    S(lipo)     H(rot)  DE(clash)    DE(int)     intcor
     12.79     -19.21       3.92        0.00      62.17       2.60       0.54       5.89       ----

> <Gold.Chemscore.Fitness>
12.7855

> <Gold.Chemscore.DG>
-19.2123

> <Gold.Chemscore.ZeroCoef>
-5.4800

> <Gold.Chemscore.Hbond>
3.9238

> <Gold.Chemscore.Metal>
0.0000

> <Gold.Chemscore.Lipo>
62.1745

> <Gold.Chemscore.Internal_Hbond>
0.0000

> <Gold.Chemscore.DEClash>
0.5371

> <Gold.Chemscore.DEInternal>
5.8897

> <Gold.Chemscore.Rot>
2.5968

> <Gold.Chemscore.Internal.Correction>
   9.000000E+99

> <Gold.Chemscore.Hbonds>
donor molecule, donor type, donor heavy atom, donor atom, acceptor molecule, acceptor atom, score
      L1  H     7    37       P1  7949  0.18
      L1  H    21    45       P1 10171  0.99
      L1  H    21    46       P1  7921  0.98
      P1  H  7989  7998       L1     3  0.78
      P1  H 10752 10764       L1     7  0.65

> <Gold.Chemscore.Hbond.Weighted>
-13.1056

> <Gold.Chemscore.Metal.Weighted>
-0.0000

> <Gold.Chemscore.Lipo.Weighted>
-7.2744

> <Gold.Chemscore.Internal_Hbond.Weighted>
0.0000

> <Gold.Chemscore.DEClash.Weighted>
0.5371

> <Gold.Chemscore.DEInternal.Weighted>
5.8897

> <Gold.Chemscore.Rot.Weighted>
6.6477

> <Gold.Chemscore.Internal.Correction.Weighted>
   9.000000E+99

> <Gold.Protein.RotatedTorsions>
[ 6907 6896 6895 6894 ] final  129.93 input  -60.11 | X-H torsion
[ 7974 7965 7964 7962 ] final    0.70 input  175.53 | X-H torsion
[ 8008 7997 7996 7995 ] final  -42.49 input   59.86 | X-H torsion
[ 10167 10162 10161 10158 ] final  -33.61 input  -65.29 | X-H torsion
[ 10718 10713 10712 10709 ] final -152.99 input   66.30 | X-H torsion
[ 10763 10752 10751 10750 ] final  -64.86 input  -60.55 | X-H torsion
[ 11005 11000 10999 10996 ] final  -70.88 input  -57.11 | X-H torsion

> <Gold.Protein.ActiveResidues>
 VAL166  LYS551  ARG553  GLY616  TRP617  ASP618  TYR619  PRO620  LYS621  CYS622 
 ASP623  PHE694  ASN695  SER759  ASP760  ASP761  ALA762  ILE779  LEU786  VAL792 
 PHE793  MET794  SER795  GLU796  ALA797  LYS798  CYS799  TRP800  GLU811  SER814 

> <Gold.Protein.RotatedAtoms>
  152.3576  133.6257  159.5990 H   0  0  0  0  0  0  0  0  0  0  0  0  # atno 6907 bound_to 6896
  150.7579  133.9475  159.3484 H   0  0  0  0  0  0  0  0  0  0  0  0  # atno 6908 bound_to 6896
  151.7317  135.0874  160.0352 H   0  0  0  0  0  0  0  0  0  0  0  0  # atno 6909 bound_to 6896
  146.2436  140.1098  142.8344 H   0  0  0  0  0  0  0  0  0  0  0  0  # atno 7974 bound_to 7965
  154.3999  140.1472  156.3363 H   0  0  0  0  0  0  0  0  0  0  0  0  # atno 8008 bound_to 7997
  155.8397  140.3462  155.5603 H   0  0  0  0  0  0  0  0  0  0  0  0  # atno 8009 bound_to 7997
  155.8100  140.0882  157.1900 H   0  0  0  0  0  0  0  0  0  0  0  0  # atno 8010 bound_to 7997
  140.7201  143.3607  151.1968 H   0  0  0  0  0  0  0  0  0  0  0  0  # atno 10167 bound_to 10162
  156.4798  130.8298  151.2525 H   0  0  0  0  0  0  0  0  0  0  0  0  # atno 10718 bound_to 10713
  154.3364  135.6166  153.5575 H   0  0  0  0  0  0  0  0  0  0  0  0  # atno 10763 bound_to 10752
  152.9807  135.5759  154.4903 H   0  0  0  0  0  0  0  0  0  0  0  0  # atno 10764 bound_to 10752
  154.4599  135.2855  155.1697 H   0  0  0  0  0  0  0  0  0  0  0  0  # atno 10765 bound_to 10752
  141.1582  133.6802  156.6820 H   0  0  0  0  0  0  0  0  0  0  0  0  # atno 11005 bound_to 11000
  145.0497  140.9008  143.5003 LP  0  0  0  0  0  0  0  0  0  0  0  0  # atno 17320 bound_to 7965
  145.1194  139.2704  143.5596 LP  0  0  0  0  0  0  0  0  0  0  0  0  # atno 17321 bound_to 7965
  139.7159  143.9301  152.2966 LP  0  0  0  0  0  0  0  0  0  0  0  0  # atno 17342 bound_to 10162
  139.9042  144.6894  150.8632 LP  0  0  0  0  0  0  0  0  0  0  0  0  # atno 17343 bound_to 10162
  157.7484  131.0049  150.3092 LP  0  0  0  0  0  0  0  0  0  0  0  0  # atno 17370 bound_to 10713
  156.3533  130.3834  149.7311 LP  0  0  0  0  0  0  0  0  0  0  0  0  # atno 17371 bound_to 10713
  140.3095  134.8097  157.4165 LP  0  0  0  0  0  0  0  0  0  0  0  0  # atno 17394 bound_to 11000
  140.1191  134.5244  155.8199 LP  0  0  0  0  0  0  0  0  0  0  0  0  # atno 17395 bound_to 11000

$$$$
