AV-unprocessed.smi:3028|AV-procd|sdf|11518|dock10
  -GOLD-   2272016453D 1   1.00000     0.00000
 Structure written by MMmdl.
 48 49  0  0  0  0  0  0  0  0  2 V2000
  151.6042  142.1080  158.1750 C   0  0  0  0  0  0  0  0  0  0  0  0
  150.6990  141.3530  157.2452 C   0  0  0  0  0  0  0  0  0  0  0  0
  149.2935  141.1577  157.3582 C   0  0  0  0  0  0  0  0  0  0  0  0
  148.7938  140.4433  156.3636 N   0  0  0  0  0  0  0  0  0  0  0  0
  149.8577  140.1560  155.5810 N   0  0  0  0  0  0  0  0  0  0  0  0
  149.6848  139.3794  154.3583 C   0  0  1  0  0  0  0  0  0  0  0  0
  150.5942  138.1364  154.3967 C   0  0  0  0  0  0  0  0  0  0  0  0
  148.1902  139.0398  154.1102 C   0  0  2  0  0  0  0  0  0  0  0  0
  147.6532  137.9626  155.0670 C   0  0  0  0  0  0  0  0  0  0  0  0
  147.9947  138.5751  152.7173 N   0  3  0  0  0  0  0  0  0  0  0  0
  146.6216  138.7320  152.1927 C   0  0  0  0  0  0  0  0  0  0  0  0
  145.7997  137.4430  152.3195 C   0  0  0  0  0  0  0  0  0  0  0  0
  144.7018  137.4664  152.8736 O   0  0  0  0  0  0  0  0  0  0  0  0
  146.2923  136.2962  151.8219 N   0  0  0  0  0  0  0  0  0  0  0  0
  145.6802  134.9679  151.8355 C   0  0  0  0  0  0  0  0  0  0  0  0
  146.6206  133.9511  151.1711 C   0  0  0  0  0  0  0  0  0  0  0  0
  145.9237  132.5897  151.0130 C   0  0  0  0  0  0  0  0  0  0  0  0
  144.7174  132.7429  150.2729 O   0  0  0  0  0  0  0  0  0  0  0  0
  143.7703  133.5838  150.9230 C   0  0  0  0  0  0  0  0  0  0  0  0
  144.3442  135.0018  151.0779 C   0  0  0  0  0  0  0  0  0  0  0  0
  151.0211  140.6897  156.0954 C   0  0  0  0  0  0  0  0  0  0  0  0
  151.0499  142.5849  158.9837 H   0  0  0  0  0  0  0  0  0  0  0  0
  152.1507  142.8941  157.6537 H   0  0  0  0  0  0  0  0  0  0  0  0
  152.3435  141.4528  158.6356 H   0  0  0  0  0  0  0  0  0  0  0  0
  148.6249  141.5139  158.1280 H   0  0  0  0  0  0  0  0  0  0  0  0
  150.0288  140.0076  153.5350 H   0  0  0  0  0  0  0  0  0  0  0  0
  150.6218  137.6266  153.4341 H   0  0  0  0  0  0  0  0  0  0  0  0
  150.2596  137.4182  155.1460 H   0  0  0  0  0  0  0  0  0  0  0  0
  151.6211  138.4125  154.6386 H   0  0  0  0  0  0  0  0  0  0  0  0
  147.5982  139.9426  154.2716 H   0  0  0  0  0  0  0  0  0  0  0  0
  147.6661  138.2999  156.1031 H   0  0  0  0  0  0  0  0  0  0  0  0
  148.2398  137.0453  155.0051 H   0  0  0  0  0  0  0  0  0  0  0  0
  146.6188  137.7120  154.8294 H   0  0  0  0  0  0  0  0  0  0  0  0
  148.6175  139.0986  152.1186 H   0  0  0  0  0  0  0  0  0  0  0  0
  146.1227  139.5365  152.7347 H   0  0  0  0  0  0  0  0  0  0  0  0
  146.6731  139.0154  151.1413 H   0  0  0  0  0  0  0  0  0  0  0  0
  147.1987  136.3516  151.3794 H   0  0  0  0  0  0  0  0  0  0  0  0
  145.4808  134.6241  152.8499 H   0  0  0  0  0  0  0  0  0  0  0  0
  146.9250  134.3120  150.1875 H   0  0  0  0  0  0  0  0  0  0  0  0
  147.5323  133.8382  151.7591 H   0  0  0  0  0  0  0  0  0  0  0  0
  146.5756  131.8951  150.4832 H   0  0  0  0  0  0  0  0  0  0  0  0
  145.7112  132.1461  151.9870 H   0  0  0  0  0  0  0  0  0  0  0  0
  142.8585  133.6124  150.3264 H   0  0  0  0  0  0  0  0  0  0  0  0
  143.5021  133.1647  151.8939 H   0  0  0  0  0  0  0  0  0  0  0  0
  143.6290  135.6394  151.5990 H   0  0  0  0  0  0  0  0  0  0  0  0
  144.4879  135.4377  150.0879 H   0  0  0  0  0  0  0  0  0  0  0  0
  151.9740  140.5592  155.6037 H   0  0  0  0  0  0  0  0  0  0  0  0
  148.2476  137.5990  152.6606 H   0  0  0  0  0  0  0  0  0  0  0  0
  1  2  1  0  0  0  0
  1 22  1  0  0  0  0
  1 23  1  0  0  0  0
  1 24  1  0  0  0  0
  2 21  2  0  0  0  0
  2  3  1  0  0  0  0
  3  4  2  0  0  0  0
  3 25  1  0  0  0  0
  4  5  1  0  0  0  0
  5  6  1  0  0  0  0
  5 21  1  0  0  0  0
  6  7  1  0  0  0  0
  6  8  1  0  0  0  0
  6 26  1  0  0  0  0
  7 27  1  0  0  0  0
  7 28  1  0  0  0  0
  7 29  1  0  0  0  0
  8  9  1  0  0  0  0
  8 10  1  0  0  0  0
  8 30  1  0  0  0  0
  9 31  1  0  0  0  0
  9 32  1  0  0  0  0
  9 33  1  0  0  0  0
 10 11  1  0  0  0  0
 10 34  1  0  0  0  0
 10 48  1  0  0  0  0
 11 12  1  0  0  0  0
 11 35  1  0  0  0  0
 11 36  1  0  0  0  0
 12 13  2  0  0  0  0
 12 14  1  0  0  0  0
 14 15  1  0  0  0  0
 14 37  1  0  0  0  0
 15 20  1  0  0  0  0
 15 16  1  0  0  0  0
 15 38  1  0  0  0  0
 16 17  1  0  0  0  0
 16 39  1  0  0  0  0
 16 40  1  0  0  0  0
 17 18  1  0  0  0  0
 17 41  1  0  0  0  0
 17 42  1  0  0  0  0
 18 19  1  0  0  0  0
 19 20  1  0  0  0  0
 19 43  1  0  0  0  0
 19 44  1  0  0  0  0
 20 45  1  0  0  0  0
 20 46  1  0  0  0  0
 21 47  1  0  0  0  0
M  CHG  1  10   1
M  END
> <s_m_source_file>
AV-unprocessed.smi

> <i_m_source_file_index>
3028

> <i_lp_mmshare_version>
43012

> <i_f3d_flags>
0

> <s_epik_input>
W0NIM11jMVtjSF1ubihbY0hdMSlbQ0BIXShbQ0gzXSlbQ0BIXShbQ0gzXSlbTkhdW0NIMl1DKD1PKVtOSF1bQ0hdMltDSDJdW0NIMl1PW0NIMl1bQ0gyXTI=

> <s_epik_cmdline>
J2VwaWtfcHl0aG9uJywgJy1waCcsICc3LjAnLCAnLXRuJywgJzgnLCAnLW1hJywgJzIwMCcsICctbWV0YWxfYmluZGluZycsICctaW1hZScsICc8aW5maWxlLm1hZT4nLCAnLW9tYWUnLCAnPG91dGZpbGUubWFlPic=

> <r_lp_tautomer_probability>
1

> <r_epik_Ionization_Penalty>
0.151514

> <r_epik_Ionization_Penalty_Charging>
0.151494

> <r_epik_Ionization_Penalty_Neutral>
1.95502e-05

> <r_epik_State_Penalty>
0.141395

> <r_epik_Charging_Adjusted_Penalty>
0.292889

> <i_epik_Tot_Q>
1

> <i_epik_Tot_abs_Q>
1

> <r_epik_Metal_State_Penalty>
0.141632

> <b_epik_Metal_Only>
0

> <s_lp_Force_Field>
OPLS_2005

> <r_lp_Energy>
16.7547

> <b_lp_Chiralities_Consistent>
1

> <s_lp_Variant>
AV-unprocessed.smi:3028-2

> <Gold.Version>
5.8.1

> <Gold.Id.Protein>
6NUR|6NUR_protein|mol2

> <Gold.PLP.Fitness>
49.3371

> <Gold.PLP.PLP>
-39.0724

> <Gold.PLP.part.hbond>
-2.9327

> <Gold.PLP.part.metal>
0.0000

> <Gold.PLP.part.buried>
-4.4831

> <Gold.PLP.part.nonpolar>
-32.2301

> <Gold.PLP.part.repulsive>
0.5405

> <Gold.PLP.ligand.clash>
0.0000

> <Gold.PLP.ligand.torsion>
0.6689

> <Gold.PLP.Chemscore.Hbond>
3.8230

> <Gold.PLP.Chemscore.CHOScore>
0.0000

> <Gold.PLP.Chemscore.Metal>
0.0000

> <Gold.Chemscore.Hbonds>
donor molecule, donor type, donor heavy atom, donor atom, acceptor molecule, acceptor atom, score
      L1  H    10    34       P1  7957  1.00
      L1  H    10    48       P1  7948  2.00
      L1  H    14    37       P1  7948  0.80

> <Gold.PLP.Chemscore.Internal.Correction>
0.1336

> <Gold.Rescore>
     Score         DG    S(hbond)    S(metal)    S(lipo)     H(rot)  DE(clash)    DE(int)     intcor
     17.29     -19.42       2.82        0.00      82.25       1.99       0.18       1.96       ----

> <Gold.Chemscore.Fitness>
17.2866

> <Gold.Chemscore.DG>
-19.4236

> <Gold.Chemscore.ZeroCoef>
-5.4800

> <Gold.Chemscore.Hbond>
2.8184

> <Gold.Chemscore.Metal>
0.0000

> <Gold.Chemscore.Lipo>
82.2529

> <Gold.Chemscore.Internal_Hbond>
0.0000

> <Gold.Chemscore.DEClash>
0.1779

> <Gold.Chemscore.DEInternal>
1.9591

> <Gold.Chemscore.Rot>
1.9897

> <Gold.Chemscore.Internal.Correction>
   9.000000E+99

> <Gold.Chemscore.Hbonds>
donor molecule, donor type, donor heavy atom, donor atom, acceptor molecule, acceptor atom, score
      L1  H    10    34       P1  7957  0.99
      L1  H    10    48       P1  7948  0.96
      L1  H    14    37       P1  7948  0.80

> <Gold.Chemscore.Hbond.Weighted>
-9.4136

> <Gold.Chemscore.Metal.Weighted>
-0.0000

> <Gold.Chemscore.Lipo.Weighted>
-9.6236

> <Gold.Chemscore.Internal_Hbond.Weighted>
0.0000

> <Gold.Chemscore.DEClash.Weighted>
0.1779

> <Gold.Chemscore.DEInternal.Weighted>
1.9591

> <Gold.Chemscore.Rot.Weighted>
5.0936

> <Gold.Chemscore.Internal.Correction.Weighted>
   9.000000E+99

> <Gold.Protein.RotatedTorsions>
[ 6907 6896 6895 6894 ] final  -34.27 input  -60.11 | X-H torsion
[ 7974 7965 7964 7962 ] final  -95.69 input  175.53 | X-H torsion
[ 8008 7997 7996 7995 ] final  173.75 input   59.86 | X-H torsion
[ 10167 10162 10161 10158 ] final -165.78 input  -65.29 | X-H torsion
[ 10718 10713 10712 10709 ] final   95.67 input   66.30 | X-H torsion
[ 10763 10752 10751 10750 ] final  -30.24 input  -60.55 | X-H torsion
[ 11005 11000 10999 10996 ] final -137.83 input  -57.11 | X-H torsion

> <Gold.Protein.ActiveResidues>
 VAL166  LYS551  ARG553  GLY616  TRP617  ASP618  TYR619  PRO620  LYS621  CYS622 
 ASP623  PHE694  ASN695  SER759  ASP760  ASP761  ALA762  ILE779  LEU786  VAL792 
 PHE793  MET794  SER795  GLU796  ALA797  LYS798  CYS799  TRP800  GLU811  SER814 

> <Gold.Protein.RotatedAtoms>
  151.0548  134.9697  159.8229 H   0  0  0  0  0  0  0  0  0  0  0  0  # atno 6907 bound_to 6896
  152.5386  134.2491  159.8902 H   0  0  0  0  0  0  0  0  0  0  0  0  # atno 6908 bound_to 6896
  151.2509  133.4308  159.2645 H   0  0  0  0  0  0  0  0  0  0  0  0  # atno 6909 bound_to 6896
  145.3567  140.9485  143.2524 H   0  0  0  0  0  0  0  0  0  0  0  0  # atno 7974 bound_to 7965
  156.1043  140.1452  156.9425 H   0  0  0  0  0  0  0  0  0  0  0  0  # atno 8008 bound_to 7997
  154.4723  140.0905  156.7221 H   0  0  0  0  0  0  0  0  0  0  0  0  # atno 8009 bound_to 7997
  155.4705  140.3441  155.4327 H   0  0  0  0  0  0  0  0  0  0  0  0  # atno 8010 bound_to 7997
  139.6159  144.0721  152.1887 H   0  0  0  0  0  0  0  0  0  0  0  0  # atno 10167 bound_to 10162
  157.6936  131.0553  150.4374 H   0  0  0  0  0  0  0  0  0  0  0  0  # atno 10718 bound_to 10713
  153.7777  135.6907  153.4894 H   0  0  0  0  0  0  0  0  0  0  0  0  # atno 10763 bound_to 10752
  153.1832  135.4498  155.0054 H   0  0  0  0  0  0  0  0  0  0  0  0  # atno 10764 bound_to 10752
  154.8094  135.3371  154.7282 H   0  0  0  0  0  0  0  0  0  0  0  0  # atno 10765 bound_to 10752
  140.8673  134.2094  157.4672 H   0  0  0  0  0  0  0  0  0  0  0  0  # atno 11005 bound_to 11000
  144.8677  139.5083  143.6782 LP  0  0  0  0  0  0  0  0  0  0  0  0  # atno 17320 bound_to 7965
  146.2945  139.7236  142.9137 LP  0  0  0  0  0  0  0  0  0  0  0  0  # atno 17321 bound_to 7965
  140.0351  144.6051  150.7456 LP  0  0  0  0  0  0  0  0  0  0  0  0  # atno 17342 bound_to 10162
  140.7350  143.2736  151.3811 LP  0  0  0  0  0  0  0  0  0  0  0  0  # atno 17343 bound_to 10162
  156.4736  130.4058  149.6503 LP  0  0  0  0  0  0  0  0  0  0  0  0  # atno 17370 bound_to 10713
  156.3575  130.7464  151.2432 LP  0  0  0  0  0  0  0  0  0  0  0  0  # atno 17371 bound_to 10713
  139.8710  134.9758  156.4896 LP  0  0  0  0  0  0  0  0  0  0  0  0  # atno 17394 bound_to 11000
  140.8614  133.8057  155.9269 LP  0  0  0  0  0  0  0  0  0  0  0  0  # atno 17395 bound_to 11000

$$$$
