#       Name:                AV-unprocessed.smi:1201
#       Creating user name   scv26
#       Creation time:       Fri Mar 27 04:05:00 2020


#       File generated by GOLD software.
#

@<TRIPOS>MOLECULE
AV-unprocessed.smi:1201
    36    37     1
SMALL
NO_CHARGES


@<TRIPOS>ATOM
      1 ****        -5.8424   2.6558  -0.0423 C.3            1 S1                 0.0000
      2 ****        -5.3017   1.3398  -0.0010 O.3            1 S1                 0.0000
      3 ****        -3.9304   1.1931  -0.0437 C.ar           1 S1                 0.0000
      4 ****        -3.3896  -0.1069   0.0069 C.ar           1 S1                 0.0000
      5 ****        -1.9913  -0.2663  -0.0352 C.ar           1 S1                 0.0000
      6 ****        -1.1740   0.8854  -0.1347 C.ar           1 S1                 0.0000
      7 ****         0.2473   0.8672  -0.1694 N.am           1 S1                 0.0000
      8 ****         1.0736  -0.1605  -0.4300 C.2            1 S1                 0.0000
      9 ****         0.7233  -1.3051  -0.7158 O.2            1 S1                 0.0000
     10 ****         2.3559   0.2219  -0.3559 N.am           1 S1                 0.0000
     11 ****         3.5010  -0.6517  -0.5755 C.3            1 S1                 0.0000
     12 ****         3.8638  -1.5347   0.6030 C.3            1 S1                 0.0000
     13 ****         4.8280  -2.6841   0.4249 C.3            1 S1                 0.0000
     14 ****         3.3693  -2.9599   0.6973 C.3            1 S1                 0.0000
     15 ****        -1.8144   2.1414  -0.1685 C.ar           1 S1                 0.0000
     16 ****        -3.1538   2.3014  -0.1282 N.ar           1 S1                 0.0000
     17 ****        -6.9303   2.6001  -0.0072 H              1 S1                 0.0000
     18 ****        -5.5679   3.1719  -0.9634 H              1 S1                 0.0000
     19 ****        -5.5138   3.2484   0.8126 H              1 S1                 0.0000
     20 ****        -4.0365  -0.9685   0.0816 H              1 S1                 0.0000
     21 ****        -1.5825  -1.2625   0.0223 H              1 S1                 0.0000
     22 ****         0.6915   1.7607  -0.0165 H              1 S1                 0.0000
     23 ****         2.5548   1.1836  -0.1221 H              1 S1                 0.0000
     24 ****         3.3389  -1.2679  -1.4618 H              1 S1                 0.0000
     25 ****         4.3588  -0.0175  -0.7990 H              1 S1                 0.0000
     26 ****         3.9536  -0.9934   1.5431 H              1 S1                 0.0000
     27 ****         5.1966  -2.8883  -0.5785 H              1 S1                 0.0000
     28 ****         5.5355  -2.8748   1.2293 H              1 S1                 0.0000
     29 ****         3.1023  -3.3330   1.6838 H              1 S1                 0.0000
     30 ****         2.7688  -3.3451  -0.1245 H              1 S1                 0.0000
     31 ****        -1.2341   3.0504  -0.2331 H              1 S1                 0.0000
     32 ****        -5.6770   0.8411  -0.7823 LP             1 S1                 0.0000
     33 ****        -5.6182   0.9164   0.8479 LP             1 S1                 0.0000
     34 ****        -0.2492  -1.5317  -0.7692 LP             1 S1                 0.0000
     35 ****         1.4112  -2.0086  -0.8946 LP             1 S1                 0.0000
     36 ****        -3.5628   3.2133  -0.1598 LP             1 S1                 0.0000
@<TRIPOS>BOND
    1    1    2 1     
    2    1   17 1     
    3    1   18 1     
    4    1   19 1     
    5    2    3 1     
    6    3   16 ar    
    7    3    4 ar    
    8    4    5 ar    
    9    4   20 1     
   10    5    6 ar    
   11    5   21 1     
   12    6    7 1     
   13    6   15 ar    
   14    7    8 am    
   15    7   22 1     
   16    8    9 2     
   17    8   10 am    
   18   10   11 1     
   19   10   23 1     
   20   11   12 1     
   21   11   24 1     
   22   11   25 1     
   23   12   14 1     
   24   12   13 1     
   25   12   26 1     
   26   13   14 1     
   27   13   27 1     
   28   13   28 1     
   29   14   29 1     
   30   14   30 1     
   31   15   16 ar    
   32   15   31 1     
   33    2   32 1     
   34    2   33 1     
   35    9   34 1     
   36    9   35 1     
   37   16   36 1     
@<TRIPOS>SUBSTRUCTURE
      1 S1             1
@<TRIPOS>SET
LONE_PAIRS      STATIC     ATOMS    <user>   **** ""
5 32 33 34 35 36
DONOR_HYDROGENS      STATIC     ATOMS    <user>   **** ""
2 22 23
ATOM$BLUE        STATIC     ATOMS    COLORGROUP SYSTEM
5 32 33 34 35 36
ATOM$RED        STATIC     ATOMS    COLORGROUP SYSTEM
2 22 23
