AV-unprocessed.smi:1486|AV-procd|sdf|6005|dock8
  -GOLD-   22720 6103D 1   1.00000     0.00000
 Structure written by MMmdl.
 39 40  0  0  0  0  0  0  0  0  1 V2000
  151.2635  131.6728  156.2347 C   0  0  0  0  0  0  0  0  0  0  0  0
  150.2007  132.4309  155.6858 O   0  0  0  0  0  0  0  0  0  0  0  0
  150.5993  133.7403  155.3119 C   0  0  0  0  0  0  0  0  0  0  0  0
  149.3676  134.5504  154.8717 C   0  0  2  0  0  0  0  0  0  0  0  0
  148.5127  133.7736  153.8615 C   0  0  0  0  0  0  0  0  0  0  0  0
  149.7963  135.8085  154.2676 N   0  0  0  0  0  0  0  0  0  0  0  0
  150.5956  136.7227  154.8409 C   0  0  0  0  0  0  0  0  0  0  0  0
  150.9945  136.6491  156.0031 O   0  0  0  0  0  0  0  0  0  0  0  0
  151.0308  137.8915  153.9562 C   0  0  0  0  0  0  0  0  0  0  0  0
  150.6309  139.1892  154.5974 C   0  0  0  0  0  0  0  0  0  0  0  0
  149.6033  140.0158  154.2129 C   0  0  0  0  0  0  0  0  0  0  0  0
  149.4599  141.4067  155.2517 S   0  0  0  0  0  0  0  0  0  0  0  0
  150.8336  140.8082  156.1870 C   0  0  0  0  0  0  0  0  0  0  0  0
  151.4138  141.4296  157.3329 N   0  0  0  0  0  0  0  0  0  0  0  0
  150.9852  142.7480  157.7910 C   0  0  0  0  0  0  0  0  0  0  0  0
  151.6729  142.9692  159.1426 C   0  0  0  0  0  0  0  0  0  0  0  0
  152.7647  141.9041  159.2201 C   0  0  0  0  0  0  0  0  0  0  0  0
  152.4073  140.9434  158.0979 C   0  0  0  0  0  0  0  0  0  0  0  0
  152.9956  139.8722  157.9582 O   0  0  0  0  0  0  0  0  0  0  0  0
  151.3270  139.6574  155.7172 N   0  0  0  0  0  0  0  0  0  0  0  0
  150.9062  130.6761  156.4937 H   0  0  0  0  0  0  0  0  0  0  0  0
  151.6496  132.1374  157.1428 H   0  0  0  0  0  0  0  0  0  0  0  0
  152.0806  131.5637  155.5208 H   0  0  0  0  0  0  0  0  0  0  0  0
  151.0998  134.2379  156.1448 H   0  0  0  0  0  0  0  0  0  0  0  0
  151.3168  133.6759  154.4924 H   0  0  0  0  0  0  0  0  0  0  0  0
  148.7456  134.7459  155.7471 H   0  0  0  0  0  0  0  0  0  0  0  0
  148.1595  132.8344  154.2878 H   0  0  0  0  0  0  0  0  0  0  0  0
  149.0785  133.5374  152.9596 H   0  0  0  0  0  0  0  0  0  0  0  0
  147.6356  134.3492  153.5640 H   0  0  0  0  0  0  0  0  0  0  0  0
  149.5225  135.9644  153.3082 H   0  0  0  0  0  0  0  0  0  0  0  0
  152.1096  137.8444  153.8014 H   0  0  0  0  0  0  0  0  0  0  0  0
  150.5718  137.7929  152.9717 H   0  0  0  0  0  0  0  0  0  0  0  0
  148.9169  139.8836  153.3895 H   0  0  0  0  0  0  0  0  0  0  0  0
  151.3038  143.4998  157.0674 H   0  0  0  0  0  0  0  0  0  0  0  0
  149.9001  142.8066  157.8867 H   0  0  0  0  0  0  0  0  0  0  0  0
  152.0766  143.9784  159.2314 H   0  0  0  0  0  0  0  0  0  0  0  0
  150.9585  142.8278  159.9550 H   0  0  0  0  0  0  0  0  0  0  0  0
  153.7503  142.3306  159.0308 H   0  0  0  0  0  0  0  0  0  0  0  0
  152.7806  141.4001  160.1870 H   0  0  0  0  0  0  0  0  0  0  0  0
  1  2  1  0  0  0  0
  1 21  1  0  0  0  0
  1 22  1  0  0  0  0
  1 23  1  0  0  0  0
  2  3  1  0  0  0  0
  3  4  1  0  0  0  0
  3 24  1  0  0  0  0
  3 25  1  0  0  0  0
  4  5  1  0  0  0  0
  4  6  1  0  0  0  0
  4 26  1  0  0  0  0
  5 27  1  0  0  0  0
  5 28  1  0  0  0  0
  5 29  1  0  0  0  0
  6  7  1  0  0  0  0
  6 30  1  0  0  0  0
  7  8  2  0  0  0  0
  7  9  1  0  0  0  0
  9 10  1  0  0  0  0
  9 31  1  0  0  0  0
  9 32  1  0  0  0  0
 10 20  1  0  0  0  0
 10 11  2  0  0  0  0
 11 12  1  0  0  0  0
 11 33  1  0  0  0  0
 12 13  1  0  0  0  0
 13 14  1  0  0  0  0
 13 20  2  0  0  0  0
 14 18  1  0  0  0  0
 14 15  1  0  0  0  0
 15 16  1  0  0  0  0
 15 34  1  0  0  0  0
 15 35  1  0  0  0  0
 16 17  1  0  0  0  0
 16 36  1  0  0  0  0
 16 37  1  0  0  0  0
 17 18  1  0  0  0  0
 17 38  1  0  0  0  0
 17 39  1  0  0  0  0
 18 19  2  0  0  0  0
M  END
> <s_m_source_file>
AV-unprocessed.smi

> <i_m_source_file_index>
1486

> <i_lp_mmshare_version>
43012

> <i_f3d_flags>
0

> <s_epik_input>
W0NIM11PW0NIMl1bQ0BIXShbQ0gzXSlbTkhdQyg9TylbQ0gyXWMxW2NIXXNjKG4xKU4yW0NIMl1bQ0gyXVtDSDJdQzI9Tw==

> <s_epik_cmdline>
J2VwaWtfcHl0aG9uJywgJy1waCcsICc3LjAnLCAnLXRuJywgJzgnLCAnLW1hJywgJzIwMCcsICctbWV0YWxfYmluZGluZycsICctaW1hZScsICc8aW5maWxlLm1hZT4nLCAnLW9tYWUnLCAnPG91dGZpbGUubWFlPic=

> <r_lp_tautomer_probability>
1

> <r_epik_Ionization_Penalty>
3.00988e-05

> <r_epik_Ionization_Penalty_Charging>
0

> <r_epik_Ionization_Penalty_Neutral>
3.00988e-05

> <r_epik_State_Penalty>
-0

> <r_epik_Charging_Adjusted_Penalty>
0

> <i_epik_Tot_Q>
0

> <i_epik_Tot_abs_Q>
0

> <r_epik_Metal_State_Penalty>
-0

> <b_epik_Metal_Only>
0

> <s_lp_Force_Field>
OPLS_2005

> <r_lp_Energy>
17.4933

> <b_lp_Chiralities_Consistent>
1

> <s_lp_Variant>
AV-unprocessed.smi:1486-1

> <Gold.Version>
5.8.1

> <Gold.Id.Protein>
6NUR|6NUR_protein|mol2

> <Gold.PLP.Fitness>
45.8424

> <Gold.PLP.PLP>
-37.3366

> <Gold.PLP.part.hbond>
-2.1638

> <Gold.PLP.part.metal>
0.0000

> <Gold.PLP.part.buried>
-3.4889

> <Gold.PLP.part.nonpolar>
-32.3356

> <Gold.PLP.part.repulsive>
0.0610

> <Gold.PLP.ligand.clash>
0.0000

> <Gold.PLP.ligand.torsion>
0.2610

> <Gold.PLP.Chemscore.Hbond>
2.0000

> <Gold.PLP.Chemscore.CHOScore>
1.0000

> <Gold.PLP.Chemscore.Metal>
0.0000

> <Gold.Chemscore.Hbonds>
donor molecule, donor type, donor heavy atom, donor atom, acceptor molecule, acceptor atom, score
      L1  H     6    30       P1  7948  1.00
      P1  H  7997  8009       L1    19  1.00
      L1  C    11    33       P1  7957  0.84

> <Gold.PLP.Chemscore.Internal.Correction>
0.0278

> <Gold.Rescore>
     Score         DG    S(hbond)    S(metal)    S(lipo)     H(rot)  DE(clash)    DE(int)     intcor
     13.92     -15.65       1.89        0.00      75.51       1.94       0.01       1.72       ----

> <Gold.Chemscore.Fitness>
13.9187

> <Gold.Chemscore.DG>
-15.6530

> <Gold.Chemscore.ZeroCoef>
-5.4800

> <Gold.Chemscore.Hbond>
1.8856

> <Gold.Chemscore.Metal>
0.0000

> <Gold.Chemscore.Lipo>
75.5101

> <Gold.Chemscore.Internal_Hbond>
0.0000

> <Gold.Chemscore.DEClash>
0.0096

> <Gold.Chemscore.DEInternal>
1.7248

> <Gold.Chemscore.Rot>
1.9373

> <Gold.Chemscore.Internal.Correction>
   9.000000E+99

> <Gold.Chemscore.Hbonds>
donor molecule, donor type, donor heavy atom, donor atom, acceptor molecule, acceptor atom, score
      L1  H     6    30       P1  7948  0.24
      P1  H  7997  8009       L1    19  0.78

> <Gold.Chemscore.Hbond.Weighted>
-6.2978

> <Gold.Chemscore.Metal.Weighted>
-0.0000

> <Gold.Chemscore.Lipo.Weighted>
-8.8347

> <Gold.Chemscore.Internal_Hbond.Weighted>
0.0000

> <Gold.Chemscore.DEClash.Weighted>
0.0096

> <Gold.Chemscore.DEInternal.Weighted>
1.7248

> <Gold.Chemscore.Rot.Weighted>
4.9594

> <Gold.Chemscore.Internal.Correction.Weighted>
   9.000000E+99

> <Gold.Protein.RotatedTorsions>
[ 6907 6896 6895 6894 ] final  -75.59 input  -60.11 | X-H torsion
[ 7974 7965 7964 7962 ] final   95.04 input  175.53 | X-H torsion
[ 8008 7997 7996 7995 ] final  168.76 input   59.86 | X-H torsion
[ 10167 10162 10161 10158 ] final -140.62 input  -65.29 | X-H torsion
[ 10718 10713 10712 10709 ] final -154.92 input   66.30 | X-H torsion
[ 10763 10752 10751 10750 ] final   30.97 input  -60.55 | X-H torsion
[ 11005 11000 10999 10996 ] final  -58.87 input  -57.11 | X-H torsion

> <Gold.Protein.ActiveResidues>
 VAL166  LYS551  ARG553  GLY616  TRP617  ASP618  TYR619  PRO620  LYS621  CYS622 
 ASP623  PHE694  ASN695  SER759  ASP760  ASP761  ALA762  ILE779  LEU786  VAL792 
 PHE793  MET794  SER795  GLU796  ALA797  LYS798  CYS799  TRP800  GLU811  SER814 

> <Gold.Protein.RotatedAtoms>
  150.7054  134.4699  159.5419 H   0  0  0  0  0  0  0  0  0  0  0  0  # atno 6907 bound_to 6896
  152.2357  134.8275  160.0476 H   0  0  0  0  0  0  0  0  0  0  0  0  # atno 6908 bound_to 6896
  151.9075  133.3518  159.3889 H   0  0  0  0  0  0  0  0  0  0  0  0  # atno 6909 bound_to 6896
  145.4574  139.2289  143.3006 H   0  0  0  0  0  0  0  0  0  0  0  0  # atno 7974 bound_to 7965
  156.1518  140.1582  156.8758 H   0  0  0  0  0  0  0  0  0  0  0  0  # atno 8008 bound_to 7997
  154.5078  140.0808  156.7966 H   0  0  0  0  0  0  0  0  0  0  0  0  # atno 8009 bound_to 7997
  155.3881  140.3408  155.4252 H   0  0  0  0  0  0  0  0  0  0  0  0  # atno 8010 bound_to 7997
  139.8264  143.7505  152.2666 H   0  0  0  0  0  0  0  0  0  0  0  0  # atno 10167 bound_to 10162
  156.5059  130.8412  151.2627 H   0  0  0  0  0  0  0  0  0  0  0  0  # atno 10718 bound_to 10713
  153.0342  135.6451  154.1127 H   0  0  0  0  0  0  0  0  0  0  0  0  # atno 10763 bound_to 10752
  154.0844  135.2871  155.3285 H   0  0  0  0  0  0  0  0  0  0  0  0  # atno 10764 bound_to 10752
  154.6508  135.5427  153.7963 H   0  0  0  0  0  0  0  0  0  0  0  0  # atno 10765 bound_to 10752
  141.1225  133.6614  156.4985 H   0  0  0  0  0  0  0  0  0  0  0  0  # atno 11005 bound_to 11000
  146.2470  140.5340  142.8909 LP  0  0  0  0  0  0  0  0  0  0  0  0  # atno 17320 bound_to 7965
  144.8023  140.6237  143.6470 LP  0  0  0  0  0  0  0  0  0  0  0  0  # atno 17321 bound_to 7965
  139.7699  144.7480  151.0240 LP  0  0  0  0  0  0  0  0  0  0  0  0  # atno 17342 bound_to 10162
  140.7810  143.4657  151.0216 LP  0  0  0  0  0  0  0  0  0  0  0  0  # atno 17343 bound_to 10162
  157.7457  130.9966  150.2785 LP  0  0  0  0  0  0  0  0  0  0  0  0  # atno 17370 bound_to 10713
  156.3287  130.3797  149.7510 LP  0  0  0  0  0  0  0  0  0  0  0  0  # atno 17371 bound_to 10713
  140.4465  134.6968  157.5018 LP  0  0  0  0  0  0  0  0  0  0  0  0  # atno 17394 bound_to 11000
  140.0194  134.6570  155.9262 LP  0  0  0  0  0  0  0  0  0  0  0  0  # atno 17395 bound_to 11000

$$$$
