AV-unprocessed.smi:1980|AV-procd|sdf|8017|dock5
  -GOLD-   2272010213D 1   1.00000     0.00000
 Structure written by MMmdl.
 44 45  0  0  0  0  0  0  0  0  1 V2000
  150.2941  133.9279  156.6163 C   0  0  0  0  0  0  0  0  0  0  0  0
  149.3703  134.9161  155.8881 C   0  0  2  0  0  0  0  0  0  0  0  0
  148.7774  134.2240  154.7920 O   0  0  0  0  0  0  0  0  0  0  0  0
  147.8402  133.2092  155.1390 C   0  0  0  0  0  0  0  0  0  0  0  0
  147.7547  132.1840  154.0021 C   0  0  0  0  0  0  0  0  0  0  0  0
  146.8366  131.2678  154.3068 F   0  0  0  0  0  0  0  0  0  0  0  0
  147.3999  132.7836  152.8662 F   0  0  0  0  0  0  0  0  0  0  0  0
  148.9294  131.5755  153.8406 F   0  0  0  0  0  0  0  0  0  0  0  0
  150.1440  136.1486  155.3918 C   0  0  0  0  0  0  0  0  0  0  0  0
  151.3602  136.2304  155.5650 O   0  0  0  0  0  0  0  0  0  0  0  0
  149.4223  137.0919  154.7664 N   0  0  0  0  0  0  0  0  0  0  0  0
  149.9445  138.3391  154.2190 C   0  0  0  0  0  0  0  0  0  0  0  0
  150.4562  139.2802  155.2948 C   0  0  0  0  0  0  0  0  0  0  0  0
  149.6570  140.3381  155.7694 C   0  0  0  0  0  0  0  0  0  0  0  0
  150.1698  141.1860  156.7695 C   0  0  0  0  0  0  0  0  0  0  0  0
  151.4749  140.9573  157.2682 C   0  0  0  0  0  0  0  0  0  0  0  0
  152.0119  141.7970  158.2694 N   0  0  0  0  0  0  0  0  0  0  0  0
  151.3416  143.0700  158.5294 C   0  0  0  0  0  0  0  0  0  0  0  0
  152.2166  143.9653  159.4231 C   0  0  0  0  0  0  0  0  0  0  0  0
  152.5548  143.2679  160.6172 O   0  0  0  0  0  0  0  0  0  0  0  0
  153.3057  142.0895  160.3458 C   0  0  0  0  0  0  0  0  0  0  0  0
  152.4708  141.1267  159.4840 C   0  0  0  0  0  0  0  0  0  0  0  0
  152.2376  139.9329  156.8110 N   0  0  0  0  0  0  0  0  0  0  0  0
  151.7414  139.1229  155.8522 C   0  0  0  0  0  0  0  0  0  0  0  0
  150.7992  134.4029  157.4582 H   0  0  0  0  0  0  0  0  0  0  0  0
  151.0582  133.5264  155.9494 H   0  0  0  0  0  0  0  0  0  0  0  0
  149.7251  133.0843  157.0076 H   0  0  0  0  0  0  0  0  0  0  0  0
  148.5898  135.2276  156.5853 H   0  0  0  0  0  0  0  0  0  0  0  0
  148.1519  132.7127  156.0591 H   0  0  0  0  0  0  0  0  0  0  0  0
  146.8521  133.6349  155.3171 H   0  0  0  0  0  0  0  0  0  0  0  0
  148.4298  136.9352  154.6668 H   0  0  0  0  0  0  0  0  0  0  0  0
  150.7438  138.1526  153.4998 H   0  0  0  0  0  0  0  0  0  0  0  0
  149.1429  138.8226  153.6601 H   0  0  0  0  0  0  0  0  0  0  0  0
  148.6625  140.4981  155.3795 H   0  0  0  0  0  0  0  0  0  0  0  0
  149.5532  141.9868  157.1491 H   0  0  0  0  0  0  0  0  0  0  0  0
  151.1361  143.5887  157.5921 H   0  0  0  0  0  0  0  0  0  0  0  0
  150.3833  142.8805  159.0151 H   0  0  0  0  0  0  0  0  0  0  0  0
  153.1233  144.2716  158.8986 H   0  0  0  0  0  0  0  0  0  0  0  0
  151.6772  144.8755  159.6844 H   0  0  0  0  0  0  0  0  0  0  0  0
  154.2410  142.3478  159.8460 H   0  0  0  0  0  0  0  0  0  0  0  0
  153.5712  141.6132  161.2896 H   0  0  0  0  0  0  0  0  0  0  0  0
  151.6006  140.7837  160.0452 H   0  0  0  0  0  0  0  0  0  0  0  0
  153.0702  140.2457  159.2607 H   0  0  0  0  0  0  0  0  0  0  0  0
  152.3916  138.3266  155.5217 H   0  0  0  0  0  0  0  0  0  0  0  0
  1  2  1  0  0  0  0
  1 25  1  0  0  0  0
  1 26  1  0  0  0  0
  1 27  1  0  0  0  0
  2  3  1  0  0  0  0
  2  9  1  0  0  0  0
  2 28  1  0  0  0  0
  3  4  1  0  0  0  0
  4  5  1  0  0  0  0
  4 29  1  0  0  0  0
  4 30  1  0  0  0  0
  5  6  1  0  0  0  0
  5  7  1  0  0  0  0
  5  8  1  0  0  0  0
  9 10  2  0  0  0  0
  9 11  1  0  0  0  0
 11 12  1  0  0  0  0
 11 31  1  0  0  0  0
 12 13  1  0  0  0  0
 12 32  1  0  0  0  0
 12 33  1  0  0  0  0
 13 24  1  0  0  0  0
 13 14  2  0  0  0  0
 14 15  1  0  0  0  0
 14 34  1  0  0  0  0
 15 16  2  0  0  0  0
 15 35  1  0  0  0  0
 16 17  1  0  0  0  0
 16 23  1  0  0  0  0
 17 22  1  0  0  0  0
 17 18  1  0  0  0  0
 18 19  1  0  0  0  0
 18 36  1  0  0  0  0
 18 37  1  0  0  0  0
 19 20  1  0  0  0  0
 19 38  1  0  0  0  0
 19 39  1  0  0  0  0
 20 21  1  0  0  0  0
 21 22  1  0  0  0  0
 21 40  1  0  0  0  0
 21 41  1  0  0  0  0
 22 42  1  0  0  0  0
 22 43  1  0  0  0  0
 23 24  2  0  0  0  0
 24 44  1  0  0  0  0
M  END
> <s_m_source_file>
AV-unprocessed.smi

> <i_m_source_file_index>
1980

> <i_lp_mmshare_version>
43012

> <i_f3d_flags>
0

> <s_epik_input>
RkMoRikoRilbQ0gyXU9bQ0BASF0oW0NIM10pQyg9TylbTkhdW0NIMl1jMVtjSF1bY0hdYyhuW2NIXTEpTjJbQ0gyXVtDSDJdT1tDSDJdW0NIMl0y

> <s_epik_cmdline>
J2VwaWtfcHl0aG9uJywgJy1waCcsICc3LjAnLCAnLXRuJywgJzgnLCAnLW1hJywgJzIwMCcsICctbWV0YWxfYmluZGluZycsICctaW1hZScsICc8aW5maWxlLm1hZT4nLCAnLW9tYWUnLCAnPG91dGZpbGUubWFlPic=

> <r_lp_tautomer_probability>
1

> <r_epik_Ionization_Penalty>
0.00436425

> <r_epik_Ionization_Penalty_Charging>
0

> <r_epik_Ionization_Penalty_Neutral>
0.00436425

> <r_epik_State_Penalty>
0.00314317

> <r_epik_Charging_Adjusted_Penalty>
0.00314317

> <i_epik_Tot_Q>
0

> <i_epik_Tot_abs_Q>
0

> <r_epik_Metal_State_Penalty>
-0

> <b_epik_Metal_Only>
0

> <s_lp_Force_Field>
OPLS_2005

> <r_lp_Energy>
19.3234

> <b_lp_Chiralities_Consistent>
1

> <s_lp_Variant>
AV-unprocessed.smi:1980-1

> <Gold.Version>
5.8.1

> <Gold.Id.Protein>
6NUR|6NUR_protein|mol2

> <Gold.PLP.Fitness>
50.1514

> <Gold.PLP.PLP>
-45.1037

> <Gold.PLP.part.hbond>
-3.0000

> <Gold.PLP.part.metal>
0.0000

> <Gold.PLP.part.buried>
-4.1485

> <Gold.PLP.part.nonpolar>
-37.6675

> <Gold.PLP.part.repulsive>
0.4625

> <Gold.PLP.ligand.clash>
0.0000

> <Gold.PLP.ligand.torsion>
0.7234

> <Gold.PLP.Chemscore.Hbond>
2.0125

> <Gold.PLP.Chemscore.CHOScore>
0.0000

> <Gold.PLP.Chemscore.Metal>
0.0000

> <Gold.Chemscore.Hbonds>
donor molecule, donor type, donor heavy atom, donor atom, acceptor molecule, acceptor atom, score
      P1  H  7997  8009       L1    23  0.75
      P1  H 10752 10765       L1    10  1.00

> <Gold.PLP.Chemscore.Internal.Correction>
0.4571

> <Gold.Rescore>
     Score         DG    S(hbond)    S(metal)    S(lipo)     H(rot)  DE(clash)    DE(int)     intcor
     15.15     -16.07       1.86        0.00      91.94       2.49       0.06       0.86       ----

> <Gold.Chemscore.Fitness>
15.1487

> <Gold.Chemscore.DG>
-16.0676

> <Gold.Chemscore.ZeroCoef>
-5.4800

> <Gold.Chemscore.Hbond>
1.8577

> <Gold.Chemscore.Metal>
0.0000

> <Gold.Chemscore.Lipo>
91.9407

> <Gold.Chemscore.Internal_Hbond>
0.0000

> <Gold.Chemscore.DEClash>
0.0623

> <Gold.Chemscore.DEInternal>
0.8565

> <Gold.Chemscore.Rot>
2.4899

> <Gold.Chemscore.Internal.Correction>
   9.000000E+99

> <Gold.Chemscore.Hbonds>
donor molecule, donor type, donor heavy atom, donor atom, acceptor molecule, acceptor atom, score
      P1  H  7997  8009       L1    23  0.50
      P1  H 10752 10765       L1    10  1.00

> <Gold.Chemscore.Hbond.Weighted>
-6.2047

> <Gold.Chemscore.Metal.Weighted>
-0.0000

> <Gold.Chemscore.Lipo.Weighted>
-10.7571

> <Gold.Chemscore.Internal_Hbond.Weighted>
0.0000

> <Gold.Chemscore.DEClash.Weighted>
0.0623

> <Gold.Chemscore.DEInternal.Weighted>
0.8565

> <Gold.Chemscore.Rot.Weighted>
6.3741

> <Gold.Chemscore.Internal.Correction.Weighted>
   9.000000E+99

> <Gold.Protein.RotatedTorsions>
[ 6907 6896 6895 6894 ] final  100.41 input  -60.11 | X-H torsion
[ 7974 7965 7964 7962 ] final   34.67 input  175.53 | X-H torsion
[ 8008 7997 7996 7995 ] final -175.59 input   59.86 | X-H torsion
[ 10167 10162 10161 10158 ] final   33.20 input  -65.29 | X-H torsion
[ 10718 10713 10712 10709 ] final -117.23 input   66.30 | X-H torsion
[ 10763 10752 10751 10750 ] final -166.78 input  -60.55 | X-H torsion
[ 11005 11000 10999 10996 ] final -178.75 input  -57.11 | X-H torsion

> <Gold.Protein.ActiveResidues>
 VAL166  LYS551  ARG553  GLY616  TRP617  ASP618  TYR619  PRO620  LYS621  CYS622 
 ASP623  PHE694  ASN695  SER759  ASP760  ASP761  ALA762  ILE779  LEU786  VAL792 
 PHE793  MET794  SER795  GLU796  ALA797  LYS798  CYS799  TRP800  GLU811  SER814 

> <Gold.Protein.RotatedAtoms>
  152.5372  134.0281  159.8012 H   0  0  0  0  0  0  0  0  0  0  0  0  # atno 6907 bound_to 6896
  151.0457  133.5660  159.2654 H   0  0  0  0  0  0  0  0  0  0  0  0  # atno 6908 bound_to 6896
  151.2613  135.0662  159.9153 H   0  0  0  0  0  0  0  0  0  0  0  0  # atno 6909 bound_to 6896
  146.1337  139.6239  142.9210 H   0  0  0  0  0  0  0  0  0  0  0  0  # atno 7974 bound_to 7965
  155.9844  140.1188  157.0696 H   0  0  0  0  0  0  0  0  0  0  0  0  # atno 8008 bound_to 7997
  154.4192  140.1138  156.5548 H   0  0  0  0  0  0  0  0  0  0  0  0  # atno 8009 bound_to 7997
  155.6427  140.3473  155.4723 H   0  0  0  0  0  0  0  0  0  0  0  0  # atno 8010 bound_to 7997
  140.4429  144.1162  150.6177 H   0  0  0  0  0  0  0  0  0  0  0  0  # atno 10167 bound_to 10162
  156.1019  130.6179  150.9137 H   0  0  0  0  0  0  0  0  0  0  0  0  # atno 10718 bound_to 10713
  154.6799  135.2953  154.9628 H   0  0  0  0  0  0  0  0  0  0  0  0  # atno 10763 bound_to 10752
  154.0626  135.6629  153.4818 H   0  0  0  0  0  0  0  0  0  0  0  0  # atno 10764 bound_to 10752
  153.0540  135.5156  154.7836 H   0  0  0  0  0  0  0  0  0  0  0  0  # atno 10765 bound_to 10752
  140.4263  134.6559  157.4689 H   0  0  0  0  0  0  0  0  0  0  0  0  # atno 11005 bound_to 11000
  145.5205  141.0432  143.2438 LP  0  0  0  0  0  0  0  0  0  0  0  0  # atno 17320 bound_to 7965
  144.7717  139.6721  143.7192 LP  0  0  0  0  0  0  0  0  0  0  0  0  # atno 17321 bound_to 7965
  140.4298  143.2573  151.9610 LP  0  0  0  0  0  0  0  0  0  0  0  0  # atno 17342 bound_to 10162
  139.4791  144.5754  151.8019 LP  0  0  0  0  0  0  0  0  0  0  0  0  # atno 17343 bound_to 10162
  157.6190  131.0931  150.8657 LP  0  0  0  0  0  0  0  0  0  0  0  0  # atno 17370 bound_to 10713
  156.8783  130.5170  149.5292 LP  0  0  0  0  0  0  0  0  0  0  0  0  # atno 17371 bound_to 10713
  140.0165  134.6611  155.9302 LP  0  0  0  0  0  0  0  0  0  0  0  0  # atno 17394 bound_to 11000
  141.1764  133.6541  156.4844 LP  0  0  0  0  0  0  0  0  0  0  0  0  # atno 17395 bound_to 11000

$$$$
