#       Name:                AV-unprocessed.smi:1645
#       Creating user name   scv26
#       Creation time:       Fri Mar 27 07:31:15 2020


#       File generated by GOLD software.
#

@<TRIPOS>MOLECULE
AV-unprocessed.smi:1645
    59    62     1
SMALL
NO_CHARGES


@<TRIPOS>ATOM
      1 ****        -1.0498   1.3653  -0.6823 O.2            1 S1                 0.0000
      2 ****        -1.3582   0.1769  -0.7675 C.2            1 S1                 0.0000
      3 ****        -0.4904  -0.8465  -0.8401 N.am           1 S1                 0.0000
      4 ****         0.9288  -0.7903  -0.8496 C.ar           1 S1                 0.0000
      5 ****         1.6702   0.3247  -1.3146 C.ar           1 S1                 0.0000
      6 ****         3.0791   0.2769  -1.2965 C.ar           1 S1                 0.0000
      7 ****         3.7287  -0.8856  -0.8226 C.ar           1 S1                 0.0000
      8 ****         5.1218  -1.0203  -0.7656 N.3            1 S1                 0.0000
      9 ****         5.7496  -1.0085  -2.0847 C.3            1 S1                 0.0000
     10 ****         7.2475  -1.3439  -1.9808 C.3            1 S1                 0.0000
     11 ****         7.9524  -0.4051  -0.9886 C.3            1 S1                 0.0000
     12 ****         7.2347  -0.4323   0.3705 C.3            1 S1                 0.0000
     13 ****         5.7369  -0.1212   0.2075 C.3            1 S1                 0.0000
     14 ****         2.9849  -1.9320  -0.4022 N.pl3          1 S1                 1.0000
     15 ****         1.6345  -1.9280  -0.4052 C.ar           1 S1                 0.0000
     16 ****        -2.6269  -0.2556  -0.7702 N.am           1 S1                 0.0000
     17 ****        -3.7981   0.6136  -0.6840 C.3            1 S1                 0.0000
     18 ****        -5.1129  -0.0990  -1.0274 C.3            1 S1                 0.0000
     19 ****        -6.1833   0.6046  -0.1734 C.3            1 S1                 0.0000
     20 ****        -5.4681   1.6233   0.6280 N.4            1 S1                 1.0000
     21 ****        -6.1069   2.0286   1.9062 C.3            1 S1                 0.0000
     22 ****        -5.8849   1.0042   3.0314 C.3            1 S1                 0.0000
     23 ****        -4.3925   0.7020   3.1999 C.3            1 S1                 0.0000
     24 ****        -3.8187   0.1902   1.8746 C.3            1 S1                 0.0000
     25 ****        -4.0544   1.1951   0.7171 C.3            1 S1                 0.0000
     26 ****        -0.8893  -1.7738  -0.8139 H              1 S1                 0.0000
     27 ****         1.1864   1.2104  -1.6966 H              1 S1                 0.0000
     28 ****         3.6502   1.1243  -1.6473 H              1 S1                 0.0000
     29 ****         5.2529  -1.7297  -2.7353 H              1 S1                 0.0000
     30 ****         5.6233  -0.0258  -2.5412 H              1 S1                 0.0000
     31 ****         7.3684  -2.3778  -1.6543 H              1 S1                 0.0000
     32 ****         7.7155  -1.2722  -2.9630 H              1 S1                 0.0000
     33 ****         8.9966  -0.6959  -0.8701 H              1 S1                 0.0000
     34 ****         7.9533   0.6120  -1.3827 H              1 S1                 0.0000
     35 ****         7.3558  -1.4154   0.8278 H              1 S1                 0.0000
     36 ****         7.6930   0.2851   1.0517 H              1 S1                 0.0000
     37 ****         5.6085   0.9120  -0.1182 H              1 S1                 0.0000
     38 ****         5.2317  -0.2183   1.1695 H              1 S1                 0.0000
     39 ****         1.1630  -2.8306  -0.0442 H              1 S1                 0.0000
     40 ****        -2.7963  -1.2488  -0.8362 H              1 S1                 0.0000
     41 ****        -3.6761   1.4413  -1.3862 H              1 S1                 0.0000
     42 ****        -5.3344  -0.0424  -2.0937 H              1 S1                 0.0000
     43 ****        -5.0662  -1.1553  -0.7581 H              1 S1                 0.0000
     44 ****        -6.9469   1.0826  -0.7875 H              1 S1                 0.0000
     45 ****        -6.6810  -0.1213   0.4707 H              1 S1                 0.0000
     46 ****        -5.6777   2.9858   2.2054 H              1 S1                 0.0000
     47 ****        -7.1715   2.2041   1.7475 H              1 S1                 0.0000
     48 ****        -6.2944   1.3879   3.9662 H              1 S1                 0.0000
     49 ****        -6.4268   0.0829   2.8154 H              1 S1                 0.0000
     50 ****        -3.8616   1.6016   3.5141 H              1 S1                 0.0000
     51 ****        -4.2454  -0.0404   3.9851 H              1 S1                 0.0000
     52 ****        -2.7521  -0.0032   1.9935 H              1 S1                 0.0000
     53 ****        -4.2783  -0.7708   1.6401 H              1 S1                 0.0000
     54 ****        -3.4311   2.0748   0.8840 H              1 S1                 0.0000
     55 ****        -5.4599   2.4482   0.0451 H              1 S1                 0.0000
     56 ****         3.4674  -2.7662  -0.0666 H              1 S1                 0.0000
     57 ****        -0.0861   1.6316  -0.6625 LP             1 S1                 0.0000
     58 ****        -1.7629   2.0646  -0.6327 LP             1 S1                 0.0000
     59 ****         5.3049  -1.9376  -0.4121 LP             1 S1                 0.0000
@<TRIPOS>BOND
    1    1    2 2     
    2    2    3 am    
    3    2   16 am    
    4    3    4 1     
    5    3   26 1     
    6    4   15 ar    
    7    4    5 ar    
    8    5    6 ar    
    9    5   27 1     
   10    6    7 ar    
   11    6   28 1     
   12    7    8 1     
   13    7   14 ar    
   14    8   13 1     
   15    8    9 1     
   16    9   10 1     
   17    9   29 1     
   18    9   30 1     
   19   10   11 1     
   20   10   31 1     
   21   10   32 1     
   22   11   12 1     
   23   11   33 1     
   24   11   34 1     
   25   12   13 1     
   26   12   35 1     
   27   12   36 1     
   28   13   37 1     
   29   13   38 1     
   30   14   15 ar    
   31   14   56 1     
   32   15   39 1     
   33   16   17 1     
   34   16   40 1     
   35   17   25 1     
   36   17   18 1     
   37   17   41 1     
   38   18   19 1     
   39   18   42 1     
   40   18   43 1     
   41   19   20 1     
   42   19   44 1     
   43   19   45 1     
   44   20   25 1     
   45   20   21 1     
   46   20   55 1     
   47   21   22 1     
   48   21   46 1     
   49   21   47 1     
   50   22   23 1     
   51   22   48 1     
   52   22   49 1     
   53   23   24 1     
   54   23   50 1     
   55   23   51 1     
   56   24   25 1     
   57   24   52 1     
   58   24   53 1     
   59   25   54 1     
   60    1   57 1     
   61    1   58 1     
   62    8   59 1     
@<TRIPOS>SUBSTRUCTURE
      1 S1             1
@<TRIPOS>SET
LONE_PAIRS      STATIC     ATOMS    <user>   **** ""
3 57 58 59
DONOR_HYDROGENS      STATIC     ATOMS    <user>   **** ""
4 26 56 40 55
ATOM$BLUE        STATIC     ATOMS    COLORGROUP SYSTEM
3 57 58 59
ATOM$RED        STATIC     ATOMS    COLORGROUP SYSTEM
4 26 56 40 55
