#       Name:                AV-unprocessed.smi:1826
#       Creating user name   scv26
#       Creation time:       Fri Mar 27 09:09:32 2020


#       File generated by GOLD software.
#

@<TRIPOS>MOLECULE
AV-unprocessed.smi:1826
    44    46     1
SMALL
NO_CHARGES


@<TRIPOS>ATOM
      1 ****        -2.4164  -0.8747   3.2888 O.3            1 S1                 0.0000
      2 ****        -1.4716   0.1726   3.3457 C.3            1 S1                 0.0000
      3 ****        -1.6988   1.2138   2.2930 C.2            1 S1                 0.0000
      4 ****        -2.2736   2.3844   2.5732 N.2            1 S1                 0.0000
      5 ****        -2.2889   3.0173   1.3457 C.ar           1 S1                 0.0000
      6 ****        -2.7706   4.2935   0.9757 C.ar           1 S1                 0.0000
      7 ****        -2.6768   4.7316  -0.3616 C.ar           1 S1                 0.0000
      8 ****        -2.1019   3.9019  -1.3461 C.ar           1 S1                 0.0000
      9 ****        -1.6160   2.6267  -0.9988 C.ar           1 S1                 0.0000
     10 ****        -1.7115   2.1947   0.3375 C.ar           1 S1                 0.0000
     11 ****        -1.3378   1.0290   0.9976 N.pl3          1 S1                 0.0000
     12 ****        -0.6974  -0.1291   0.3878 C.3            1 S1                 0.0000
     13 ****         0.8074   0.0912   0.1339 C.3            1 S1                 0.0000
     14 ****         1.4672   0.3844   1.3504 O.3            1 S1                 0.0000
     15 ****         1.4277  -1.0981  -0.5824 C.ar           1 S1                 0.0000
     16 ****         1.7093  -1.0228  -1.9626 C.ar           1 S1                 0.0000
     17 ****         2.2794  -2.1230  -2.6319 C.ar           1 S1                 0.0000
     18 ****         2.5749  -3.3117  -1.9315 C.ar           1 S1                 0.0000
     19 ****         3.1872  -4.4897  -2.6750 C.3            1 S1                 0.0000
     20 ****         3.6052  -5.4411  -1.8394 F              1 S1                 0.0000
     21 ****         2.2774  -5.0135  -3.4958 F              1 S1                 0.0000
     22 ****         4.2297  -4.0775  -3.3965 F              1 S1                 0.0000
     23 ****         2.2851  -3.3892  -0.5514 C.ar           1 S1                 0.0000
     24 ****         1.7152  -2.2892   0.1184 C.ar           1 S1                 0.0000
     25 ****        -2.2361  -1.4788   3.9925 H              1 S1                 0.0000
     26 ****        -1.5268   0.6380   4.3305 H              1 S1                 0.0000
     27 ****        -0.4667  -0.2383   3.2508 H              1 S1                 0.0000
     28 ****        -3.2130   4.9362   1.7223 H              1 S1                 0.0000
     29 ****        -3.0483   5.7087  -0.6334 H              1 S1                 0.0000
     30 ****        -2.0344   4.2450  -2.3682 H              1 S1                 0.0000
     31 ****        -1.1751   1.9884  -1.7499 H              1 S1                 0.0000
     32 ****        -0.8590  -1.0094   1.0094 H              1 S1                 0.0000
     33 ****        -1.2049  -0.3317  -0.5562 H              1 S1                 0.0000
     34 ****         0.9292   0.9700  -0.5007 H              1 S1                 0.0000
     35 ****         2.3612   0.6214   1.1560 H              1 S1                 0.0000
     36 ****         1.4883  -0.1213  -2.5150 H              1 S1                 0.0000
     37 ****         2.4897  -2.0545  -3.6892 H              1 S1                 0.0000
     38 ****         2.4948  -4.2911   0.0040 H              1 S1                 0.0000
     39 ****         1.4963  -2.3642   1.1736 H              1 S1                 0.0000
     40 ****        -2.3433  -1.3478   2.4108 LP             1 S1                 0.0000
     41 ****        -3.3390  -0.5028   3.3913 LP             1 S1                 0.0000
     42 ****        -2.6098   2.7202   3.4531 LP             1 S1                 0.0000
     43 ****         1.4527  -0.4198   1.9446 LP             1 S1                 0.0000
     44 ****         1.0082   1.1456   1.8084 LP             1 S1                 0.0000
@<TRIPOS>BOND
    1    1    2 1     
    2    1   25 1     
    3    2    3 1     
    4    2   26 1     
    5    2   27 1     
    6    3   11 1     
    7    3    4 2     
    8    4    5 1     
    9    5   10 ar    
   10    5    6 ar    
   11    6    7 ar    
   12    6   28 1     
   13    7    8 ar    
   14    7   29 1     
   15    8    9 ar    
   16    8   30 1     
   17    9   10 ar    
   18    9   31 1     
   19   10   11 1     
   20   11   12 1     
   21   12   13 1     
   22   12   32 1     
   23   12   33 1     
   24   13   14 1     
   25   13   15 1     
   26   13   34 1     
   27   14   35 1     
   28   15   24 ar    
   29   15   16 ar    
   30   16   17 ar    
   31   16   36 1     
   32   17   18 ar    
   33   17   37 1     
   34   18   19 1     
   35   18   23 ar    
   36   19   20 1     
   37   19   21 1     
   38   19   22 1     
   39   23   24 ar    
   40   23   38 1     
   41   24   39 1     
   42    1   40 1     
   43    1   41 1     
   44    4   42 1     
   45   14   43 1     
   46   14   44 1     
@<TRIPOS>SUBSTRUCTURE
      1 S1             1
@<TRIPOS>SET
LONE_PAIRS      STATIC     ATOMS    <user>   **** ""
5 40 41 42 43 44
DONOR_HYDROGENS      STATIC     ATOMS    <user>   **** ""
2 25 35
ATOM$BLUE        STATIC     ATOMS    COLORGROUP SYSTEM
5 40 41 42 43 44
ATOM$RED        STATIC     ATOMS    COLORGROUP SYSTEM
2 25 35
