#       Name:                AV-unprocessed.smi:3051
#       Creating user name   scv26
#       Creation time:       Fri Mar 27 17:02:28 2020


#       File generated by GOLD software.
#

@<TRIPOS>MOLECULE
AV-unprocessed.smi:3051
    42    42     1
SMALL
NO_CHARGES


@<TRIPOS>ATOM
      1 ****        -3.6927   3.0905   2.6091 C.3            1 S1                 0.0000
      2 ****        -2.9727   1.7368   2.5560 C.3            1 S1                 0.0000
      3 ****        -2.6175   1.3730   1.1897 N.am           1 S1                 0.0000
      4 ****        -3.4460   0.8007   0.3019 C.2            1 S1                 0.0000
      5 ****        -4.6179   0.5178   0.5511 O.2            1 S1                 0.0000
      6 ****        -2.8681   0.5097  -1.0843 C.3            1 S1                 0.0000
      7 ****        -1.8628  -0.5370  -1.0302 N.pl3          1 S1                 0.0000
      8 ****        -2.0499  -1.9012  -0.9197 C.2            1 S1                 0.0000
      9 ****        -0.8151  -2.4855  -0.9061 C.2            1 S1                 0.0000
     10 ****         0.0699  -1.3787  -1.0172 C.2            1 S1                 0.0000
     11 ****         1.4601  -1.5415  -1.0438 N.pl3          1 S1                 0.0000
     12 ****         2.0598  -2.8681  -0.9575 C.3            1 S1                 0.0000
     13 ****         2.0727  -3.3689   0.4968 C.3            1 S1                 0.0000
     14 ****         3.4806  -2.8458  -1.5418 C.3            1 S1                 0.0000
     15 ****         3.4077  -2.6309  -2.9421 O.3            1 S1                 0.0000
     16 ****         4.6857  -2.5844  -3.5518 C.3            1 S1                 0.0000
     17 ****        -0.5525  -0.2119  -1.0895 N.2            1 S1                 0.0000
     18 ****        -3.9215   3.3665   3.6385 H              1 S1                 0.0000
     19 ****        -4.6330   3.0627   2.0576 H              1 S1                 0.0000
     20 ****        -3.0756   3.8818   2.1820 H              1 S1                 0.0000
     21 ****        -2.0560   1.7853   3.1442 H              1 S1                 0.0000
     22 ****        -3.5906   0.9592   3.0079 H              1 S1                 0.0000
     23 ****        -1.6700   1.5649   0.8971 H              1 S1                 0.0000
     24 ****        -3.6622   0.1946  -1.7624 H              1 S1                 0.0000
     25 ****        -2.4314   1.4186  -1.5020 H              1 S1                 0.0000
     26 ****        -3.0364  -2.3365  -0.8588 H              1 S1                 0.0000
     27 ****        -0.5839  -3.5376  -0.8297 H              1 S1                 0.0000
     28 ****         2.0615  -0.7387  -1.1605 H              1 S1                 0.0000
     29 ****         1.4649  -3.5620  -1.5531 H              1 S1                 0.0000
     30 ****         2.5084  -4.3661   0.5636 H              1 S1                 0.0000
     31 ****         1.0656  -3.4283   0.9100 H              1 S1                 0.0000
     32 ****         2.6564  -2.7081   1.1386 H              1 S1                 0.0000
     33 ****         4.0829  -2.0722  -1.0616 H              1 S1                 0.0000
     34 ****         3.9725  -3.8022  -1.3568 H              1 S1                 0.0000
     35 ****         4.5744  -2.4203  -4.6235 H              1 S1                 0.0000
     36 ****         5.2256  -3.5214  -3.4096 H              1 S1                 0.0000
     37 ****         5.2858  -1.7686  -3.1468 H              1 S1                 0.0000
     38 ****        -4.9983   0.7139   1.4549 LP             1 S1                 0.0000
     39 ****        -5.1894   0.0919  -0.1503 LP             1 S1                 0.0000
     40 ****         2.9410  -1.7625  -3.1092 LP             1 S1                 0.0000
     41 ****         2.8830  -3.3760  -3.3538 LP             1 S1                 0.0000
     42 ****        -0.1468   0.6986  -1.1694 LP             1 S1                 0.0000
@<TRIPOS>BOND
    1    1    2 1     
    2    1   18 1     
    3    1   19 1     
    4    1   20 1     
    5    2    3 1     
    6    2   21 1     
    7    2   22 1     
    8    3    4 am    
    9    3   23 1     
   10    4    5 2     
   11    4    6 1     
   12    6    7 1     
   13    6   24 1     
   14    6   25 1     
   15    7   17 1     
   16    7    8 1     
   17    8    9 2     
   18    8   26 1     
   19    9   10 1     
   20    9   27 1     
   21   10   11 1     
   22   10   17 2     
   23   11   12 1     
   24   11   28 1     
   25   12   13 1     
   26   12   14 1     
   27   12   29 1     
   28   13   30 1     
   29   13   31 1     
   30   13   32 1     
   31   14   15 1     
   32   14   33 1     
   33   14   34 1     
   34   15   16 1     
   35   16   35 1     
   36   16   36 1     
   37   16   37 1     
   38    5   38 1     
   39    5   39 1     
   40   15   40 1     
   41   15   41 1     
   42   17   42 1     
@<TRIPOS>SUBSTRUCTURE
      1 S1             1
@<TRIPOS>SET
LONE_PAIRS      STATIC     ATOMS    <user>   **** ""
5 38 39 40 41 42
DONOR_HYDROGENS      STATIC     ATOMS    <user>   **** ""
2 23 28
ATOM$BLUE        STATIC     ATOMS    COLORGROUP SYSTEM
5 38 39 40 41 42
ATOM$RED        STATIC     ATOMS    COLORGROUP SYSTEM
2 23 28
