AV-unprocessed.smi:103|AV-procd|sdf|982|dock2
  -GOLD-   2262017543D 1   1.00000     0.00000
 Structure written by MMmdl.
 53 55  0  0  0  0  0  0  0  0  1 V2000
  147.4386  142.7146  158.5410 C   0  0  0  0  0  0  0  0  0  0  0  0
  147.8735  141.6564  157.5359 C   0  0  0  0  0  0  0  0  0  0  0  0
  147.7027  141.8127  156.3267 O   0  0  0  0  0  0  0  0  0  0  0  0
  148.4392  140.5912  158.1268 O   0  0  0  0  0  0  0  0  0  0  0  0
  148.8697  139.4877  157.3446 C   0  0  0  0  0  0  0  0  0  0  0  0
  149.5150  138.4343  158.2613 C   0  0  1  0  0  0  0  0  0  0  0  0
  148.4738  137.8944  159.0769 O   0  0  0  0  0  0  0  0  0  0  0  0
  148.4161  136.5135  158.9332 C   0  0  1  0  0  0  0  0  0  0  0  0
  146.9890  136.0724  159.0017 N   0  0  0  0  0  0  0  0  0  0  0  0
  146.1762  135.8766  160.1006 C   0  0  0  0  0  0  0  0  0  0  0  0
  146.6131  136.1566  161.8127 S   0  0  0  0  0  0  0  0  0  0  0  0
  147.2528  134.5067  162.3116 C   0  0  0  0  0  0  0  0  0  0  0  0
  147.7165  137.1297  161.8218 O   0  0  0  0  0  0  0  0  0  0  0  0
  145.3668  136.4351  162.5422 O   0  0  0  0  0  0  0  0  0  0  0  0
  144.9338  135.5554  159.8600 N   0  0  0  0  0  0  0  0  0  0  0  0
  144.8961  135.4576  158.4764 C   0  0  0  0  0  0  0  0  0  0  0  0
  143.8845  135.1313  157.5383 C   0  0  0  0  0  0  0  0  0  0  0  0
  142.6298  134.8214  157.8936 N   0  0  0  0  0  0  0  0  0  0  0  0
  144.1979  135.1345  156.2215 N   0  0  0  0  0  0  0  0  0  0  0  0
  145.4420  135.4421  155.8414 C   0  0  0  0  0  0  0  0  0  0  0  0
  146.4899  135.7687  156.6017 N   0  0  0  0  0  0  0  0  0  0  0  0
  146.1742  135.7671  157.9295 C   0  0  0  0  0  0  0  0  0  0  0  0
  149.0257  136.1862  157.5789 C   0  0  2  0  0  0  0  0  0  0  0  0
  149.5496  134.8667  157.5938 O   0  0  0  0  0  0  0  0  0  0  0  0
  150.0589  134.3282  156.4751 C   0  0  0  0  0  0  0  0  0  0  0  0
  150.4450  132.8672  156.6608 C   0  0  0  0  0  0  0  0  0  0  0  0
  150.2197  134.9052  155.3997 O   0  0  0  0  0  0  0  0  0  0  0  0
  150.1256  137.2288  157.5155 C   0  0  1  0  0  0  0  0  0  0  0  0
  150.4531  137.4987  156.1576 O   0  0  0  0  0  0  0  0  0  0  0  0
  151.4213  138.3795  155.8565 C   0  0  0  0  0  0  0  0  0  0  0  0
  151.6604  138.4866  154.3566 C   0  0  0  0  0  0  0  0  0  0  0  0
  152.0649  139.0528  156.6612 O   0  0  0  0  0  0  0  0  0  0  0  0
  147.0370  142.2471  159.4403 H   0  0  0  0  0  0  0  0  0  0  0  0
  146.6669  143.3539  158.1116 H   0  0  0  0  0  0  0  0  0  0  0  0
  148.2873  143.3379  158.8227 H   0  0  0  0  0  0  0  0  0  0  0  0
  148.0482  139.0384  156.7863 H   0  0  0  0  0  0  0  0  0  0  0  0
  149.5911  139.8534  156.6137 H   0  0  0  0  0  0  0  0  0  0  0  0
  150.2739  138.9037  158.8880 H   0  0  0  0  0  0  0  0  0  0  0  0
  148.9312  136.0525  159.7743 H   0  0  0  0  0  0  0  0  0  0  0  0
  147.5670  134.5403  163.3544 H   0  0  0  0  0  0  0  0  0  0  0  0
  148.1043  134.2439  161.6840 H   0  0  0  0  0  0  0  0  0  0  0  0
  146.4703  133.7582  162.1912 H   0  0  0  0  0  0  0  0  0  0  0  0
  142.3710  134.8138  158.8698 H   0  0  0  0  0  0  0  0  0  0  0  0
  141.9467  134.5946  157.1856 H   0  0  0  0  0  0  0  0  0  0  0  0
  145.6243  135.4279  154.7767 H   0  0  0  0  0  0  0  0  0  0  0  0
  148.2760  136.3497  156.8027 H   0  0  0  0  0  0  0  0  0  0  0  0
  149.6443  132.3233  157.1627 H   0  0  0  0  0  0  0  0  0  0  0  0
  151.3490  132.7895  157.2648 H   0  0  0  0  0  0  0  0  0  0  0  0
  150.6312  132.3946  155.6963 H   0  0  0  0  0  0  0  0  0  0  0  0
  150.9885  136.8575  158.0719 H   0  0  0  0  0  0  0  0  0  0  0  0
  151.6968  137.4950  153.9050 H   0  0  0  0  0  0  0  0  0  0  0  0
  152.6046  138.9926  154.1547 H   0  0  0  0  0  0  0  0  0  0  0  0
  150.8563  139.0526  153.8863 H   0  0  0  0  0  0  0  0  0  0  0  0
  1  2  1  0  0  0  0
  1 33  1  0  0  0  0
  1 34  1  0  0  0  0
  1 35  1  0  0  0  0
  2  3  2  0  0  0  0
  2  4  1  0  0  0  0
  4  5  1  0  0  0  0
  5  6  1  0  0  0  0
  5 36  1  0  0  0  0
  5 37  1  0  0  0  0
  6 28  1  0  0  0  0
  6  7  1  0  0  0  0
  6 38  1  0  0  0  0
  7  8  1  0  0  0  0
  8  9  1  0  0  0  0
  8 23  1  0  0  0  0
  8 39  1  0  0  0  0
  9 22  1  0  0  0  0
  9 10  1  0  0  0  0
 10 11  1  0  0  0  0
 10 15  2  0  0  0  0
 11 12  1  0  0  0  0
 11 13  2  0  0  0  0
 11 14  2  0  0  0  0
 12 40  1  0  0  0  0
 12 41  1  0  0  0  0
 12 42  1  0  0  0  0
 15 16  1  0  0  0  0
 16 22  2  0  0  0  0
 16 17  1  0  0  0  0
 17 18  1  0  0  0  0
 17 19  2  0  0  0  0
 18 43  1  0  0  0  0
 18 44  1  0  0  0  0
 19 20  1  0  0  0  0
 20 21  2  0  0  0  0
 20 45  1  0  0  0  0
 21 22  1  0  0  0  0
 23 24  1  0  0  0  0
 23 28  1  0  0  0  0
 23 46  1  0  0  0  0
 24 25  1  0  0  0  0
 25 26  1  0  0  0  0
 25 27  2  0  0  0  0
 26 47  1  0  0  0  0
 26 48  1  0  0  0  0
 26 49  1  0  0  0  0
 28 29  1  0  0  0  0
 28 50  1  0  0  0  0
 29 30  1  0  0  0  0
 30 31  1  0  0  0  0
 30 32  2  0  0  0  0
 31 51  1  0  0  0  0
 31 52  1  0  0  0  0
 31 53  1  0  0  0  0
M  END
> <s_m_source_file>
AV-unprocessed.smi

> <i_m_source_file_index>
103

> <i_lp_mmshare_version>
43012

> <i_f3d_flags>
0

> <s_epik_input>
W0NIM11DKD1PKU9bQ0gyXVtDQEBIXTFPW0NASF0oW0NAQEhdKE9DKD1PKVtDSDNdKVtDQEhdMU9DKD1PKVtDSDNdKW4oYyhuMilTKD1PKSg9TylbQ0gzXSljKGMyMyluW2NIXW5jM1tOSDJd

> <s_epik_cmdline>
J2VwaWtfcHl0aG9uJywgJy1waCcsICc3LjAnLCAnLXRuJywgJzgnLCAnLW1hJywgJzIwMCcsICctbWV0YWxfYmluZGluZycsICctaW1hZScsICc8aW5maWxlLm1hZT4nLCAnLW9tYWUnLCAnPG91dGZpbGUubWFlPic=

> <r_lp_tautomer_probability>
1

> <r_epik_Ionization_Penalty>
1.51338e-05

> <r_epik_Ionization_Penalty_Charging>
0

> <r_epik_Ionization_Penalty_Neutral>
1.51338e-05

> <r_epik_State_Penalty>
-0

> <r_epik_Charging_Adjusted_Penalty>
0

> <i_epik_Tot_Q>
0

> <i_epik_Tot_abs_Q>
0

> <r_epik_Metal_State_Penalty>
-0

> <b_epik_Metal_Only>
0

> <s_epik_Chemistry_Notes>
This compound has an ester and may undergo hydrolysis at high or low pH. This compound contains an acetal/aminal-like group ( X-CH(R)-Y where X, Y are N, S, or O) that may be acid/base labile, releasing an aldehyde.

> <s_lp_Force_Field>
OPLS_2005

> <r_lp_Energy>
15.9567

> <b_lp_Chiralities_Consistent>
1

> <s_lp_Variant>
AV-unprocessed.smi:103-6

> <Gold.Version>
5.8.1

> <Gold.Id.Protein>
6NUR|6NUR_protein|mol2

> <Gold.PLP.Fitness>
34.9103

> <Gold.PLP.PLP>
-28.2824

> <Gold.PLP.part.hbond>
-5.3399

> <Gold.PLP.part.metal>
0.0000

> <Gold.PLP.part.buried>
-6.1470

> <Gold.PLP.part.nonpolar>
-16.7527

> <Gold.PLP.part.repulsive>
0.2819

> <Gold.PLP.ligand.clash>
0.0169

> <Gold.PLP.ligand.torsion>
1.6576

> <Gold.PLP.Chemscore.Hbond>
2.5926

> <Gold.PLP.Chemscore.CHOScore>
0.0000

> <Gold.PLP.Chemscore.Metal>
0.0000

> <Gold.Chemscore.Hbonds>
donor molecule, donor type, donor heavy atom, donor atom, acceptor molecule, acceptor atom, score
      L1  H    18    44       P1 11000  1.00
      P1  H  6931  6943       L1    13  1.00
      P1  H  6934  6947       L1    13  0.48

> <Gold.PLP.Chemscore.Internal.Correction>
2.1822

> <Gold.Rescore>
     Score         DG    S(hbond)    S(metal)    S(lipo)     H(rot)  DE(clash)    DE(int)     intcor
      1.28      -6.93       2.59        0.00      31.41       4.25       0.02       5.64       ----

> <Gold.Chemscore.Fitness>
1.2794

> <Gold.Chemscore.DG>
-6.9343

> <Gold.Chemscore.ZeroCoef>
-5.4800

> <Gold.Chemscore.Hbond>
2.5893

> <Gold.Chemscore.Metal>
0.0000

> <Gold.Chemscore.Lipo>
31.4063

> <Gold.Chemscore.Internal_Hbond>
0.0000

> <Gold.Chemscore.DEClash>
0.0186

> <Gold.Chemscore.DEInternal>
5.6362

> <Gold.Chemscore.Rot>
4.2456

> <Gold.Chemscore.Internal.Correction>
   9.000000E+99

> <Gold.Chemscore.Hbonds>
donor molecule, donor type, donor heavy atom, donor atom, acceptor molecule, acceptor atom, score
      L1  H    18    44       P1 11000  0.53
      P1  H  6931  6943       L1    13  0.97
      P1  H  6934  6947       L1    13  0.42

> <Gold.Chemscore.Hbond.Weighted>
-8.6484

> <Gold.Chemscore.Metal.Weighted>
-0.0000

> <Gold.Chemscore.Lipo.Weighted>
-3.6745

> <Gold.Chemscore.Internal_Hbond.Weighted>
0.0000

> <Gold.Chemscore.DEClash.Weighted>
0.0186

> <Gold.Chemscore.DEInternal.Weighted>
5.6362

> <Gold.Chemscore.Rot.Weighted>
10.8687

> <Gold.Chemscore.Internal.Correction.Weighted>
   9.000000E+99

> <Gold.Protein.RotatedTorsions>
[ 6907 6896 6895 6894 ] final  -68.88 input  -60.11 | X-H torsion
[ 7974 7965 7964 7962 ] final   75.55 input  175.53 | X-H torsion
[ 8008 7997 7996 7995 ] final   83.25 input   59.86 | X-H torsion
[ 10167 10162 10161 10158 ] final   76.00 input  -65.29 | X-H torsion
[ 10718 10713 10712 10709 ] final  -63.24 input   66.30 | X-H torsion
[ 10763 10752 10751 10750 ] final   55.17 input  -60.55 | X-H torsion
[ 11005 11000 10999 10996 ] final   94.85 input  -57.11 | X-H torsion

> <Gold.Protein.ActiveResidues>
 VAL166  LYS551  ARG553  GLY616  TRP617  ASP618  TYR619  PRO620  LYS621  CYS622 
 ASP623  PHE694  ASN695  SER759  ASP760  ASP761  ALA762  ILE779  LEU786  VAL792 
 PHE793  MET794  SER795  GLU796  ALA797  LYS798  CYS799  TRP800  GLU811  SER814 

> <Gold.Protein.RotatedAtoms>
  150.7333  134.5676  159.5873 H   0  0  0  0  0  0  0  0  0  0  0  0  # atno 6907 bound_to 6896
  152.3123  134.7479  160.0342 H   0  0  0  0  0  0  0  0  0  0  0  0  # atno 6908 bound_to 6896
  151.8023  133.3336  159.3567 H   0  0  0  0  0  0  0  0  0  0  0  0  # atno 6909 bound_to 6896
  145.7142  139.2625  143.1633 H   0  0  0  0  0  0  0  0  0  0  0  0  # atno 7974 bound_to 7965
  155.9214  140.3421  155.6176 H   0  0  0  0  0  0  0  0  0  0  0  0  # atno 8008 bound_to 7997
  155.7269  140.0790  157.2325 H   0  0  0  0  0  0  0  0  0  0  0  0  # atno 8009 bound_to 7997
  154.4070  140.1595  156.2452 H   0  0  0  0  0  0  0  0  0  0  0  0  # atno 8010 bound_to 7997
  139.9969  144.5715  150.7770 H   0  0  0  0  0  0  0  0  0  0  0  0  # atno 10167 bound_to 10162
  156.0804  130.4218  150.1248 H   0  0  0  0  0  0  0  0  0  0  0  0  # atno 10718 bound_to 10713
  152.9813  135.5720  154.5023 H   0  0  0  0  0  0  0  0  0  0  0  0  # atno 10763 bound_to 10752
  154.4541  135.2779  155.1762 H   0  0  0  0  0  0  0  0  0  0  0  0  # atno 10764 bound_to 10752
  154.3378  135.6236  153.5635 H   0  0  0  0  0  0  0  0  0  0  0  0  # atno 10765 bound_to 10752
  139.8794  134.8868  156.3925 H   0  0  0  0  0  0  0  0  0  0  0  0  # atno 11005 bound_to 11000
  146.0685  140.7894  142.9700 LP  0  0  0  0  0  0  0  0  0  0  0  0  # atno 17320 bound_to 7965
  144.6934  140.3306  143.7216 LP  0  0  0  0  0  0  0  0  0  0  0  0  # atno 17321 bound_to 7965
  140.7434  143.2845  151.3503 LP  0  0  0  0  0  0  0  0  0  0  0  0  # atno 17342 bound_to 10162
  139.6300  144.0740  152.2467 LP  0  0  0  0  0  0  0  0  0  0  0  0  # atno 17343 bound_to 10162
  156.9281  130.9705  151.3537 LP  0  0  0  0  0  0  0  0  0  0  0  0  # atno 17370 bound_to 10713
  157.5918  130.8449  149.8670 LP  0  0  0  0  0  0  0  0  0  0  0  0  # atno 17371 bound_to 10713
  140.9323  133.7571  156.0040 LP  0  0  0  0  0  0  0  0  0  0  0  0  # atno 17394 bound_to 11000
  140.8316  134.3171  157.5346 LP  0  0  0  0  0  0  0  0  0  0  0  0  # atno 17395 bound_to 11000

$$$$
