#       Name:                AV-unprocessed.smi:2153
#       Creating user name   scv26
#       Creation time:       Fri Mar 27 11:54:42 2020


#       File generated by GOLD software.
#

@<TRIPOS>MOLECULE
AV-unprocessed.smi:2153
    56    57     1
SMALL
NO_CHARGES


@<TRIPOS>ATOM
      1 ****        -0.9472  -0.2010   3.3083 C.3            1 S1                 0.0000
      2 ****        -1.6311   0.6398   2.2186 C.3            1 S1                 0.0000
      3 ****        -0.6039   1.4123   1.3639 C.3            1 S1                 0.0000
      4 ****        -1.2947   2.2820   0.3009 C.3            1 S1                 0.0000
      5 ****        -2.2409   1.4506  -0.5787 C.3            1 S1                 0.0000
      6 ****        -3.2608   0.6831   0.2761 C.3            1 S1                 0.0000
      7 ****        -2.5631  -0.2104   1.3256 C.3            1 S1                 0.0000
      8 ****        -1.7615  -1.2203   0.7242 O.3            1 S1                 0.0000
      9 ****        -2.4504  -2.2274  -0.0002 C.3            1 S1                 0.0000
     10 ****        -1.4579  -3.3429  -0.3617 C.3            1 S1                 0.0000
     11 ****        -0.3913  -2.8546  -1.2311 N.am           1 S1                 0.0000
     12 ****         0.7626  -2.3177  -0.8039 C.2            1 S1                 0.0000
     13 ****         1.0596  -2.2158   0.3874 O.2            1 S1                 0.0000
     14 ****         1.7375  -1.8423  -1.8886 C.3            1 S1                 0.0000
     15 ****         2.5147  -0.6707  -1.4639 N.am           1 S1                 0.0000
     16 ****         3.7665  -0.8475  -0.9030 C.2            1 S1                 0.0000
     17 ****         4.5304   0.1702  -0.4497 C.2            1 S1                 0.0000
     18 ****         4.0632   1.5482  -0.5322 C.2            1 S1                 0.0000
     19 ****         4.7126   2.5088  -0.1160 O.2            1 S1                 0.0000
     20 ****         2.7886   1.7037  -1.1239 N.am           1 S1                 0.0000
     21 ****         2.2713   3.0533  -1.2142 C.3            1 S1                 0.0000
     22 ****         1.9878   0.6334  -1.5859 C.2            1 S1                 0.0000
     23 ****         0.8687   0.8095  -2.0720 O.2            1 S1                 0.0000
     24 ****        -0.2804  -0.9483   2.8770 H              1 S1                 0.0000
     25 ****        -1.6824  -0.7243   3.9199 H              1 S1                 0.0000
     26 ****        -0.3529   0.4272   3.9718 H              1 S1                 0.0000
     27 ****        -2.2517   1.3768   2.7308 H              1 S1                 0.0000
     28 ****         0.0150   2.0432   2.0026 H              1 S1                 0.0000
     29 ****         0.0758   0.7118   0.8765 H              1 S1                 0.0000
     30 ****        -1.8579   3.0765   0.7916 H              1 S1                 0.0000
     31 ****        -0.5479   2.7742  -0.3213 H              1 S1                 0.0000
     32 ****        -2.7590   2.1007  -1.2838 H              1 S1                 0.0000
     33 ****        -1.6651   0.7440  -1.1767 H              1 S1                 0.0000
     34 ****        -3.9038   1.3990   0.7897 H              1 S1                 0.0000
     35 ****        -3.9246   0.1003  -0.3613 H              1 S1                 0.0000
     36 ****        -3.3179  -0.6869   1.9534 H              1 S1                 0.0000
     37 ****        -3.2583  -2.6393   0.6058 H              1 S1                 0.0000
     38 ****        -2.8927  -1.8178  -0.9082 H              1 S1                 0.0000
     39 ****        -1.0452  -3.7930   0.5428 H              1 S1                 0.0000
     40 ****        -1.9826  -4.1401  -0.8882 H              1 S1                 0.0000
     41 ****        -0.5525  -2.9054  -2.2265 H              1 S1                 0.0000
     42 ****         2.4111  -2.6671  -2.1246 H              1 S1                 0.0000
     43 ****         1.1981  -1.6293  -2.8135 H              1 S1                 0.0000
     44 ****         4.1526  -1.8526  -0.8126 H              1 S1                 0.0000
     45 ****         5.4973  -0.0384  -0.0159 H              1 S1                 0.0000
     46 ****         1.4425   3.1046  -1.9203 H              1 S1                 0.0000
     47 ****         3.0708   3.7024  -1.5759 H              1 S1                 0.0000
     48 ****         1.9494   3.3367  -0.2109 H              1 S1                 0.0000
     49 ****        -1.2430  -1.6700   1.4515 LP             1 S1                 0.0000
     50 ****        -1.1292  -0.7707   0.0931 LP             1 S1                 0.0000
     51 ****         0.4271  -2.5416   1.0900 LP             1 S1                 0.0000
     52 ****         1.9333  -1.8073   0.6517 LP             1 S1                 0.0000
     53 ****         5.6084   2.3626   0.3038 LP             1 S1                 0.0000
     54 ****         4.3440   3.4348  -0.1980 LP             1 S1                 0.0000
     55 ****         0.3295   0.0266  -2.3822 LP             1 S1                 0.0000
     56 ****         0.5002   1.7353  -2.1562 LP             1 S1                 0.0000
@<TRIPOS>BOND
    1    1    2 1     
    2    1   24 1     
    3    1   25 1     
    4    1   26 1     
    5    2    7 1     
    6    2    3 1     
    7    2   27 1     
    8    3    4 1     
    9    3   28 1     
   10    3   29 1     
   11    4    5 1     
   12    4   30 1     
   13    4   31 1     
   14    5    6 1     
   15    5   32 1     
   16    5   33 1     
   17    6    7 1     
   18    6   34 1     
   19    6   35 1     
   20    7    8 1     
   21    7   36 1     
   22    8    9 1     
   23    9   10 1     
   24    9   37 1     
   25    9   38 1     
   26   10   11 1     
   27   10   39 1     
   28   10   40 1     
   29   11   12 am    
   30   11   41 1     
   31   12   13 2     
   32   12   14 1     
   33   14   15 1     
   34   14   42 1     
   35   14   43 1     
   36   15   22 am    
   37   15   16 1     
   38   16   17 2     
   39   16   44 1     
   40   17   18 1     
   41   17   45 1     
   42   18   19 2     
   43   18   20 am    
   44   20   21 1     
   45   20   22 am    
   46   21   46 1     
   47   21   47 1     
   48   21   48 1     
   49   22   23 2     
   50    8   49 1     
   51    8   50 1     
   52   13   51 1     
   53   13   52 1     
   54   19   53 1     
   55   19   54 1     
   56   23   55 1     
   57   23   56 1     
@<TRIPOS>SUBSTRUCTURE
      1 S1             1
@<TRIPOS>SET
LONE_PAIRS      STATIC     ATOMS    <user>   **** ""
8 49 50 51 52 53 54 55 56
DONOR_HYDROGENS      STATIC     ATOMS    <user>   **** ""
1 41
ATOM$BLUE        STATIC     ATOMS    COLORGROUP SYSTEM
8 49 50 51 52 53 54 55 56
ATOM$RED        STATIC     ATOMS    COLORGROUP SYSTEM
1 41
