AV-unprocessed.smi:72|AV-procd|sdf|745|dock2
  -GOLD-   2262017 73D 1   1.00000     0.00000
 Structure written by MMmdl.
 29 30  0  0  0  0  0  0  0  0  1 V2000
  150.2893  134.1915  156.2867 N   0  0  0  0  0  0  0  0  0  0  0  0
  150.2027  135.4659  155.7671 C   0  0  0  0  0  0  0  0  0  0  0  0
  148.9442  136.0786  155.8268 N   0  0  0  0  0  0  0  0  0  0  0  0
  148.8550  137.2718  155.3307 C   0  0  0  0  0  0  0  0  0  0  0  0
  150.0037  137.9285  154.7249 N   0  0  0  0  0  0  0  0  0  0  0  0
  149.9416  139.3331  154.1444 C   0  0  2  0  0  0  0  0  0  0  0  0
  150.7770  140.1872  154.8719 O   0  0  0  0  0  0  0  0  0  0  0  0
  150.0107  140.9154  155.8270 C   0  0  1  0  0  0  0  0  0  0  0  0
  150.7818  142.1416  156.3451 C   0  0  0  0  0  0  0  0  0  0  0  0
  150.0120  142.8214  157.3139 O   0  0  0  0  0  0  0  0  0  0  0  0
  148.7309  141.2142  155.0411 C   0  0  1  0  0  0  0  0  0  0  0  0
  148.9185  142.3372  154.1943 O   0  0  0  0  0  0  0  0  0  0  0  0
  148.5154  139.9168  154.2608 C   0  0  1  0  0  0  0  0  0  0  0  0
  147.8918  140.1359  153.0089 O   0  0  0  0  0  0  0  0  0  0  0  0
  151.2589  137.2581  154.7339 C   0  0  0  0  0  0  0  0  0  0  0  0
  152.2579  137.8111  154.2737 O   0  0  0  0  0  0  0  0  0  0  0  0
  151.2988  135.9689  155.2772 N   0  0  0  0  0  0  0  0  0  0  0  0
  150.3145  139.2397  153.1228 H   0  0  0  0  0  0  0  0  0  0  0  0
  149.7490  140.2618  156.6613 H   0  0  0  0  0  0  0  0  0  0  0  0
  147.8910  141.4264  155.7034 H   0  0  0  0  0  0  0  0  0  0  0  0
  147.8962  139.2429  154.8552 H   0  0  0  0  0  0  0  0  0  0  0  0
  151.1438  133.6538  156.3000 H   0  0  0  0  0  0  0  0  0  0  0  0
  149.5049  133.7012  156.6915 H   0  0  0  0  0  0  0  0  0  0  0  0
  147.9261  137.8420  155.3415 H   0  0  0  0  0  0  0  0  0  0  0  0
  151.7487  141.8582  156.7620 H   0  0  0  0  0  0  0  0  0  0  0  0
  150.9694  142.8396  155.5286 H   0  0  0  0  0  0  0  0  0  0  0  0
  149.6205  143.5795  156.9074 H   0  0  0  0  0  0  0  0  0  0  0  0
  148.6960  143.1150  154.6832 H   0  0  0  0  0  0  0  0  0  0  0  0
  148.5210  139.9564  152.3266 H   0  0  0  0  0  0  0  0  0  0  0  0
  1  2  1  0  0  0  0
  1 22  1  0  0  0  0
  1 23  1  0  0  0  0
  2 17  2  0  0  0  0
  2  3  1  0  0  0  0
  3  4  2  0  0  0  0
  4  5  1  0  0  0  0
  4 24  1  0  0  0  0
  5  6  1  0  0  0  0
  5 15  1  0  0  0  0
  6 18  1  0  0  0  0
  6 13  1  0  0  0  0
  6  7  1  0  0  0  0
  7  8  1  0  0  0  0
  8 19  1  0  0  0  0
  8  9  1  0  0  0  0
  8 11  1  0  0  0  0
  9 10  1  0  0  0  0
  9 25  1  0  0  0  0
  9 26  1  0  0  0  0
 10 27  1  0  0  0  0
 11 20  1  0  0  0  0
 11 12  1  0  0  0  0
 11 13  1  0  0  0  0
 12 28  1  0  0  0  0
 13 21  1  0  0  0  0
 13 14  1  0  0  0  0
 14 29  1  0  0  0  0
 15 16  2  0  0  0  0
 15 17  1  0  0  0  0
M  END
> <s_m_source_file>
AV-unprocessed.smi

> <i_m_source_file_index>
72

> <i_lp_mmshare_version>
43012

> <i_f3d_flags>
0

> <s_epik_input>
W05IMl1jMW5bY0hdbihjKD1PKW4xKVtDQEBIXTJPW0NASF0oW0NIMl1bT0hdKVtDQEBIXShbT0hdKVtDQEhdMltPSF0=

> <s_epik_cmdline>
J2VwaWtfcHl0aG9uJywgJy1waCcsICc3LjAnLCAnLXRuJywgJzgnLCAnLW1hJywgJzIwMCcsICctbWV0YWxfYmluZGluZycsICctaW1hZScsICc8aW5maWxlLm1hZT4nLCAnLW9tYWUnLCAnPG91dGZpbGUubWFlPic=

> <r_lp_tautomer_probability>
4.77166e-05

> <r_epik_Ionization_Penalty>
1.3546

> <r_epik_Ionization_Penalty_Charging>
1.46833e-10

> <r_epik_Ionization_Penalty_Neutral>
1.3546

> <r_epik_State_Penalty>
3.51908

> <r_epik_Charging_Adjusted_Penalty>
3.51908

> <i_epik_Tot_Q>
0

> <i_epik_Tot_abs_Q>
0

> <r_epik_Metal_State_Penalty>
3.44088

> <b_epik_Metal_Only>
1

> <s_epik_Chemistry_Notes>
This compound contains an acetal/aminal-like group ( X-CH(R)-Y where X, Y are N, S, or O) that may be acid/base labile, releasing an aldehyde.

> <s_lp_Force_Field>
OPLS_2005

> <r_lp_Energy>
31.2985

> <b_lp_Chiralities_Consistent>
1

> <s_lp_Variant>
AV-unprocessed.smi:72-83

> <Gold.Version>
5.8.1

> <Gold.Id.Protein>
6NUR|6NUR_protein|mol2

> <Gold.PLP.Fitness>
42.7889

> <Gold.PLP.PLP>
-27.2850

> <Gold.PLP.part.hbond>
-6.9743

> <Gold.PLP.part.metal>
0.0000

> <Gold.PLP.part.buried>
-4.0500

> <Gold.PLP.part.nonpolar>
-17.0118

> <Gold.PLP.part.repulsive>
0.4821

> <Gold.PLP.ligand.clash>
0.0000

> <Gold.PLP.ligand.torsion>
0.0204

> <Gold.PLP.Chemscore.Hbond>
5.1740

> <Gold.PLP.Chemscore.CHOScore>
0.0000

> <Gold.PLP.Chemscore.Metal>
0.0000

> <Gold.Chemscore.Hbonds>
donor molecule, donor type, donor heavy atom, donor atom, acceptor molecule, acceptor atom, score
      L1  H    10    27       P1  8028  1.00
      L1  H    12    28       P1  8028  1.00
      L1  H    14    29       P1  7957  1.00
      P1  H  7989  7998       L1     7  0.85
      P1  H  8011  8017       L1    12  0.21
      P1  H 10752 10765       L1    17  0.95

> <Gold.PLP.Chemscore.Internal.Correction>
0.0227

> <Gold.Rescore>
     Score         DG    S(hbond)    S(metal)    S(lipo)     H(rot)  DE(clash)    DE(int)     intcor
     10.82     -12.38       4.27        0.00      25.90       4.06       0.23       1.33       ----

> <Gold.Chemscore.Fitness>
10.8168

> <Gold.Chemscore.DG>
-12.3838

> <Gold.Chemscore.ZeroCoef>
-5.4800

> <Gold.Chemscore.Hbond>
4.2717

> <Gold.Chemscore.Metal>
0.0000

> <Gold.Chemscore.Lipo>
25.8958

> <Gold.Chemscore.Internal_Hbond>
0.0000

> <Gold.Chemscore.DEClash>
0.2329

> <Gold.Chemscore.DEInternal>
1.3341

> <Gold.Chemscore.Rot>
4.0600

> <Gold.Chemscore.Internal.Correction>
   9.000000E+99

> <Gold.Chemscore.Hbonds>
donor molecule, donor type, donor heavy atom, donor atom, acceptor molecule, acceptor atom, score
      L1  H    10    27       P1  8028  0.98
      L1  H    12    28       P1  8028  1.00
      L1  H    14    29       P1  7957  0.98
      P1  H  7989  7998       L1     7  0.15
      P1  H  8011  8017       L1    12  0.20
      P1  H 10752 10765       L1    17  0.22

> <Gold.Chemscore.Hbond.Weighted>
-14.2676

> <Gold.Chemscore.Metal.Weighted>
-0.0000

> <Gold.Chemscore.Lipo.Weighted>
-3.0298

> <Gold.Chemscore.Internal_Hbond.Weighted>
0.0000

> <Gold.Chemscore.DEClash.Weighted>
0.2329

> <Gold.Chemscore.DEInternal.Weighted>
1.3341

> <Gold.Chemscore.Rot.Weighted>
10.3936

> <Gold.Chemscore.Internal.Correction.Weighted>
   9.000000E+99

> <Gold.Protein.RotatedTorsions>
[ 6907 6896 6895 6894 ] final   12.02 input  -60.11 | X-H torsion
[ 7974 7965 7964 7962 ] final  127.94 input  175.53 | X-H torsion
[ 8008 7997 7996 7995 ] final   55.17 input   59.86 | X-H torsion
[ 10167 10162 10161 10158 ] final  -89.63 input  -65.29 | X-H torsion
[ 10718 10713 10712 10709 ] final  -49.14 input   66.30 | X-H torsion
[ 10763 10752 10751 10750 ] final -166.47 input  -60.55 | X-H torsion
[ 11005 11000 10999 10996 ] final -168.91 input  -57.11 | X-H torsion

> <Gold.Protein.ActiveResidues>
 VAL166  LYS551  ARG553  GLY616  TRP617  ASP618  TYR619  PRO620  LYS621  CYS622 
 ASP623  PHE694  ASN695  SER759  ASP760  ASP761  ALA762  ILE779  LEU786  VAL792 
 PHE793  MET794  SER795  GLU796  ALA797  LYS798  CYS799  TRP800  GLU811  SER814 

> <Gold.Protein.RotatedAtoms>
  151.7637  135.0803  160.0349 H   0  0  0  0  0  0  0  0  0  0  0  0  # atno 6907 bound_to 6896
  152.3336  133.5981  159.5835 H   0  0  0  0  0  0  0  0  0  0  0  0  # atno 6908 bound_to 6896
  150.7437  133.9747  159.3598 H   0  0  0  0  0  0  0  0  0  0  0  0  # atno 6909 bound_to 6896
  145.0450  139.3930  143.5082 H   0  0  0  0  0  0  0  0  0  0  0  0  # atno 7974 bound_to 7965
  155.4967  140.3473  155.4364 H   0  0  0  0  0  0  0  0  0  0  0  0  # atno 8008 bound_to 7997
  156.0941  140.1418  156.9582 H   0  0  0  0  0  0  0  0  0  0  0  0  # atno 8009 bound_to 7997
  154.4653  140.0920  156.6980 H   0  0  0  0  0  0  0  0  0  0  0  0  # atno 8010 bound_to 7997
  140.3629  143.2833  151.9593 H   0  0  0  0  0  0  0  0  0  0  0  0  # atno 10167 bound_to 10162
  156.1921  130.4153  149.9357 H   0  0  0  0  0  0  0  0  0  0  0  0  # atno 10718 bound_to 10713
  154.6830  135.2957  154.9587 H   0  0  0  0  0  0  0  0  0  0  0  0  # atno 10763 bound_to 10752
  154.0575  135.6636  153.4812 H   0  0  0  0  0  0  0  0  0  0  0  0  # atno 10764 bound_to 10752
  153.0560  135.5144  154.7882 H   0  0  0  0  0  0  0  0  0  0  0  0  # atno 10765 bound_to 10752
  140.5367  134.5563  157.5089 H   0  0  0  0  0  0  0  0  0  0  0  0  # atno 11005 bound_to 11000
  146.3513  140.0071  142.8670 LP  0  0  0  0  0  0  0  0  0  0  0  0  # atno 17320 bound_to 7965
  145.1599  140.9667  143.4383 LP  0  0  0  0  0  0  0  0  0  0  0  0  # atno 17321 bound_to 7965
  139.4812  144.5977  151.7662 LP  0  0  0  0  0  0  0  0  0  0  0  0  # atno 17342 bound_to 10162
  140.5109  144.1026  150.5995 LP  0  0  0  0  0  0  0  0  0  0  0  0  # atno 17343 bound_to 10162
  156.7093  130.8964  151.3608 LP  0  0  0  0  0  0  0  0  0  0  0  0  # atno 17370 bound_to 10713
  157.6935  130.9258  150.0580 LP  0  0  0  0  0  0  0  0  0  0  0  0  # atno 17371 bound_to 10713
  139.9526  134.7591  156.0415 LP  0  0  0  0  0  0  0  0  0  0  0  0  # atno 17394 bound_to 11000
  141.1251  133.6601  156.3315 LP  0  0  0  0  0  0  0  0  0  0  0  0  # atno 17395 bound_to 11000

$$$$
