#       Name:                AV-unprocessed.smi:2108
#       Creating user name   scv26
#       Creation time:       Fri Mar 27 11:34:27 2020


#       File generated by GOLD software.
#

@<TRIPOS>MOLECULE
AV-unprocessed.smi:2108
    40    41     1
SMALL
NO_CHARGES


@<TRIPOS>ATOM
      1 ****        -3.8809   0.6307   1.0755 O.2            1 S1                 0.0000
      2 ****        -2.4335   0.8895   1.1050 S.o2           1 S1                 0.0000
      3 ****        -1.8311   1.7477   2.1368 O.2            1 S1                 0.0000
      4 ****        -1.6034  -0.6236   1.1112 N.3            1 S1                 0.0000
      5 ****        -0.1450  -0.6507   0.9959 C.3            1 S1                 0.0000
      6 ****         0.3908  -2.0564   1.2957 C.3            1 S1                 0.0000
      7 ****         1.9026  -2.1237   1.1867 C.ar           1 S1                 0.0000
      8 ****         2.7120  -2.0427   2.3399 C.ar           1 S1                 0.0000
      9 ****         4.1106  -2.0937   2.1831 C.ar           1 S1                 0.0000
     10 ****         4.6431  -2.2220   0.8856 C.ar           1 S1                 0.0000
     11 ****         3.7497  -2.2933  -0.2017 C.ar           1 S1                 0.0000
     12 ****         2.4070  -2.2447  -0.0623 N.ar           1 S1                 0.0000
     13 ****        -1.9534   1.4759  -0.4527 N.3            1 S1                 0.0000
     14 ****        -1.9806   2.9317  -0.6639 C.3            1 S1                 0.0000
     15 ****        -1.2582   3.3106  -1.9670 C.3            1 S1                 0.0000
     16 ****        -1.8038   2.5847  -3.0582 O.3            1 S1                 0.0000
     17 ****        -1.6261   1.1859  -2.8931 C.3            1 S1                 0.0000
     18 ****        -2.3695   0.7043  -1.6370 C.3            1 S1                 0.0000
     19 ****        -2.0814  -1.3469   0.5744 H              1 S1                 0.0000
     20 ****         0.1403  -0.3421  -0.0104 H              1 S1                 0.0000
     21 ****         0.2845   0.0714   1.6912 H              1 S1                 0.0000
     22 ****         0.0891  -2.3653   2.2977 H              1 S1                 0.0000
     23 ****        -0.0470  -2.7799   0.6061 H              1 S1                 0.0000
     24 ****         2.2733  -1.9393   3.3217 H              1 S1                 0.0000
     25 ****         4.7626  -2.0336   3.0420 H              1 S1                 0.0000
     26 ****         5.7107  -2.2639   0.7271 H              1 S1                 0.0000
     27 ****         4.1234  -2.3899  -1.2103 H              1 S1                 0.0000
     28 ****        -3.0187   3.2643  -0.6970 H              1 S1                 0.0000
     29 ****        -1.5076   3.4369   0.1782 H              1 S1                 0.0000
     30 ****        -1.3718   4.3774  -2.1599 H              1 S1                 0.0000
     31 ****        -0.1874   3.1166  -1.8856 H              1 S1                 0.0000
     32 ****        -2.0125   0.6746  -3.7749 H              1 S1                 0.0000
     33 ****        -0.5632   0.9467  -2.8287 H              1 S1                 0.0000
     34 ****        -2.1790  -0.3571  -1.4810 H              1 S1                 0.0000
     35 ****        -3.4457   0.8191  -1.7717 H              1 S1                 0.0000
     36 ****        -1.6781  -0.8605   2.0799 LP             1 S1                 0.0000
     37 ****         1.8042  -2.2966  -0.8585 LP             1 S1                 0.0000
     38 ****        -0.9800   1.2616  -0.3717 LP             1 S1                 0.0000
     39 ****        -1.3484   2.8730  -3.9005 LP             1 S1                 0.0000
     40 ****        -2.7818   2.7826  -3.1236 LP             1 S1                 0.0000
@<TRIPOS>BOND
    1    1    2 2     
    2    2    3 2     
    3    2    4 1     
    4    2   13 1     
    5    4    5 1     
    6    4   19 1     
    7    5    6 1     
    8    5   20 1     
    9    5   21 1     
   10    6    7 1     
   11    6   22 1     
   12    6   23 1     
   13    7   12 ar    
   14    7    8 ar    
   15    8    9 ar    
   16    8   24 1     
   17    9   10 ar    
   18    9   25 1     
   19   10   11 ar    
   20   10   26 1     
   21   11   12 ar    
   22   11   27 1     
   23   13   18 1     
   24   13   14 1     
   25   14   15 1     
   26   14   28 1     
   27   14   29 1     
   28   15   16 1     
   29   15   30 1     
   30   15   31 1     
   31   16   17 1     
   32   17   18 1     
   33   17   32 1     
   34   17   33 1     
   35   18   34 1     
   36   18   35 1     
   37    4   36 1     
   38   12   37 1     
   39   13   38 1     
   40   16   39 1     
   41   16   40 1     
@<TRIPOS>SUBSTRUCTURE
      1 S1             1
@<TRIPOS>SET
LONE_PAIRS      STATIC     ATOMS    <user>   **** ""
7 1 3 36 37 38 39 40
DONOR_HYDROGENS      STATIC     ATOMS    <user>   **** ""
1 19
ATOM$BLUE        STATIC     ATOMS    COLORGROUP SYSTEM
7 1 3 36 37 38 39 40
ATOM$RED        STATIC     ATOMS    COLORGROUP SYSTEM
1 19
