AV-unprocessed.smi:35|AV-procd|sdf|256|dock10
  -GOLD-   2262016 23D 1   1.00000     0.00000
 Structure written by MMmdl.
 29 30  0  0  0  0  0  0  0  0  1 V2000
  150.7323  143.6854  158.0853 O   0  0  0  0  0  0  0  0  0  0  0  0
  150.9328  142.5895  157.5661 C   0  0  0  0  0  0  0  0  0  0  0  0
  150.3868  142.2897  156.3158 N   0  0  0  0  0  0  0  0  0  0  0  0
  150.5366  141.0811  155.6330 C   0  0  0  0  0  0  0  0  0  0  0  0
  150.0470  140.9509  154.5122 O   0  0  0  0  0  0  0  0  0  0  0  0
  151.2658  140.0536  156.2778 N   0  0  0  0  0  0  0  0  0  0  0  0
  151.4841  138.7362  155.5486 C   0  0  1  0  0  0  0  0  0  0  0  0
  151.9003  137.7609  156.4644 O   0  0  0  0  0  0  0  0  0  0  0  0
  150.8506  136.8464  156.7767 C   0  0  1  0  0  0  0  0  0  0  0  0
  149.9985  137.3624  157.9602 C   0  0  0  0  0  0  0  0  0  0  0  0
  150.0682  136.4516  159.0364 O   0  0  0  0  0  0  0  0  0  0  0  0
  150.1182  136.7653  155.4331 C   0  0  1  0  0  0  0  0  0  0  0  0
  148.7832  136.3133  155.5517 O   0  0  0  0  0  0  0  0  0  0  0  0
  150.1877  138.1904  154.8996 C   0  0  2  0  0  0  0  0  0  0  0  0
  150.2721  138.1587  153.4883 O   0  0  0  0  0  0  0  0  0  0  0  0
  151.8810  140.3345  157.4944 C   0  0  0  0  0  0  0  0  0  0  0  0
  151.7345  141.5155  158.1392 C   0  0  0  0  0  0  0  0  0  0  0  0
  152.6797  141.7014  159.8704 Br  0  0  0  0  0  0  0  0  0  0  0  0
  149.8495  143.0142  155.8619 H   0  0  0  0  0  0  0  0  0  0  0  0
  152.2908  138.9434  154.8429 H   0  0  0  0  0  0  0  0  0  0  0  0
  151.2684  135.8713  157.0311 H   0  0  0  0  0  0  0  0  0  0  0  0
  150.2873  138.3613  158.2832 H   0  0  0  0  0  0  0  0  0  0  0  0
  148.9477  137.4194  157.6775 H   0  0  0  0  0  0  0  0  0  0  0  0
  149.2727  136.5222  159.5418 H   0  0  0  0  0  0  0  0  0  0  0  0
  150.6694  136.0880  154.7780 H   0  0  0  0  0  0  0  0  0  0  0  0
  148.6236  136.0925  156.4568 H   0  0  0  0  0  0  0  0  0  0  0  0
  149.3231  138.7679  155.2313 H   0  0  0  0  0  0  0  0  0  0  0  0
  149.8199  137.3872  153.1809 H   0  0  0  0  0  0  0  0  0  0  0  0
  152.5106  139.5973  157.9686 H   0  0  0  0  0  0  0  0  0  0  0  0
  1  2  2  0  0  0  0
  2 17  1  0  0  0  0
  2  3  1  0  0  0  0
  3 19  1  0  0  0  0
  3  4  1  0  0  0  0
  4  5  2  0  0  0  0
  4  6  1  0  0  0  0
  6  7  1  0  0  0  0
  6 16  1  0  0  0  0
  7 14  1  0  0  0  0
  7  8  1  0  0  0  0
  7 20  1  0  0  0  0
  8  9  1  0  0  0  0
  9 10  1  0  0  0  0
  9 12  1  0  0  0  0
  9 21  1  0  0  0  0
 10 11  1  0  0  0  0
 10 22  1  0  0  0  0
 10 23  1  0  0  0  0
 11 24  1  0  0  0  0
 12 13  1  0  0  0  0
 12 14  1  0  0  0  0
 12 25  1  0  0  0  0
 13 26  1  0  0  0  0
 14 15  1  0  0  0  0
 14 27  1  0  0  0  0
 15 28  1  0  0  0  0
 16 17  2  0  0  0  0
 16 29  1  0  0  0  0
 17 18  1  0  0  0  0
M  END
> <s_m_source_file>
AV-unprocessed.smi

> <i_m_source_file_index>
35

> <i_lp_mmshare_version>
43012

> <i_f3d_flags>
0

> <s_epik_input>
Tz1jMVtuSF1jKD1PKW4oW2NIXWMxQnIpW0NAQEhdMk9bQ0BASF0oW0NIMl1bT0hdKVtDQEBIXShbT0hdKVtDQEhdMltPSF0=

> <s_epik_cmdline>
J2VwaWtfcHl0aG9uJywgJy1waCcsICc3LjAnLCAnLXRuJywgJzgnLCAnLW1hJywgJzIwMCcsICctbWV0YWxfYmluZGluZycsICctaW1hZScsICc8aW5maWxlLm1hZT4nLCAnLW9tYWUnLCAnPG91dGZpbGUubWFlPic=

> <r_lp_tautomer_probability>
0.999537

> <r_epik_Ionization_Penalty>
0.10812

> <r_epik_Ionization_Penalty_Charging>
0.108119

> <r_epik_Ionization_Penalty_Neutral>
4.93006e-07

> <r_epik_State_Penalty>
0.0979238

> <r_epik_Charging_Adjusted_Penalty>
0.206043

> <i_epik_Tot_Q>
0

> <i_epik_Tot_abs_Q>
0

> <r_epik_Metal_State_Penalty>
3.07911

> <b_epik_Metal_Only>
0

> <s_epik_Chemistry_Notes>
This compound contains an acetal/aminal-like group ( X-CH(R)-Y where X, Y are N, S, or O) that may be acid/base labile, releasing an aldehyde.

> <s_lp_Force_Field>
OPLS_2005

> <r_lp_Energy>
30.5173

> <b_lp_Chiralities_Consistent>
1

> <s_lp_Variant>
AV-unprocessed.smi:35-10

> <Gold.Version>
5.8.1

> <Gold.Id.Protein>
6NUR|6NUR_protein|mol2

> <Gold.PLP.Fitness>
36.3954

> <Gold.PLP.PLP>
-27.9428

> <Gold.PLP.part.hbond>
-5.6389

> <Gold.PLP.part.metal>
0.0000

> <Gold.PLP.part.buried>
-3.3597

> <Gold.PLP.part.nonpolar>
-19.0976

> <Gold.PLP.part.repulsive>
0.3989

> <Gold.PLP.ligand.clash>
0.0000

> <Gold.PLP.ligand.torsion>
1.2183

> <Gold.PLP.Chemscore.Hbond>
3.6080

> <Gold.PLP.Chemscore.CHOScore>
0.0000

> <Gold.PLP.Chemscore.Metal>
0.0000

> <Gold.Chemscore.Hbonds>
donor molecule, donor type, donor heavy atom, donor atom, acceptor molecule, acceptor atom, score
      L1  H     3    19       P1  8028  1.00
      L1  H    15    28       P1  7948  1.00
      P1  H  6896  6909       L1    11  1.00
      P1  H  7989  7998       L1     5  0.64

> <Gold.PLP.Chemscore.Internal.Correction>
0.0653

> <Gold.Rescore>
     Score         DG    S(hbond)    S(metal)    S(lipo)     H(rot)  DE(clash)    DE(int)     intcor
      7.07      -9.66       2.76        0.00      37.15       3.67       0.00       2.58       ----

> <Gold.Chemscore.Fitness>
7.0711

> <Gold.Chemscore.DG>
-9.6587

> <Gold.Chemscore.ZeroCoef>
-5.4800

> <Gold.Chemscore.Hbond>
2.7626

> <Gold.Chemscore.Metal>
0.0000

> <Gold.Chemscore.Lipo>
37.1547

> <Gold.Chemscore.Internal_Hbond>
0.0000

> <Gold.Chemscore.DEClash>
0.0029

> <Gold.Chemscore.DEInternal>
2.5848

> <Gold.Chemscore.Rot>
3.6701

> <Gold.Chemscore.Internal.Correction>
   9.000000E+99

> <Gold.Chemscore.Hbonds>
donor molecule, donor type, donor heavy atom, donor atom, acceptor molecule, acceptor atom, score
      L1  H     3    19       P1  8028  0.97
      L1  H    15    28       P1  7948  0.49
      P1  H  6896  6909       L1    11  0.55
      P1  H  7989  7998       L1     5  0.16

> <Gold.Chemscore.Hbond.Weighted>
-9.2271

> <Gold.Chemscore.Metal.Weighted>
-0.0000

> <Gold.Chemscore.Lipo.Weighted>
-4.3471

> <Gold.Chemscore.Internal_Hbond.Weighted>
0.0000

> <Gold.Chemscore.DEClash.Weighted>
0.0029

> <Gold.Chemscore.DEInternal.Weighted>
2.5848

> <Gold.Chemscore.Rot.Weighted>
9.3955

> <Gold.Chemscore.Internal.Correction.Weighted>
   9.000000E+99

> <Gold.Protein.RotatedTorsions>
[ 6907 6896 6895 6894 ] final   89.71 input  -60.11 | X-H torsion
[ 7974 7965 7964 7962 ] final  119.63 input  175.53 | X-H torsion
[ 8008 7997 7996 7995 ] final   30.41 input   59.86 | X-H torsion
[ 10167 10162 10161 10158 ] final -162.85 input  -65.29 | X-H torsion
[ 10718 10713 10712 10709 ] final  -93.95 input   66.30 | X-H torsion
[ 10763 10752 10751 10750 ] final   75.92 input  -60.55 | X-H torsion
[ 11005 11000 10999 10996 ] final  -38.41 input  -57.11 | X-H torsion

> <Gold.Protein.ActiveResidues>
 VAL166  LYS551  ARG553  GLY616  TRP617  ASP618  TYR619  PRO620  LYS621  CYS622 
 ASP623  PHE694  ASN695  SER759  ASP760  ASP761  ALA762  ILE779  LEU786  VAL792 
 PHE793  MET794  SER795  GLU796  ALA797  LYS798  CYS799  TRP800  GLU811  SER814 

> <Gold.Protein.RotatedAtoms>
  152.5438  134.1924  159.8678 H   0  0  0  0  0  0  0  0  0  0  0  0  # atno 6907 bound_to 6896
  151.1918  133.4656  159.2602 H   0  0  0  0  0  0  0  0  0  0  0  0  # atno 6908 bound_to 6896
  151.1076  135.0020  159.8534 H   0  0  0  0  0  0  0  0  0  0  0  0  # atno 6909 bound_to 6896
  145.1409  139.3269  143.4616 H   0  0  0  0  0  0  0  0  0  0  0  0  # atno 7974 bound_to 7965
  155.0900  140.3219  155.4576 H   0  0  0  0  0  0  0  0  0  0  0  0  # atno 8008 bound_to 7997
  156.2745  140.2079  156.5974 H   0  0  0  0  0  0  0  0  0  0  0  0  # atno 8009 bound_to 7997
  154.6910  140.0516  157.0351 H   0  0  0  0  0  0  0  0  0  0  0  0  # atno 8010 bound_to 7997
  139.6363  144.0344  152.2056 H   0  0  0  0  0  0  0  0  0  0  0  0  # atno 10167 bound_to 10162
  156.0020  130.5047  150.5852 H   0  0  0  0  0  0  0  0  0  0  0  0  # atno 10718 bound_to 10713
  153.0688  135.4971  154.8260 H   0  0  0  0  0  0  0  0  0  0  0  0  # atno 10763 bound_to 10752
  154.6993  135.2998  154.9367 H   0  0  0  0  0  0  0  0  0  0  0  0  # atno 10764 bound_to 10752
  154.0096  135.6756  153.4817 H   0  0  0  0  0  0  0  0  0  0  0  0  # atno 10765 bound_to 10752
  141.0025  133.6948  156.2050 H   0  0  0  0  0  0  0  0  0  0  0  0  # atno 11005 bound_to 11000
  146.3505  140.1445  142.8594 LP  0  0  0  0  0  0  0  0  0  0  0  0  # atno 17320 bound_to 7965
  145.0533  140.9034  143.4982 LP  0  0  0  0  0  0  0  0  0  0  0  0  # atno 17321 bound_to 7965
  140.0022  144.6285  150.7719 LP  0  0  0  0  0  0  0  0  0  0  0  0  # atno 17342 bound_to 10162
  140.7467  143.2894  151.3371 LP  0  0  0  0  0  0  0  0  0  0  0  0  # atno 17343 bound_to 10162
  157.3726  131.0768  151.1545 LP  0  0  0  0  0  0  0  0  0  0  0  0  # atno 17370 bound_to 10713
  157.2293  130.6518  149.5843 LP  0  0  0  0  0  0  0  0  0  0  0  0  # atno 17371 bound_to 10713
  140.6865  134.4711  157.5589 LP  0  0  0  0  0  0  0  0  0  0  0  0  # atno 17394 bound_to 11000
  139.9046  134.8477  156.1756 LP  0  0  0  0  0  0  0  0  0  0  0  0  # atno 17395 bound_to 11000

$$$$
