AV-unprocessed.smi:72|AV-procd|sdf|705|dock1
  -GOLD-   2262017 23D 1   1.00000     0.00000
 Structure written by MMmdl.
 30 31  0  0  0  0  0  0  0  0  2 V2000
  150.2647  145.0082  158.8567 N   0  0  0  0  0  0  0  0  0  0  0  0
  150.7964  143.8210  158.3978 C   0  0  0  0  0  0  0  0  0  0  0  0
  150.3282  143.3304  157.1919 N   0  3  0  0  0  0  0  0  0  0  0  0
  150.7406  142.1970  156.6079 C   0  0  0  0  0  0  0  0  0  0  0  0
  151.6625  141.4685  157.2046 N   0  0  0  0  0  0  0  0  0  0  0  0
  152.1701  140.1792  156.6047 C   0  0  2  0  0  0  0  0  0  0  0  0
  151.6071  140.0274  155.3364 O   0  0  0  0  0  0  0  0  0  0  0  0
  150.6127  139.0078  155.3590 C   0  0  1  0  0  0  0  0  0  0  0  0
  150.3619  138.4421  153.9507 C   0  0  0  0  0  0  0  0  0  0  0  0
  149.1985  137.6428  153.9559 O   0  0  0  0  0  0  0  0  0  0  0  0
  151.1689  138.0143  156.3857 C   0  0  1  0  0  0  0  0  0  0  0  0
  152.1620  137.1848  155.8107 O   0  0  0  0  0  0  0  0  0  0  0  0
  151.7844  138.9307  157.4351 C   0  0  2  0  0  0  0  0  0  0  0  0
  150.8321  139.1909  158.4529 O   0  0  0  0  0  0  0  0  0  0  0  0
  152.2015  141.8894  158.4478 C   0  0  0  0  0  0  0  0  0  0  0  0
  153.0562  141.2112  159.0168 O   0  0  0  0  0  0  0  0  0  0  0  0
  151.7087  143.0910  158.9774 N   0  0  0  0  0  0  0  0  0  0  0  0
  153.2468  140.3083  156.4817 H   0  0  0  0  0  0  0  0  0  0  0  0
  149.6860  139.4184  155.7635 H   0  0  0  0  0  0  0  0  0  0  0  0
  150.3885  137.3701  156.7936 H   0  0  0  0  0  0  0  0  0  0  0  0
  152.6758  138.5022  157.8957 H   0  0  0  0  0  0  0  0  0  0  0  0
  150.5470  145.4410  159.7251 H   0  0  0  0  0  0  0  0  0  0  0  0
  149.5557  145.5363  158.3685 H   0  0  0  0  0  0  0  0  0  0  0  0
  150.3094  141.9066  155.6594 H   0  0  0  0  0  0  0  0  0  0  0  0
  150.2712  139.2376  153.2102 H   0  0  0  0  0  0  0  0  0  0  0  0
  151.1938  137.8058  153.6475 H   0  0  0  0  0  0  0  0  0  0  0  0
  149.1937  137.1135  153.1727 H   0  0  0  0  0  0  0  0  0  0  0  0
  151.9075  136.2821  155.9274 H   0  0  0  0  0  0  0  0  0  0  0  0
  151.1823  139.8555  159.0270 H   0  0  0  0  0  0  0  0  0  0  0  0
  149.6207  143.8720  156.7162 H   0  0  0  0  0  0  0  0  0  0  0  0
  1  2  1  0  0  0  0
  1 22  1  0  0  0  0
  1 23  1  0  0  0  0
  2 17  2  0  0  0  0
  2  3  1  0  0  0  0
  3  4  2  0  0  0  0
  3 30  1  0  0  0  0
  4  5  1  0  0  0  0
  4 24  1  0  0  0  0
  5  6  1  0  0  0  0
  5 15  1  0  0  0  0
  6 18  1  0  0  0  0
  6 13  1  0  0  0  0
  6  7  1  0  0  0  0
  7  8  1  0  0  0  0
  8 19  1  0  0  0  0
  8  9  1  0  0  0  0
  8 11  1  0  0  0  0
  9 10  1  0  0  0  0
  9 25  1  0  0  0  0
  9 26  1  0  0  0  0
 10 27  1  0  0  0  0
 11 20  1  0  0  0  0
 11 12  1  0  0  0  0
 11 13  1  0  0  0  0
 12 28  1  0  0  0  0
 13 21  1  0  0  0  0
 13 14  1  0  0  0  0
 14 29  1  0  0  0  0
 15 16  2  0  0  0  0
 15 17  1  0  0  0  0
M  CHG  1   3   1
M  END
> <s_m_source_file>
AV-unprocessed.smi

> <i_m_source_file_index>
72

> <i_lp_mmshare_version>
43012

> <i_f3d_flags>
0

> <s_epik_input>
W05IMl1jMW5bY0hdbihjKD1PKW4xKVtDQEBIXTJPW0NASF0oW0NIMl1bT0hdKVtDQEBIXShbT0hdKVtDQEhdMltPSF0=

> <s_epik_cmdline>
J2VwaWtfcHl0aG9uJywgJy1waCcsICc3LjAnLCAnLXRuJywgJzgnLCAnLW1hJywgJzIwMCcsICctbWV0YWxfYmluZGluZycsICctaW1hZScsICc8aW5maWxlLm1hZT4nLCAnLW9tYWUnLCAnPG91dGZpbGUubWFlPic=

> <r_lp_tautomer_probability>
4.77166e-05

> <r_epik_Ionization_Penalty>
0.104979

> <r_epik_Ionization_Penalty_Charging>
0.0999619

> <r_epik_Ionization_Penalty_Neutral>
0.00501745

> <r_epik_State_Penalty>
2.51541

> <r_epik_Charging_Adjusted_Penalty>
2.61537

> <i_epik_Tot_Q>
1

> <i_epik_Tot_abs_Q>
1

> <r_epik_Metal_State_Penalty>
3.53763

> <b_epik_Metal_Only>
0

> <s_epik_Chemistry_Notes>
This compound contains an acetal/aminal-like group ( X-CH(R)-Y where X, Y are N, S, or O) that may be acid/base labile, releasing an aldehyde.

> <s_lp_Force_Field>
OPLS_2005

> <r_lp_Energy>
35.1753

> <b_lp_Chiralities_Consistent>
1

> <s_lp_Variant>
AV-unprocessed.smi:72-43

> <Gold.Version>
5.8.1

> <Gold.Id.Protein>
6NUR|6NUR_protein|mol2

> <Gold.PLP.Fitness>
36.0666

> <Gold.PLP.PLP>
-21.3103

> <Gold.PLP.part.hbond>
-4.8386

> <Gold.PLP.part.metal>
0.0000

> <Gold.PLP.part.buried>
-4.4684

> <Gold.PLP.part.nonpolar>
-12.5764

> <Gold.PLP.part.repulsive>
0.2394

> <Gold.PLP.ligand.clash>
0.0000

> <Gold.PLP.ligand.torsion>
0.1706

> <Gold.PLP.Chemscore.Hbond>
4.9920

> <Gold.PLP.Chemscore.CHOScore>
0.0000

> <Gold.PLP.Chemscore.Metal>
0.0000

> <Gold.Chemscore.Hbonds>
donor molecule, donor type, donor heavy atom, donor atom, acceptor molecule, acceptor atom, score
      L1  H     1    23       P1  8029  1.00
      L1  H     3    30       P1  8028  1.98
      L1  H    10    27       P1  7948  1.00
      P1  H  7989  7998       L1     7  0.99

> <Gold.PLP.Chemscore.Internal.Correction>
0.1214

> <Gold.Rescore>
     Score         DG    S(hbond)    S(metal)    S(lipo)     H(rot)  DE(clash)    DE(int)     intcor
      8.11      -8.74       3.30        0.00      22.90       4.08       0.38       0.24       ----

> <Gold.Chemscore.Fitness>
8.1115

> <Gold.Chemscore.DG>
-8.7352

> <Gold.Chemscore.ZeroCoef>
-5.4800

> <Gold.Chemscore.Hbond>
3.2984

> <Gold.Chemscore.Metal>
0.0000

> <Gold.Chemscore.Lipo>
22.8958

> <Gold.Chemscore.Internal_Hbond>
0.0000

> <Gold.Chemscore.DEClash>
0.3844

> <Gold.Chemscore.DEInternal>
0.2393

> <Gold.Chemscore.Rot>
4.0783

> <Gold.Chemscore.Internal.Correction>
   9.000000E+99

> <Gold.Chemscore.Hbonds>
donor molecule, donor type, donor heavy atom, donor atom, acceptor molecule, acceptor atom, score
      L1  H     1    23       P1  8029  0.70
      L1  H     3    30       P1  8028  0.91
      L1  H    10    27       P1  7948  0.96
      P1  H  7989  7998       L1     7  0.67

> <Gold.Chemscore.Hbond.Weighted>
-11.0168

> <Gold.Chemscore.Metal.Weighted>
-0.0000

> <Gold.Chemscore.Lipo.Weighted>
-2.6788

> <Gold.Chemscore.Internal_Hbond.Weighted>
0.0000

> <Gold.Chemscore.DEClash.Weighted>
0.3844

> <Gold.Chemscore.DEInternal.Weighted>
0.2393

> <Gold.Chemscore.Rot.Weighted>
10.4404

> <Gold.Chemscore.Internal.Correction.Weighted>
   9.000000E+99

> <Gold.Protein.RotatedTorsions>
[ 6907 6896 6895 6894 ] final  171.90 input  -60.11 | X-H torsion
[ 7974 7965 7964 7962 ] final   49.73 input  175.53 | X-H torsion
[ 8008 7997 7996 7995 ] final  -59.61 input   59.86 | X-H torsion
[ 10167 10162 10161 10158 ] final   48.27 input  -65.29 | X-H torsion
[ 10718 10713 10712 10709 ] final -155.53 input   66.30 | X-H torsion
[ 10763 10752 10751 10750 ] final   27.26 input  -60.55 | X-H torsion
[ 11005 11000 10999 10996 ] final   78.07 input  -57.11 | X-H torsion

> <Gold.Protein.ActiveResidues>
 VAL166  LYS551  ARG553  GLY616  TRP617  ASP618  TYR619  PRO620  LYS621  CYS622 
 ASP623  PHE694  ASN695  SER759  ASP760  ASP761  ALA762  ILE779  LEU786  VAL792 
 PHE793  MET794  SER795  GLU796  ALA797  LYS798  CYS799  TRP800  GLU811  SER814 

> <Gold.Protein.RotatedAtoms>
  151.7928  133.3361  159.3503 H   0  0  0  0  0  0  0  0  0  0  0  0  # atno 6907 bound_to 6896
  150.7386  134.5826  159.5956 H   0  0  0  0  0  0  0  0  0  0  0  0  # atno 6908 bound_to 6896
  152.3198  134.7396  160.0368 H   0  0  0  0  0  0  0  0  0  0  0  0  # atno 6909 bound_to 6896
  146.0080  139.4512  142.9974 H   0  0  0  0  0  0  0  0  0  0  0  0  # atno 7974 bound_to 7965
  154.4360  140.1058  156.6143 H   0  0  0  0  0  0  0  0  0  0  0  0  # atno 8008 bound_to 7997
  155.5775  140.3490  155.4513 H   0  0  0  0  0  0  0  0  0  0  0  0  # atno 8009 bound_to 7997
  156.0343  140.1267  157.0214 H   0  0  0  0  0  0  0  0  0  0  0  0  # atno 8010 bound_to 7997
  140.2950  144.3001  150.6232 H   0  0  0  0  0  0  0  0  0  0  0  0  # atno 10167 bound_to 10162
  156.5141  130.8448  151.2658 H   0  0  0  0  0  0  0  0  0  0  0  0  # atno 10718 bound_to 10713
  153.0567  135.6541  154.0559 H   0  0  0  0  0  0  0  0  0  0  0  0  # atno 10763 bound_to 10752
  154.0236  135.2917  155.3379 H   0  0  0  0  0  0  0  0  0  0  0  0  # atno 10764 bound_to 10752
  154.6886  135.5291  153.8428 H   0  0  0  0  0  0  0  0  0  0  0  0  # atno 10765 bound_to 10752
  139.9228  134.7734  156.1602 H   0  0  0  0  0  0  0  0  0  0  0  0  # atno 11005 bound_to 11000
  145.7386  141.0016  143.1313 LP  0  0  0  0  0  0  0  0  0  0  0  0  # atno 17320 bound_to 7965
  144.6942  139.9071  143.7461 LP  0  0  0  0  0  0  0  0  0  0  0  0  # atno 17321 bound_to 7965
  140.5700  143.2182  151.7616 LP  0  0  0  0  0  0  0  0  0  0  0  0  # atno 17342 bound_to 10162
  139.4928  144.4230  151.9956 LP  0  0  0  0  0  0  0  0  0  0  0  0  # atno 17343 bound_to 10162
  157.7446  130.9939  150.2690 LP  0  0  0  0  0  0  0  0  0  0  0  0  # atno 17370 bound_to 10713
  156.3212  130.3786  149.7574 LP  0  0  0  0  0  0  0  0  0  0  0  0  # atno 17371 bound_to 10713
  141.0762  133.6774  156.2242 LP  0  0  0  0  0  0  0  0  0  0  0  0  # atno 17394 bound_to 11000
  140.6424  134.5152  157.5570 LP  0  0  0  0  0  0  0  0  0  0  0  0  # atno 17395 bound_to 11000

$$$$
