AV-unprocessed.smi:546|AV-procd|sdf|2887|dock4
  -GOLD-   2262023383D 1   1.00000     0.00000
 Structure written by MMmdl.
 51 53  0  0  0  0  0  0  0  0  2 V2000
  154.7593  138.6762  160.6914 C   0  0  0  0  0  0  0  0  0  0  0  0
  153.4751  138.4297  159.8971 C   0  0  0  0  0  0  0  0  0  0  0  0
  153.6414  138.9659  158.5973 O   0  0  0  0  0  0  0  0  0  0  0  0
  152.4604  138.9115  157.8164 C   0  0  0  0  0  0  0  0  0  0  0  0
  152.5661  139.8771  156.6263 C   0  0  0  0  0  0  0  0  0  0  0  0
  151.2602  140.3953  156.2319 N   0  0  0  0  0  0  0  0  0  0  0  0
  150.6237  141.4850  156.7308 C   0  0  0  0  0  0  0  0  0  0  0  0
  151.1744  142.2356  157.7662 N   0  0  0  0  0  0  0  0  0  0  0  0
  151.7325  141.5907  158.9523 C   0  0  0  0  0  0  0  0  0  0  0  0
  152.9288  142.3602  159.5395 C   0  0  2  0  0  0  0  0  0  0  0  0
  153.5139  141.6361  160.7595 C   0  0  0  0  0  0  0  0  0  0  0  0
  152.4968  143.7927  159.8904 C   0  0  0  0  0  0  0  0  0  0  0  0
  151.8485  144.4859  158.6806 C   0  0  1  0  0  0  0  0  0  0  0  0
  152.8846  144.9490  157.6438 C   0  0  0  0  0  0  0  0  0  0  0  0
  150.7374  143.5979  158.0746 C   0  0  0  0  0  0  0  0  0  0  0  0
  149.4396  141.7493  156.1764 N   0  0  0  0  0  0  0  0  0  0  0  0
  149.3095  140.7320  155.2424 C   0  0  0  0  0  0  0  0  0  0  0  0
  150.3859  139.9009  155.2585 C   0  0  0  0  0  0  0  0  0  0  0  0
  150.5246  138.7206  154.3771 C   0  0  0  0  0  0  0  0  0  0  0  0
  151.5104  137.9889  154.4419 O   0  0  0  0  0  0  0  0  0  0  0  0
  149.4525  138.5771  153.5352 N   0  5  0  0  0  0  0  0  0  0  0  0
  148.3445  139.3959  153.4834 C   0  0  0  0  0  0  0  0  0  0  0  0
  147.4271  139.1878  152.6892 O   0  0  0  0  0  0  0  0  0  0  0  0
  148.2520  140.4700  154.3319 N   0  0  0  0  0  0  0  0  0  0  0  0
  147.1053  141.3836  154.3440 C   0  0  0  0  0  0  0  0  0  0  0  0
  154.6745  138.2812  161.7037 H   0  0  0  0  0  0  0  0  0  0  0  0
  154.9742  139.7427  160.7640 H   0  0  0  0  0  0  0  0  0  0  0  0
  155.6126  138.1952  160.2131 H   0  0  0  0  0  0  0  0  0  0  0  0
  153.2677  137.3603  159.8398 H   0  0  0  0  0  0  0  0  0  0  0  0
  152.6314  138.9065  160.3979 H   0  0  0  0  0  0  0  0  0  0  0  0
  152.2933  137.8947  157.4588 H   0  0  0  0  0  0  0  0  0  0  0  0
  151.6087  139.1863  158.4376 H   0  0  0  0  0  0  0  0  0  0  0  0
  153.2318  140.7060  156.8600 H   0  0  0  0  0  0  0  0  0  0  0  0
  153.0226  139.3732  155.7745 H   0  0  0  0  0  0  0  0  0  0  0  0
  150.9450  141.4850  159.6998 H   0  0  0  0  0  0  0  0  0  0  0  0
  152.0438  140.5796  158.6867 H   0  0  0  0  0  0  0  0  0  0  0  0
  153.7115  142.4049  158.7813 H   0  0  0  0  0  0  0  0  0  0  0  0
  152.7787  141.5495  161.5603 H   0  0  0  0  0  0  0  0  0  0  0  0
  154.3776  142.1704  161.1562 H   0  0  0  0  0  0  0  0  0  0  0  0
  153.8413  140.6295  160.4974 H   0  0  0  0  0  0  0  0  0  0  0  0
  151.7764  143.7601  160.7091 H   0  0  0  0  0  0  0  0  0  0  0  0
  153.3455  144.3732  160.2542 H   0  0  0  0  0  0  0  0  0  0  0  0
  151.3685  145.3935  159.0488 H   0  0  0  0  0  0  0  0  0  0  0  0
  153.4083  144.1102  157.1876 H   0  0  0  0  0  0  0  0  0  0  0  0
  153.6342  145.5943  158.1024 H   0  0  0  0  0  0  0  0  0  0  0  0
  152.4099  145.5214  156.8468 H   0  0  0  0  0  0  0  0  0  0  0  0
  150.3424  144.0624  157.1703 H   0  0  0  0  0  0  0  0  0  0  0  0
  149.9014  143.5330  158.7722 H   0  0  0  0  0  0  0  0  0  0  0  0
  146.2982  141.1034  153.6667 H   0  0  0  0  0  0  0  0  0  0  0  0
  147.4299  142.3875  154.0691 H   0  0  0  0  0  0  0  0  0  0  0  0
  146.6807  141.4325  155.3470 H   0  0  0  0  0  0  0  0  0  0  0  0
  1  2  1  0  0  0  0
  1 26  1  0  0  0  0
  1 27  1  0  0  0  0
  1 28  1  0  0  0  0
  2  3  1  0  0  0  0
  2 29  1  0  0  0  0
  2 30  1  0  0  0  0
  3  4  1  0  0  0  0
  4  5  1  0  0  0  0
  4 31  1  0  0  0  0
  4 32  1  0  0  0  0
  5  6  1  0  0  0  0
  5 33  1  0  0  0  0
  5 34  1  0  0  0  0
  6 18  1  0  0  0  0
  6  7  1  0  0  0  0
  7  8  1  0  0  0  0
  7 16  2  0  0  0  0
  8 15  1  0  0  0  0
  8  9  1  0  0  0  0
  9 10  1  0  0  0  0
  9 35  1  0  0  0  0
  9 36  1  0  0  0  0
 10 11  1  0  0  0  0
 10 12  1  0  0  0  0
 10 37  1  0  0  0  0
 11 38  1  0  0  0  0
 11 39  1  0  0  0  0
 11 40  1  0  0  0  0
 12 13  1  0  0  0  0
 12 41  1  0  0  0  0
 12 42  1  0  0  0  0
 13 14  1  0  0  0  0
 13 15  1  0  0  0  0
 13 43  1  0  0  0  0
 14 44  1  0  0  0  0
 14 45  1  0  0  0  0
 14 46  1  0  0  0  0
 15 47  1  0  0  0  0
 15 48  1  0  0  0  0
 16 17  1  0  0  0  0
 17 24  1  0  0  0  0
 17 18  2  0  0  0  0
 18 19  1  0  0  0  0
 19 20  2  0  0  0  0
 19 21  1  0  0  0  0
 21 22  1  0  0  0  0
 22 23  2  0  0  0  0
 22 24  1  0  0  0  0
 24 25  1  0  0  0  0
 25 49  1  0  0  0  0
 25 50  1  0  0  0  0
 25 51  1  0  0  0  0
M  CHG  1  21  -1
M  END
> <s_m_source_file>
AV-unprocessed.smi

> <i_m_source_file_index>
546

> <i_lp_mmshare_version>
43012

> <i_f3d_flags>
0

> <s_epik_input>
W0NIM11uMWMoPU8pW25IXWMoPU8pYyhjMTIpbihbQ0gyXVtDSDJdT1tDSDJdW0NIM10pYyhuMilOM1tDSDJdW0NAQEhdKFtDSDNdKVtDSDJdW0NAQEhdKFtDSDNdKVtDSDJdMw==

> <s_epik_cmdline>
J2VwaWtfcHl0aG9uJywgJy1waCcsICc3LjAnLCAnLXRuJywgJzgnLCAnLW1hJywgJzIwMCcsICctbWV0YWxfYmluZGluZycsICctaW1hZScsICc8aW5maWxlLm1hZT4nLCAnLW9tYWUnLCAnPG91dGZpbGUubWFlPic=

> <r_lp_tautomer_probability>
1

> <r_epik_Ionization_Penalty>
5.12825

> <r_epik_Ionization_Penalty_Charging>
0.0743105

> <r_epik_Ionization_Penalty_Neutral>
5.05394

> <r_epik_State_Penalty>
5.04406

> <r_epik_Charging_Adjusted_Penalty>
5.11837

> <i_epik_Tot_Q>
-1

> <i_epik_Tot_abs_Q>
1

> <r_epik_Metal_State_Penalty>
1.15122

> <b_epik_Metal_Only>
1

> <s_lp_Force_Field>
OPLS_2005

> <r_lp_Energy>
46.3243

> <b_lp_Chiralities_Consistent>
1

> <s_lp_Variant>
AV-unprocessed.smi:546-5

> <Gold.Version>
5.8.1

> <Gold.Id.Protein>
6NUR|6NUR_protein|mol2

> <Gold.PLP.Fitness>
46.4130

> <Gold.PLP.PLP>
-44.7890

> <Gold.PLP.part.hbond>
-0.9477

> <Gold.PLP.part.metal>
0.0000

> <Gold.PLP.part.buried>
-6.3430

> <Gold.PLP.part.nonpolar>
-41.9069

> <Gold.PLP.part.repulsive>
5.5799

> <Gold.PLP.ligand.clash>
0.0081

> <Gold.PLP.ligand.torsion>
1.1195

> <Gold.PLP.Chemscore.Hbond>
0.9913

> <Gold.PLP.Chemscore.CHOScore>
0.0000

> <Gold.PLP.Chemscore.Metal>
0.0000

> <Gold.Chemscore.Hbonds>
donor molecule, donor type, donor heavy atom, donor atom, acceptor molecule, acceptor atom, score
      P1  H  7997  8008       L1     3  0.54

> <Gold.PLP.Chemscore.Internal.Correction>
0.8974

> <Gold.Rescore>
     Score         DG    S(hbond)    S(metal)    S(lipo)     H(rot)  DE(clash)    DE(int)     intcor
     13.99     -18.14       0.94        0.00     114.61       1.52       2.92       1.23       ----

> <Gold.Chemscore.Fitness>
13.9895

> <Gold.Chemscore.DG>
-18.1358

> <Gold.Chemscore.ZeroCoef>
-5.4800

> <Gold.Chemscore.Hbond>
0.9399

> <Gold.Chemscore.Metal>
0.0000

> <Gold.Chemscore.Lipo>
114.6074

> <Gold.Chemscore.Internal_Hbond>
0.0000

> <Gold.Chemscore.DEClash>
2.9191

> <Gold.Chemscore.DEInternal>
1.2272

> <Gold.Chemscore.Rot>
1.5206

> <Gold.Chemscore.Internal.Correction>
   9.000000E+99

> <Gold.Chemscore.Hbonds>
donor molecule, donor type, donor heavy atom, donor atom, acceptor molecule, acceptor atom, score
      P1  H  7997  8008       L1     3  0.05

> <Gold.Chemscore.Hbond.Weighted>
-3.1394

> <Gold.Chemscore.Metal.Weighted>
-0.0000

> <Gold.Chemscore.Lipo.Weighted>
-13.4091

> <Gold.Chemscore.Internal_Hbond.Weighted>
0.0000

> <Gold.Chemscore.DEClash.Weighted>
2.9191

> <Gold.Chemscore.DEInternal.Weighted>
1.2272

> <Gold.Chemscore.Rot.Weighted>
3.8926

> <Gold.Chemscore.Internal.Correction.Weighted>
   9.000000E+99

> <Gold.Protein.RotatedTorsions>
[ 6907 6896 6895 6894 ] final  -34.98 input  -60.11 | X-H torsion
[ 7974 7965 7964 7962 ] final   49.79 input  175.53 | X-H torsion
[ 8008 7997 7996 7995 ] final  -92.56 input   59.86 | X-H torsion
[ 10167 10162 10161 10158 ] final   93.36 input  -65.29 | X-H torsion
[ 10718 10713 10712 10709 ] final  -19.51 input   66.30 | X-H torsion
[ 10763 10752 10751 10750 ] final  100.93 input  -60.55 | X-H torsion
[ 11005 11000 10999 10996 ] final  141.01 input  -57.11 | X-H torsion

> <Gold.Protein.ActiveResidues>
 VAL166  LYS551  ARG553  GLY616  TRP617  ASP618  TYR619  PRO620  LYS621  CYS622 
 ASP623  PHE694  ASN695  SER759  ASP760  ASP761  ALA762  ILE779  LEU786  VAL792 
 PHE793  MET794  SER795  GLU796  ALA797  LYS798  CYS799  TRP800  GLU811  SER814 

> <Gold.Protein.RotatedAtoms>
  151.0457  134.9638  159.8184 H   0  0  0  0  0  0  0  0  0  0  0  0  # atno 6907 bound_to 6896
  152.5372  134.2601  159.8942 H   0  0  0  0  0  0  0  0  0  0  0  0  # atno 6908 bound_to 6896
  151.2615  133.4257  159.2650 H   0  0  0  0  0  0  0  0  0  0  0  0  # atno 6909 bound_to 6896
  146.0075  139.4506  142.9977 H   0  0  0  0  0  0  0  0  0  0  0  0  # atno 7974 bound_to 7965
  154.7246  140.0508  157.0671 H   0  0  0  0  0  0  0  0  0  0  0  0  # atno 8008 bound_to 7997
  155.0382  140.3165  155.4715 H   0  0  0  0  0  0  0  0  0  0  0  0  # atno 8009 bound_to 7997
  156.2825  140.2137  156.5505 H   0  0  0  0  0  0  0  0  0  0  0  0  # atno 8010 bound_to 7997
  139.8188  144.6741  150.9546 H   0  0  0  0  0  0  0  0  0  0  0  0  # atno 10167 bound_to 10162
  156.5447  130.4687  149.6481 H   0  0  0  0  0  0  0  0  0  0  0  0  # atno 10718 bound_to 10713
  153.3201  135.4062  155.1410 H   0  0  0  0  0  0  0  0  0  0  0  0  # atno 10763 bound_to 10752
  154.8598  135.3585  154.5607 H   0  0  0  0  0  0  0  0  0  0  0  0  # atno 10764 bound_to 10752
  153.6040  135.7070  153.5432 H   0  0  0  0  0  0  0  0  0  0  0  0  # atno 10765 bound_to 10752
  140.0369  134.9324  157.0770 H   0  0  0  0  0  0  0  0  0  0  0  0  # atno 11005 bound_to 11000
  145.7393  141.0014  143.1309 LP  0  0  0  0  0  0  0  0  0  0  0  0  # atno 17320 bound_to 7965
  144.6941  139.9079  143.7462 LP  0  0  0  0  0  0  0  0  0  0  0  0  # atno 17321 bound_to 7965
  140.7814  143.4112  151.0989 LP  0  0  0  0  0  0  0  0  0  0  0  0  # atno 17342 bound_to 10162
  139.7774  143.8405  152.3132 LP  0  0  0  0  0  0  0  0  0  0  0  0  # atno 17343 bound_to 10162
  156.2939  130.7139  151.1995 LP  0  0  0  0  0  0  0  0  0  0  0  0  # atno 17370 bound_to 10713
  157.7399  131.0524  150.5203 LP  0  0  0  0  0  0  0  0  0  0  0  0  # atno 17371 bound_to 10713
  140.4132  134.1959  155.7163 LP  0  0  0  0  0  0  0  0  0  0  0  0  # atno 17394 bound_to 11000
  141.1862  133.8307  157.1076 LP  0  0  0  0  0  0  0  0  0  0  0  0  # atno 17395 bound_to 11000

$$$$
