AV-unprocessed.smi:33|AV-procd|sdf|203|dock8
  -GOLD-   2262015483D 1   1.00000     0.00000
 Structure written by MMmdl.
 67 72  0  0  0  0  0  0  0  0  1 V2000
  153.2382  139.8329  158.2796 O   0  0  0  0  0  0  0  0  0  0  0  0
  152.3946  140.7304  158.2298 C   0  0  0  0  0  0  0  0  0  0  0  0
  151.4299  140.7955  157.2906 O   0  0  0  0  0  0  0  0  0  0  0  0
  151.4153  139.8617  156.2232 C   0  0  0  0  0  0  0  0  0  0  0  0
  150.4267  138.7356  156.5503 C   0  0  2  0  0  0  0  0  0  0  0  0
  150.9981  137.7970  157.4554 O   0  0  0  0  0  0  0  0  0  0  0  0
  150.3068  136.5848  157.3711 C   0  0  1  0  0  0  0  0  0  0  0  0
  149.4036  136.5003  158.5651 N   0  0  0  0  0  0  0  0  0  0  0  0
  149.3070  137.3423  159.6551 C   0  0  0  0  0  0  0  0  0  0  0  0
  148.4375  136.9891  160.5629 N   0  0  0  0  0  0  0  0  0  0  0  0
  147.9052  135.8053  160.0719 C   0  0  0  0  0  0  0  0  0  0  0  0
  146.9319  134.8874  160.5485 C   0  0  0  0  0  0  0  0  0  0  0  0
  146.2811  135.0554  161.7225 N   0  0  0  0  0  0  0  0  0  0  0  0
  146.3303  133.9383  162.6767 C   0  0  0  0  0  0  0  0  0  0  0  0
  147.2648  133.1361  162.6268 O   0  0  0  0  0  0  0  0  0  0  0  0
  145.2743  133.7924  163.7350 C   0  0  0  0  0  0  0  0  0  0  0  0
  145.5286  133.0134  164.8851 C   0  0  0  0  0  0  0  0  0  0  0  0
  144.5371  132.8634  165.8741 C   0  0  0  0  0  0  0  0  0  0  0  0
  143.2793  133.4748  165.7101 C   0  0  0  0  0  0  0  0  0  0  0  0
  143.0093  134.2280  164.5517 C   0  0  0  0  0  0  0  0  0  0  0  0
  144.0002  134.3791  163.5628 C   0  0  0  0  0  0  0  0  0  0  0  0
  145.5807  136.3326  161.9240 C   0  0  0  0  0  0  0  0  0  0  0  0
  145.3541  136.7264  163.0699 O   0  0  0  0  0  0  0  0  0  0  0  0
  145.1894  137.1864  160.7511 C   0  0  0  0  0  0  0  0  0  0  0  0
  145.2815  138.5928  160.8413 C   0  0  0  0  0  0  0  0  0  0  0  0
  144.9015  139.4011  159.7525 C   0  0  0  0  0  0  0  0  0  0  0  0
  144.4094  138.8093  158.5736 C   0  0  0  0  0  0  0  0  0  0  0  0
  144.2886  137.4092  158.4870 C   0  0  0  0  0  0  0  0  0  0  0  0
  144.6689  136.6002  159.5752 C   0  0  0  0  0  0  0  0  0  0  0  0
  146.6582  133.7944  159.7909 N   0  0  0  0  0  0  0  0  0  0  0  0
  147.3009  133.6136  158.6330 C   0  0  0  0  0  0  0  0  0  0  0  0
  148.2307  134.3853  158.0641 N   0  0  0  0  0  0  0  0  0  0  0  0
  148.5071  135.4850  158.8246 C   0  0  0  0  0  0  0  0  0  0  0  0
  149.4990  136.6153  156.0593 C   0  0  2  0  0  0  0  0  0  0  0  0
  149.6637  135.4586  155.2641 O   0  0  0  0  0  0  0  0  0  0  0  0
  150.0685  137.8440  155.3629 C   0  0  2  0  0  0  0  0  0  0  0  0
  151.1893  137.5381  154.7020 F   0  0  0  0  0  0  0  0  0  0  0  0
  152.3351  141.8584  159.2042 C   0  0  0  0  0  0  0  0  0  0  0  0
  153.0662  141.7695  160.4121 C   0  0  0  0  0  0  0  0  0  0  0  0
  153.0276  142.8169  161.3530 C   0  0  0  0  0  0  0  0  0  0  0  0
  152.2573  143.9663  161.0977 C   0  0  0  0  0  0  0  0  0  0  0  0
  151.5263  144.0674  159.8995 C   0  0  0  0  0  0  0  0  0  0  0  0
  151.5638  143.0211  158.9572 C   0  0  0  0  0  0  0  0  0  0  0  0
  151.1018  140.3718  155.3112 H   0  0  0  0  0  0  0  0  0  0  0  0
  152.4154  139.4613  156.0515 H   0  0  0  0  0  0  0  0  0  0  0  0
  149.5151  139.1564  156.9755 H   0  0  0  0  0  0  0  0  0  0  0  0
  150.9962  135.7440  157.4516 H   0  0  0  0  0  0  0  0  0  0  0  0
  149.8983  138.2387  159.7637 H   0  0  0  0  0  0  0  0  0  0  0  0
  146.4904  132.5404  165.0213 H   0  0  0  0  0  0  0  0  0  0  0  0
  144.7420  132.2785  166.7586 H   0  0  0  0  0  0  0  0  0  0  0  0
  142.5199  133.3604  166.4695 H   0  0  0  0  0  0  0  0  0  0  0  0
  142.0417  134.6893  164.4204 H   0  0  0  0  0  0  0  0  0  0  0  0
  143.7806  134.9552  162.6752 H   0  0  0  0  0  0  0  0  0  0  0  0
  145.6577  139.0581  161.7412 H   0  0  0  0  0  0  0  0  0  0  0  0
  144.9870  140.4754  159.8227 H   0  0  0  0  0  0  0  0  0  0  0  0
  144.1181  139.4296  157.7391 H   0  0  0  0  0  0  0  0  0  0  0  0
  143.9029  136.9553  157.5862 H   0  0  0  0  0  0  0  0  0  0  0  0
  144.5662  135.5273  159.4990 H   0  0  0  0  0  0  0  0  0  0  0  0
  147.0328  132.7229  158.0842 H   0  0  0  0  0  0  0  0  0  0  0  0
  148.4385  136.7618  156.2650 H   0  0  0  0  0  0  0  0  0  0  0  0
  149.3439  135.6454  154.3944 H   0  0  0  0  0  0  0  0  0  0  0  0
  149.3766  138.3074  154.6592 H   0  0  0  0  0  0  0  0  0  0  0  0
  153.6643  140.8966  160.6310 H   0  0  0  0  0  0  0  0  0  0  0  0
  153.5898  142.7372  162.2717 H   0  0  0  0  0  0  0  0  0  0  0  0
  152.2272  144.7687  161.8198 H   0  0  0  0  0  0  0  0  0  0  0  0
  150.9344  144.9492  159.7024 H   0  0  0  0  0  0  0  0  0  0  0  0
  150.9903  143.1305  158.0483 H   0  0  0  0  0  0  0  0  0  0  0  0
  1  2  2  0  0  0  0
  2  3  1  0  0  0  0
  2 38  1  0  0  0  0
  3  4  1  0  0  0  0
  4  5  1  0  0  0  0
  4 44  1  0  0  0  0
  4 45  1  0  0  0  0
  5 36  1  0  0  0  0
  5  6  1  0  0  0  0
  5 46  1  0  0  0  0
  6  7  1  0  0  0  0
  7  8  1  0  0  0  0
  7 34  1  0  0  0  0
  7 47  1  0  0  0  0
  8 33  1  0  0  0  0
  8  9  1  0  0  0  0
  9 10  2  0  0  0  0
  9 48  1  0  0  0  0
 10 11  1  0  0  0  0
 11 33  2  0  0  0  0
 11 12  1  0  0  0  0
 12 13  1  0  0  0  0
 12 30  2  0  0  0  0
 13 14  1  0  0  0  0
 13 22  1  0  0  0  0
 14 15  2  0  0  0  0
 14 16  1  0  0  0  0
 16 21  1  0  0  0  0
 16 17  2  0  0  0  0
 17 18  1  0  0  0  0
 17 49  1  0  0  0  0
 18 19  2  0  0  0  0
 18 50  1  0  0  0  0
 19 20  1  0  0  0  0
 19 51  1  0  0  0  0
 20 21  2  0  0  0  0
 20 52  1  0  0  0  0
 21 53  1  0  0  0  0
 22 23  2  0  0  0  0
 22 24  1  0  0  0  0
 24 29  1  0  0  0  0
 24 25  2  0  0  0  0
 25 26  1  0  0  0  0
 25 54  1  0  0  0  0
 26 27  2  0  0  0  0
 26 55  1  0  0  0  0
 27 28  1  0  0  0  0
 27 56  1  0  0  0  0
 28 29  2  0  0  0  0
 28 57  1  0  0  0  0
 29 58  1  0  0  0  0
 30 31  1  0  0  0  0
 31 32  2  0  0  0  0
 31 59  1  0  0  0  0
 32 33  1  0  0  0  0
 34 35  1  0  0  0  0
 34 36  1  0  0  0  0
 34 60  1  0  0  0  0
 35 61  1  0  0  0  0
 36 37  1  0  0  0  0
 36 62  1  0  0  0  0
 38 43  1  0  0  0  0
 38 39  2  0  0  0  0
 39 40  1  0  0  0  0
 39 63  1  0  0  0  0
 40 41  2  0  0  0  0
 40 64  1  0  0  0  0
 41 42  1  0  0  0  0
 41 65  1  0  0  0  0
 42 43  2  0  0  0  0
 42 66  1  0  0  0  0
 43 67  1  0  0  0  0
M  END
> <s_m_source_file>
AV-unprocessed.smi

> <i_m_source_file_index>
33

> <i_lp_mmshare_version>
43012

> <i_f3d_flags>
0

> <s_epik_input>
W2NIXTFbY0hdW2NIXVtjSF1bY0hdYzFDKD1PKU9bQ0gyXVtDQEBIXTJPW0NASF0oW0NAQEhdKFtPSF0pW0NAQEhdMkYpbihbY0hdbjMpYyhjMzQpbltjSF1uYzROKEMoPU8pYzVbY0hdW2NIXVtjSF1bY0hdW2NIXTUpQyg9TyljNltjSF1bY0hdW2NIXVtjSF1bY0hdNg==

> <s_epik_cmdline>
J2VwaWtfcHl0aG9uJywgJy1waCcsICc3LjAnLCAnLXRuJywgJzgnLCAnLW1hJywgJzIwMCcsICctbWV0YWxfYmluZGluZycsICctaW1hZScsICc8aW5maWxlLm1hZT4nLCAnLW9tYWUnLCAnPG91dGZpbGUubWFlPic=

> <r_lp_tautomer_probability>
1

> <r_epik_Ionization_Penalty>
0.00067664

> <r_epik_Ionization_Penalty_Charging>
0

> <r_epik_Ionization_Penalty_Neutral>
0.00067664

> <r_epik_State_Penalty>
0.000428095

> <r_epik_Charging_Adjusted_Penalty>
0.000428095

> <i_epik_Tot_Q>
0

> <i_epik_Tot_abs_Q>
0

> <r_epik_Metal_State_Penalty>
-0

> <b_epik_Metal_Only>
0

> <s_epik_Chemistry_Notes>
This compound has an ester and may undergo hydrolysis at high or low pH. This compound contains an acetal/aminal-like group ( X-CH(R)-Y where X, Y are N, S, or O) that may be acid/base labile, releasing an aldehyde.

> <s_lp_Force_Field>
OPLS_2005

> <r_lp_Energy>
70.8142

> <b_lp_Chiralities_Consistent>
1

> <s_lp_Variant>
AV-unprocessed.smi:33-5

> <Gold.Version>
5.8.1

> <Gold.Id.Protein>
6NUR|6NUR_protein|mol2

> <Gold.PLP.Fitness>
55.2848

> <Gold.PLP.PLP>
-48.7982

> <Gold.PLP.part.hbond>
-3.2453

> <Gold.PLP.part.metal>
0.0000

> <Gold.PLP.part.buried>
-6.1566

> <Gold.PLP.part.nonpolar>
-39.6877

> <Gold.PLP.part.repulsive>
0.0095

> <Gold.PLP.ligand.clash>
0.0005

> <Gold.PLP.ligand.torsion>
2.7465

> <Gold.PLP.Chemscore.Hbond>
2.6080

> <Gold.PLP.Chemscore.CHOScore>
0.0000

> <Gold.PLP.Chemscore.Metal>
0.0000

> <Gold.Chemscore.Hbonds>
donor molecule, donor type, donor heavy atom, donor atom, acceptor molecule, acceptor atom, score
      P1  H  6931  6943       L1    10  0.64
      P1  H  6934  6947       L1    10  0.04
      P1  H  7997  8009       L1     1  1.00

> <Gold.PLP.Chemscore.Internal.Correction>
4.1560

> <Gold.Rescore>
     Score         DG    S(hbond)    S(metal)    S(lipo)     H(rot)  DE(clash)    DE(int)     intcor
     14.52     -21.70       2.29        0.00     128.57       2.52       1.15       6.04       ----

> <Gold.Chemscore.Fitness>
14.5201

> <Gold.Chemscore.DG>
-21.7012

> <Gold.Chemscore.ZeroCoef>
-5.4800

> <Gold.Chemscore.Hbond>
2.2879

> <Gold.Chemscore.Metal>
0.0000

> <Gold.Chemscore.Lipo>
128.5702

> <Gold.Chemscore.Internal_Hbond>
0.0000

> <Gold.Chemscore.DEClash>
1.1460

> <Gold.Chemscore.DEInternal>
6.0351

> <Gold.Chemscore.Rot>
2.5247

> <Gold.Chemscore.Internal.Correction>
   9.000000E+99

> <Gold.Chemscore.Hbonds>
donor molecule, donor type, donor heavy atom, donor atom, acceptor molecule, acceptor atom, score
      P1  H  6931  6943       L1    10  0.08
      P1  H  6934  6947       L1    10  0.02
      P1  H  7997  8009       L1     1  0.77

> <Gold.Chemscore.Hbond.Weighted>
-7.6417

> <Gold.Chemscore.Metal.Weighted>
-0.0000

> <Gold.Chemscore.Lipo.Weighted>
-15.0427

> <Gold.Chemscore.Internal_Hbond.Weighted>
0.0000

> <Gold.Chemscore.DEClash.Weighted>
1.1460

> <Gold.Chemscore.DEInternal.Weighted>
6.0351

> <Gold.Chemscore.Rot.Weighted>
6.4633

> <Gold.Chemscore.Internal.Correction.Weighted>
   9.000000E+99

> <Gold.Protein.RotatedTorsions>
[ 6907 6896 6895 6894 ] final   50.43 input  -60.11 | X-H torsion
[ 7974 7965 7964 7962 ] final   46.19 input  175.53 | X-H torsion
[ 8008 7997 7996 7995 ] final  161.31 input   59.86 | X-H torsion
[ 10167 10162 10161 10158 ] final -162.16 input  -65.29 | X-H torsion
[ 10718 10713 10712 10709 ] final -106.68 input   66.30 | X-H torsion
[ 10763 10752 10751 10750 ] final   80.76 input  -60.55 | X-H torsion
[ 11005 11000 10999 10996 ] final  -86.16 input  -57.11 | X-H torsion

> <Gold.Protein.ActiveResidues>
 VAL166  LYS551  ARG553  GLY616  TRP617  ASP618  TYR619  PRO620  LYS621  CYS622 
 ASP623  PHE694  ASN695  SER759  ASP760  ASP761  ALA762  ILE779  LEU786  VAL792 
 PHE793  MET794  SER795  GLU796  ALA797  LYS798  CYS799  TRP800  GLU811  SER814 

> <Gold.Protein.RotatedAtoms>
  152.3018  134.7602  160.0355 H   0  0  0  0  0  0  0  0  0  0  0  0  # atno 6907 bound_to 6896
  151.8113  133.3377  159.3564 H   0  0  0  0  0  0  0  0  0  0  0  0  # atno 6908 bound_to 6896
  150.7277  134.5591  159.5877 H   0  0  0  0  0  0  0  0  0  0  0  0  # atno 6909 bound_to 6896
  146.0412  139.4882  142.9777 H   0  0  0  0  0  0  0  0  0  0  0  0  # atno 7974 bound_to 7965
  156.2112  140.1781  156.7690 H   0  0  0  0  0  0  0  0  0  0  0  0  # atno 8008 bound_to 7997
  154.5725  140.0680  156.9016 H   0  0  0  0  0  0  0  0  0  0  0  0  # atno 8009 bound_to 7997
  155.2646  140.3338  155.4272 H   0  0  0  0  0  0  0  0  0  0  0  0  # atno 8010 bound_to 7997
  139.6412  144.0256  152.2093 H   0  0  0  0  0  0  0  0  0  0  0  0  # atno 10167 bound_to 10162
  156.0401  130.5625  150.7714 H   0  0  0  0  0  0  0  0  0  0  0  0  # atno 10718 bound_to 10713
  153.1060  135.4790  154.8952 H   0  0  0  0  0  0  0  0  0  0  0  0  # atno 10763 bound_to 10752
  154.7431  135.3087  154.8696 H   0  0  0  0  0  0  0  0  0  0  0  0  # atno 10764 bound_to 10752
  153.9298  135.6846  153.4799 H   0  0  0  0  0  0  0  0  0  0  0  0  # atno 10765 bound_to 10752
  141.1633  133.7439  156.9120 H   0  0  0  0  0  0  0  0  0  0  0  0  # atno 11005 bound_to 11000
  145.6881  141.0172  143.1570 LP  0  0  0  0  0  0  0  0  0  0  0  0  # atno 17320 bound_to 7965
  144.7075  139.8501  143.7425 LP  0  0  0  0  0  0  0  0  0  0  0  0  # atno 17321 bound_to 7965
  139.9946  144.6337  150.7784 LP  0  0  0  0  0  0  0  0  0  0  0  0  # atno 17342 bound_to 10162
  140.7492  143.2934  151.3269 LP  0  0  0  0  0  0  0  0  0  0  0  0  # atno 17343 bound_to 10162
  157.5207  131.0931  151.0082 LP  0  0  0  0  0  0  0  0  0  0  0  0  # atno 17370 bound_to 10713
  157.0413  130.5750  149.5356 LP  0  0  0  0  0  0  0  0  0  0  0  0  # atno 17371 bound_to 10713
  140.1510  134.9230  157.2592 LP  0  0  0  0  0  0  0  0  0  0  0  0  # atno 17394 bound_to 11000
  140.2723  134.3446  155.7369 LP  0  0  0  0  0  0  0  0  0  0  0  0  # atno 17395 bound_to 11000

$$$$
