AV-unprocessed.smi:2881|AV-procd|sdf|11069|dock5
  -GOLD-   2272015543D 1   1.00000     0.00000
 Structure written by MMmdl.
 40 42  0  0  0  0  0  0  0  0  1 V2000
  148.5841  141.4106  155.3735 C   0  0  0  0  0  0  0  0  0  0  0  0
  148.2428  140.3483  154.3705 C   0  0  0  0  0  0  0  0  0  0  0  0
  147.1775  140.3416  153.4230 C   0  0  0  0  0  0  0  0  0  0  0  0
  147.3234  139.1562  152.7578 C   0  0  0  0  0  0  0  0  0  0  0  0
  146.5332  138.5444  151.6443 C   0  0  0  0  0  0  0  0  0  0  0  0
  145.6271  137.4137  152.1414 C   0  0  0  0  0  0  0  0  0  0  0  0
  144.8168  137.6133  153.0470 O   0  0  0  0  0  0  0  0  0  0  0  0
  145.7817  136.2217  151.5452 N   0  0  0  0  0  0  0  0  0  0  0  0
  145.0231  135.0148  151.8770 C   0  0  2  0  0  0  0  0  0  0  0  0
  145.9101  133.8449  152.3780 C   0  0  2  0  0  0  0  0  0  0  0  0
  147.0954  133.5910  151.4224 C   0  0  0  0  0  0  0  0  0  0  0  0
  146.4039  132.9990  150.1814 C   0  0  0  0  0  0  0  0  0  0  0  0
  144.9179  132.9634  150.5966 C   0  0  1  0  0  0  0  0  0  0  0  0
  145.0346  132.6321  152.0797 C   0  0  0  0  0  0  0  0  0  0  0  0
  144.2938  134.3795  150.6596 C   0  0  2  0  0  0  0  0  0  0  0  0
  144.2923  135.1817  149.3388 C   0  0  0  0  0  0  0  0  0  0  0  0
  143.5574  134.4926  148.3497 O   0  0  0  0  0  0  0  0  0  0  0  0
  148.4159  138.5345  153.3194 N   0  0  0  0  0  0  0  0  0  0  0  0
  148.9861  139.2538  154.3038 N   0  0  0  0  0  0  0  0  0  0  0  0
  148.7803  137.6338  153.0433 H   0  0  0  0  0  0  0  0  0  0  0  0
  147.8451  142.2120  155.3654 H   0  0  0  0  0  0  0  0  0  0  0  0
  149.5568  141.8541  155.1593 H   0  0  0  0  0  0  0  0  0  0  0  0
  148.6181  141.0020  156.3837 H   0  0  0  0  0  0  0  0  0  0  0  0
  146.4235  141.0962  153.2540 H   0  0  0  0  0  0  0  0  0  0  0  0
  147.2087  138.1391  150.8906 H   0  0  0  0  0  0  0  0  0  0  0  0
  145.9371  139.3120  151.1485 H   0  0  0  0  0  0  0  0  0  0  0  0
  146.4759  136.1395  150.8169 H   0  0  0  0  0  0  0  0  0  0  0  0
  144.2802  135.2654  152.6372 H   0  0  0  0  0  0  0  0  0  0  0  0
  146.2106  133.9430  153.4218 H   0  0  0  0  0  0  0  0  0  0  0  0
  147.6762  134.4847  151.1950 H   0  0  0  0  0  0  0  0  0  0  0  0
  147.7829  132.8628  151.8547 H   0  0  0  0  0  0  0  0  0  0  0  0
  146.5873  133.5799  149.2790 H   0  0  0  0  0  0  0  0  0  0  0  0
  146.7707  131.9891  149.9939 H   0  0  0  0  0  0  0  0  0  0  0  0
  144.3236  132.2522  150.0221 H   0  0  0  0  0  0  0  0  0  0  0  0
  145.5306  131.6794  152.2743 H   0  0  0  0  0  0  0  0  0  0  0  0
  144.0787  132.6483  152.6066 H   0  0  0  0  0  0  0  0  0  0  0  0
  143.2471  134.2566  150.9451 H   0  0  0  0  0  0  0  0  0  0  0  0
  143.8225  136.1535  149.4929 H   0  0  0  0  0  0  0  0  0  0  0  0
  145.2990  135.3732  148.9693 H   0  0  0  0  0  0  0  0  0  0  0  0
  144.1581  134.1830  147.6893 H   0  0  0  0  0  0  0  0  0  0  0  0
  1 21  1  0  0  0  0
  1 22  1  0  0  0  0
  1 23  1  0  0  0  0
  1  2  1  0  0  0  0
  2 19  2  0  0  0  0
  2  3  1  0  0  0  0
  3  4  2  0  0  0  0
  3 24  1  0  0  0  0
  4 18  1  0  0  0  0
  4  5  1  0  0  0  0
  5  6  1  0  0  0  0
  5 25  1  0  0  0  0
  5 26  1  0  0  0  0
  6  7  2  0  0  0  0
  6  8  1  0  0  0  0
  8  9  1  0  0  0  0
  8 27  1  0  0  0  0
  9 15  1  0  0  0  0
  9 10  1  0  0  0  0
  9 28  1  0  0  0  0
 10 14  1  0  0  0  0
 10 11  1  0  0  0  0
 10 29  1  0  0  0  0
 11 12  1  0  0  0  0
 11 30  1  0  0  0  0
 11 31  1  0  0  0  0
 12 13  1  0  0  0  0
 12 32  1  0  0  0  0
 12 33  1  0  0  0  0
 13 14  1  0  0  0  0
 13 15  1  0  0  0  0
 13 34  1  0  0  0  0
 14 35  1  0  0  0  0
 14 36  1  0  0  0  0
 15 16  1  0  0  0  0
 15 37  1  0  0  0  0
 16 17  1  0  0  0  0
 16 38  1  0  0  0  0
 16 39  1  0  0  0  0
 17 40  1  0  0  0  0
 18 19  1  0  0  0  0
 18 20  1  0  0  0  0
M  END
> <s_m_source_file>
AV-unprocessed.smi

> <i_m_source_file_index>
2881

> <i_lp_mmshare_version>
43012

> <i_f3d_flags>
0

> <s_epik_input>
W0NIM11jMVtjSF1jKG5bbkhdMSlbQ0gyXUMoPU8pW05IXVtDQEhdKFtDQEBIXTIzKVtDQEhdKFtDSDJdW09IXSlbQ0BASF0oW0NIMl0zKVtDSDJdW0NIMl0y

> <s_epik_cmdline>
J2VwaWtfcHl0aG9uJywgJy1waCcsICc3LjAnLCAnLXRuJywgJzgnLCAnLW1hJywgJzIwMCcsICctbWV0YWxfYmluZGluZycsICctaW1hZScsICc8aW5maWxlLm1hZT4nLCAnLW9tYWUnLCAnPG91dGZpbGUubWFlPic=

> <r_lp_tautomer_probability>
0.5

> <r_epik_Ionization_Penalty>
0.00013396

> <r_epik_Ionization_Penalty_Charging>
0

> <r_epik_Ionization_Penalty_Neutral>
0.00013396

> <r_epik_State_Penalty>
0.41068

> <r_epik_Charging_Adjusted_Penalty>
0.41068

> <i_epik_Tot_Q>
0

> <i_epik_Tot_abs_Q>
0

> <r_epik_Metal_State_Penalty>
0.41066

> <b_epik_Metal_Only>
0

> <s_lp_Force_Field>
OPLS_2005

> <r_lp_Energy>
50.1234

> <b_lp_Chiralities_Consistent>
1

> <s_lp_Variant>
AV-unprocessed.smi:2881-15

> <Gold.Version>
5.8.1

> <Gold.Id.Protein>
6NUR|6NUR_protein|mol2

> <Gold.PLP.Fitness>
38.8185

> <Gold.PLP.PLP>
-32.2763

> <Gold.PLP.part.hbond>
-5.6240

> <Gold.PLP.part.metal>
0.0000

> <Gold.PLP.part.buried>
3.5368

> <Gold.PLP.part.nonpolar>
-30.8243

> <Gold.PLP.part.repulsive>
0.7117

> <Gold.PLP.ligand.clash>
0.0000

> <Gold.PLP.ligand.torsion>
0.2309

> <Gold.PLP.Chemscore.Hbond>
2.3306

> <Gold.PLP.Chemscore.CHOScore>
0.0000

> <Gold.PLP.Chemscore.Metal>
0.0000

> <Gold.Chemscore.Hbonds>
donor molecule, donor type, donor heavy atom, donor atom, acceptor molecule, acceptor atom, score
      L1  H    17    40       P1  7921  0.44
      L1  H    18    20       P1  7948  1.00
      P1  H 10192 10197       L1    17  0.93

> <Gold.PLP.Chemscore.Internal.Correction>
0.0123

> <Gold.Rescore>
     Score         DG    S(hbond)    S(metal)    S(lipo)     H(rot)  DE(clash)    DE(int)     intcor
     14.01     -17.05       2.02        0.00      90.95       2.28       2.86       0.18       ----

> <Gold.Chemscore.Fitness>
14.0058

> <Gold.Chemscore.DG>
-17.0466

> <Gold.Chemscore.ZeroCoef>
-5.4800

> <Gold.Chemscore.Hbond>
2.0212

> <Gold.Chemscore.Metal>
0.0000

> <Gold.Chemscore.Lipo>
90.9490

> <Gold.Chemscore.Internal_Hbond>
0.0000

> <Gold.Chemscore.DEClash>
2.8644

> <Gold.Chemscore.DEInternal>
0.1764

> <Gold.Chemscore.Rot>
2.2755

> <Gold.Chemscore.Internal.Correction>
   9.000000E+99

> <Gold.Chemscore.Hbonds>
donor molecule, donor type, donor heavy atom, donor atom, acceptor molecule, acceptor atom, score
      L1  H    17    40       P1  7921  0.42
      L1  H    18    20       P1  7948  0.97
      P1  H 10192 10197       L1    17  0.23

> <Gold.Chemscore.Hbond.Weighted>
-6.7508

> <Gold.Chemscore.Metal.Weighted>
-0.0000

> <Gold.Chemscore.Lipo.Weighted>
-10.6410

> <Gold.Chemscore.Internal_Hbond.Weighted>
0.0000

> <Gold.Chemscore.DEClash.Weighted>
2.8644

> <Gold.Chemscore.DEInternal.Weighted>
0.1764

> <Gold.Chemscore.Rot.Weighted>
5.8252

> <Gold.Chemscore.Internal.Correction.Weighted>
   9.000000E+99

> <Gold.Protein.RotatedTorsions>
[ 6907 6896 6895 6894 ] final  -56.57 input  -60.11 | X-H torsion
[ 7974 7965 7964 7962 ] final  113.11 input  175.53 | X-H torsion
[ 8008 7997 7996 7995 ] final -121.73 input   59.86 | X-H torsion
[ 10167 10162 10161 10158 ] final   54.92 input  -65.29 | X-H torsion
[ 10718 10713 10712 10709 ] final  -70.95 input   66.30 | X-H torsion
[ 10763 10752 10751 10750 ] final  143.25 input  -60.55 | X-H torsion
[ 11005 11000 10999 10996 ] final   99.07 input  -57.11 | X-H torsion

> <Gold.Protein.ActiveResidues>
 VAL166  LYS551  ARG553  GLY616  TRP617  ASP618  TYR619  PRO620  LYS621  CYS622 
 ASP623  PHE694  ASN695  SER759  ASP760  ASP761  ALA762  ILE779  LEU786  VAL792 
 PHE793  MET794  SER795  GLU796  ALA797  LYS798  CYS799  TRP800  GLU811  SER814 

> <Gold.Protein.RotatedAtoms>
  150.8157  134.7337  159.6727 H   0  0  0  0  0  0  0  0  0  0  0  0  # atno 6907 bound_to 6896
  152.4275  134.5837  159.9964 H   0  0  0  0  0  0  0  0  0  0  0  0  # atno 6908 bound_to 6896
  151.6034  133.3317  159.3088 H   0  0  0  0  0  0  0  0  0  0  0  0  # atno 6909 bound_to 6896
  145.2211  139.2862  143.4218 H   0  0  0  0  0  0  0  0  0  0  0  0  # atno 7974 bound_to 7965
  155.1528  140.0404  157.2825 H   0  0  0  0  0  0  0  0  0  0  0  0  # atno 8008 bound_to 7997
  154.6392  140.2543  155.7315 H   0  0  0  0  0  0  0  0  0  0  0  0  # atno 8009 bound_to 7997
  156.2524  140.2859  156.0778 H   0  0  0  0  0  0  0  0  0  0  0  0  # atno 8010 bound_to 7997
  140.2249  144.3748  150.6436 H   0  0  0  0  0  0  0  0  0  0  0  0  # atno 10167 bound_to 10162
  156.0384  130.4341  150.2371 H   0  0  0  0  0  0  0  0  0  0  0  0  # atno 10718 bound_to 10713
  153.9692  135.2952  155.3428 H   0  0  0  0  0  0  0  0  0  0  0  0  # atno 10763 bound_to 10752
  154.7331  135.5058  153.9000 H   0  0  0  0  0  0  0  0  0  0  0  0  # atno 10764 bound_to 10752
  153.0908  135.6707  153.9970 H   0  0  0  0  0  0  0  0  0  0  0  0  # atno 10765 bound_to 10752
  139.8771  134.9078  156.4551 H   0  0  0  0  0  0  0  0  0  0  0  0  # atno 11005 bound_to 11000
  146.3376  140.2517  142.8599 LP  0  0  0  0  0  0  0  0  0  0  0  0  # atno 17320 bound_to 7965
  144.9765  140.8418  143.5423 LP  0  0  0  0  0  0  0  0  0  0  0  0  # atno 17321 bound_to 7965
  140.6227  143.2178  151.6660 LP  0  0  0  0  0  0  0  0  0  0  0  0  # atno 17342 bound_to 10162
  139.5130  144.3456  152.0700 LP  0  0  0  0  0  0  0  0  0  0  0  0  # atno 17343 bound_to 10162
  157.0469  131.0051  151.3266 LP  0  0  0  0  0  0  0  0  0  0  0  0  # atno 17370 bound_to 10713
  157.5169  130.7973  149.7766 LP  0  0  0  0  0  0  0  0  0  0  0  0  # atno 17371 bound_to 10713
  140.8904  133.7852  155.9566 LP  0  0  0  0  0  0  0  0  0  0  0  0  # atno 17394 bound_to 11000
  140.8759  134.2670  157.5168 LP  0  0  0  0  0  0  0  0  0  0  0  0  # atno 17395 bound_to 11000

$$$$
