AV-unprocessed.smi:1809|AV-procd|sdf|7316|dock1
  -GOLD-   22720 8573D 1   1.00000     0.00000
 Structure written by MMmdl.
 40 42  0  0  0  0  0  0  0  0  2 V2000
  151.7693  140.8846  157.1453 C   0  0  0  0  0  0  0  0  0  0  0  0
  151.2258  139.9149  156.1522 C   0  0  0  0  0  0  0  0  0  0  0  0
  150.9246  140.2560  154.8933 N   0  0  0  0  0  0  0  0  0  0  0  0
  150.4386  139.1829  154.1592 N   0  0  0  0  0  0  0  0  0  0  0  0
  150.3882  138.0604  154.8893 C   0  0  0  0  0  0  0  0  0  0  0  0
  149.9316  136.8128  154.3880 N   0  0  0  0  0  0  0  0  0  0  0  0
  149.8448  135.6373  155.0347 C   0  0  0  0  0  0  0  0  0  0  0  0
  150.1606  135.4432  156.2090 O   0  0  0  0  0  0  0  0  0  0  0  0
  149.3681  134.6744  154.2330 N   0  0  0  0  0  0  0  0  0  0  0  0
  149.1543  133.2872  154.6313 C   0  0  0  0  0  0  0  0  0  0  0  0
  148.4687  132.4693  153.5225 C   0  0  1  0  0  0  0  0  0  0  0  0
  148.4113  130.9633  153.8696 C   0  0  0  0  0  0  0  0  0  0  0  0
  147.6440  130.2762  152.8151 N   0  3  1  0  0  0  0  0  0  0  0  0
  147.4662  128.8173  152.9149 C   0  0  0  0  0  0  0  0  0  0  0  0
  146.1928  128.5189  152.0972 C   0  0  0  0  0  0  0  0  0  0  0  0
  145.6173  129.8918  151.7030 C   0  0  0  0  0  0  0  0  0  0  0  0
  146.2996  130.8418  152.6815 C   0  0  2  0  0  0  0  0  0  0  0  0
  146.4146  132.3226  152.2977 C   0  0  0  0  0  0  0  0  0  0  0  0
  147.1429  132.9794  153.3363 O   0  0  0  0  0  0  0  0  0  0  0  0
  150.9348  138.2258  156.5491 S   0  0  0  0  0  0  0  0  0  0  0  0
  151.7092  141.9036  156.7613 H   0  0  0  0  0  0  0  0  0  0  0  0
  152.8126  140.6519  157.3593 H   0  0  0  0  0  0  0  0  0  0  0  0
  151.1997  140.8279  158.0730 H   0  0  0  0  0  0  0  0  0  0  0  0
  149.6352  136.8175  153.4233 H   0  0  0  0  0  0  0  0  0  0  0  0
  149.1363  134.9157  153.2803 H   0  0  0  0  0  0  0  0  0  0  0  0
  150.1100  132.8348  154.9016 H   0  0  0  0  0  0  0  0  0  0  0  0
  148.5428  133.2796  155.5340 H   0  0  0  0  0  0  0  0  0  0  0  0
  149.0220  132.5909  152.5895 H   0  0  0  0  0  0  0  0  0  0  0  0
  149.4163  130.5435  153.9257 H   0  0  0  0  0  0  0  0  0  0  0  0
  147.9356  130.8064  154.8391 H   0  0  0  0  0  0  0  0  0  0  0  0
  148.3420  128.2899  152.5356 H   0  0  0  0  0  0  0  0  0  0  0  0
  147.3193  128.5290  153.9570 H   0  0  0  0  0  0  0  0  0  0  0  0
  146.4113  127.9190  151.2131 H   0  0  0  0  0  0  0  0  0  0  0  0
  145.4799  127.9604  152.7046 H   0  0  0  0  0  0  0  0  0  0  0  0
  145.9038  130.1348  150.6787 H   0  0  0  0  0  0  0  0  0  0  0  0
  144.5292  129.9302  151.7666 H   0  0  0  0  0  0  0  0  0  0  0  0
  145.7910  130.7635  153.6451 H   0  0  0  0  0  0  0  0  0  0  0  0
  146.9189  132.4516  151.3388 H   0  0  0  0  0  0  0  0  0  0  0  0
  145.4258  132.7737  152.2114 H   0  0  0  0  0  0  0  0  0  0  0  0
  148.1159  130.4481  151.9386 H   0  0  0  0  0  0  0  0  0  0  0  0
  1  2  1  0  0  0  0
  1 21  1  0  0  0  0
  1 22  1  0  0  0  0
  1 23  1  0  0  0  0
  2 20  1  0  0  0  0
  2  3  2  0  0  0  0
  3  4  1  0  0  0  0
  4  5  2  0  0  0  0
  5  6  1  0  0  0  0
  5 20  1  0  0  0  0
  6  7  1  0  0  0  0
  6 24  1  0  0  0  0
  7  8  2  0  0  0  0
  7  9  1  0  0  0  0
  9 10  1  0  0  0  0
  9 25  1  0  0  0  0
 10 11  1  0  0  0  0
 10 26  1  0  0  0  0
 10 27  1  0  0  0  0
 11 19  1  0  0  0  0
 11 12  1  0  0  0  0
 11 28  1  0  0  0  0
 12 13  1  0  0  0  0
 12 29  1  0  0  0  0
 12 30  1  0  0  0  0
 13 17  1  0  0  0  0
 13 14  1  0  0  0  0
 13 40  1  0  0  0  0
 14 15  1  0  0  0  0
 14 31  1  0  0  0  0
 14 32  1  0  0  0  0
 15 16  1  0  0  0  0
 15 33  1  0  0  0  0
 15 34  1  0  0  0  0
 16 17  1  0  0  0  0
 16 35  1  0  0  0  0
 16 36  1  0  0  0  0
 17 18  1  0  0  0  0
 17 37  1  0  0  0  0
 18 19  1  0  0  0  0
 18 38  1  0  0  0  0
 18 39  1  0  0  0  0
M  CHG  1  13   1
M  END
> <s_m_source_file>
AV-unprocessed.smi

> <i_m_source_file_index>
1809

> <i_lp_mmshare_version>
43012

> <i_f3d_flags>
0

> <s_epik_input>
W0NIM11jMW5uYyhzMSlbTkhdQyg9TylbTkhdW0NIMl1bQ0BIXShbQ0gyXTIpT1tDSDJdW0NAQEhdKE4yMylbQ0gyXVtDSDJdW0NIMl0z

> <s_epik_cmdline>
J2VwaWtfcHl0aG9uJywgJy1waCcsICc3LjAnLCAnLXRuJywgJzgnLCAnLW1hJywgJzIwMCcsICctbWV0YWxfYmluZGluZycsICctaW1hZScsICc8aW5maWxlLm1hZT4nLCAnLW9tYWUnLCAnPG91dGZpbGUubWFlPic=

> <r_lp_tautomer_probability>
1

> <r_epik_Ionization_Penalty>
0.112474

> <r_epik_Ionization_Penalty_Charging>
0.108916

> <r_epik_Ionization_Penalty_Neutral>
0.00355844

> <r_epik_State_Penalty>
0.0565397

> <r_epik_Charging_Adjusted_Penalty>
0.165456

> <i_epik_Tot_Q>
1

> <i_epik_Tot_abs_Q>
1

> <r_epik_Metal_State_Penalty>
0.422831

> <b_epik_Metal_Only>
0

> <s_lp_Force_Field>
OPLS_2005

> <r_lp_Energy>
33.8042

> <b_lp_Chiralities_Consistent>
1

> <s_lp_Variant>
AV-unprocessed.smi:1809-8

> <Gold.Version>
5.8.1

> <Gold.Id.Protein>
6NUR|6NUR_protein|mol2

> <Gold.PLP.Fitness>
43.1371

> <Gold.PLP.PLP>
-33.3082

> <Gold.PLP.part.hbond>
-4.8181

> <Gold.PLP.part.metal>
0.0000

> <Gold.PLP.part.buried>
-5.9167

> <Gold.PLP.part.nonpolar>
-23.5329

> <Gold.PLP.part.repulsive>
0.4524

> <Gold.PLP.ligand.clash>
0.0000

> <Gold.PLP.ligand.torsion>
0.0389

> <Gold.PLP.Chemscore.Hbond>
3.3000

> <Gold.PLP.Chemscore.CHOScore>
0.0000

> <Gold.PLP.Chemscore.Metal>
0.0000

> <Gold.Chemscore.Hbonds>
donor molecule, donor type, donor heavy atom, donor atom, acceptor molecule, acceptor atom, score
      L1  H     6    24       P1  7948  1.00
      L1  H     9    25       P1  7948  0.75
      L1  H    13    40       P1 10747  1.00
      P1  H  7989  7998       L1     3  0.50

> <Gold.PLP.Chemscore.Internal.Correction>
0.0067

> <Gold.Rescore>
     Score         DG    S(hbond)    S(metal)    S(lipo)     H(rot)  DE(clash)    DE(int)     intcor
     17.03     -18.30       2.41        0.00      70.10       1.34       0.00       1.26       ----

> <Gold.Chemscore.Fitness>
17.0296

> <Gold.Chemscore.DG>
-18.2977

> <Gold.Chemscore.ZeroCoef>
-5.4800

> <Gold.Chemscore.Hbond>
2.4085

> <Gold.Chemscore.Metal>
0.0000

> <Gold.Chemscore.Lipo>
70.0989

> <Gold.Chemscore.Internal_Hbond>
0.0000

> <Gold.Chemscore.DEClash>
0.0038

> <Gold.Chemscore.DEInternal>
1.2644

> <Gold.Chemscore.Rot>
1.3391

> <Gold.Chemscore.Internal.Correction>
   9.000000E+99

> <Gold.Chemscore.Hbonds>
donor molecule, donor type, donor heavy atom, donor atom, acceptor molecule, acceptor atom, score
      L1  H     6    24       P1  7948  0.65
      L1  H     9    25       P1  7948  0.09
      L1  H    13    40       P1 10747  0.99
      P1  H  7989  7998       L1     3  0.02

> <Gold.Chemscore.Hbond.Weighted>
-8.0442

> <Gold.Chemscore.Metal.Weighted>
-0.0000

> <Gold.Chemscore.Lipo.Weighted>
-8.2016

> <Gold.Chemscore.Internal_Hbond.Weighted>
0.0000

> <Gold.Chemscore.DEClash.Weighted>
0.0038

> <Gold.Chemscore.DEInternal.Weighted>
1.2644

> <Gold.Chemscore.Rot.Weighted>
3.4281

> <Gold.Chemscore.Internal.Correction.Weighted>
   9.000000E+99

> <Gold.Protein.RotatedTorsions>
[ 6907 6896 6895 6894 ] final  117.34 input  -60.11 | X-H torsion
[ 7974 7965 7964 7962 ] final  164.52 input  175.53 | X-H torsion
[ 8008 7997 7996 7995 ] final -177.98 input   59.86 | X-H torsion
[ 10167 10162 10161 10158 ] final  -46.43 input  -65.29 | X-H torsion
[ 10718 10713 10712 10709 ] final   -2.77 input   66.30 | X-H torsion
[ 10763 10752 10751 10750 ] final   95.87 input  -60.55 | X-H torsion
[ 11005 11000 10999 10996 ] final -107.36 input  -57.11 | X-H torsion

> <Gold.Protein.ActiveResidues>
 VAL166  LYS551  ARG553  GLY616  TRP617  ASP618  TYR619  PRO620  LYS621  CYS622 
 ASP623  PHE694  ASN695  SER759  ASP760  ASP761  ALA762  ILE779  LEU786  VAL792 
 PHE793  MET794  SER795  GLU796  ALA797  LYS798  CYS799  TRP800  GLU811  SER814 

> <Gold.Protein.RotatedAtoms>
  152.4618  133.7839  159.6865 H   0  0  0  0  0  0  0  0  0  0  0  0  # atno 6907 bound_to 6896
  150.8566  133.7697  159.3013 H   0  0  0  0  0  0  0  0  0  0  0  0  # atno 6908 bound_to 6896
  151.5275  135.1071  159.9946 H   0  0  0  0  0  0  0  0  0  0  0  0  # atno 6909 bound_to 6896
  144.7541  139.8338  143.6356 H   0  0  0  0  0  0  0  0  0  0  0  0  # atno 7974 bound_to 7965
  156.0134  140.1245  157.0430 H   0  0  0  0  0  0  0  0  0  0  0  0  # atno 8008 bound_to 7997
  154.4284  140.1083  156.5931 H   0  0  0  0  0  0  0  0  0  0  0  0  # atno 8009 bound_to 7997
  155.6047  140.3471  155.4606 H   0  0  0  0  0  0  0  0  0  0  0  0  # atno 8010 bound_to 7997
  140.6818  143.2831  151.3781 H   0  0  0  0  0  0  0  0  0  0  0  0  # atno 10167 bound_to 10162
  156.7859  130.5346  149.5743 H   0  0  0  0  0  0  0  0  0  0  0  0  # atno 10718 bound_to 10713
  153.2582  135.4239  155.0867 H   0  0  0  0  0  0  0  0  0  0  0  0  # atno 10763 bound_to 10752
  154.8409  135.3442  154.6415 H   0  0  0  0  0  0  0  0  0  0  0  0  # atno 10764 bound_to 10752
  153.6836  135.7037  153.5168 H   0  0  0  0  0  0  0  0  0  0  0  0  # atno 10765 bound_to 10752
  141.0958  133.8974  157.1967 H   0  0  0  0  0  0  0  0  0  0  0  0  # atno 11005 bound_to 11000
  146.1530  139.4619  143.0036 LP  0  0  0  0  0  0  0  0  0  0  0  0  # atno 17320 bound_to 7965
  145.6839  141.0183  143.1592 LP  0  0  0  0  0  0  0  0  0  0  0  0  # atno 17321 bound_to 7965
  139.6146  144.1030  152.2332 LP  0  0  0  0  0  0  0  0  0  0  0  0  # atno 17342 bound_to 10162
  140.0454  144.5974  150.7377 LP  0  0  0  0  0  0  0  0  0  0  0  0  # atno 17343 bound_to 10162
  156.1189  130.6095  151.0163 LP  0  0  0  0  0  0  0  0  0  0  0  0  # atno 17370 bound_to 10713
  157.6624  131.0878  150.7808 LP  0  0  0  0  0  0  0  0  0  0  0  0  # atno 17371 bound_to 10713
  139.9794  135.0103  156.9712 LP  0  0  0  0  0  0  0  0  0  0  0  0  # atno 17394 bound_to 11000
  140.5144  134.0970  155.7277 LP  0  0  0  0  0  0  0  0  0  0  0  0  # atno 17395 bound_to 11000

$$$$
