AV-unprocessed.smi:2695|AV-procd|sdf|10407|dock6
  -GOLD-   2272014443D 1   1.00000     0.00000
 Structure written by MMmdl.
 41 42  0  0  0  0  0  0  0  0  2 V2000
  151.0406  144.5212  160.4501 C   0  0  0  0  0  0  0  0  0  0  0  0
  152.0779  143.4464  160.7530 C   0  0  0  0  0  0  0  0  0  0  0  0
  152.6592  143.3788  161.9710 C   0  0  0  0  0  0  0  0  0  0  0  0
  153.5846  142.3923  162.2855 C   0  0  0  0  0  0  0  0  0  0  0  0
  154.1279  142.3270  163.4103 O   0  5  0  0  0  0  0  0  0  0  0  0
  153.8651  141.4803  161.2762 C   0  0  0  0  0  0  0  0  0  0  0  0
  153.2662  141.4976  159.9471 C   0  0  0  0  0  0  0  0  0  0  0  0
  153.5418  140.6526  159.0933 O   0  0  0  0  0  0  0  0  0  0  0  0
  152.3890  142.5166  159.7253 N   0  0  0  0  0  0  0  0  0  0  0  0
  151.7729  142.6418  158.3841 C   0  0  0  0  0  0  0  0  0  0  0  0
  151.0603  141.3657  157.9115 C   0  0  0  0  0  0  0  0  0  0  0  0
  151.0686  140.3423  158.5969 O   0  0  0  0  0  0  0  0  0  0  0  0
  150.4395  141.4549  156.7253 N   0  0  0  0  0  0  0  0  0  0  0  0
  149.7126  140.3797  156.0478 C   0  0  2  0  0  0  0  0  0  0  0  0
  150.6665  139.6613  155.0587 C   0  0  0  0  0  0  0  0  0  0  0  0
  150.2527  138.2356  154.6742 C   0  0  0  0  0  0  0  0  0  0  0  0
  151.5232  137.5767  154.1267 C   0  0  0  0  0  0  0  0  0  0  0  0
  152.7037  138.3604  154.7171 C   0  0  0  0  0  0  0  0  0  0  0  0
  152.0927  139.4600  155.5910 C   0  0  0  0  0  0  0  0  0  0  0  0
  148.4497  140.9741  155.3832 C   0  0  0  0  0  0  0  0  0  0  0  0
  147.6621  139.9890  154.9497 F   0  0  0  0  0  0  0  0  0  0  0  0
  147.7641  141.7167  156.2535 F   0  0  0  0  0  0  0  0  0  0  0  0
  148.7717  141.7272  154.3325 F   0  0  0  0  0  0  0  0  0  0  0  0
  150.7248  145.0226  161.3658 H   0  0  0  0  0  0  0  0  0  0  0  0
  150.1433  144.1006  159.9960 H   0  0  0  0  0  0  0  0  0  0  0  0
  151.4558  145.2806  159.7875 H   0  0  0  0  0  0  0  0  0  0  0  0
  152.3926  144.1103  162.7206 H   0  0  0  0  0  0  0  0  0  0  0  0
  154.5776  140.6938  161.4793 H   0  0  0  0  0  0  0  0  0  0  0  0
  151.0770  143.4766  158.3225 H   0  0  0  0  0  0  0  0  0  0  0  0
  152.5357  142.8996  157.6467 H   0  0  0  0  0  0  0  0  0  0  0  0
  150.4804  142.3409  156.2431 H   0  0  0  0  0  0  0  0  0  0  0  0
  149.3775  139.6450  156.7820 H   0  0  0  0  0  0  0  0  0  0  0  0
  150.7356  140.2507  154.1427 H   0  0  0  0  0  0  0  0  0  0  0  0
  149.9172  137.6948  155.5603 H   0  0  0  0  0  0  0  0  0  0  0  0
  149.4421  138.2131  153.9454 H   0  0  0  0  0  0  0  0  0  0  0  0
  151.5652  136.5180  154.3841 H   0  0  0  0  0  0  0  0  0  0  0  0
  151.5426  137.6476  153.0385 H   0  0  0  0  0  0  0  0  0  0  0  0
  153.3717  137.7203  155.2942 H   0  0  0  0  0  0  0  0  0  0  0  0
  153.2915  138.8034  153.9119 H   0  0  0  0  0  0  0  0  0  0  0  0
  152.6838  140.3765  155.5689 H   0  0  0  0  0  0  0  0  0  0  0  0
  152.0557  139.1201  156.6273 H   0  0  0  0  0  0  0  0  0  0  0  0
  1  2  1  0  0  0  0
  1 24  1  0  0  0  0
  1 25  1  0  0  0  0
  1 26  1  0  0  0  0
  2  9  1  0  0  0  0
  2  3  2  0  0  0  0
  3  4  1  0  0  0  0
  3 27  1  0  0  0  0
  4  5  1  0  0  0  0
  4  6  2  0  0  0  0
  6  7  1  0  0  0  0
  6 28  1  0  0  0  0
  7  8  2  0  0  0  0
  7  9  1  0  0  0  0
  9 10  1  0  0  0  0
 10 11  1  0  0  0  0
 10 29  1  0  0  0  0
 10 30  1  0  0  0  0
 11 12  2  0  0  0  0
 11 13  1  0  0  0  0
 13 14  1  0  0  0  0
 13 31  1  0  0  0  0
 14 15  1  0  0  0  0
 14 20  1  0  0  0  0
 14 32  1  0  0  0  0
 15 19  1  0  0  0  0
 15 16  1  0  0  0  0
 15 33  1  0  0  0  0
 16 17  1  0  0  0  0
 16 34  1  0  0  0  0
 16 35  1  0  0  0  0
 17 18  1  0  0  0  0
 17 36  1  0  0  0  0
 17 37  1  0  0  0  0
 18 19  1  0  0  0  0
 18 38  1  0  0  0  0
 18 39  1  0  0  0  0
 19 40  1  0  0  0  0
 19 41  1  0  0  0  0
 20 21  1  0  0  0  0
 20 22  1  0  0  0  0
 20 23  1  0  0  0  0
M  CHG  1   5  -1
M  END
> <s_m_source_file>
AV-unprocessed.smi

> <i_m_source_file_index>
2695

> <i_lp_mmshare_version>
43012

> <i_f3d_flags>
0

> <s_epik_input>
W0NIM11jMVtjSF1jKFtPSF0pW2NIXWMoPU8pbjFbQ0gyXUMoPU8pW05IXVtDQEBIXShDKEYpKEYpRilbQ0hdMltDSDJdW0NIMl1bQ0gyXVtDSDJdMg==

> <s_epik_cmdline>
J2VwaWtfcHl0aG9uJywgJy1waCcsICc3LjAnLCAnLXRuJywgJzgnLCAnLW1hJywgJzIwMCcsICctbWV0YWxfYmluZGluZycsICctaW1hZScsICc8aW5maWxlLm1hZT4nLCAnLW9tYWUnLCAnPG91dGZpbGUubWFlPic=

> <r_lp_tautomer_probability>
1

> <r_epik_Ionization_Penalty>
0.176977

> <r_epik_Ionization_Penalty_Charging>
0.176977

> <r_epik_Ionization_Penalty_Neutral>
1.44272e-07

> <r_epik_State_Penalty>
0.160849

> <r_epik_Charging_Adjusted_Penalty>
0.337826

> <i_epik_Tot_Q>
-1

> <i_epik_Tot_abs_Q>
1

> <r_epik_Metal_State_Penalty>
0.16085

> <b_epik_Metal_Only>
0

> <s_lp_Force_Field>
OPLS_2005

> <r_lp_Energy>
43.1089

> <b_lp_Chiralities_Consistent>
1

> <s_lp_Variant>
AV-unprocessed.smi:2695-1

> <Gold.Version>
5.8.1

> <Gold.Id.Protein>
6NUR|6NUR_protein|mol2

> <Gold.PLP.Fitness>
50.1910

> <Gold.PLP.PLP>
-50.7589

> <Gold.PLP.part.hbond>
-1.8489

> <Gold.PLP.part.metal>
0.0000

> <Gold.PLP.part.buried>
-1.7262

> <Gold.PLP.part.nonpolar>
-44.6857

> <Gold.PLP.part.repulsive>
0.0727

> <Gold.PLP.ligand.clash>
0.0000

> <Gold.PLP.ligand.torsion>
0.8752

> <Gold.PLP.Chemscore.Hbond>
0.2925

> <Gold.PLP.Chemscore.CHOScore>
0.0000

> <Gold.PLP.Chemscore.Metal>
0.0000

> <Gold.Chemscore.Hbonds>
donor molecule, donor type, donor heavy atom, donor atom, acceptor molecule, acceptor atom, score
      P1  H  7997  8008       L1     8  0.16

> <Gold.PLP.Chemscore.Internal.Correction>
0.3051

> <Gold.Rescore>
     Score         DG    S(hbond)    S(metal)    S(lipo)     H(rot)  DE(clash)    DE(int)     intcor
      9.92     -15.14       0.17        0.00     116.05       1.75       0.39       4.83       ----

> <Gold.Chemscore.Fitness>
9.9244

> <Gold.Chemscore.DG>
-15.1440

> <Gold.Chemscore.ZeroCoef>
-5.4800

> <Gold.Chemscore.Hbond>
0.1725

> <Gold.Chemscore.Metal>
0.0000

> <Gold.Chemscore.Lipo>
116.0483

> <Gold.Chemscore.Internal_Hbond>
0.0000

> <Gold.Chemscore.DEClash>
0.3915

> <Gold.Chemscore.DEInternal>
4.8281

> <Gold.Chemscore.Rot>
1.7539

> <Gold.Chemscore.Internal.Correction>
   9.000000E+99

> <Gold.Chemscore.Hbonds>
donor molecule, donor type, donor heavy atom, donor atom, acceptor molecule, acceptor atom, score
      P1  H  7997  8008       L1     8  0.17

> <Gold.Chemscore.Hbond.Weighted>
-0.5762

> <Gold.Chemscore.Metal.Weighted>
-0.0000

> <Gold.Chemscore.Lipo.Weighted>
-13.5776

> <Gold.Chemscore.Internal_Hbond.Weighted>
0.0000

> <Gold.Chemscore.DEClash.Weighted>
0.3915

> <Gold.Chemscore.DEInternal.Weighted>
4.8281

> <Gold.Chemscore.Rot.Weighted>
4.4899

> <Gold.Chemscore.Internal.Correction.Weighted>
   9.000000E+99

> <Gold.Protein.RotatedTorsions>
[ 6907 6896 6895 6894 ] final  144.54 input  -60.11 | X-H torsion
[ 7974 7965 7964 7962 ] final  -20.23 input  175.53 | X-H torsion
[ 8008 7997 7996 7995 ] final -101.26 input   59.86 | X-H torsion
[ 10167 10162 10161 10158 ] final  165.93 input  -65.29 | X-H torsion
[ 10718 10713 10712 10709 ] final   35.32 input   66.30 | X-H torsion
[ 10763 10752 10751 10750 ] final -128.26 input  -60.55 | X-H torsion
[ 11005 11000 10999 10996 ] final  -78.37 input  -57.11 | X-H torsion

> <Gold.Protein.ActiveResidues>
 VAL166  LYS551  ARG553  GLY616  TRP617  ASP618  TYR619  PRO620  LYS621  CYS622 
 ASP623  PHE694  ASN695  SER759  ASP760  ASP761  ALA762  ILE779  LEU786  VAL792 
 PHE793  MET794  SER795  GLU796  ALA797  LYS798  CYS799  TRP800  GLU811  SER814 

> <Gold.Protein.RotatedAtoms>
  152.1923  133.4782  159.5014 H   0  0  0  0  0  0  0  0  0  0  0  0  # atno 6907 bound_to 6896
  150.6953  134.1696  159.4216 H   0  0  0  0  0  0  0  0  0  0  0  0  # atno 6908 bound_to 6896
  151.9611  135.0122  160.0598 H   0  0  0  0  0  0  0  0  0  0  0  0  # atno 6909 bound_to 6896
  146.1799  140.4173  142.8499 H   0  0  0  0  0  0  0  0  0  0  0  0  # atno 7974 bound_to 7965
  154.8401  140.0435  157.1535 H   0  0  0  0  0  0  0  0  0  0  0  0  # atno 8008 bound_to 7997
  154.9057  140.3006  155.5273 H   0  0  0  0  0  0  0  0  0  0  0  0  # atno 8009 bound_to 7997
  156.2992  140.2367  156.4090 H   0  0  0  0  0  0  0  0  0  0  0  0  # atno 8010 bound_to 7997
  139.4915  144.4081  151.9332 H   0  0  0  0  0  0  0  0  0  0  0  0  # atno 10167 bound_to 10162
  157.3213  130.7449  149.6787 H   0  0  0  0  0  0  0  0  0  0  0  0  # atno 10718 bound_to 10713
  154.8756  135.3934  154.3727 H   0  0  0  0  0  0  0  0  0  0  0  0  # atno 10763 bound_to 10752
  153.4485  135.7028  153.6129 H   0  0  0  0  0  0  0  0  0  0  0  0  # atno 10764 bound_to 10752
  153.4679  135.3797  155.2344 H   0  0  0  0  0  0  0  0  0  0  0  0  # atno 10765 bound_to 10752
  141.1664  133.7060  156.7961 H   0  0  0  0  0  0  0  0  0  0  0  0  # atno 11005 bound_to 11000
  144.8297  140.6687  143.6299 LP  0  0  0  0  0  0  0  0  0  0  0  0  # atno 17320 bound_to 7965
  145.4106  139.1581  143.4128 LP  0  0  0  0  0  0  0  0  0  0  0  0  # atno 17321 bound_to 7965
  140.3522  144.3075  150.5947 LP  0  0  0  0  0  0  0  0  0  0  0  0  # atno 17342 bound_to 10162
  140.5476  143.2212  151.7982 LP  0  0  0  0  0  0  0  0  0  0  0  0  # atno 17343 bound_to 10162
  155.9686  130.4222  150.4506 LP  0  0  0  0  0  0  0  0  0  0  0  0  # atno 17370 bound_to 10713
  157.2522  131.0549  151.2372 LP  0  0  0  0  0  0  0  0  0  0  0  0  # atno 17371 bound_to 10713
  140.2290  134.8700  157.3456 LP  0  0  0  0  0  0  0  0  0  0  0  0  # atno 17394 bound_to 11000
  140.1910  134.4371  155.7715 LP  0  0  0  0  0  0  0  0  0  0  0  0  # atno 17395 bound_to 11000

$$$$
