AV-unprocessed.smi:25|AV-procd|sdf|181|dock7
  -GOLD-   2262015443D 1   1.00000     0.00000
 Structure written by MMmdl.
 47 50  0  0  0  0  0  0  0  0  1 V2000
  151.0502  140.5074  155.8068 C   0  0  0  0  0  0  0  0  0  0  0  0
  150.4905  140.8414  157.2039 C   0  0  2  0  0  0  0  0  0  0  0  0
  150.4420  142.3674  157.4426 C   0  0  0  0  0  0  0  0  0  0  0  0
  151.4294  142.5706  158.5499 C   0  0  0  0  0  0  0  0  0  0  0  0
  151.8388  143.8086  159.0748 C   0  0  0  0  0  0  0  0  0  0  0  0
  152.8067  143.8134  160.0987 C   0  0  0  0  0  0  0  0  0  0  0  0
  153.3495  142.5966  160.5665 C   0  0  0  0  0  0  0  0  0  0  0  0
  152.9268  141.3621  160.0264 C   0  0  0  0  0  0  0  0  0  0  0  0
  151.9391  141.3582  159.0119 C   0  0  0  0  0  0  0  0  0  0  0  0
  151.3350  140.2865  158.2870 N   0  0  0  0  0  0  0  0  0  0  0  0
  151.3213  138.9520  158.5581 C   0  0  0  0  0  0  0  0  0  0  0  0
  151.9860  138.4875  159.4877 O   0  0  0  0  0  0  0  0  0  0  0  0
  150.5019  137.9689  157.6995 C   0  0  0  0  0  0  0  0  0  0  0  0
  149.2029  137.5891  158.3034 N   0  0  0  0  0  0  0  0  0  0  0  0
  148.0161  137.8140  157.5623 C   0  0  0  0  0  0  0  0  0  0  0  0
  148.0471  138.3313  156.4446 O   0  0  0  0  0  0  0  0  0  0  0  0
  146.7811  137.3914  158.2105 C   0  0  0  0  0  0  0  0  0  0  0  0
  145.6128  137.5071  157.5568 F   0  0  0  0  0  0  0  0  0  0  0  0
  146.7926  136.8673  159.4530 C   0  0  0  0  0  0  0  0  0  0  0  0
  147.9493  136.7206  160.1984 N   0  0  0  0  0  0  0  0  0  0  0  0
  147.9415  136.0492  161.5570 C   0  0  1  0  0  0  0  0  0  0  0  0
  147.0074  136.7134  162.5840 C   0  0  0  0  0  0  0  0  0  0  0  0
  145.8400  135.7470  162.6325 C   0  0  0  0  0  0  0  0  0  0  0  0
  146.5306  134.4186  162.3515 C   0  0  0  0  0  0  0  0  0  0  0  0
  147.5110  134.7338  161.3712 O   0  0  0  0  0  0  0  0  0  0  0  0
  149.1943  137.0349  159.6069 C   0  0  0  0  0  0  0  0  0  0  0  0
  150.2494  136.8405  160.2145 O   0  0  0  0  0  0  0  0  0  0  0  0
  150.4467  140.9710  155.0262 H   0  0  0  0  0  0  0  0  0  0  0  0
  151.0556  139.4350  155.6139 H   0  0  0  0  0  0  0  0  0  0  0  0
  152.0728  140.8695  155.6946 H   0  0  0  0  0  0  0  0  0  0  0  0
  149.4757  140.4468  157.2840 H   0  0  0  0  0  0  0  0  0  0  0  0
  150.7234  142.9462  156.5620 H   0  0  0  0  0  0  0  0  0  0  0  0
  149.4526  142.6903  157.7682 H   0  0  0  0  0  0  0  0  0  0  0  0
  151.4275  144.7337  158.6987 H   0  0  0  0  0  0  0  0  0  0  0  0
  153.1419  144.7499  160.5192 H   0  0  0  0  0  0  0  0  0  0  0  0
  154.1008  142.6107  161.3421 H   0  0  0  0  0  0  0  0  0  0  0  0
  153.3930  140.4716  160.4073 H   0  0  0  0  0  0  0  0  0  0  0  0
  150.3366  138.4226  156.7224 H   0  0  0  0  0  0  0  0  0  0  0  0
  151.0980  137.0747  157.5155 H   0  0  0  0  0  0  0  0  0  0  0  0
  145.8465  136.5512  159.8617 H   0  0  0  0  0  0  0  0  0  0  0  0
  148.9716  136.0755  161.9151 H   0  0  0  0  0  0  0  0  0  0  0  0
  147.5174  136.7222  163.5480 H   0  0  0  0  0  0  0  0  0  0  0  0
  146.7462  137.7418  162.3352 H   0  0  0  0  0  0  0  0  0  0  0  0
  145.3148  135.7592  163.5878 H   0  0  0  0  0  0  0  0  0  0  0  0
  145.1195  135.9693  161.8453 H   0  0  0  0  0  0  0  0  0  0  0  0
  147.0292  134.0478  163.2485 H   0  0  0  0  0  0  0  0  0  0  0  0
  145.8422  133.6502  161.9990 H   0  0  0  0  0  0  0  0  0  0  0  0
  1  2  1  0  0  0  0
  1 28  1  0  0  0  0
  1 29  1  0  0  0  0
  1 30  1  0  0  0  0
  2 10  1  0  0  0  0
  2  3  1  0  0  0  0
  2 31  1  0  0  0  0
  3  4  1  0  0  0  0
  3 32  1  0  0  0  0
  3 33  1  0  0  0  0
  4  9  2  0  0  0  0
  4  5  1  0  0  0  0
  5  6  2  0  0  0  0
  5 34  1  0  0  0  0
  6  7  1  0  0  0  0
  6 35  1  0  0  0  0
  7  8  2  0  0  0  0
  7 36  1  0  0  0  0
  8  9  1  0  0  0  0
  8 37  1  0  0  0  0
  9 10  1  0  0  0  0
 10 11  1  0  0  0  0
 11 12  2  0  0  0  0
 11 13  1  0  0  0  0
 13 14  1  0  0  0  0
 13 38  1  0  0  0  0
 13 39  1  0  0  0  0
 14 26  1  0  0  0  0
 14 15  1  0  0  0  0
 15 16  2  0  0  0  0
 15 17  1  0  0  0  0
 17 18  1  0  0  0  0
 17 19  2  0  0  0  0
 19 20  1  0  0  0  0
 19 40  1  0  0  0  0
 20 21  1  0  0  0  0
 20 26  1  0  0  0  0
 21 25  1  0  0  0  0
 21 22  1  0  0  0  0
 21 41  1  0  0  0  0
 22 23  1  0  0  0  0
 22 42  1  0  0  0  0
 22 43  1  0  0  0  0
 23 24  1  0  0  0  0
 23 44  1  0  0  0  0
 23 45  1  0  0  0  0
 24 25  1  0  0  0  0
 24 46  1  0  0  0  0
 24 47  1  0  0  0  0
 26 27  2  0  0  0  0
M  END
> <s_m_source_file>
AV-unprocessed.smi

> <i_m_source_file_index>
25

> <i_lp_mmshare_version>
43012

> <i_f3d_flags>
0

> <s_epik_input>
W2NIXTFbY0hdW2NIXVtjSF1jKGMxMilOKFtDQEhdKFtDSDNdKVtDSDJdMilDKD1PKVtDSDJdbjNjKD1PKWMoRilbY0hdbihjMz1PKVtDQEBIXTRbQ0gyXVtDSDJdW0NIMl1PNA==

> <s_epik_cmdline>
J2VwaWtfcHl0aG9uJywgJy1waCcsICc3LjAnLCAnLXRuJywgJzgnLCAnLW1hJywgJzIwMCcsICctbWV0YWxfYmluZGluZycsICctaW1hZScsICc8aW5maWxlLm1hZT4nLCAnLW9tYWUnLCAnPG91dGZpbGUubWFlPic=

> <r_lp_tautomer_probability>
1

> <r_epik_Ionization_Penalty>
1.67943e-06

> <r_epik_Ionization_Penalty_Charging>
3.79603e-09

> <r_epik_Ionization_Penalty_Neutral>
1.67563e-06

> <r_epik_State_Penalty>
-0

> <r_epik_Charging_Adjusted_Penalty>
3.79603e-09

> <i_epik_Tot_Q>
0

> <i_epik_Tot_abs_Q>
0

> <r_epik_Metal_State_Penalty>
-0

> <b_epik_Metal_Only>
0

> <s_epik_Chemistry_Notes>
This compound contains an acetal/aminal-like group ( X-CH(R)-Y where X, Y are N, S, or O) that may be acid/base labile, releasing an aldehyde.

> <s_lp_Force_Field>
OPLS_2005

> <r_lp_Energy>
54.5982

> <b_lp_Chiralities_Consistent>
1

> <s_lp_Variant>
AV-unprocessed.smi:25-3

> <Gold.Version>
5.8.1

> <Gold.Id.Protein>
6NUR|6NUR_protein|mol2

> <Gold.PLP.Fitness>
49.4554

> <Gold.PLP.PLP>
-47.2059

> <Gold.PLP.part.hbond>
-1.8745

> <Gold.PLP.part.metal>
0.0000

> <Gold.PLP.part.buried>
-3.9769

> <Gold.PLP.part.nonpolar>
-42.1659

> <Gold.PLP.part.repulsive>
0.0064

> <Gold.PLP.ligand.clash>
0.0000

> <Gold.PLP.ligand.torsion>
0.4262

> <Gold.PLP.Chemscore.Hbond>
1.0000

> <Gold.PLP.Chemscore.CHOScore>
0.0000

> <Gold.PLP.Chemscore.Metal>
0.0000

> <Gold.Chemscore.Hbonds>
donor molecule, donor type, donor heavy atom, donor atom, acceptor molecule, acceptor atom, score
      P1  H  6896  6908       L1    27  1.00

> <Gold.PLP.Chemscore.Internal.Correction>
0.1018

> <Gold.Rescore>
     Score         DG    S(hbond)    S(metal)    S(lipo)     H(rot)  DE(clash)    DE(int)     intcor
     14.26     -18.14       0.99        0.00     113.89       1.55       0.12       3.75       ----

> <Gold.Chemscore.Fitness>
14.2584

> <Gold.Chemscore.DG>
-18.1356

> <Gold.Chemscore.ZeroCoef>
-5.4800

> <Gold.Chemscore.Hbond>
0.9867

> <Gold.Chemscore.Metal>
0.0000

> <Gold.Chemscore.Lipo>
113.8897

> <Gold.Chemscore.Internal_Hbond>
0.0000

> <Gold.Chemscore.DEClash>
0.1242

> <Gold.Chemscore.DEInternal>
3.7530

> <Gold.Chemscore.Rot>
1.5489

> <Gold.Chemscore.Internal.Correction>
   9.000000E+99

> <Gold.Chemscore.Hbonds>
donor molecule, donor type, donor heavy atom, donor atom, acceptor molecule, acceptor atom, score
      P1  H  6896  6908       L1    27  0.90

> <Gold.Chemscore.Hbond.Weighted>
-3.2957

> <Gold.Chemscore.Metal.Weighted>
-0.0000

> <Gold.Chemscore.Lipo.Weighted>
-13.3251

> <Gold.Chemscore.Internal_Hbond.Weighted>
0.0000

> <Gold.Chemscore.DEClash.Weighted>
0.1242

> <Gold.Chemscore.DEInternal.Weighted>
3.7530

> <Gold.Chemscore.Rot.Weighted>
3.9651

> <Gold.Chemscore.Internal.Correction.Weighted>
   9.000000E+99

> <Gold.Protein.RotatedTorsions>
[ 6907 6896 6895 6894 ] final -145.67 input  -60.11 | X-H torsion
[ 7974 7965 7964 7962 ] final  -35.15 input  175.53 | X-H torsion
[ 8008 7997 7996 7995 ] final -126.44 input   59.86 | X-H torsion
[ 10167 10162 10161 10158 ] final   81.30 input  -65.29 | X-H torsion
[ 10718 10713 10712 10709 ] final -177.49 input   66.30 | X-H torsion
[ 10763 10752 10751 10750 ] final   27.96 input  -60.55 | X-H torsion
[ 11005 11000 10999 10996 ] final  -52.23 input  -57.11 | X-H torsion

> <Gold.Protein.ActiveResidues>
 VAL166  LYS551  ARG553  GLY616  TRP617  ASP618  TYR619  PRO620  LYS621  CYS622 
 ASP623  PHE694  ASN695  SER759  ASP760  ASP761  ALA762  ILE779  LEU786  VAL792 
 PHE793  MET794  SER795  GLU796  ALA797  LYS798  CYS799  TRP800  GLU811  SER814 

> <Gold.Protein.RotatedAtoms>
  151.1310  133.5036  159.2598 H   0  0  0  0  0  0  0  0  0  0  0  0  # atno 6907 bound_to 6896
  151.1757  135.0338  159.8781 H   0  0  0  0  0  0  0  0  0  0  0  0  # atno 6908 bound_to 6896
  152.5460  134.1168  159.8435 H   0  0  0  0  0  0  0  0  0  0  0  0  # atno 6909 bound_to 6896
  146.0771  140.6124  142.8925 H   0  0  0  0  0  0  0  0  0  0  0  0  # atno 7974 bound_to 7965
  155.2298  140.0425  157.2960 H   0  0  0  0  0  0  0  0  0  0  0  0  # atno 8008 bound_to 7997
  154.5896  140.2423  155.7910 H   0  0  0  0  0  0  0  0  0  0  0  0  # atno 8009 bound_to 7997
  156.2250  140.2957  156.0052 H   0  0  0  0  0  0  0  0  0  0  0  0  # atno 8010 bound_to 7997
  139.9407  144.6091  150.8254 H   0  0  0  0  0  0  0  0  0  0  0  0  # atno 10167 bound_to 10162
  156.8302  130.9650  151.3107 H   0  0  0  0  0  0  0  0  0  0  0  0  # atno 10718 bound_to 10713
  153.0522  135.6524  154.0665 H   0  0  0  0  0  0  0  0  0  0  0  0  # atno 10763 bound_to 10752
  154.0351  135.2908  155.3364 H   0  0  0  0  0  0  0  0  0  0  0  0  # atno 10764 bound_to 10752
  154.6817  135.5317  153.8339 H   0  0  0  0  0  0  0  0  0  0  0  0  # atno 10765 bound_to 10752
  141.0913  133.6632  156.3994 H   0  0  0  0  0  0  0  0  0  0  0  0  # atno 11005 bound_to 11000
  144.7268  140.4551  143.6967 LP  0  0  0  0  0  0  0  0  0  0  0  0  # atno 17320 bound_to 7965
  145.6287  139.1533  143.2981 LP  0  0  0  0  0  0  0  0  0  0  0  0  # atno 17321 bound_to 7965
  140.7611  143.3168  151.2715 LP  0  0  0  0  0  0  0  0  0  0  0  0  # atno 17342 bound_to 10162
  139.6707  144.0026  152.2751 LP  0  0  0  0  0  0  0  0  0  0  0  0  # atno 17343 bound_to 10162
  157.6411  130.8806  149.9449 LP  0  0  0  0  0  0  0  0  0  0  0  0  # atno 17370 bound_to 10713
  156.0938  130.3661  150.0344 LP  0  0  0  0  0  0  0  0  0  0  0  0  # atno 17371 bound_to 10713
  140.5245  134.6272  157.5329 LP  0  0  0  0  0  0  0  0  0  0  0  0  # atno 17394 bound_to 11000
  139.9740  134.7246  155.9986 LP  0  0  0  0  0  0  0  0  0  0  0  0  # atno 17395 bound_to 11000

$$$$
