AV-unprocessed.smi:2555|AV-procd|sdf|10022|dock7
  -GOLD-   2272014 63D 1   1.00000     0.00000
 Structure written by MMmdl.
 40 41  0  0  0  0  0  0  0  0  1 V2000
  151.1421  136.2375  154.9255 C   0  0  0  0  0  0  0  0  0  0  0  0
  151.0184  137.7336  154.9660 C   0  0  0  0  0  0  0  0  0  0  0  0
  150.6597  138.3905  153.8756 N   0  0  0  0  0  0  0  0  0  0  0  0
  150.6366  139.7421  154.2330 O   0  0  0  0  0  0  0  0  0  0  0  0
  150.9882  139.8469  155.5398 C   0  0  0  0  0  0  0  0  0  0  0  0
  151.0262  141.2218  156.1161 C   0  0  0  0  0  0  0  0  0  0  0  0
  151.2427  138.6103  156.0660 C   0  0  0  0  0  0  0  0  0  0  0  0
  151.6621  138.2536  157.4683 C   0  0  0  0  0  0  0  0  0  0  0  0
  152.5996  139.3314  158.0123 C   0  0  0  0  0  0  0  0  0  0  0  0
  153.7498  139.4182  157.5821 O   0  0  0  0  0  0  0  0  0  0  0  0
  152.0971  140.1421  158.9569 N   0  0  0  0  0  0  0  0  0  0  0  0
  152.8258  141.2117  159.6327 C   0  0  0  0  0  0  0  0  0  0  0  0
  152.0547  142.5490  159.6332 C   0  0  0  0  0  0  0  0  0  0  0  0
  152.1471  143.2997  158.2847 C   0  0  0  0  0  0  0  0  0  0  0  0
  151.4048  144.6457  158.3235 C   0  0  0  0  0  0  0  0  0  0  0  0
  151.9090  145.5303  159.4728 C   0  0  0  0  0  0  0  0  0  0  0  0
  151.8023  144.7971  160.8177 C   0  0  0  0  0  0  0  0  0  0  0  0
  152.5514  143.4555  160.7787 C   0  0  0  0  0  0  0  0  0  0  0  0
  152.1509  135.9232  155.1929 H   0  0  0  0  0  0  0  0  0  0  0  0
  150.9244  135.8394  153.9338 H   0  0  0  0  0  0  0  0  0  0  0  0
  150.4515  135.7714  155.6286 H   0  0  0  0  0  0  0  0  0  0  0  0
  151.8527  141.3243  156.8196 H   0  0  0  0  0  0  0  0  0  0  0  0
  150.1004  141.4422  156.6477 H   0  0  0  0  0  0  0  0  0  0  0  0
  151.1559  141.9710  155.3348 H   0  0  0  0  0  0  0  0  0  0  0  0
  150.8002  138.1753  158.1318 H   0  0  0  0  0  0  0  0  0  0  0  0
  152.1567  137.2820  157.5021 H   0  0  0  0  0  0  0  0  0  0  0  0
  151.1397  139.9958  159.2427 H   0  0  0  0  0  0  0  0  0  0  0  0
  152.9915  140.8867  160.6602 H   0  0  0  0  0  0  0  0  0  0  0  0
  153.8177  141.3451  159.1973 H   0  0  0  0  0  0  0  0  0  0  0  0
  151.0029  142.3263  159.8202 H   0  0  0  0  0  0  0  0  0  0  0  0
  153.1941  143.4685  158.0295 H   0  0  0  0  0  0  0  0  0  0  0  0
  151.7289  142.6937  157.4812 H   0  0  0  0  0  0  0  0  0  0  0  0
  151.5299  145.1652  157.3732 H   0  0  0  0  0  0  0  0  0  0  0  0
  150.3348  144.4691  158.4407 H   0  0  0  0  0  0  0  0  0  0  0  0
  152.9468  145.8118  159.2900 H   0  0  0  0  0  0  0  0  0  0  0  0
  151.3374  146.4583  159.5074 H   0  0  0  0  0  0  0  0  0  0  0  0
  152.2044  145.4235  161.6145 H   0  0  0  0  0  0  0  0  0  0  0  0
  150.7529  144.6242  161.0594 H   0  0  0  0  0  0  0  0  0  0  0  0
  152.4307  142.9465  161.7356 H   0  0  0  0  0  0  0  0  0  0  0  0
  153.6200  143.6418  160.6632 H   0  0  0  0  0  0  0  0  0  0  0  0
  1  2  1  0  0  0  0
  1 19  1  0  0  0  0
  1 20  1  0  0  0  0
  1 21  1  0  0  0  0
  2  7  1  0  0  0  0
  2  3  2  0  0  0  0
  3  4  1  0  0  0  0
  4  5  1  0  0  0  0
  5  6  1  0  0  0  0
  5  7  2  0  0  0  0
  6 22  1  0  0  0  0
  6 23  1  0  0  0  0
  6 24  1  0  0  0  0
  7  8  1  0  0  0  0
  8  9  1  0  0  0  0
  8 25  1  0  0  0  0
  8 26  1  0  0  0  0
  9 10  2  0  0  0  0
  9 11  1  0  0  0  0
 11 12  1  0  0  0  0
 11 27  1  0  0  0  0
 12 13  1  0  0  0  0
 12 28  1  0  0  0  0
 12 29  1  0  0  0  0
 13 18  1  0  0  0  0
 13 14  1  0  0  0  0
 13 30  1  0  0  0  0
 14 15  1  0  0  0  0
 14 31  1  0  0  0  0
 14 32  1  0  0  0  0
 15 16  1  0  0  0  0
 15 33  1  0  0  0  0
 15 34  1  0  0  0  0
 16 17  1  0  0  0  0
 16 35  1  0  0  0  0
 16 36  1  0  0  0  0
 17 18  1  0  0  0  0
 17 37  1  0  0  0  0
 17 38  1  0  0  0  0
 18 39  1  0  0  0  0
 18 40  1  0  0  0  0
M  END
> <s_m_source_file>
AV-unprocessed.smi

> <i_m_source_file_index>
2555

> <i_lp_mmshare_version>
43012

> <i_f3d_flags>
0

> <s_epik_input>
W0NIM11jMW5vYyhbQ0gzXSljMVtDSDJdQyg9TylbTkhdW0NIMl1bQ0hdMltDSDJdW0NIMl1bQ0gyXVtDSDJdW0NIMl0y

> <s_epik_cmdline>
J2VwaWtfcHl0aG9uJywgJy1waCcsICc3LjAnLCAnLXRuJywgJzgnLCAnLW1hJywgJzIwMCcsICctbWV0YWxfYmluZGluZycsICctaW1hZScsICc8aW5maWxlLm1hZT4nLCAnLW9tYWUnLCAnPG91dGZpbGUubWFlPic=

> <r_lp_tautomer_probability>
1

> <r_epik_Ionization_Penalty>
1.94914e-08

> <r_epik_Ionization_Penalty_Charging>
0

> <r_epik_Ionization_Penalty_Neutral>
1.94914e-08

> <r_epik_State_Penalty>
-0

> <r_epik_Charging_Adjusted_Penalty>
0

> <i_epik_Tot_Q>
0

> <i_epik_Tot_abs_Q>
0

> <r_epik_Metal_State_Penalty>
-0

> <b_epik_Metal_Only>
0

> <s_lp_Force_Field>
OPLS_2005

> <r_lp_Energy>
4.99285

> <b_lp_Chiralities_Consistent>
1

> <s_lp_Variant>
AV-unprocessed.smi:2555-1

> <Gold.Version>
5.8.1

> <Gold.Id.Protein>
6NUR|6NUR_protein|mol2

> <Gold.PLP.Fitness>
43.5919

> <Gold.PLP.PLP>
-38.9982

> <Gold.PLP.part.hbond>
-1.9377

> <Gold.PLP.part.metal>
0.0000

> <Gold.PLP.part.buried>
-5.3643

> <Gold.PLP.part.nonpolar>
-31.9305

> <Gold.PLP.part.repulsive>
0.5574

> <Gold.PLP.ligand.clash>
0.0000

> <Gold.PLP.ligand.torsion>
0.7163

> <Gold.PLP.Chemscore.Hbond>
2.0000

> <Gold.PLP.Chemscore.CHOScore>
0.0000

> <Gold.PLP.Chemscore.Metal>
0.0000

> <Gold.Chemscore.Hbonds>
donor molecule, donor type, donor heavy atom, donor atom, acceptor molecule, acceptor atom, score
      P1  H  7989  7998       L1     4  1.00
      P1  H  7997  8010       L1    10  0.19

> <Gold.PLP.Chemscore.Internal.Correction>
0.0263

> <Gold.Rescore>
     Score         DG    S(hbond)    S(metal)    S(lipo)     H(rot)  DE(clash)    DE(int)     intcor
     20.84     -21.42       1.92        0.00     112.78       1.43       0.05       0.53       ----

> <Gold.Chemscore.Fitness>
20.8390

> <Gold.Chemscore.DG>
-21.4164

> <Gold.Chemscore.ZeroCoef>
-5.4800

> <Gold.Chemscore.Hbond>
1.9189

> <Gold.Chemscore.Metal>
0.0000

> <Gold.Chemscore.Lipo>
112.7834

> <Gold.Chemscore.Internal_Hbond>
0.0000

> <Gold.Chemscore.DEClash>
0.0470

> <Gold.Chemscore.DEInternal>
0.5304

> <Gold.Chemscore.Rot>
1.4329

> <Gold.Chemscore.Internal.Correction>
   9.000000E+99

> <Gold.Chemscore.Hbonds>
donor molecule, donor type, donor heavy atom, donor atom, acceptor molecule, acceptor atom, score
      P1  H  7989  7998       L1     4  0.39
      P1  H  7997  8010       L1    10  0.19

> <Gold.Chemscore.Hbond.Weighted>
-6.4091

> <Gold.Chemscore.Metal.Weighted>
-0.0000

> <Gold.Chemscore.Lipo.Weighted>
-13.1957

> <Gold.Chemscore.Internal_Hbond.Weighted>
0.0000

> <Gold.Chemscore.DEClash.Weighted>
0.0470

> <Gold.Chemscore.DEInternal.Weighted>
0.5304

> <Gold.Chemscore.Rot.Weighted>
3.6683

> <Gold.Chemscore.Internal.Correction.Weighted>
   9.000000E+99

> <Gold.Protein.RotatedTorsions>
[ 6907 6896 6895 6894 ] final  -13.26 input  -60.11 | X-H torsion
[ 7974 7965 7964 7962 ] final   81.17 input  175.53 | X-H torsion
[ 8008 7997 7996 7995 ] final   26.74 input   59.86 | X-H torsion
[ 10167 10162 10161 10158 ] final   69.88 input  -65.29 | X-H torsion
[ 10718 10713 10712 10709 ] final -104.89 input   66.30 | X-H torsion
[ 10763 10752 10751 10750 ] final   68.05 input  -60.55 | X-H torsion
[ 11005 11000 10999 10996 ] final   58.78 input  -57.11 | X-H torsion

> <Gold.Protein.ActiveResidues>
 VAL166  LYS551  ARG553  GLY616  TRP617  ASP618  TYR619  PRO620  LYS621  CYS622 
 ASP623  PHE694  ASN695  SER759  ASP760  ASP761  ALA762  ILE779  LEU786  VAL792 
 PHE793  MET794  SER795  GLU796  ALA797  LYS798  CYS799  TRP800  GLU811  SER814 

> <Gold.Protein.RotatedAtoms>
  151.3576  135.0897  159.9423 H   0  0  0  0  0  0  0  0  0  0  0  0  # atno 6907 bound_to 6896
  152.5170  133.9290  159.7581 H   0  0  0  0  0  0  0  0  0  0  0  0  # atno 6908 bound_to 6896
  150.9678  133.6322  159.2772 H   0  0  0  0  0  0  0  0  0  0  0  0  # atno 6909 bound_to 6896
  145.6417  139.2427  143.2027 H   0  0  0  0  0  0  0  0  0  0  0  0  # atno 7974 bound_to 7965
  155.0320  140.3159  155.4755 H   0  0  0  0  0  0  0  0  0  0  0  0  # atno 8008 bound_to 7997
  156.2872  140.2178  156.5384 H   0  0  0  0  0  0  0  0  0  0  0  0  # atno 8009 bound_to 7997
  154.7362  140.0477  157.0759 H   0  0  0  0  0  0  0  0  0  0  0  0  # atno 8010 bound_to 7997
  140.0630  144.5217  150.7281 H   0  0  0  0  0  0  0  0  0  0  0  0  # atno 10167 bound_to 10162
  156.0323  130.5537  150.7461 H   0  0  0  0  0  0  0  0  0  0  0  0  # atno 10718 bound_to 10713
  153.0216  135.5261  154.7075 H   0  0  0  0  0  0  0  0  0  0  0  0  # atno 10763 bound_to 10752
  154.6166  135.2884  155.0375 H   0  0  0  0  0  0  0  0  0  0  0  0  # atno 10764 bound_to 10752
  154.1377  135.6583  153.4988 H   0  0  0  0  0  0  0  0  0  0  0  0  # atno 10765 bound_to 10752
  140.0352  134.5953  155.9453 H   0  0  0  0  0  0  0  0  0  0  0  0  # atno 11005 bound_to 11000
  146.1275  140.7229  142.9428 LP  0  0  0  0  0  0  0  0  0  0  0  0  # atno 17320 bound_to 7965
  144.7155  140.4193  143.7048 LP  0  0  0  0  0  0  0  0  0  0  0  0  # atno 17321 bound_to 7965
  140.7163  143.2547  151.4424 LP  0  0  0  0  0  0  0  0  0  0  0  0  # atno 17342 bound_to 10162
  139.5882  144.1557  152.2055 LP  0  0  0  0  0  0  0  0  0  0  0  0  # atno 17343 bound_to 10162
  157.5018  131.0919  151.0305 LP  0  0  0  0  0  0  0  0  0  0  0  0  # atno 17370 bound_to 10713
  157.0684  130.5854  149.5398 LP  0  0  0  0  0  0  0  0  0  0  0  0  # atno 17371 bound_to 10713
  141.1853  133.6555  156.5194 LP  0  0  0  0  0  0  0  0  0  0  0  0  # atno 17394 bound_to 11000
  140.4159  134.7230  157.4862 LP  0  0  0  0  0  0  0  0  0  0  0  0  # atno 17395 bound_to 11000

$$$$
