AV-unprocessed.smi:1286|AV-procd|sdf|5377|dock3
  -GOLD-   22720 4523D 1   1.00000     0.00000
 Structure written by MMmdl.
 36 37  0  0  0  0  0  0  0  0  1 V2000
  152.4352  139.4475  155.4839 C   0  0  0  0  0  0  0  0  0  0  0  0
  151.5454  140.1612  156.5134 C   0  0  2  0  0  0  0  0  0  0  0  0
  150.8885  141.4202  155.9147 C   0  0  0  0  0  0  0  0  0  0  0  0
  149.7645  141.1019  155.0520 N   0  0  0  0  0  0  0  0  0  0  0  0
  148.5318  141.7172  154.9875 C   0  0  0  0  0  0  0  0  0  0  0  0
  147.8030  141.0671  154.0333 C   0  0  0  0  0  0  0  0  0  0  0  0
  148.6876  140.0567  153.5626 C   0  0  0  0  0  0  0  0  0  0  0  0
  149.8611  140.0807  154.1734 N   0  0  0  0  0  0  0  0  0  0  0  0
  152.3356  140.5208  157.6890 N   0  0  0  0  0  0  0  0  0  0  0  0
  151.8732  141.1624  158.7731 C   0  0  0  0  0  0  0  0  0  0  0  0
  150.7019  141.5184  158.9016 O   0  0  0  0  0  0  0  0  0  0  0  0
  152.8931  141.4465  159.8814 C   0  0  0  0  0  0  0  0  0  0  0  0
  153.2303  142.9447  160.0465 C   0  0  1  0  0  0  0  0  0  0  0  0
  153.0921  143.7401  158.7703 C   0  0  0  0  0  0  0  0  0  0  0  0
  152.2856  144.7905  158.9028 C   0  0  0  0  0  0  0  0  0  0  0  0
  151.7193  144.9105  160.2902 C   0  0  0  0  0  0  0  0  0  0  0  0
  152.2814  143.6761  161.0307 C   0  0  0  0  0  0  0  0  0  0  0  0
  151.8600  139.1565  154.6047 H   0  0  0  0  0  0  0  0  0  0  0  0
  152.8742  138.5409  155.9016 H   0  0  0  0  0  0  0  0  0  0  0  0
  153.2510  140.0899  155.1504 H   0  0  0  0  0  0  0  0  0  0  0  0
  150.7513  139.4724  156.8085 H   0  0  0  0  0  0  0  0  0  0  0  0
  150.5447  142.0883  156.7058 H   0  0  0  0  0  0  0  0  0  0  0  0
  151.6169  141.9828  155.3286 H   0  0  0  0  0  0  0  0  0  0  0  0
  148.2780  142.5541  155.6212 H   0  0  0  0  0  0  0  0  0  0  0  0
  146.7921  141.2804  153.7195 H   0  0  0  0  0  0  0  0  0  0  0  0
  148.5131  139.3116  152.8002 H   0  0  0  0  0  0  0  0  0  0  0  0
  153.3126  140.2670  157.6738 H   0  0  0  0  0  0  0  0  0  0  0  0
  152.5231  141.0477  160.8278 H   0  0  0  0  0  0  0  0  0  0  0  0
  153.8024  140.8909  159.6494 H   0  0  0  0  0  0  0  0  0  0  0  0
  154.2596  143.0546  160.3921 H   0  0  0  0  0  0  0  0  0  0  0  0
  153.6155  143.4735  157.8636 H   0  0  0  0  0  0  0  0  0  0  0  0
  152.0533  145.4998  158.1220 H   0  0  0  0  0  0  0  0  0  0  0  0
  152.0499  145.8426  160.7493 H   0  0  0  0  0  0  0  0  0  0  0  0
  150.6293  144.9033  160.2595 H   0  0  0  0  0  0  0  0  0  0  0  0
  151.4620  143.0273  161.3429 H   0  0  0  0  0  0  0  0  0  0  0  0
  152.8127  143.9722  161.9361 H   0  0  0  0  0  0  0  0  0  0  0  0
  1  2  1  0  0  0  0
  1 18  1  0  0  0  0
  1 19  1  0  0  0  0
  1 20  1  0  0  0  0
  2  3  1  0  0  0  0
  2  9  1  0  0  0  0
  2 21  1  0  0  0  0
  3  4  1  0  0  0  0
  3 22  1  0  0  0  0
  3 23  1  0  0  0  0
  4  8  1  0  0  0  0
  4  5  1  0  0  0  0
  5  6  2  0  0  0  0
  5 24  1  0  0  0  0
  6  7  1  0  0  0  0
  6 25  1  0  0  0  0
  7  8  2  0  0  0  0
  7 26  1  0  0  0  0
  9 10  1  0  0  0  0
  9 27  1  0  0  0  0
 10 11  2  0  0  0  0
 10 12  1  0  0  0  0
 12 13  1  0  0  0  0
 12 28  1  0  0  0  0
 12 29  1  0  0  0  0
 13 17  1  0  0  0  0
 13 14  1  0  0  0  0
 13 30  1  0  0  0  0
 14 15  2  0  0  0  0
 14 31  1  0  0  0  0
 15 16  1  0  0  0  0
 15 32  1  0  0  0  0
 16 17  1  0  0  0  0
 16 33  1  0  0  0  0
 16 34  1  0  0  0  0
 17 35  1  0  0  0  0
 17 36  1  0  0  0  0
M  END
> <s_m_source_file>
AV-unprocessed.smi

> <i_m_source_file_index>
1286

> <i_lp_mmshare_version>
43012

> <i_f3d_flags>
0

> <s_epik_input>
bjFbY0hdW2NIXVtjSF1uMVtDSDJdW0NAQEhdKFtDSDNdKVtOSF1DKD1PKVtDSDJdW0NAQEhdMltDSF09W0NIXVtDSDJdW0NIMl0y

> <s_epik_cmdline>
J2VwaWtfcHl0aG9uJywgJy1waCcsICc3LjAnLCAnLXRuJywgJzgnLCAnLW1hJywgJzIwMCcsICctbWV0YWxfYmluZGluZycsICctaW1hZScsICc8aW5maWxlLm1hZT4nLCAnLW9tYWUnLCAnPG91dGZpbGUubWFlPic=

> <r_lp_tautomer_probability>
1

> <r_epik_Ionization_Penalty>
0.000301761

> <r_epik_Ionization_Penalty_Charging>
0

> <r_epik_Ionization_Penalty_Neutral>
0.000301761

> <r_epik_State_Penalty>
-0

> <r_epik_Charging_Adjusted_Penalty>
0

> <i_epik_Tot_Q>
0

> <i_epik_Tot_abs_Q>
0

> <r_epik_Metal_State_Penalty>
-0

> <b_epik_Metal_Only>
0

> <s_lp_Force_Field>
OPLS_2005

> <r_lp_Energy>
17.4811

> <b_lp_Chiralities_Consistent>
1

> <s_lp_Variant>
AV-unprocessed.smi:1286-3

> <Gold.Version>
5.8.1

> <Gold.Id.Protein>
6NUR|6NUR_protein|mol2

> <Gold.PLP.Fitness>
47.3418

> <Gold.PLP.PLP>
-42.7724

> <Gold.PLP.part.hbond>
-1.4322

> <Gold.PLP.part.metal>
0.0000

> <Gold.PLP.part.buried>
1.8910

> <Gold.PLP.part.nonpolar>
-42.7904

> <Gold.PLP.part.repulsive>
0.9150

> <Gold.PLP.ligand.clash>
0.0000

> <Gold.PLP.ligand.torsion>
0.8327

> <Gold.PLP.Chemscore.Hbond>
0.5472

> <Gold.PLP.Chemscore.CHOScore>
1.5243

> <Gold.PLP.Chemscore.Metal>
0.0000

> <Gold.Chemscore.Hbonds>
donor molecule, donor type, donor heavy atom, donor atom, acceptor molecule, acceptor atom, score
      P1  H  7989  7998       L1     8  0.40
      L1  C     5    24       P1  8028  1.00
      L1  C     7    26       P1  7957  0.48

> <Gold.PLP.Chemscore.Internal.Correction>
0.0204

> <Gold.Rescore>
     Score         DG    S(hbond)    S(metal)    S(lipo)     H(rot)  DE(clash)    DE(int)     intcor
     13.42     -14.57       0.00        0.00     113.55       1.64       0.11       1.04       ----

> <Gold.Chemscore.Fitness>
13.4189

> <Gold.Chemscore.DG>
-14.5689

> <Gold.Chemscore.ZeroCoef>
-5.4800

> <Gold.Chemscore.Hbond>
0.0000

> <Gold.Chemscore.Metal>
0.0000

> <Gold.Chemscore.Lipo>
113.5543

> <Gold.Chemscore.Internal_Hbond>
0.0000

> <Gold.Chemscore.DEClash>
0.1079

> <Gold.Chemscore.DEInternal>
1.0421

> <Gold.Chemscore.Rot>
1.6394

> <Gold.Chemscore.Internal.Correction>
   9.000000E+99

> <Gold.Chemscore.Hbonds>
donor molecule, donor type, donor heavy atom, donor atom, acceptor molecule, acceptor atom, score
      P1  H  7989  7998       L1     8  0.01

> <Gold.Chemscore.Hbond.Weighted>
-0.0000

> <Gold.Chemscore.Metal.Weighted>
-0.0000

> <Gold.Chemscore.Lipo.Weighted>
-13.2859

> <Gold.Chemscore.Internal_Hbond.Weighted>
0.0000

> <Gold.Chemscore.DEClash.Weighted>
0.1079

> <Gold.Chemscore.DEInternal.Weighted>
1.0421

> <Gold.Chemscore.Rot.Weighted>
4.1969

> <Gold.Chemscore.Internal.Correction.Weighted>
   9.000000E+99

> <Gold.Protein.RotatedTorsions>
[ 6907 6896 6895 6894 ] final -139.87 input  -60.11 | X-H torsion
[ 7974 7965 7964 7962 ] final  100.54 input  175.53 | X-H torsion
[ 8008 7997 7996 7995 ] final  134.45 input   59.86 | X-H torsion
[ 10167 10162 10161 10158 ] final -150.47 input  -65.29 | X-H torsion
[ 10718 10713 10712 10709 ] final -108.29 input   66.30 | X-H torsion
[ 10763 10752 10751 10750 ] final  -14.15 input  -60.55 | X-H torsion
[ 11005 11000 10999 10996 ] final  -60.22 input  -57.11 | X-H torsion

> <Gold.Protein.ActiveResidues>
 VAL166  LYS551  ARG553  GLY616  TRP617  ASP618  TYR619  PRO620  LYS621  CYS622 
 ASP623  PHE694  ASN695  SER759  ASP760  ASP761  ALA762  ILE779  LEU786  VAL792 
 PHE793  MET794  SER795  GLU796  ALA797  LYS798  CYS799  TRP800  GLU811  SER814 

> <Gold.Protein.RotatedAtoms>
  151.0533  133.5605  159.2640 H   0  0  0  0  0  0  0  0  0  0  0  0  # atno 6907 bound_to 6896
  151.2608  135.0652  159.9107 H   0  0  0  0  0  0  0  0  0  0  0  0  # atno 6908 bound_to 6896
  152.5385  134.0279  159.8065 H   0  0  0  0  0  0  0  0  0  0  0  0  # atno 6909 bound_to 6896
  145.3842  139.2374  143.3387 H   0  0  0  0  0  0  0  0  0  0  0  0  # atno 7974 bound_to 7965
  156.2999  140.2496  156.3419 H   0  0  0  0  0  0  0  0  0  0  0  0  # atno 8008 bound_to 7997
  154.9047  140.0405  157.1932 H   0  0  0  0  0  0  0  0  0  0  0  0  # atno 8009 bound_to 7997
  154.8465  140.2899  155.5630 H   0  0  0  0  0  0  0  0  0  0  0  0  # atno 8010 bound_to 7997
  139.7351  143.8747  152.2546 H   0  0  0  0  0  0  0  0  0  0  0  0  # atno 10167 bound_to 10162
  156.0478  130.5705  150.7940 H   0  0  0  0  0  0  0  0  0  0  0  0  # atno 10718 bound_to 10713
  153.5239  135.7015  153.5717 H   0  0  0  0  0  0  0  0  0  0  0  0  # atno 10763 bound_to 10752
  153.3754  135.3934  155.1819 H   0  0  0  0  0  0  0  0  0  0  0  0  # atno 10764 bound_to 10752
  154.8692  135.3822  154.4730 H   0  0  0  0  0  0  0  0  0  0  0  0  # atno 10765 bound_to 10752
  141.1278  133.6621  156.5189 H   0  0  0  0  0  0  0  0  0  0  0  0  # atno 11005 bound_to 11000
  146.2828  140.4515  142.8770 LP  0  0  0  0  0  0  0  0  0  0  0  0  # atno 17320 bound_to 7965
  144.8486  140.6966  143.6183 LP  0  0  0  0  0  0  0  0  0  0  0  0  # atno 17321 bound_to 7965
  139.8682  144.7082  150.9019 LP  0  0  0  0  0  0  0  0  0  0  0  0  # atno 17342 bound_to 10162
  140.7777  143.3760  151.1562 LP  0  0  0  0  0  0  0  0  0  0  0  0  # atno 17343 bound_to 10162
  157.5373  131.0939  150.9875 LP  0  0  0  0  0  0  0  0  0  0  0  0  # atno 17370 bound_to 10713
  157.0167  130.5658  149.5326 LP  0  0  0  0  0  0  0  0  0  0  0  0  # atno 17371 bound_to 10713
  140.4308  134.7103  157.4941 LP  0  0  0  0  0  0  0  0  0  0  0  0  # atno 17394 bound_to 11000
  140.0295  134.6427  155.9126 LP  0  0  0  0  0  0  0  0  0  0  0  0  # atno 17395 bound_to 11000

$$$$
