AV-unprocessed.smi:3182|AV-procd|sdf|12152|dock1
  -GOLD-   2272017593D 1   1.00000     0.00000
 Structure written by MMmdl.
 37 38  0  0  0  0  0  0  0  0  1 V2000
  151.1823  138.7343  154.4038 C   0  0  0  0  0  0  0  0  0  0  0  0
  151.3041  140.0697  154.8783 O   0  0  0  0  0  0  0  0  0  0  0  0
  150.1295  140.7579  155.3301 C   0  0  0  0  0  0  0  0  0  0  0  0
  150.7080  142.0143  156.0331 C   0  0  0  0  0  0  0  0  0  0  0  0
  151.4694  141.6978  157.2397 N   0  0  0  0  0  0  0  0  0  0  0  0
  151.8309  142.6883  158.1647 C   0  0  0  0  0  0  0  0  0  0  0  0
  151.7776  144.0385  157.7591 C   0  0  0  0  0  0  0  0  0  0  0  0
  152.1275  145.0406  158.6848 C   0  0  0  0  0  0  0  0  0  0  0  0
  152.5211  144.6604  159.9818 C   0  0  0  0  0  0  0  0  0  0  0  0
  152.5505  143.2857  160.2943 C   0  0  0  0  0  0  0  0  0  0  0  0
  152.9599  142.8074  161.6714 C   0  0  0  0  0  0  0  0  0  0  0  0
  152.2172  142.3216  159.4092 N   0  0  0  0  0  0  0  0  0  0  0  0
  149.1325  141.1099  154.1937 C   0  0  0  0  0  0  0  0  0  0  0  0
  147.8178  141.6860  154.7498 C   0  0  0  0  0  0  0  0  0  0  0  0
  147.2317  140.7600  155.6576 O   0  0  0  0  0  0  0  0  0  0  0  0
  148.0478  140.5036  156.7952 C   0  0  0  0  0  0  0  0  0  0  0  0
  149.3841  139.8746  156.3581 C   0  0  0  0  0  0  0  0  0  0  0  0
  152.1793  138.3352  154.2183 H   0  0  0  0  0  0  0  0  0  0  0  0
  150.6424  138.6931  153.4579 H   0  0  0  0  0  0  0  0  0  0  0  0
  150.6958  138.0734  155.1196 H   0  0  0  0  0  0  0  0  0  0  0  0
  151.2953  142.6185  155.3441 H   0  0  0  0  0  0  0  0  0  0  0  0
  149.8840  142.6576  156.3433 H   0  0  0  0  0  0  0  0  0  0  0  0
  152.0269  140.8562  157.2144 H   0  0  0  0  0  0  0  0  0  0  0  0
  151.4683  144.3060  156.7591 H   0  0  0  0  0  0  0  0  0  0  0  0
  152.0921  146.0831  158.4052 H   0  0  0  0  0  0  0  0  0  0  0  0
  152.7930  145.4061  160.7143 H   0  0  0  0  0  0  0  0  0  0  0  0
  153.3366  143.6295  162.2805 H   0  0  0  0  0  0  0  0  0  0  0  0
  153.7447  142.0543  161.5956 H   0  0  0  0  0  0  0  0  0  0  0  0
  152.1065  142.3637  162.1849 H   0  0  0  0  0  0  0  0  0  0  0  0
  149.5768  141.7965  153.4736 H   0  0  0  0  0  0  0  0  0  0  0  0
  148.8657  140.2158  153.6311 H   0  0  0  0  0  0  0  0  0  0  0  0
  147.9706  142.6450  155.2436 H   0  0  0  0  0  0  0  0  0  0  0  0
  147.1183  141.8648  153.9332 H   0  0  0  0  0  0  0  0  0  0  0  0
  148.2026  141.4225  157.3613 H   0  0  0  0  0  0  0  0  0  0  0  0
  147.5163  139.8187  157.4561 H   0  0  0  0  0  0  0  0  0  0  0  0
  149.1610  138.8978  155.9315 H   0  0  0  0  0  0  0  0  0  0  0  0
  150.0134  139.6877  157.2290 H   0  0  0  0  0  0  0  0  0  0  0  0
  1  2  1  0  0  0  0
  1 18  1  0  0  0  0
  1 19  1  0  0  0  0
  1 20  1  0  0  0  0
  2  3  1  0  0  0  0
  3 17  1  0  0  0  0
  3  4  1  0  0  0  0
  3 13  1  0  0  0  0
  4  5  1  0  0  0  0
  4 21  1  0  0  0  0
  4 22  1  0  0  0  0
  5  6  1  0  0  0  0
  5 23  1  0  0  0  0
  6 12  1  0  0  0  0
  6  7  2  0  0  0  0
  7  8  1  0  0  0  0
  7 24  1  0  0  0  0
  8  9  2  0  0  0  0
  8 25  1  0  0  0  0
  9 10  1  0  0  0  0
  9 26  1  0  0  0  0
 10 11  1  0  0  0  0
 10 12  2  0  0  0  0
 11 27  1  0  0  0  0
 11 28  1  0  0  0  0
 11 29  1  0  0  0  0
 13 14  1  0  0  0  0
 13 30  1  0  0  0  0
 13 31  1  0  0  0  0
 14 15  1  0  0  0  0
 14 32  1  0  0  0  0
 14 33  1  0  0  0  0
 15 16  1  0  0  0  0
 16 17  1  0  0  0  0
 16 34  1  0  0  0  0
 16 35  1  0  0  0  0
 17 36  1  0  0  0  0
 17 37  1  0  0  0  0
M  END
> <s_m_source_file>
AV-unprocessed.smi

> <i_m_source_file_index>
3182

> <i_lp_mmshare_version>
43012

> <i_f3d_flags>
0

> <s_epik_input>
W0NIMl0xW0NIMl1PW0NIMl1bQ0gyXUMxKE9bQ0gzXSlbQ0gyXVtOSF1jMltjSF1bY0hdW2NIXWMobjIpW0NIM10=

> <s_epik_cmdline>
J2VwaWtfcHl0aG9uJywgJy1waCcsICc3LjAnLCAnLXRuJywgJzgnLCAnLW1hJywgJzIwMCcsICctbWV0YWxfYmluZGluZycsICctaW1hZScsICc8aW5maWxlLm1hZT4nLCAnLW9tYWUnLCAnPG91dGZpbGUubWFlPic=

> <r_lp_tautomer_probability>
1

> <r_epik_Ionization_Penalty>
1.20659

> <r_epik_Ionization_Penalty_Charging>
0

> <r_epik_Ionization_Penalty_Neutral>
1.20659

> <r_epik_State_Penalty>
1.27263

> <r_epik_Charging_Adjusted_Penalty>
1.27263

> <i_epik_Tot_Q>
0

> <i_epik_Tot_abs_Q>
0

> <r_epik_Metal_State_Penalty>
0.00446659

> <b_epik_Metal_Only>
0

> <s_lp_Force_Field>
OPLS_2005

> <r_lp_Energy>
17.6133

> <b_lp_Chiralities_Consistent>
1

> <s_lp_Variant>
AV-unprocessed.smi:3182-2

> <Gold.Version>
5.8.1

> <Gold.Id.Protein>
6NUR|6NUR_protein|mol2

> <Gold.PLP.Fitness>
42.8187

> <Gold.PLP.PLP>
-40.3587

> <Gold.PLP.part.hbond>
-1.0000

> <Gold.PLP.part.metal>
0.0000

> <Gold.PLP.part.buried>
-4.0418

> <Gold.PLP.part.nonpolar>
-34.8466

> <Gold.PLP.part.repulsive>
0.1634

> <Gold.PLP.ligand.clash>
0.0000

> <Gold.PLP.ligand.torsion>
0.2796

> <Gold.PLP.Chemscore.Hbond>
1.0000

> <Gold.PLP.Chemscore.CHOScore>
0.0000

> <Gold.PLP.Chemscore.Metal>
0.0000

> <Gold.Chemscore.Hbonds>
donor molecule, donor type, donor heavy atom, donor atom, acceptor molecule, acceptor atom, score
      P1  H  7989  7998       L1     2  1.00

> <Gold.PLP.Chemscore.Internal.Correction>
0.0194

> <Gold.Rescore>
     Score         DG    S(hbond)    S(metal)    S(lipo)     H(rot)  DE(clash)    DE(int)     intcor
     16.21     -16.67       0.81        0.00     102.13       1.35       0.02       0.44       ----

> <Gold.Chemscore.Fitness>
16.2110

> <Gold.Chemscore.DG>
-16.6697

> <Gold.Chemscore.ZeroCoef>
-5.4800

> <Gold.Chemscore.Hbond>
0.8053

> <Gold.Chemscore.Metal>
0.0000

> <Gold.Chemscore.Lipo>
102.1256

> <Gold.Chemscore.Internal_Hbond>
0.0000

> <Gold.Chemscore.DEClash>
0.0152

> <Gold.Chemscore.DEInternal>
0.4435

> <Gold.Chemscore.Rot>
1.3471

> <Gold.Chemscore.Internal.Correction>
   9.000000E+99

> <Gold.Chemscore.Hbonds>
donor molecule, donor type, donor heavy atom, donor atom, acceptor molecule, acceptor atom, score
      P1  H  7989  7998       L1     2  0.10

> <Gold.Chemscore.Hbond.Weighted>
-2.6896

> <Gold.Chemscore.Metal.Weighted>
-0.0000

> <Gold.Chemscore.Lipo.Weighted>
-11.9487

> <Gold.Chemscore.Internal_Hbond.Weighted>
0.0000

> <Gold.Chemscore.DEClash.Weighted>
0.0152

> <Gold.Chemscore.DEInternal.Weighted>
0.4435

> <Gold.Chemscore.Rot.Weighted>
3.4486

> <Gold.Chemscore.Internal.Correction.Weighted>
   9.000000E+99

> <Gold.Protein.RotatedTorsions>
[ 6907 6896 6895 6894 ] final -133.95 input  -60.11 | X-H torsion
[ 7974 7965 7964 7962 ] final   36.59 input  175.53 | X-H torsion
[ 8008 7997 7996 7995 ] final  112.14 input   59.86 | X-H torsion
[ 10167 10162 10161 10158 ] final   23.80 input  -65.29 | X-H torsion
[ 10718 10713 10712 10709 ] final -172.68 input   66.30 | X-H torsion
[ 10763 10752 10751 10750 ] final  173.22 input  -60.55 | X-H torsion
[ 11005 11000 10999 10996 ] final  114.88 input  -57.11 | X-H torsion

> <Gold.Protein.ActiveResidues>
 VAL166  LYS551  ARG553  GLY616  TRP617  ASP618  TYR619  PRO620  LYS621  CYS622 
 ASP623  PHE694  ASN695  SER759  ASP760  ASP761  ALA762  ILE779  LEU786  VAL792 
 PHE793  MET794  SER795  GLU796  ALA797  LYS798  CYS799  TRP800  GLU811  SER814 

> <Gold.Protein.RotatedAtoms>
  150.9801  133.6254  159.2723 H   0  0  0  0  0  0  0  0  0  0  0  0  # atno 6907 bound_to 6896
  151.3512  135.0883  159.9413 H   0  0  0  0  0  0  0  0  0  0  0  0  # atno 6908 bound_to 6896
  152.5212  133.9393  159.7673 H   0  0  0  0  0  0  0  0  0  0  0  0  # atno 6909 bound_to 6896
  146.1200  139.5999  142.9296 H   0  0  0  0  0  0  0  0  0  0  0  0  # atno 7974 bound_to 7965
  156.2172  140.3005  155.9867 H   0  0  0  0  0  0  0  0  0  0  0  0  # atno 8008 bound_to 7997
  155.2575  140.0428  157.3010 H   0  0  0  0  0  0  0  0  0  0  0  0  # atno 8009 bound_to 7997
  154.5786  140.2368  155.8095 H   0  0  0  0  0  0  0  0  0  0  0  0  # atno 8010 bound_to 7997
  140.5239  143.9955  150.6431 H   0  0  0  0  0  0  0  0  0  0  0  0  # atno 10167 bound_to 10162
  156.7592  130.9407  151.3117 H   0  0  0  0  0  0  0  0  0  0  0  0  # atno 10718 bound_to 10713
  154.4369  135.2761  155.1874 H   0  0  0  0  0  0  0  0  0  0  0  0  # atno 10763 bound_to 10752
  154.3756  135.6099  153.5767 H   0  0  0  0  0  0  0  0  0  0  0  0  # atno 10764 bound_to 10752
  152.9839  135.5868  154.4690 H   0  0  0  0  0  0  0  0  0  0  0  0  # atno 10765 bound_to 10752
  139.8993  134.9575  156.6960 H   0  0  0  0  0  0  0  0  0  0  0  0  # atno 11005 bound_to 11000
  145.5486  141.0415  143.2291 LP  0  0  0  0  0  0  0  0  0  0  0  0  # atno 17320 bound_to 7965
  144.7588  139.7007  143.7243 LP  0  0  0  0  0  0  0  0  0  0  0  0  # atno 17321 bound_to 7965
  140.3312  143.3076  152.0685 LP  0  0  0  0  0  0  0  0  0  0  0  0  # atno 17342 bound_to 10162
  139.4932  144.6508  151.6680 LP  0  0  0  0  0  0  0  0  0  0  0  0  # atno 17343 bound_to 10162
  157.6742  130.9079  150.0112 LP  0  0  0  0  0  0  0  0  0  0  0  0  # atno 17370 bound_to 10713
  156.1350  130.3643  149.9671 LP  0  0  0  0  0  0  0  0  0  0  0  0  # atno 17371 bound_to 10713
  140.7188  133.9159  155.8133 LP  0  0  0  0  0  0  0  0  0  0  0  0  # atno 17394 bound_to 11000
  141.0244  134.0844  157.4085 LP  0  0  0  0  0  0  0  0  0  0  0  0  # atno 17395 bound_to 11000

$$$$
