AV-unprocessed.smi:3342|AV-procd|sdf|12889|dock3
  -GOLD-   2272019293D 1   1.00000     0.00000
 Structure written by MMmdl.
 41 42  0  0  0  0  0  0  0  0  1 V2000
  143.8633  135.7438  151.5919 C   0  0  0  0  0  0  0  0  0  0  0  0
  145.3704  135.9227  151.3453 C   0  0  2  0  0  0  0  0  0  0  0  0
  146.1334  134.5836  151.2472 C   0  0  0  0  0  0  0  0  0  0  0  0
  145.2623  133.4605  150.9577 N   0  0  0  0  0  0  0  0  0  0  0  0
  144.3907  133.3332  149.8843 C   0  0  0  0  0  0  0  0  0  0  0  0
  143.7776  132.1080  150.0190 C   0  0  0  0  0  0  0  0  0  0  0  0
  144.2576  131.4661  151.1584 N   0  0  0  0  0  0  0  0  0  0  0  0
  145.1350  132.3259  151.6597 C   0  0  0  0  0  0  0  0  0  0  0  0
  145.9331  136.7432  152.4134 N   0  0  0  0  0  0  0  0  0  0  0  0
  146.5465  137.9286  152.2527 C   0  0  0  0  0  0  0  0  0  0  0  0
  146.6762  138.4537  151.1457 O   0  0  0  0  0  0  0  0  0  0  0  0
  146.9865  138.4995  153.4028 N   0  0  0  0  0  0  0  0  0  0  0  0
  147.3363  137.7940  154.6474 C   0  0  0  0  0  0  0  0  0  0  0  0
  148.8699  137.7485  154.7732 C   0  0  0  0  0  0  0  0  0  0  0  0
  149.4753  139.1720  154.7376 C   0  0  0  0  0  0  0  0  0  0  0  0
  151.0086  139.1173  154.7200 C   0  0  0  0  0  0  0  0  0  0  0  0
  151.5722  137.9474  154.4081 N   0  0  0  0  0  0  0  0  0  0  0  0
  151.6773  140.1151  154.9829 O   0  0  0  0  0  0  0  0  0  0  0  0
  148.9338  139.9730  153.5295 C   0  0  0  0  0  0  0  0  0  0  0  0
  147.3970  139.9076  153.4625 C   0  0  0  0  0  0  0  0  0  0  0  0
  143.3834  135.2140  150.7688 H   0  0  0  0  0  0  0  0  0  0  0  0
  143.3646  136.7087  151.6875 H   0  0  0  0  0  0  0  0  0  0  0  0
  143.6759  135.1795  152.5061 H   0  0  0  0  0  0  0  0  0  0  0  0
  145.4834  136.4582  150.4008 H   0  0  0  0  0  0  0  0  0  0  0  0
  146.8910  134.6311  150.4636 H   0  0  0  0  0  0  0  0  0  0  0  0
  146.6626  134.3806  152.1796 H   0  0  0  0  0  0  0  0  0  0  0  0
  144.2806  134.1047  149.1365 H   0  0  0  0  0  0  0  0  0  0  0  0
  143.0349  131.6423  149.3883 H   0  0  0  0  0  0  0  0  0  0  0  0
  145.6947  132.1275  152.5621 H   0  0  0  0  0  0  0  0  0  0  0  0
  145.8558  136.3804  153.3522 H   0  0  0  0  0  0  0  0  0  0  0  0
  146.9104  138.3318  155.4958 H   0  0  0  0  0  0  0  0  0  0  0  0
  146.9294  136.7852  154.7157 H   0  0  0  0  0  0  0  0  0  0  0  0
  149.1469  137.2488  155.7024 H   0  0  0  0  0  0  0  0  0  0  0  0
  149.2761  137.1405  153.9628 H   0  0  0  0  0  0  0  0  0  0  0  0
  149.1580  139.6886  155.6454 H   0  0  0  0  0  0  0  0  0  0  0  0
  152.5780  137.8621  154.3833 H   0  0  0  0  0  0  0  0  0  0  0  0
  150.9884  137.1509  154.1977 H   0  0  0  0  0  0  0  0  0  0  0  0
  149.2535  141.0137  153.5967 H   0  0  0  0  0  0  0  0  0  0  0  0
  149.3477  139.5834  152.5979 H   0  0  0  0  0  0  0  0  0  0  0  0
  147.0350  140.4885  152.6129 H   0  0  0  0  0  0  0  0  0  0  0  0
  146.9611  140.3769  154.3457 H   0  0  0  0  0  0  0  0  0  0  0  0
  1  2  1  0  0  0  0
  1 21  1  0  0  0  0
  1 22  1  0  0  0  0
  1 23  1  0  0  0  0
  2  3  1  0  0  0  0
  2  9  1  0  0  0  0
  2 24  1  0  0  0  0
  3  4  1  0  0  0  0
  3 25  1  0  0  0  0
  3 26  1  0  0  0  0
  4  8  1  0  0  0  0
  4  5  1  0  0  0  0
  5  6  2  0  0  0  0
  5 27  1  0  0  0  0
  6  7  1  0  0  0  0
  6 28  1  0  0  0  0
  7  8  2  0  0  0  0
  8 29  1  0  0  0  0
  9 10  1  0  0  0  0
  9 30  1  0  0  0  0
 10 11  2  0  0  0  0
 10 12  1  0  0  0  0
 12 20  1  0  0  0  0
 12 13  1  0  0  0  0
 13 14  1  0  0  0  0
 13 31  1  0  0  0  0
 13 32  1  0  0  0  0
 14 15  1  0  0  0  0
 14 33  1  0  0  0  0
 14 34  1  0  0  0  0
 15 16  1  0  0  0  0
 15 19  1  0  0  0  0
 15 35  1  0  0  0  0
 16 17  1  0  0  0  0
 16 18  2  0  0  0  0
 17 36  1  0  0  0  0
 17 37  1  0  0  0  0
 19 20  1  0  0  0  0
 19 38  1  0  0  0  0
 19 39  1  0  0  0  0
 20 40  1  0  0  0  0
 20 41  1  0  0  0  0
M  END
> <s_m_source_file>
AV-unprocessed.smi

> <i_m_source_file_index>
3342

> <i_lp_mmshare_version>
43012

> <i_f3d_flags>
0

> <s_epik_input>
W2NIXTFuW2NIXVtjSF1uMVtDSDJdW0NAQEhdKFtDSDNdKVtOSF1DKD1PKU4yW0NIMl1bQ0gyXVtDSF0oQyg9TylbTkgyXSlbQ0gyXVtDSDJdMg==

> <s_epik_cmdline>
J2VwaWtfcHl0aG9uJywgJy1waCcsICc3LjAnLCAnLXRuJywgJzgnLCAnLW1hJywgJzIwMCcsICctbWV0YWxfYmluZGluZycsICctaW1hZScsICc8aW5maWxlLm1hZT4nLCAnLW9tYWUnLCAnPG91dGZpbGUubWFlPic=

> <r_lp_tautomer_probability>
1

> <r_epik_Ionization_Penalty>
0.624431

> <r_epik_Ionization_Penalty_Charging>
0.624374

> <r_epik_Ionization_Penalty_Neutral>
5.67186e-05

> <r_epik_State_Penalty>
0.640677

> <r_epik_Charging_Adjusted_Penalty>
1.26505

> <i_epik_Tot_Q>
0

> <i_epik_Tot_abs_Q>
0

> <r_epik_Metal_State_Penalty>
0.307574

> <b_epik_Metal_Only>
0

> <s_lp_Force_Field>
OPLS_2005

> <r_lp_Energy>
29.2273

> <b_lp_Chiralities_Consistent>
1

> <s_lp_Variant>
AV-unprocessed.smi:3342-3

> <Gold.Version>
5.8.1

> <Gold.Id.Protein>
6NUR|6NUR_protein|mol2

> <Gold.PLP.Fitness>
39.4221

> <Gold.PLP.PLP>
-30.9012

> <Gold.PLP.part.hbond>
-2.8065

> <Gold.PLP.part.metal>
0.0000

> <Gold.PLP.part.buried>
0.2176

> <Gold.PLP.part.nonpolar>
-30.5989

> <Gold.PLP.part.repulsive>
0.8718

> <Gold.PLP.ligand.clash>
0.5768

> <Gold.PLP.ligand.torsion>
1.0911

> <Gold.PLP.Chemscore.Hbond>
1.9920

> <Gold.PLP.Chemscore.CHOScore>
1.7386

> <Gold.PLP.Chemscore.Metal>
0.0000

> <Gold.Chemscore.Hbonds>
donor molecule, donor type, donor heavy atom, donor atom, acceptor molecule, acceptor atom, score
      P1  H  7954  7966       L1    11  1.00
      P1  H  7989  7998       L1    18  0.99
      L1  C     5    27       P1  7921  0.87
      L1  C     6    28       P1 10952  0.90

> <Gold.PLP.Chemscore.Internal.Correction>
0.0883

> <Gold.Rescore>
     Score         DG    S(hbond)    S(metal)    S(lipo)     H(rot)  DE(clash)    DE(int)     intcor
      9.73     -12.63       1.72        0.00      61.77       2.28       2.20       0.70       ----

> <Gold.Chemscore.Fitness>
9.7304

> <Gold.Chemscore.DG>
-12.6293

> <Gold.Chemscore.ZeroCoef>
-5.4800

> <Gold.Chemscore.Hbond>
1.7210

> <Gold.Chemscore.Metal>
0.0000

> <Gold.Chemscore.Lipo>
61.7690

> <Gold.Chemscore.Internal_Hbond>
0.0000

> <Gold.Chemscore.DEClash>
2.1967

> <Gold.Chemscore.DEInternal>
0.7021

> <Gold.Chemscore.Rot>
2.2757

> <Gold.Chemscore.Internal.Correction>
   9.000000E+99

> <Gold.Chemscore.Hbonds>
donor molecule, donor type, donor heavy atom, donor atom, acceptor molecule, acceptor atom, score
      P1  H  7954  7966       L1    11  0.90
      P1  H  7989  7998       L1    18  0.24

> <Gold.Chemscore.Hbond.Weighted>
-5.7482

> <Gold.Chemscore.Metal.Weighted>
-0.0000

> <Gold.Chemscore.Lipo.Weighted>
-7.2270

> <Gold.Chemscore.Internal_Hbond.Weighted>
0.0000

> <Gold.Chemscore.DEClash.Weighted>
2.1967

> <Gold.Chemscore.DEInternal.Weighted>
0.7021

> <Gold.Chemscore.Rot.Weighted>
5.8259

> <Gold.Chemscore.Internal.Correction.Weighted>
   9.000000E+99

> <Gold.Protein.RotatedTorsions>
[ 6907 6896 6895 6894 ] final -161.66 input  -60.11 | X-H torsion
[ 7974 7965 7964 7962 ] final  157.60 input  175.53 | X-H torsion
[ 8008 7997 7996 7995 ] final   28.90 input   59.86 | X-H torsion
[ 10167 10162 10161 10158 ] final  -68.79 input  -65.29 | X-H torsion
[ 10718 10713 10712 10709 ] final  -77.04 input   66.30 | X-H torsion
[ 10763 10752 10751 10750 ] final  172.63 input  -60.55 | X-H torsion
[ 11005 11000 10999 10996 ] final  161.85 input  -57.11 | X-H torsion

> <Gold.Protein.ActiveResidues>
 VAL166  LYS551  ARG553  GLY616  TRP617  ASP618  TYR619  PRO620  LYS621  CYS622 
 ASP623  PHE694  ASN695  SER759  ASP760  ASP761  ALA762  ILE779  LEU786  VAL792 
 PHE793  MET794  SER795  GLU796  ALA797  LYS798  CYS799  TRP800  GLU811  SER814 

> <Gold.Protein.RotatedAtoms>
  151.3681  133.3865  159.2696 H   0  0  0  0  0  0  0  0  0  0  0  0  # atno 6907 bound_to 6896
  150.9673  134.9052  159.7777 H   0  0  0  0  0  0  0  0  0  0  0  0  # atno 6908 bound_to 6896
  152.5171  134.3642  159.9347 H   0  0  0  0  0  0  0  0  0  0  0  0  # atno 6909 bound_to 6896
  144.7894  139.7362  143.6227 H   0  0  0  0  0  0  0  0  0  0  0  0  # atno 7974 bound_to 7965
  155.0660  140.3195  155.4645 H   0  0  0  0  0  0  0  0  0  0  0  0  # atno 8008 bound_to 7997
  156.2802  140.2120  156.5732 H   0  0  0  0  0  0  0  0  0  0  0  0  # atno 8009 bound_to 7997
  154.7093  140.0499  157.0522 H   0  0  0  0  0  0  0  0  0  0  0  0  # atno 8010 bound_to 7997
  140.5480  143.2312  151.6964 H   0  0  0  0  0  0  0  0  0  0  0  0  # atno 10167 bound_to 10162
  156.0156  130.4481  150.3285 H   0  0  0  0  0  0  0  0  0  0  0  0  # atno 10718 bound_to 10713
  154.4287  135.2759  155.1927 H   0  0  0  0  0  0  0  0  0  0  0  0  # atno 10763 bound_to 10752
  154.3842  135.6081  153.5811 H   0  0  0  0  0  0  0  0  0  0  0  0  # atno 10764 bound_to 10752
  152.9835  135.5887  154.4595 H   0  0  0  0  0  0  0  0  0  0  0  0  # atno 10765 bound_to 10752
  140.2199  134.8204  157.3210 H   0  0  0  0  0  0  0  0  0  0  0  0  # atno 11005 bound_to 11000
  146.2140  139.5516  142.9662 LP  0  0  0  0  0  0  0  0  0  0  0  0  # atno 17320 bound_to 7965
  145.5834  141.0379  143.2109 LP  0  0  0  0  0  0  0  0  0  0  0  0  # atno 17321 bound_to 7965
  139.5015  144.3863  152.0325 LP  0  0  0  0  0  0  0  0  0  0  0  0  # atno 17342 bound_to 10162
  140.2977  144.3682  150.6069 LP  0  0  0  0  0  0  0  0  0  0  0  0  # atno 17343 bound_to 10162
  157.1384  131.0290  151.2938 LP  0  0  0  0  0  0  0  0  0  0  0  0  # atno 17370 bound_to 10713
  157.4492  130.7589  149.7136 LP  0  0  0  0  0  0  0  0  0  0  0  0  # atno 17371 bound_to 10713
  140.1860  134.4430  155.7743 LP  0  0  0  0  0  0  0  0  0  0  0  0  # atno 17394 bound_to 11000
  141.2223  133.7005  156.7949 LP  0  0  0  0  0  0  0  0  0  0  0  0  # atno 17395 bound_to 11000

$$$$
