#       Name:                AV-unprocessed.smi:273
#       Creating user name   scv26
#       Creation time:       Thu Mar 26 21:30:00 2020


#       File generated by GOLD software.
#

@<TRIPOS>MOLECULE
AV-unprocessed.smi:273
    69    72     1
SMALL
NO_CHARGES


@<TRIPOS>ATOM
      1 ****        -7.2742   0.9927   3.3783 C.3            1 S1                 0.0000
      2 ****        -7.4983   1.6374   2.0042 C.3            1 S1                 0.0000
      3 ****        -6.8490   0.8741   0.9450 N.am           1 S1                 0.0000
      4 ****        -5.5518   0.9621   0.6117 C.2            1 S1                 0.0000
      5 ****        -4.7697   1.7289   1.1735 O.2            1 S1                 0.0000
      6 ****        -5.0768   0.0369  -0.5245 C.3            1 S1                 0.0000
      7 ****        -4.0274  -0.9943  -0.0518 C.3            1 S1                 0.0000
      8 ****        -2.6256  -0.3863   0.1418 C.3            1 S1                 0.0000
      9 ****        -2.1971   0.3350  -1.0559 N.3            1 S1                 0.0000
     10 ****        -0.8663   0.6003  -1.1097 C.ar           1 S1                 0.0000
     11 ****        -0.4318   1.8893  -1.1376 N.ar           1 S1                 0.0000
     12 ****         0.8753   2.1625  -1.1824 C.ar           1 S1                 0.0000
     13 ****         1.9044   1.3140  -1.2084 N.ar           1 S1                 0.0000
     14 ****         1.4770   0.0196  -1.1853 C.ar           1 S1                 0.0000
     15 ****         0.1242  -0.4225  -1.1391 C.ar           1 S1                 0.0000
     16 ****         0.0829  -1.8124  -1.1473 N.2            1 S1                 0.0000
     17 ****         1.3374  -2.1703  -1.1846 C.2            1 S1                 0.0000
     18 ****         2.2421  -1.1331  -1.2000 N.pl3          1 S1                 0.0000
     19 ****         3.6908  -1.2398  -1.2467 C.3            1 S1                 0.0000
     20 ****         4.3925  -0.7733   0.0553 C.3            1 S1                 0.0000
     21 ****         3.8677  -1.5559   1.2869 C.3            1 S1                 0.0000
     22 ****         4.1699  -0.8962   2.4982 O.3            1 S1                 0.0000
     23 ****         5.9356  -0.8787  -0.0952 C.3            1 S1                 0.0000
     24 ****         6.5203  -0.0987  -1.2616 C.3            1 S1                 0.0000
     25 ****         7.9983  -0.0178  -0.8966 C.3            1 S1                 0.0000
     26 ****         8.0412   0.0179   0.5245 O.3            1 S1                 0.0000
     27 ****         6.7560  -0.2860   1.0568 C.3            1 S1                 0.0000
     28 ****        -3.1145   1.3801  -1.5137 C.3            1 S1                 0.0000
     29 ****        -4.5291   0.8151  -1.7420 C.3            1 S1                 0.0000
     30 ****        -7.7889   1.5539   4.1583 H              1 S1                 0.0000
     31 ****        -6.2152   0.9640   3.6362 H              1 S1                 0.0000
     32 ****        -7.6528  -0.0295   3.3999 H              1 S1                 0.0000
     33 ****        -8.5660   1.6796   1.7882 H              1 S1                 0.0000
     34 ****        -7.1411   2.6685   2.0049 H              1 S1                 0.0000
     35 ****        -7.4255   0.2210   0.4344 H              1 S1                 0.0000
     36 ****        -5.9508  -0.5216  -0.8639 H              1 S1                 0.0000
     37 ****        -4.3519  -1.4700   0.8747 H              1 S1                 0.0000
     38 ****        -3.9633  -1.7941  -0.7906 H              1 S1                 0.0000
     39 ****        -2.6202   0.3016   0.9874 H              1 S1                 0.0000
     40 ****        -1.9285  -1.1836   0.3964 H              1 S1                 0.0000
     41 ****         1.1331   3.2112  -1.1980 H              1 S1                 0.0000
     42 ****         1.6382  -3.2078  -1.1976 H              1 S1                 0.0000
     43 ****         3.9558  -2.2754  -1.4634 H              1 S1                 0.0000
     44 ****         4.0241  -0.6495  -2.1000 H              1 S1                 0.0000
     45 ****         4.1384   0.2784   0.1968 H              1 S1                 0.0000
     46 ****         2.7837  -1.6590   1.2653 H              1 S1                 0.0000
     47 ****         4.2782  -2.5658   1.3078 H              1 S1                 0.0000
     48 ****         3.8164  -1.4025   3.2136 H              1 S1                 0.0000
     49 ****         6.2142  -1.9273  -0.2131 H              1 S1                 0.0000
     50 ****         6.3632  -0.5793  -2.2273 H              1 S1                 0.0000
     51 ****         6.0897   0.9030  -1.3035 H              1 S1                 0.0000
     52 ****         8.5235  -0.9113  -1.2363 H              1 S1                 0.0000
     53 ****         8.4895   0.8518  -1.3341 H              1 S1                 0.0000
     54 ****         6.3086   0.6430   1.4127 H              1 S1                 0.0000
     55 ****         6.8414  -0.9672   1.9035 H              1 S1                 0.0000
     56 ****        -3.1387   2.1882  -0.7824 H              1 S1                 0.0000
     57 ****        -2.7493   1.8101  -2.4474 H              1 S1                 0.0000
     58 ****        -4.5039   0.1457  -2.6026 H              1 S1                 0.0000
     59 ****        -5.2080   1.6240  -2.0145 H              1 S1                 0.0000
     60 ****        -5.0931   2.3203   1.9121 LP             1 S1                 0.0000
     61 ****        -3.8108   1.7604   0.8913 LP             1 S1                 0.0000
     62 ****        -2.2930  -0.3273  -1.7990 LP             1 S1                 0.0000
     63 ****        -1.0953   2.6374  -1.1245 LP             1 S1                 0.0000
     64 ****         2.8647   1.5914  -1.2406 LP             1 S1                 0.0000
     65 ****        -0.7239  -2.4029  -1.1288 LP             1 S1                 0.0000
     66 ****         3.7602   0.0160   2.4963 LP             1 S1                 0.0000
     67 ****         5.1615  -0.8160   2.5999 LP             1 S1                 0.0000
     68 ****         8.3169   0.9310   0.8249 LP             1 S1                 0.0000
     69 ****         8.7037  -0.6553   0.8531 LP             1 S1                 0.0000
@<TRIPOS>BOND
    1    1    2 1     
    2    1   30 1     
    3    1   31 1     
    4    1   32 1     
    5    2    3 1     
    6    2   33 1     
    7    2   34 1     
    8    3    4 am    
    9    3   35 1     
   10    4    5 2     
   11    4    6 1     
   12    6   29 1     
   13    6    7 1     
   14    6   36 1     
   15    7    8 1     
   16    7   37 1     
   17    7   38 1     
   18    8    9 1     
   19    8   39 1     
   20    8   40 1     
   21    9   10 1     
   22    9   28 1     
   23   10   15 ar    
   24   10   11 ar    
   25   11   12 ar    
   26   12   13 ar    
   27   12   41 1     
   28   13   14 ar    
   29   14   18 1     
   30   14   15 ar    
   31   15   16 1     
   32   16   17 2     
   33   17   18 1     
   34   17   42 1     
   35   18   19 1     
   36   19   20 1     
   37   19   43 1     
   38   19   44 1     
   39   20   21 1     
   40   20   23 1     
   41   20   45 1     
   42   21   22 1     
   43   21   46 1     
   44   21   47 1     
   45   22   48 1     
   46   23   27 1     
   47   23   24 1     
   48   23   49 1     
   49   24   25 1     
   50   24   50 1     
   51   24   51 1     
   52   25   26 1     
   53   25   52 1     
   54   25   53 1     
   55   26   27 1     
   56   27   54 1     
   57   27   55 1     
   58   28   29 1     
   59   28   56 1     
   60   28   57 1     
   61   29   58 1     
   62   29   59 1     
   63    5   60 1     
   64    5   61 1     
   65    9   62 1     
   66   11   63 1     
   67   13   64 1     
   68   16   65 1     
   69   22   66 1     
   70   22   67 1     
   71   26   68 1     
   72   26   69 1     
@<TRIPOS>SUBSTRUCTURE
      1 S1             1
@<TRIPOS>SET
LONE_PAIRS      STATIC     ATOMS    <user>   **** ""
10 60 61 62 63 64 65 66 67 68 69
DONOR_HYDROGENS      STATIC     ATOMS    <user>   **** ""
2 35 48
ATOM$BLUE        STATIC     ATOMS    COLORGROUP SYSTEM
10 60 61 62 63 64 65 66 67 68 69
ATOM$RED        STATIC     ATOMS    COLORGROUP SYSTEM
2 35 48
