AV-unprocessed.smi:670|AV-procd|sdf|3266|dock5
  -GOLD-   22720 0223D 1   1.00000     0.00000
 Structure written by MMmdl.
 44 45  0  0  0  0  0  0  0  0  2 V2000
  147.7000  141.6508  154.1145 C   0  0  0  0  0  0  0  0  0  0  0  0
  149.1130  141.0774  154.3046 C   0  0  1  0  0  0  0  0  0  0  0  0
  149.7376  141.5274  155.6422 C   0  0  0  0  0  0  0  0  0  0  0  0
  151.1645  140.9829  155.8127 C   0  0  0  0  0  0  0  0  0  0  0  0
  151.2001  139.4554  155.6631 C   0  0  0  0  0  0  0  0  0  0  0  0
  150.5818  139.0103  154.3290 C   0  0  0  0  0  0  0  0  0  0  0  0
  149.1390  139.5379  154.1700 C   0  0  1  0  0  0  0  0  0  0  0  0
  148.2861  139.0011  155.1739 O   0  0  0  0  0  0  0  0  0  0  0  0
  148.2917  137.5874  155.2975 C   0  0  0  0  0  0  0  0  0  0  0  0
  147.3255  137.1848  156.4220 C   0  0  0  0  0  0  0  0  0  0  0  0
  148.0423  136.7058  157.5992 N   0  0  0  0  0  0  0  0  0  0  0  0
  147.8563  137.1464  158.8534 C   0  0  0  0  0  0  0  0  0  0  0  0
  147.0077  137.9861  159.1555 O   0  0  0  0  0  0  0  0  0  0  0  0
  148.7450  136.5187  159.9352 C   0  0  0  0  0  0  0  0  0  0  0  0
  147.9783  135.6988  160.8830 N   0  0  0  0  0  0  0  0  0  0  0  0
  147.6108  134.3884  160.3516 N   0  5  0  0  0  0  0  0  0  0  0  0
  146.9455  133.5117  161.1495 C   0  0  0  0  0  0  0  0  0  0  0  0
  146.6310  132.3825  160.7813 O   0  0  0  0  0  0  0  0  0  0  0  0
  146.5957  133.9399  162.4934 C   0  0  0  0  0  0  0  0  0  0  0  0
  146.9176  135.1677  162.9462 C   0  0  0  0  0  0  0  0  0  0  0  0
  147.6396  136.1359  162.1301 C   0  0  0  0  0  0  0  0  0  0  0  0
  147.9273  137.2610  162.5374 O   0  0  0  0  0  0  0  0  0  0  0  0
  147.0228  141.3124  154.8994 H   0  0  0  0  0  0  0  0  0  0  0  0
  147.2783  141.3470  153.1561 H   0  0  0  0  0  0  0  0  0  0  0  0
  147.7142  142.7406  154.1379 H   0  0  0  0  0  0  0  0  0  0  0  0
  149.7298  141.4853  153.5025 H   0  0  0  0  0  0  0  0  0  0  0  0
  149.7554  142.6161  155.6983 H   0  0  0  0  0  0  0  0  0  0  0  0
  149.1189  141.1883  156.4745 H   0  0  0  0  0  0  0  0  0  0  0  0
  151.8208  141.4378  155.0700 H   0  0  0  0  0  0  0  0  0  0  0  0
  151.5565  141.2689  156.7889 H   0  0  0  0  0  0  0  0  0  0  0  0
  152.2269  139.0974  155.7378 H   0  0  0  0  0  0  0  0  0  0  0  0
  150.6526  138.9969  156.4863 H   0  0  0  0  0  0  0  0  0  0  0  0
  151.1933  139.3878  153.5085 H   0  0  0  0  0  0  0  0  0  0  0  0
  150.6181  137.9250  154.2479 H   0  0  0  0  0  0  0  0  0  0  0  0
  148.7560  139.2653  153.1851 H   0  0  0  0  0  0  0  0  0  0  0  0
  147.9687  137.1429  154.3553 H   0  0  0  0  0  0  0  0  0  0  0  0
  149.2888  137.2046  155.5131 H   0  0  0  0  0  0  0  0  0  0  0  0
  146.6643  138.0141  156.6785 H   0  0  0  0  0  0  0  0  0  0  0  0
  146.6843  136.3744  156.0755 H   0  0  0  0  0  0  0  0  0  0  0  0
  148.7617  136.0138  157.4471 H   0  0  0  0  0  0  0  0  0  0  0  0
  149.5119  135.9138  159.4487 H   0  0  0  0  0  0  0  0  0  0  0  0
  149.2912  137.3019  160.4651 H   0  0  0  0  0  0  0  0  0  0  0  0
  146.0635  133.2599  163.1418 H   0  0  0  0  0  0  0  0  0  0  0  0
  146.6359  135.4447  163.9510 H   0  0  0  0  0  0  0  0  0  0  0  0
  1  2  1  0  0  0  0
  1 23  1  0  0  0  0
  1 24  1  0  0  0  0
  1 25  1  0  0  0  0
  2  7  1  0  0  0  0
  2  3  1  0  0  0  0
  2 26  1  0  0  0  0
  3  4  1  0  0  0  0
  3 27  1  0  0  0  0
  3 28  1  0  0  0  0
  4  5  1  0  0  0  0
  4 29  1  0  0  0  0
  4 30  1  0  0  0  0
  5  6  1  0  0  0  0
  5 31  1  0  0  0  0
  5 32  1  0  0  0  0
  6  7  1  0  0  0  0
  6 33  1  0  0  0  0
  6 34  1  0  0  0  0
  7  8  1  0  0  0  0
  7 35  1  0  0  0  0
  8  9  1  0  0  0  0
  9 10  1  0  0  0  0
  9 36  1  0  0  0  0
  9 37  1  0  0  0  0
 10 11  1  0  0  0  0
 10 38  1  0  0  0  0
 10 39  1  0  0  0  0
 11 12  1  0  0  0  0
 11 40  1  0  0  0  0
 12 13  2  0  0  0  0
 12 14  1  0  0  0  0
 14 41  1  0  0  0  0
 14 42  1  0  0  0  0
 14 15  1  0  0  0  0
 15 16  1  0  0  0  0
 15 21  1  0  0  0  0
 16 17  1  0  0  0  0
 17 18  2  0  0  0  0
 17 19  1  0  0  0  0
 19 43  1  0  0  0  0
 19 20  2  0  0  0  0
 20 44  1  0  0  0  0
 20 21  1  0  0  0  0
 21 22  2  0  0  0  0
M  CHG  1  16  -1
M  END
> <s_m_source_file>
AV-unprocessed.smi

> <i_m_source_file_index>
670

> <i_lp_mmshare_version>
43012

> <i_f3d_flags>
0

> <s_epik_input>
W0NIM11bQ0BASF0xW0NIMl1bQ0gyXVtDSDJdW0NIMl1bQ0BIXTFPW0NIMl1bQ0gyXVtOSF1DKD1PKVtDSDJdbjJbbkhdYyg9TylbY0hdW2NIXWMyPU8=

> <s_epik_cmdline>
J2VwaWtfcHl0aG9uJywgJy1waCcsICc3LjAnLCAnLXRuJywgJzgnLCAnLW1hJywgJzIwMCcsICctbWV0YWxfYmluZGluZycsICctaW1hZScsICc8aW5maWxlLm1hZT4nLCAnLW9tYWUnLCAnPG91dGZpbGUubWFlPic=

> <r_lp_tautomer_probability>
1

> <r_epik_Ionization_Penalty>
0.0975638

> <r_epik_Ionization_Penalty_Charging>
0.0975637

> <r_epik_Ionization_Penalty_Neutral>
2.78599e-08

> <r_epik_State_Penalty>
0.0343507

> <r_epik_Charging_Adjusted_Penalty>
0.131914

> <i_epik_Tot_Q>
-1

> <i_epik_Tot_abs_Q>
1

> <r_epik_Metal_State_Penalty>
0.0343507

> <b_epik_Metal_Only>
0

> <s_lp_Force_Field>
OPLS_2005

> <r_lp_Energy>
24.4617

> <b_lp_Chiralities_Consistent>
1

> <s_lp_Variant>
AV-unprocessed.smi:670-2

> <Gold.Version>
5.8.1

> <Gold.Id.Protein>
6NUR|6NUR_protein|mol2

> <Gold.PLP.Fitness>
45.2002

> <Gold.PLP.PLP>
-42.0351

> <Gold.PLP.part.hbond>
-2.3482

> <Gold.PLP.part.metal>
0.0000

> <Gold.PLP.part.buried>
-2.5726

> <Gold.PLP.part.nonpolar>
-36.6937

> <Gold.PLP.part.repulsive>
0.0750

> <Gold.PLP.ligand.clash>
0.0000

> <Gold.PLP.ligand.torsion>
0.6781

> <Gold.PLP.Chemscore.Hbond>
1.4880

> <Gold.PLP.Chemscore.CHOScore>
0.0000

> <Gold.PLP.Chemscore.Metal>
0.0000

> <Gold.Chemscore.Hbonds>
donor molecule, donor type, donor heavy atom, donor atom, acceptor molecule, acceptor atom, score
      P1  H  6931  6943       L1    22  0.86
      P1  H  6934  6947       L1    13  0.59

> <Gold.PLP.Chemscore.Internal.Correction>
0.0574

> <Gold.Rescore>
     Score         DG    S(hbond)    S(metal)    S(lipo)     H(rot)  DE(clash)    DE(int)     intcor
     12.60     -13.51       1.66        0.00      74.93       2.45       0.07       0.84       ----

> <Gold.Chemscore.Fitness>
12.5996

> <Gold.Chemscore.DG>
-13.5124

> <Gold.Chemscore.ZeroCoef>
-5.4800

> <Gold.Chemscore.Hbond>
1.6571

> <Gold.Chemscore.Metal>
0.0000

> <Gold.Chemscore.Lipo>
74.9317

> <Gold.Chemscore.Internal_Hbond>
0.0000

> <Gold.Chemscore.DEClash>
0.0724

> <Gold.Chemscore.DEInternal>
0.8405

> <Gold.Chemscore.Rot>
2.4490

> <Gold.Chemscore.Internal.Correction>
   9.000000E+99

> <Gold.Chemscore.Hbonds>
donor molecule, donor type, donor heavy atom, donor atom, acceptor molecule, acceptor atom, score
      P1  H  6931  6943       L1    22  0.83
      P1  H  6934  6947       L1    13  0.53

> <Gold.Chemscore.Hbond.Weighted>
-5.5348

> <Gold.Chemscore.Metal.Weighted>
-0.0000

> <Gold.Chemscore.Lipo.Weighted>
-8.7670

> <Gold.Chemscore.Internal_Hbond.Weighted>
0.0000

> <Gold.Chemscore.DEClash.Weighted>
0.0724

> <Gold.Chemscore.DEInternal.Weighted>
0.8405

> <Gold.Chemscore.Rot.Weighted>
6.2694

> <Gold.Chemscore.Internal.Correction.Weighted>
   9.000000E+99

> <Gold.Protein.RotatedTorsions>
[ 6907 6896 6895 6894 ] final -102.57 input  -60.11 | X-H torsion
[ 7974 7965 7964 7962 ] final   26.87 input  175.53 | X-H torsion
[ 8008 7997 7996 7995 ] final   41.75 input   59.86 | X-H torsion
[ 10167 10162 10161 10158 ] final -104.81 input  -65.29 | X-H torsion
[ 10718 10713 10712 10709 ] final -167.02 input   66.30 | X-H torsion
[ 10763 10752 10751 10750 ] final   70.61 input  -60.55 | X-H torsion
[ 11005 11000 10999 10996 ] final   27.83 input  -57.11 | X-H torsion

> <Gold.Protein.ActiveResidues>
 VAL166  LYS551  ARG553  GLY616  TRP617  ASP618  TYR619  PRO620  LYS621  CYS622 
 ASP623  PHE694  ASN695  SER759  ASP760  ASP761  ALA762  ILE779  LEU786  VAL792 
 PHE793  MET794  SER795  GLU796  ALA797  LYS798  CYS799  TRP800  GLU811  SER814 

> <Gold.Protein.RotatedAtoms>
  150.7202  134.0561  159.3814 H   0  0  0  0  0  0  0  0  0  0  0  0  # atno 6907 bound_to 6896
  151.8539  135.0546  160.0471 H   0  0  0  0  0  0  0  0  0  0  0  0  # atno 6908 bound_to 6896
  152.2769  133.5398  159.5510 H   0  0  0  0  0  0  0  0  0  0  0  0  # atno 6909 bound_to 6896
  146.1815  139.7269  142.8897 H   0  0  0  0  0  0  0  0  0  0  0  0  # atno 7974 bound_to 7965
  155.2747  140.3368  155.4262 H   0  0  0  0  0  0  0  0  0  0  0  0  # atno 8008 bound_to 7997
  156.2117  140.1772  156.7722 H   0  0  0  0  0  0  0  0  0  0  0  0  # atno 8009 bound_to 7997
  154.5695  140.0672  156.8927 H   0  0  0  0  0  0  0  0  0  0  0  0  # atno 8010 bound_to 7997
  140.2053  143.3787  152.1095 H   0  0  0  0  0  0  0  0  0  0  0  0  # atno 10167 bound_to 10162
  156.6763  130.9104  151.3051 H   0  0  0  0  0  0  0  0  0  0  0  0  # atno 10718 bound_to 10713
  153.0351  135.5167  154.7467 H   0  0  0  0  0  0  0  0  0  0  0  0  # atno 10763 bound_to 10752
  154.6450  135.2917  155.0060 H   0  0  0  0  0  0  0  0  0  0  0  0  # atno 10764 bound_to 10752
  154.0964  135.6642  153.4913 H   0  0  0  0  0  0  0  0  0  0  0  0  # atno 10765 bound_to 10752
  140.3221  134.2532  155.7715 H   0  0  0  0  0  0  0  0  0  0  0  0  # atno 11005 bound_to 11000
  145.4063  141.0391  143.3042 LP  0  0  0  0  0  0  0  0  0  0  0  0  # atno 17320 bound_to 7965
  144.8323  139.5608  143.6938 LP  0  0  0  0  0  0  0  0  0  0  0  0  # atno 17321 bound_to 7965
  139.5201  144.7028  151.5443 LP  0  0  0  0  0  0  0  0  0  0  0  0  # atno 17342 bound_to 10162
  140.6362  143.8980  150.6649 LP  0  0  0  0  0  0  0  0  0  0  0  0  # atno 17343 bound_to 10162
  157.7059  130.9385  150.0930 LP  0  0  0  0  0  0  0  0  0  0  0  0  # atno 17370 bound_to 10713
  156.1900  130.3654  149.8922 LP  0  0  0  0  0  0  0  0  0  0  0  0  # atno 17371 bound_to 10713
  141.2084  133.7778  157.0061 LP  0  0  0  0  0  0  0  0  0  0  0  0  # atno 17394 bound_to 11000
  140.0933  134.9579  157.1810 LP  0  0  0  0  0  0  0  0  0  0  0  0  # atno 17395 bound_to 11000

$$$$
