AV-unprocessed.smi:443|AV-procd|sdf|2586|dock9
  -GOLD-   2262022573D 1   1.00000     0.00000
 Structure written by MMmdl.
 48 49  0  0  0  0  0  0  0  0  1 V2000
  147.8248  136.7549  163.2491 C   0  0  0  0  0  0  0  0  0  0  0  0
  148.1155  135.9080  162.0399 C   0  0  0  0  0  0  0  0  0  0  0  0
  148.5426  136.5272  160.9887 N   0  0  0  0  0  0  0  0  0  0  0  0
  148.8384  135.8461  159.8247 N   0  0  0  0  0  0  0  0  0  0  0  0
  149.3651  136.6954  158.7510 C   0  0  0  0  0  0  0  0  0  0  0  0
  150.5472  137.5626  159.2471 C   0  0  1  0  0  0  0  0  0  0  0  0
  151.7613  136.8937  158.9704 O   0  0  0  0  0  0  0  0  0  0  0  0
  150.6084  138.9356  158.5617 C   0  0  0  0  0  0  0  0  0  0  0  0
  151.8191  139.5785  158.9382 O   0  0  0  0  0  0  0  0  0  0  0  0
  151.9385  140.9396  158.7439 C   0  0  0  0  0  0  0  0  0  0  0  0
  151.0033  141.6965  157.9910 C   0  0  0  0  0  0  0  0  0  0  0  0
  151.1749  143.0811  157.8113 C   0  0  0  0  0  0  0  0  0  0  0  0
  152.2826  143.7314  158.3795 C   0  0  0  0  0  0  0  0  0  0  0  0
  153.2148  142.9947  159.1306 C   0  0  0  0  0  0  0  0  0  0  0  0
  153.0522  141.6036  159.3221 C   0  0  0  0  0  0  0  0  0  0  0  0
  154.0816  140.8439  160.1609 C   0  0  0  0  0  0  0  0  0  0  0  0
  154.2180  141.4496  161.5676 C   0  0  0  0  0  0  0  0  0  0  0  0
  155.4405  140.7568  159.4488 C   0  0  0  0  0  0  0  0  0  0  0  0
  148.7132  134.4989  159.6580 C   0  0  0  0  0  0  0  0  0  0  0  0
  148.9950  133.9317  158.6015 O   0  0  0  0  0  0  0  0  0  0  0  0
  148.2282  133.8035  160.8523 C   0  0  0  0  0  0  0  0  0  0  0  0
  148.0815  132.3896  160.7224 C   0  0  0  0  0  0  0  0  0  0  0  0
  147.9804  131.2401  160.6298 N   0  0  0  0  0  0  0  0  0  0  0  0
  147.9440  134.4586  162.0056 C   0  0  0  0  0  0  0  0  0  0  0  0
  147.4446  133.7782  163.2728 C   0  0  0  0  0  0  0  0  0  0  0  0
  146.8627  136.4938  163.6897 H   0  0  0  0  0  0  0  0  0  0  0  0
  147.7875  137.8149  162.9984 H   0  0  0  0  0  0  0  0  0  0  0  0
  148.5949  136.6193  164.0085 H   0  0  0  0  0  0  0  0  0  0  0  0
  149.6465  136.0942  157.8838 H   0  0  0  0  0  0  0  0  0  0  0  0
  148.5605  137.3339  158.3809 H   0  0  0  0  0  0  0  0  0  0  0  0
  150.4917  137.7138  160.3264 H   0  0  0  0  0  0  0  0  0  0  0  0
  152.4365  137.2545  159.5244 H   0  0  0  0  0  0  0  0  0  0  0  0
  150.5863  138.7997  157.4791 H   0  0  0  0  0  0  0  0  0  0  0  0
  149.7468  139.5414  158.8484 H   0  0  0  0  0  0  0  0  0  0  0  0
  150.1399  141.2377  157.5341 H   0  0  0  0  0  0  0  0  0  0  0  0
  150.4559  143.6441  157.2347 H   0  0  0  0  0  0  0  0  0  0  0  0
  152.4170  144.7941  158.2415 H   0  0  0  0  0  0  0  0  0  0  0  0
  154.0602  143.5084  159.5639 H   0  0  0  0  0  0  0  0  0  0  0  0
  153.7444  139.8180  160.3014 H   0  0  0  0  0  0  0  0  0  0  0  0
  153.2604  141.4426  162.0892 H   0  0  0  0  0  0  0  0  0  0  0  0
  154.5714  142.4802  161.5338 H   0  0  0  0  0  0  0  0  0  0  0  0
  154.9262  140.8844  162.1734 H   0  0  0  0  0  0  0  0  0  0  0  0
  155.3408  140.2786  158.4741 H   0  0  0  0  0  0  0  0  0  0  0  0
  156.1498  140.1688  160.0319 H   0  0  0  0  0  0  0  0  0  0  0  0
  155.8799  141.7424  159.2931 H   0  0  0  0  0  0  0  0  0  0  0  0
  147.5343  132.6938  163.2178 H   0  0  0  0  0  0  0  0  0  0  0  0
  146.3942  134.0176  163.4416 H   0  0  0  0  0  0  0  0  0  0  0  0
  148.0165  134.1034  164.1424 H   0  0  0  0  0  0  0  0  0  0  0  0
  1  2  1  0  0  0  0
  1 26  1  0  0  0  0
  1 27  1  0  0  0  0
  1 28  1  0  0  0  0
  2 24  1  0  0  0  0
  2  3  2  0  0  0  0
  3  4  1  0  0  0  0
  4  5  1  0  0  0  0
  4 19  1  0  0  0  0
  5  6  1  0  0  0  0
  5 29  1  0  0  0  0
  5 30  1  0  0  0  0
  6  7  1  0  0  0  0
  6  8  1  0  0  0  0
  6 31  1  0  0  0  0
  7 32  1  0  0  0  0
  8  9  1  0  0  0  0
  8 33  1  0  0  0  0
  8 34  1  0  0  0  0
  9 10  1  0  0  0  0
 10 15  1  0  0  0  0
 10 11  2  0  0  0  0
 11 12  1  0  0  0  0
 11 35  1  0  0  0  0
 12 13  2  0  0  0  0
 12 36  1  0  0  0  0
 13 14  1  0  0  0  0
 13 37  1  0  0  0  0
 14 15  2  0  0  0  0
 14 38  1  0  0  0  0
 15 16  1  0  0  0  0
 16 17  1  0  0  0  0
 16 18  1  0  0  0  0
 16 39  1  0  0  0  0
 17 40  1  0  0  0  0
 17 41  1  0  0  0  0
 17 42  1  0  0  0  0
 18 43  1  0  0  0  0
 18 44  1  0  0  0  0
 18 45  1  0  0  0  0
 19 20  2  0  0  0  0
 19 21  1  0  0  0  0
 21 22  1  0  0  0  0
 21 24  2  0  0  0  0
 22 23  3  0  0  0  0
 24 25  1  0  0  0  0
 25 46  1  0  0  0  0
 25 47  1  0  0  0  0
 25 48  1  0  0  0  0
M  END
> <s_m_source_file>
AV-unprocessed.smi

> <i_m_source_file_index>
443

> <i_lp_mmshare_version>
43012

> <i_f3d_flags>
0

> <s_epik_input>
TiNDYyhjMVtDSDNdKWMoPU8pbihuYzFbQ0gzXSlbQ0gyXVtDQEhdKFtPSF0pW0NIMl1PYzJbY0hdW2NIXVtjSF1bY0hdYzJbQ0hdKFtDSDNdKVtDSDNd

> <s_epik_cmdline>
J2VwaWtfcHl0aG9uJywgJy1waCcsICc3LjAnLCAnLXRuJywgJzgnLCAnLW1hJywgJzIwMCcsICctbWV0YWxfYmluZGluZycsICctaW1hZScsICc8aW5maWxlLm1hZT4nLCAnLW9tYWUnLCAnPG91dGZpbGUubWFlPic=

> <r_lp_tautomer_probability>
1

> <r_epik_Ionization_Penalty>
1.17331e-07

> <r_epik_Ionization_Penalty_Charging>
1.57223e-10

> <r_epik_Ionization_Penalty_Neutral>
1.17174e-07

> <r_epik_State_Penalty>
-0

> <r_epik_Charging_Adjusted_Penalty>
1.57223e-10

> <i_epik_Tot_Q>
0

> <i_epik_Tot_abs_Q>
0

> <r_epik_Metal_State_Penalty>
-0

> <b_epik_Metal_Only>
0

> <s_lp_Force_Field>
OPLS_2005

> <r_lp_Energy>
30.2937

> <b_lp_Chiralities_Consistent>
1

> <s_lp_Variant>
AV-unprocessed.smi:443-2

> <Gold.Version>
5.8.1

> <Gold.Id.Protein>
6NUR|6NUR_protein|mol2

> <Gold.PLP.Fitness>
59.8103

> <Gold.PLP.PLP>
-51.8802

> <Gold.PLP.part.hbond>
-3.9762

> <Gold.PLP.part.metal>
0.0000

> <Gold.PLP.part.buried>
-1.2222

> <Gold.PLP.part.nonpolar>
-48.6385

> <Gold.PLP.part.repulsive>
0.0000

> <Gold.PLP.ligand.clash>
0.0000

> <Gold.PLP.ligand.torsion>
0.7983

> <Gold.PLP.Chemscore.Hbond>
3.1556

> <Gold.PLP.Chemscore.CHOScore>
0.0000

> <Gold.PLP.Chemscore.Metal>
0.0000

> <Gold.Chemscore.Hbonds>
donor molecule, donor type, donor heavy atom, donor atom, acceptor molecule, acceptor atom, score
      P1  H  6896  6907       L1     7  0.65
      P1  H  6896  6909       L1    20  0.20
      P1  H  6931  6943       L1     3  0.85

> <Gold.PLP.Chemscore.Internal.Correction>
0.0600

> <Gold.Rescore>
     Score         DG    S(hbond)    S(metal)    S(lipo)     H(rot)  DE(clash)    DE(int)     intcor
     16.83     -17.89       0.56        0.00     142.86       2.41       0.13       0.93       ----

> <Gold.Chemscore.Fitness>
16.8309

> <Gold.Chemscore.DG>
-17.8886

> <Gold.Chemscore.ZeroCoef>
-5.4800

> <Gold.Chemscore.Hbond>
0.5568

> <Gold.Chemscore.Metal>
0.0000

> <Gold.Chemscore.Lipo>
142.8559

> <Gold.Chemscore.Internal_Hbond>
0.0000

> <Gold.Chemscore.DEClash>
0.1300

> <Gold.Chemscore.DEInternal>
0.9277

> <Gold.Chemscore.Rot>
2.4084

> <Gold.Chemscore.Internal.Correction>
   9.000000E+99

> <Gold.Chemscore.Hbonds>
donor molecule, donor type, donor heavy atom, donor atom, acceptor molecule, acceptor atom, score
      P1  H  6896  6907       L1     7  0.04
      P1  H  6931  6943       L1     3  0.14

> <Gold.Chemscore.Hbond.Weighted>
-1.8599

> <Gold.Chemscore.Metal.Weighted>
-0.0000

> <Gold.Chemscore.Lipo.Weighted>
-16.7141

> <Gold.Chemscore.Internal_Hbond.Weighted>
0.0000

> <Gold.Chemscore.DEClash.Weighted>
0.1300

> <Gold.Chemscore.DEInternal.Weighted>
0.9277

> <Gold.Chemscore.Rot.Weighted>
6.1655

> <Gold.Chemscore.Internal.Correction.Weighted>
   9.000000E+99

> <Gold.Protein.RotatedTorsions>
[ 6907 6896 6895 6894 ] final    5.81 input  -60.11 | X-H torsion
[ 7974 7965 7964 7962 ] final -111.15 input  175.53 | X-H torsion
[ 8008 7997 7996 7995 ] final   64.42 input   59.86 | X-H torsion
[ 10167 10162 10161 10158 ] final  -77.95 input  -65.29 | X-H torsion
[ 10718 10713 10712 10709 ] final   88.32 input   66.30 | X-H torsion
[ 10763 10752 10751 10750 ] final  117.20 input  -60.55 | X-H torsion
[ 11005 11000 10999 10996 ] final   23.51 input  -57.11 | X-H torsion

> <Gold.Protein.ActiveResidues>
 VAL166  LYS551  ARG553  GLY616  TRP617  ASP618  TYR619  PRO620  LYS621  CYS622 
 ASP623  PHE694  ASN695  SER759  ASP760  ASP761  ALA762  ILE779  LEU786  VAL792 
 PHE793  MET794  SER795  GLU796  ALA797  LYS798  CYS799  TRP800  GLU811  SER814 

> <Gold.Protein.RotatedAtoms>
  151.6636  135.0986  160.0184 H   0  0  0  0  0  0  0  0  0  0  0  0  # atno 6907 bound_to 6896
  152.3932  133.6705  159.6263 H   0  0  0  0  0  0  0  0  0  0  0  0  # atno 6908 bound_to 6896
  150.7844  133.8835  159.3334 H   0  0  0  0  0  0  0  0  0  0  0  0  # atno 6909 bound_to 6896
  145.1596  140.8871  143.3598 H   0  0  0  0  0  0  0  0  0  0  0  0  # atno 7974 bound_to 7965
  155.6457  140.3497  155.4730 H   0  0  0  0  0  0  0  0  0  0  0  0  # atno 8008 bound_to 7997
  155.9889  140.1189  157.0680 H   0  0  0  0  0  0  0  0  0  0  0  0  # atno 8009 bound_to 7997
  154.4213  140.1123  156.5524 H   0  0  0  0  0  0  0  0  0  0  0  0  # atno 8010 bound_to 7997
  140.4725  143.2423  151.8183 H   0  0  0  0  0  0  0  0  0  0  0  0  # atno 10167 bound_to 10162
  157.6948  131.0290  150.3256 H   0  0  0  0  0  0  0  0  0  0  0  0  # atno 10718 bound_to 10713
  153.5487  135.3544  155.2750 H   0  0  0  0  0  0  0  0  0  0  0  0  # atno 10763 bound_to 10752
  154.8709  135.4108  154.2961 H   0  0  0  0  0  0  0  0  0  0  0  0  # atno 10764 bound_to 10752
  153.3683  135.7063  153.6726 H   0  0  0  0  0  0  0  0  0  0  0  0  # atno 10765 bound_to 10752
  140.3688  134.2045  155.7668 H   0  0  0  0  0  0  0  0  0  0  0  0  # atno 11005 bound_to 11000
  145.0345  139.3312  143.6008 LP  0  0  0  0  0  0  0  0  0  0  0  0  # atno 17320 bound_to 7965
  146.3484  139.9695  142.8708 LP  0  0  0  0  0  0  0  0  0  0  0  0  # atno 17321 bound_to 7965
  139.4820  144.4874  151.9229 LP  0  0  0  0  0  0  0  0  0  0  0  0  # atno 17342 bound_to 10162
  140.3959  144.2556  150.5896 LP  0  0  0  0  0  0  0  0  0  0  0  0  # atno 17343 bound_to 10162
  156.3737  130.3868  149.7155 LP  0  0  0  0  0  0  0  0  0  0  0  0  # atno 17370 bound_to 10713
  156.4561  130.7929  151.2950 LP  0  0  0  0  0  0  0  0  0  0  0  0  # atno 17371 bound_to 10713
  141.1961  133.8090  157.0686 LP  0  0  0  0  0  0  0  0  0  0  0  0  # atno 17394 bound_to 11000
  140.0568  134.9776  157.1234 LP  0  0  0  0  0  0  0  0  0  0  0  0  # atno 17395 bound_to 11000

$$$$
