AV-unprocessed.smi:2030|AV-procd|sdf|8226|dock6
  -GOLD-   2272010493D 1   1.00000     0.00000
 Structure written by MMmdl.
 34 35  0  0  0  0  0  0  0  0  2 V2000
  145.0405  139.5538  155.5089 C   0  0  0  0  0  0  0  0  0  0  0  0
  146.1671  140.3561  155.0376 N   0  0  0  0  0  0  0  0  0  0  0  0
  147.3538  139.6654  154.9101 N   0  0  0  0  0  0  0  0  0  0  0  0
  148.4888  140.2635  154.7211 C   0  0  0  0  0  0  0  0  0  0  0  0
  149.7401  139.4542  154.6150 C   0  0  0  0  0  0  0  0  0  0  0  0
  149.5722  138.2394  154.4514 O   0  0  0  0  0  0  0  0  0  0  0  0
  150.9424  140.0980  154.6986 N   0  5  0  0  0  0  0  0  0  0  0  0
  151.5970  140.5091  155.9409 C   0  0  0  0  0  0  0  0  0  0  0  0
  150.7831  141.6196  156.6466 C   0  0  0  0  0  0  0  0  0  0  0  0
  151.4907  142.3104  157.8111 C   0  0  0  0  0  0  0  0  0  0  0  0
  151.6140  143.7185  157.8443 C   0  0  0  0  0  0  0  0  0  0  0  0
  152.2671  144.3138  158.9404 C   0  0  0  0  0  0  0  0  0  0  0  0
  152.7677  143.4863  159.9635 C   0  0  0  0  0  0  0  0  0  0  0  0
  152.5891  142.0939  159.8455 C   0  0  0  0  0  0  0  0  0  0  0  0
  151.9607  141.5133  158.8017 N   0  0  0  0  0  0  0  0  0  0  0  0
  148.5503  141.7792  154.6452 C   0  0  0  0  0  0  0  0  0  0  0  0
  147.2216  142.3933  154.1617 C   0  0  0  0  0  0  0  0  0  0  0  0
  146.0025  141.6673  154.7360 C   0  0  0  0  0  0  0  0  0  0  0  0
  144.9401  142.2739  154.8755 O   0  0  0  0  0  0  0  0  0  0  0  0
  144.6642  139.9420  156.4562 H   0  0  0  0  0  0  0  0  0  0  0  0
  145.3192  138.5107  155.6674 H   0  0  0  0  0  0  0  0  0  0  0  0
  144.2258  139.5690  154.7837 H   0  0  0  0  0  0  0  0  0  0  0  0
  151.7335  139.6737  156.6291 H   0  0  0  0  0  0  0  0  0  0  0  0
  152.5982  140.8937  155.7427 H   0  0  0  0  0  0  0  0  0  0  0  0
  150.5237  142.3836  155.9132 H   0  0  0  0  0  0  0  0  0  0  0  0
  149.8314  141.2154  156.9956 H   0  0  0  0  0  0  0  0  0  0  0  0
  151.2222  144.3273  157.0429 H   0  0  0  0  0  0  0  0  0  0  0  0
  152.3820  145.3861  158.9952 H   0  0  0  0  0  0  0  0  0  0  0  0
  153.2755  143.9080  160.8180 H   0  0  0  0  0  0  0  0  0  0  0  0
  152.9581  141.4287  160.6121 H   0  0  0  0  0  0  0  0  0  0  0  0
  148.8092  142.1766  155.6270 H   0  0  0  0  0  0  0  0  0  0  0  0
  149.3382  142.1027  153.9643 H   0  0  0  0  0  0  0  0  0  0  0  0
  147.1805  143.4539  154.4123 H   0  0  0  0  0  0  0  0  0  0  0  0
  147.1606  142.3242  153.0750 H   0  0  0  0  0  0  0  0  0  0  0  0
  1  2  1  0  0  0  0
  1 20  1  0  0  0  0
  1 21  1  0  0  0  0
  1 22  1  0  0  0  0
  2 18  1  0  0  0  0
  2  3  1  0  0  0  0
  3  4  2  0  0  0  0
  4  5  1  0  0  0  0
  4 16  1  0  0  0  0
  5  6  2  0  0  0  0
  5  7  1  0  0  0  0
  7  8  1  0  0  0  0
  8  9  1  0  0  0  0
  8 23  1  0  0  0  0
  8 24  1  0  0  0  0
  9 10  1  0  0  0  0
  9 25  1  0  0  0  0
  9 26  1  0  0  0  0
 10 15  1  0  0  0  0
 10 11  2  0  0  0  0
 11 12  1  0  0  0  0
 11 27  1  0  0  0  0
 12 13  2  0  0  0  0
 12 28  1  0  0  0  0
 13 14  1  0  0  0  0
 13 29  1  0  0  0  0
 14 15  2  0  0  0  0
 14 30  1  0  0  0  0
 16 17  1  0  0  0  0
 16 31  1  0  0  0  0
 16 32  1  0  0  0  0
 17 18  1  0  0  0  0
 17 33  1  0  0  0  0
 17 34  1  0  0  0  0
 18 19  2  0  0  0  0
M  CHG  1   7  -1
M  END
> <s_m_source_file>
AV-unprocessed.smi

> <i_m_source_file_index>
2030

> <i_lp_mmshare_version>
43012

> <i_f3d_flags>
0

> <s_epik_input>
Tz1DMVtDSDJdW0NIMl1DKD1OTjFbQ0gzXSlDKD1PKVtOSF1bQ0gyXVtDSDJdYzJbY0hdW2NIXVtjSF1bY0hdbjI=

> <s_epik_cmdline>
J2VwaWtfcHl0aG9uJywgJy1waCcsICc3LjAnLCAnLXRuJywgJzgnLCAnLW1hJywgJzIwMCcsICctbWV0YWxfYmluZGluZycsICctaW1hZScsICc8aW5maWxlLm1hZT4nLCAnLW9tYWUnLCAnPG91dGZpbGUubWFlPic=

> <r_epik_Ionization_Penalty>
5.44594

> <r_epik_Ionization_Penalty_Charging>
5.3715

> <r_epik_Ionization_Penalty_Neutral>
0.0744438

> <r_epik_State_Penalty>
5.38529

> <r_epik_Charging_Adjusted_Penalty>
10.7568

> <i_epik_Tot_Q>
-1

> <i_epik_Tot_abs_Q>
1

> <r_epik_Metal_State_Penalty>
1.42988

> <b_epik_Metal_Only>
1

> <s_epik_Chemistry_Notes>
This compound has an imine and may undergo hydrolysis.

> <s_lp_Force_Field>
OPLS_2005

> <r_lp_Energy>
26.3213

> <b_lp_Chiralities_Consistent>
1

> <s_lp_Variant>
AV-unprocessed.smi:2030-3

> <Gold.Version>
5.8.1

> <Gold.Id.Protein>
6NUR|6NUR_protein|mol2

> <Gold.PLP.Fitness>
39.5940

> <Gold.PLP.PLP>
-38.3460

> <Gold.PLP.part.hbond>
-1.0000

> <Gold.PLP.part.metal>
0.0000

> <Gold.PLP.part.buried>
-4.6912

> <Gold.PLP.part.nonpolar>
-33.8370

> <Gold.PLP.part.repulsive>
0.5117

> <Gold.PLP.ligand.clash>
0.0000

> <Gold.PLP.ligand.torsion>
0.8912

> <Gold.PLP.Chemscore.Hbond>
1.0000

> <Gold.PLP.Chemscore.CHOScore>
0.0000

> <Gold.PLP.Chemscore.Metal>
0.0000

> <Gold.Chemscore.Hbonds>
donor molecule, donor type, donor heavy atom, donor atom, acceptor molecule, acceptor atom, score
      P1  H  7989  7998       L1     7  1.00

> <Gold.PLP.Chemscore.Internal.Correction>
0.0304

> <Gold.Rescore>
     Score         DG    S(hbond)    S(metal)    S(lipo)     H(rot)  DE(clash)    DE(int)     intcor
     14.45     -15.50       0.87        0.00      91.82       1.42       0.14       0.91       ----

> <Gold.Chemscore.Fitness>
14.4464

> <Gold.Chemscore.DG>
-15.4958

> <Gold.Chemscore.ZeroCoef>
-5.4800

> <Gold.Chemscore.Hbond>
0.8691

> <Gold.Chemscore.Metal>
0.0000

> <Gold.Chemscore.Lipo>
91.8150

> <Gold.Chemscore.Internal_Hbond>
0.0000

> <Gold.Chemscore.DEClash>
0.1402

> <Gold.Chemscore.DEInternal>
0.9092

> <Gold.Chemscore.Rot>
1.4178

> <Gold.Chemscore.Internal.Correction>
   9.000000E+99

> <Gold.Chemscore.Hbonds>
donor molecule, donor type, donor heavy atom, donor atom, acceptor molecule, acceptor atom, score
      P1  H  7989  7998       L1     7  0.64

> <Gold.Chemscore.Hbond.Weighted>
-2.9029

> <Gold.Chemscore.Metal.Weighted>
-0.0000

> <Gold.Chemscore.Lipo.Weighted>
-10.7424

> <Gold.Chemscore.Internal_Hbond.Weighted>
0.0000

> <Gold.Chemscore.DEClash.Weighted>
0.1402

> <Gold.Chemscore.DEInternal.Weighted>
0.9092

> <Gold.Chemscore.Rot.Weighted>
3.6295

> <Gold.Chemscore.Internal.Correction.Weighted>
   9.000000E+99

> <Gold.Protein.RotatedTorsions>
[ 6907 6896 6895 6894 ] final  108.08 input  -60.11 | X-H torsion
[ 7974 7965 7964 7962 ] final   21.58 input  175.53 | X-H torsion
[ 8008 7997 7996 7995 ] final -171.22 input   59.86 | X-H torsion
[ 10167 10162 10161 10158 ] final -121.13 input  -65.29 | X-H torsion
[ 10718 10713 10712 10709 ] final -145.36 input   66.30 | X-H torsion
[ 10763 10752 10751 10750 ] final   29.17 input  -60.55 | X-H torsion
[ 11005 11000 10999 10996 ] final  -17.82 input  -57.11 | X-H torsion

> <Gold.Protein.ActiveResidues>
 VAL166  LYS551  ARG553  GLY616  TRP617  ASP618  TYR619  PRO620  LYS621  CYS622 
 ASP623  PHE694  ASN695  SER759  ASP760  ASP761  ALA762  ILE779  LEU786  VAL792 
 PHE793  MET794  SER795  GLU796  ALA797  LYS798  CYS799  TRP800  GLU811  SER814 

> <Gold.Protein.RotatedAtoms>
  152.5127  133.9142  159.7502 H   0  0  0  0  0  0  0  0  0  0  0  0  # atno 6907 bound_to 6896
  150.9528  133.6522  159.2775 H   0  0  0  0  0  0  0  0  0  0  0  0  # atno 6908 bound_to 6896
  151.3794  135.0942  159.9544 H   0  0  0  0  0  0  0  0  0  0  0  0  # atno 6909 bound_to 6896
  146.2065  139.8007  142.8722 H   0  0  0  0  0  0  0  0  0  0  0  0  # atno 7974 bound_to 7965
  155.9286  140.1087  157.1150 H   0  0  0  0  0  0  0  0  0  0  0  0  # atno 8008 bound_to 7997
  154.4067  140.1242  156.4839 H   0  0  0  0  0  0  0  0  0  0  0  0  # atno 8009 bound_to 7997
  155.7107  140.3471  155.4975 H   0  0  0  0  0  0  0  0  0  0  0  0  # atno 8010 bound_to 7997
  140.0283  143.5274  152.2188 H   0  0  0  0  0  0  0  0  0  0  0  0  # atno 10167 bound_to 10162
  156.3815  130.7839  151.2032 H   0  0  0  0  0  0  0  0  0  0  0  0  # atno 10718 bound_to 10713
  153.0447  135.6495  154.0849 H   0  0  0  0  0  0  0  0  0  0  0  0  # atno 10763 bound_to 10752
  154.0549  135.2892  155.3336 H   0  0  0  0  0  0  0  0  0  0  0  0  # atno 10764 bound_to 10752
  154.6695  135.5361  153.8186 H   0  0  0  0  0  0  0  0  0  0  0  0  # atno 10765 bound_to 10752
  140.8206  133.8071  155.9656 H   0  0  0  0  0  0  0  0  0  0  0  0  # atno 11005 bound_to 11000
  145.3299  141.0264  143.3452 LP  0  0  0  0  0  0  0  0  0  0  0  0  # atno 17320 bound_to 7965
  144.8806  139.4909  143.6725 LP  0  0  0  0  0  0  0  0  0  0  0  0  # atno 17321 bound_to 7965
  139.6093  144.7604  151.2989 LP  0  0  0  0  0  0  0  0  0  0  0  0  # atno 17342 bound_to 10162
  140.7313  143.6856  150.7965 LP  0  0  0  0  0  0  0  0  0  0  0  0  # atno 17343 bound_to 10162
  157.7492  131.0343  150.4309 LP  0  0  0  0  0  0  0  0  0  0  0  0  # atno 17370 bound_to 10713
  156.4554  130.4020  149.6609 LP  0  0  0  0  0  0  0  0  0  0  0  0  # atno 17371 bound_to 10713
  140.9103  134.2269  157.4990 LP  0  0  0  0  0  0  0  0  0  0  0  0  # atno 17394 bound_to 11000
  139.8709  134.9747  156.4855 LP  0  0  0  0  0  0  0  0  0  0  0  0  # atno 17395 bound_to 11000

$$$$
