AV-unprocessed.smi:1490|AV-procd|sdf|6030|dock4
  -GOLD-   22720 6133D 1   1.00000     0.00000
 Structure written by MMmdl.
 38 39  0  0  0  0  0  0  0  0  2 V2000
  153.5744  138.6693  154.4255 C   0  0  0  0  0  0  0  0  0  0  0  0
  152.8938  139.4697  155.3752 O   0  0  0  0  0  0  0  0  0  0  0  0
  152.0551  138.7092  156.2296 C   0  0  0  0  0  0  0  0  0  0  0  0
  151.8183  139.4817  157.5349 C   0  0  0  0  0  0  0  0  0  0  0  0
  151.2902  140.8320  157.2933 N   0  0  0  0  0  0  0  0  0  0  0  0
  150.4400  141.2894  156.3320 C   0  0  0  0  0  0  0  0  0  0  0  0
  149.7063  140.3284  155.0470 S   0  0  0  0  0  0  0  0  0  0  0  0
  148.3174  141.3151  154.4214 C   0  0  0  0  0  0  0  0  0  0  0  0
  147.2494  140.4691  153.7313 C   0  0  0  0  0  0  0  0  0  0  0  0
  146.1594  140.2920  154.2734 O   0  0  0  0  0  0  0  0  0  0  0  0
  147.5617  139.9609  152.5303 N   0  0  0  0  0  0  0  0  0  0  0  0
  146.6627  139.1483  151.7239 C   0  0  0  0  0  0  0  0  0  0  0  0
  146.1622  137.9715  152.4519 C   0  0  0  0  0  0  0  0  0  0  0  0
  145.7694  137.0456  153.0237 N   0  0  0  0  0  0  0  0  0  0  0  0
  150.2518  142.6210  156.5473 N   0  3  0  0  0  0  0  0  0  0  0  0
  150.9864  143.0206  157.6654 C   0  0  0  0  0  0  0  0  0  0  0  0
  151.1139  144.2648  158.2750 C   0  0  0  0  0  0  0  0  0  0  0  0
  151.9441  144.3319  159.4136 C   0  0  0  0  0  0  0  0  0  0  0  0
  152.1494  145.8421  160.2218 Cl  0  0  0  0  0  0  0  0  0  0  0  0
  152.6077  143.1879  159.9040 C   0  0  0  0  0  0  0  0  0  0  0  0
  152.4722  141.9311  159.2781 C   0  0  0  0  0  0  0  0  0  0  0  0
  151.6522  141.8756  158.1517 C   0  0  0  0  0  0  0  0  0  0  0  0
  154.1966  139.3021  153.7925 H   0  0  0  0  0  0  0  0  0  0  0  0
  152.8726  138.1366  153.7826 H   0  0  0  0  0  0  0  0  0  0  0  0
  154.2232  137.9423  154.9157 H   0  0  0  0  0  0  0  0  0  0  0  0
  151.1039  138.5088  155.7342 H   0  0  0  0  0  0  0  0  0  0  0  0
  152.5175  137.7458  156.4503 H   0  0  0  0  0  0  0  0  0  0  0  0
  151.1356  138.9430  158.1925 H   0  0  0  0  0  0  0  0  0  0  0  0
  152.7553  139.5842  158.0827 H   0  0  0  0  0  0  0  0  0  0  0  0
  147.8667  141.8545  155.2553 H   0  0  0  0  0  0  0  0  0  0  0  0
  148.6931  142.0613  153.7207 H   0  0  0  0  0  0  0  0  0  0  0  0
  148.4776  140.1512  152.1503 H   0  0  0  0  0  0  0  0  0  0  0  0
  145.8055  139.7524  151.4265 H   0  0  0  0  0  0  0  0  0  0  0  0
  147.1569  138.8126  150.8110 H   0  0  0  0  0  0  0  0  0  0  0  0
  150.6042  145.1410  157.9014 H   0  0  0  0  0  0  0  0  0  0  0  0
  153.2346  143.2748  160.7797 H   0  0  0  0  0  0  0  0  0  0  0  0
  152.9840  141.0621  159.6646 H   0  0  0  0  0  0  0  0  0  0  0  0
  149.6601  143.2089  155.9743 H   0  0  0  0  0  0  0  0  0  0  0  0
  1  2  1  0  0  0  0
  1 23  1  0  0  0  0
  1 24  1  0  0  0  0
  1 25  1  0  0  0  0
  2  3  1  0  0  0  0
  3  4  1  0  0  0  0
  3 26  1  0  0  0  0
  3 27  1  0  0  0  0
  4  5  1  0  0  0  0
  4 28  1  0  0  0  0
  4 29  1  0  0  0  0
  5 22  1  0  0  0  0
  5  6  1  0  0  0  0
  6  7  1  0  0  0  0
  6 15  2  0  0  0  0
  7  8  1  0  0  0  0
  8  9  1  0  0  0  0
  8 30  1  0  0  0  0
  8 31  1  0  0  0  0
  9 10  2  0  0  0  0
  9 11  1  0  0  0  0
 11 12  1  0  0  0  0
 11 32  1  0  0  0  0
 12 13  1  0  0  0  0
 12 33  1  0  0  0  0
 12 34  1  0  0  0  0
 13 14  3  0  0  0  0
 15 16  1  0  0  0  0
 15 38  1  0  0  0  0
 16 22  2  0  0  0  0
 16 17  1  0  0  0  0
 17 18  2  0  0  0  0
 17 35  1  0  0  0  0
 18 19  1  0  0  0  0
 18 20  1  0  0  0  0
 20 21  2  0  0  0  0
 20 36  1  0  0  0  0
 21 22  1  0  0  0  0
 21 37  1  0  0  0  0
M  CHG  1  15   1
M  END
> <s_m_source_file>
AV-unprocessed.smi

> <i_m_source_file_index>
1490

> <i_lp_mmshare_version>
43012

> <i_f3d_flags>
0

> <s_epik_input>
W2NIXTFjKENsKVtjSF1bY0hdYyhjMTIpbihbQ0gyXVtDSDJdT1tDSDNdKWMobjIpU1tDSDJdQyg9TylbTkhdW0NIMl1DI04=

> <s_epik_cmdline>
J2VwaWtfcHl0aG9uJywgJy1waCcsICc3LjAnLCAnLXRuJywgJzgnLCAnLW1hJywgJzIwMCcsICctbWV0YWxfYmluZGluZycsICctaW1hZScsICc8aW5maWxlLm1hZT4nLCAnLW9tYWUnLCAnPG91dGZpbGUubWFlPic=

> <r_epik_Ionization_Penalty>
2.45232

> <r_epik_Ionization_Penalty_Charging>
2.45231

> <r_epik_Ionization_Penalty_Neutral>
6.97855e-06

> <r_epik_State_Penalty>
2.61389

> <r_epik_Charging_Adjusted_Penalty>
5.0662

> <i_epik_Tot_Q>
1

> <i_epik_Tot_abs_Q>
1

> <r_epik_Metal_State_Penalty>
2.62983

> <b_epik_Metal_Only>
0

> <s_lp_Force_Field>
OPLS_2005

> <r_lp_Energy>
5.53111

> <b_lp_Chiralities_Consistent>
1

> <s_lp_Variant>
AV-unprocessed.smi:1490-2

> <Gold.Version>
5.8.1

> <Gold.Id.Protein>
6NUR|6NUR_protein|mol2

> <Gold.PLP.Fitness>
57.7663

> <Gold.PLP.PLP>
-48.1797

> <Gold.PLP.part.hbond>
-2.6012

> <Gold.PLP.part.metal>
0.0000

> <Gold.PLP.part.buried>
-5.9189

> <Gold.PLP.part.nonpolar>
-42.2108

> <Gold.PLP.part.repulsive>
0.8855

> <Gold.PLP.ligand.clash>
0.0000

> <Gold.PLP.ligand.torsion>
0.9680

> <Gold.PLP.Chemscore.Hbond>
3.8208

> <Gold.PLP.Chemscore.CHOScore>
0.0000

> <Gold.PLP.Chemscore.Metal>
0.0000

> <Gold.Chemscore.Hbonds>
donor molecule, donor type, donor heavy atom, donor atom, acceptor molecule, acceptor atom, score
      L1  H    11    32       P1  7957  0.91
      L1  H    15    38       P1  8028  2.00
      P1  H  7997  8010       L1     2  1.00

> <Gold.PLP.Chemscore.Internal.Correction>
0.0604

> <Gold.Rescore>
     Score         DG    S(hbond)    S(metal)    S(lipo)     H(rot)  DE(clash)    DE(int)     intcor
     16.73     -19.41       2.15        0.00     119.77       2.84       0.55       2.12       ----

> <Gold.Chemscore.Fitness>
16.7344

> <Gold.Chemscore.DG>
-19.4056

> <Gold.Chemscore.ZeroCoef>
-5.4800

> <Gold.Chemscore.Hbond>
2.1491

> <Gold.Chemscore.Metal>
0.0000

> <Gold.Chemscore.Lipo>
119.7658

> <Gold.Chemscore.Internal_Hbond>
0.0000

> <Gold.Chemscore.DEClash>
0.5498

> <Gold.Chemscore.DEInternal>
2.1214

> <Gold.Chemscore.Rot>
2.8378

> <Gold.Chemscore.Internal.Correction>
   9.000000E+99

> <Gold.Chemscore.Hbonds>
donor molecule, donor type, donor heavy atom, donor atom, acceptor molecule, acceptor atom, score
      L1  H    11    32       P1  7957  0.85
      L1  H    15    38       P1  8028  0.95
      P1  H  7997  8010       L1     2  0.17

> <Gold.Chemscore.Hbond.Weighted>
-7.1779

> <Gold.Chemscore.Metal.Weighted>
-0.0000

> <Gold.Chemscore.Lipo.Weighted>
-14.0126

> <Gold.Chemscore.Internal_Hbond.Weighted>
0.0000

> <Gold.Chemscore.DEClash.Weighted>
0.5498

> <Gold.Chemscore.DEInternal.Weighted>
2.1214

> <Gold.Chemscore.Rot.Weighted>
7.2649

> <Gold.Chemscore.Internal.Correction.Weighted>
   9.000000E+99

> <Gold.Protein.RotatedTorsions>
[ 6907 6896 6895 6894 ] final -150.88 input  -60.11 | X-H torsion
[ 7974 7965 7964 7962 ] final   17.28 input  175.53 | X-H torsion
[ 8008 7997 7996 7995 ] final   74.57 input   59.86 | X-H torsion
[ 10167 10162 10161 10158 ] final   -9.60 input  -65.29 | X-H torsion
[ 10718 10713 10712 10709 ] final -175.45 input   66.30 | X-H torsion
[ 10763 10752 10751 10750 ] final  -73.45 input  -60.55 | X-H torsion
[ 11005 11000 10999 10996 ] final   85.65 input  -57.11 | X-H torsion

> <Gold.Protein.ActiveResidues>
 VAL166  LYS551  ARG553  GLY616  TRP617  ASP618  TYR619  PRO620  LYS621  CYS622 
 ASP623  PHE694  ASN695  SER759  ASP760  ASP761  ALA762  ILE779  LEU786  VAL792 
 PHE793  MET794  SER795  GLU796  ALA797  LYS798  CYS799  TRP800  GLU811  SER814 

> <Gold.Protein.RotatedAtoms>
  151.2050  133.4589  159.2596 H   0  0  0  0  0  0  0  0  0  0  0  0  # atno 6907 bound_to 6896
  151.1032  134.9984  159.8469 H   0  0  0  0  0  0  0  0  0  0  0  0  # atno 6908 bound_to 6896
  152.5445  134.1975  159.8751 H   0  0  0  0  0  0  0  0  0  0  0  0  # atno 6909 bound_to 6896
  146.2223  139.8625  142.8602 H   0  0  0  0  0  0  0  0  0  0  0  0  # atno 7974 bound_to 7965
  155.8002  140.3476  155.5398 H   0  0  0  0  0  0  0  0  0  0  0  0  # atno 8008 bound_to 7997
  155.8545  140.0961  157.1673 H   0  0  0  0  0  0  0  0  0  0  0  0  # atno 8009 bound_to 7997
  154.4009  140.1370  156.3873 H   0  0  0  0  0  0  0  0  0  0  0  0  # atno 8010 bound_to 7997
  140.7091  143.5840  150.8962 H   0  0  0  0  0  0  0  0  0  0  0  0  # atno 10167 bound_to 10162
  156.8000  130.9549  151.3119 H   0  0  0  0  0  0  0  0  0  0  0  0  # atno 10718 bound_to 10713
  154.4596  135.5897  153.6246 H   0  0  0  0  0  0  0  0  0  0  0  0  # atno 10763 bound_to 10752
  152.9822  135.6040  154.3503 H   0  0  0  0  0  0  0  0  0  0  0  0  # atno 10764 bound_to 10752
  154.3373  135.2842  155.2420 H   0  0  0  0  0  0  0  0  0  0  0  0  # atno 10765 bound_to 10752
  139.8966  134.8301  156.2611 H   0  0  0  0  0  0  0  0  0  0  0  0  # atno 11005 bound_to 11000
  145.2690  141.0102  143.3782 LP  0  0  0  0  0  0  0  0  0  0  0  0  # atno 17320 bound_to 7965
  144.9238  139.4379  143.6528 LP  0  0  0  0  0  0  0  0  0  0  0  0  # atno 17321 bound_to 7965
  139.9566  143.6211  152.3014 LP  0  0  0  0  0  0  0  0  0  0  0  0  # atno 17342 bound_to 10162
  139.6749  144.7659  151.1715 LP  0  0  0  0  0  0  0  0  0  0  0  0  # atno 17343 bound_to 10162
  157.6558  130.8923  149.9727 LP  0  0  0  0  0  0  0  0  0  0  0  0  # atno 17370 bound_to 10713
  156.1107  130.3650  150.0054 LP  0  0  0  0  0  0  0  0  0  0  0  0  # atno 17371 bound_to 10713
  141.0162  133.7067  156.1192 LP  0  0  0  0  0  0  0  0  0  0  0  0  # atno 17394 bound_to 11000
  140.7299  134.4266  157.5567 LP  0  0  0  0  0  0  0  0  0  0  0  0  # atno 17395 bound_to 11000

$$$$
