AV-unprocessed.smi:1911|AV-procd|sdf|7746|dock2
  -GOLD-   22720 9483D 1   1.00000     0.00000
 Structure written by MMmdl.
 52 54  0  0  0  0  0  0  0  0  4 V2000
  142.9627  132.3193  149.3111 N   0  5  0  0  0  0  0  0  0  0  0  0
  144.2371  132.5059  149.7095 C   0  0  0  0  0  0  0  0  0  0  0  0
  145.2548  132.4826  149.0212 O   0  0  0  0  0  0  0  0  0  0  0  0
  144.3448  132.7734  151.2148 C   0  0  0  0  0  0  0  0  0  0  0  0
  145.1085  134.0201  151.4778 N   0  3  2  0  0  0  0  0  0  0  0  0
  145.4223  134.2247  152.9172 C   0  0  0  0  0  0  0  0  0  0  0  0
  146.3285  135.4505  153.1189 C   0  0  0  0  0  0  0  0  0  0  0  0
  145.6937  136.7170  152.5161 C   0  0  1  0  0  0  0  0  0  0  0  0
  146.5996  137.8574  152.6261 N   0  0  0  0  0  0  0  0  0  0  0  0
  147.1660  138.2857  153.7636 C   0  0  0  0  0  0  0  0  0  0  0  0
  146.9783  137.7528  154.8571 O   0  0  0  0  0  0  0  0  0  0  0  0
  147.9364  139.3663  153.5489 N   0  0  0  0  0  0  0  0  0  0  0  0
  148.7076  140.1024  154.4888 C   0  0  0  0  0  0  0  0  0  0  0  0
  149.4895  139.5108  155.5112 C   0  0  0  0  0  0  0  0  0  0  0  0
  150.2341  140.3334  156.3815 C   0  0  0  0  0  0  0  0  0  0  0  0
  150.1979  141.7391  156.2248 C   0  0  0  0  0  0  0  0  0  0  0  0
  150.9186  142.6208  157.0529 N   0  0  0  0  0  0  0  0  0  0  0  0
  151.2660  143.9677  156.6176 C   0  0  0  0  0  0  0  0  0  0  0  0
  151.3624  144.8029  157.8993 C   0  0  0  0  0  0  0  0  0  0  0  0
  151.5991  143.7692  159.0000 C   0  0  0  0  0  0  0  0  0  0  0  0
  150.8276  142.5478  158.5017 C   0  0  0  0  0  0  0  0  0  0  0  0
  149.4500  142.2570  155.2214 N   0  3  0  0  0  0  0  0  0  0  0  0
  148.7236  141.5067  154.3655 C   0  0  0  0  0  0  0  0  0  0  0  0
  145.3480  136.4638  151.0400 C   0  0  0  0  0  0  0  0  0  0  0  0
  144.4626  135.2162  150.8812 C   0  0  0  0  0  0  0  0  0  0  0  0
  142.3005  133.0991  149.4017 H   0  0  0  0  0  0  0  0  0  0  0  0
  143.3316  132.8575  151.6111 H   0  0  0  0  0  0  0  0  0  0  0  0
  144.8090  131.9278  151.7248 H   0  0  0  0  0  0  0  0  0  0  0  0
  144.4949  134.3482  153.4786 H   0  0  0  0  0  0  0  0  0  0  0  0
  145.9209  133.3442  153.3230 H   0  0  0  0  0  0  0  0  0  0  0  0
  146.5181  135.5921  154.1835 H   0  0  0  0  0  0  0  0  0  0  0  0
  147.2979  135.2631  152.6544 H   0  0  0  0  0  0  0  0  0  0  0  0
  144.7681  136.9413  153.0501 H   0  0  0  0  0  0  0  0  0  0  0  0
  146.8064  138.3565  151.7732 H   0  0  0  0  0  0  0  0  0  0  0  0
  147.9262  139.7389  152.6106 H   0  0  0  0  0  0  0  0  0  0  0  0
  149.5472  138.4410  155.6381 H   0  0  0  0  0  0  0  0  0  0  0  0
  150.8287  139.8716  157.1556 H   0  0  0  0  0  0  0  0  0  0  0  0
  152.2280  143.9337  156.1052 H   0  0  0  0  0  0  0  0  0  0  0  0
  150.5287  144.3887  155.9333 H   0  0  0  0  0  0  0  0  0  0  0  0
  152.1438  145.5617  157.8521 H   0  0  0  0  0  0  0  0  0  0  0  0
  150.4139  145.3111  158.0768 H   0  0  0  0  0  0  0  0  0  0  0  0
  152.6627  143.5353  159.0617 H   0  0  0  0  0  0  0  0  0  0  0  0
  151.2706  144.1074  159.9830 H   0  0  0  0  0  0  0  0  0  0  0  0
  149.7811  142.6042  158.8039 H   0  0  0  0  0  0  0  0  0  0  0  0
  151.2519  141.6204  158.8876 H   0  0  0  0  0  0  0  0  0  0  0  0
  148.1751  142.0545  153.6129 H   0  0  0  0  0  0  0  0  0  0  0  0
  144.8384  137.3318  150.6201 H   0  0  0  0  0  0  0  0  0  0  0  0
  146.2634  136.3313  150.4610 H   0  0  0  0  0  0  0  0  0  0  0  0
  144.2775  135.0430  149.8204 H   0  0  0  0  0  0  0  0  0  0  0  0
  143.4913  135.3786  151.3511 H   0  0  0  0  0  0  0  0  0  0  0  0
  145.9887  133.8982  150.9961 H   0  0  0  0  0  0  0  0  0  0  0  0
  149.4349  143.2703  155.1042 H   0  0  0  0  0  0  0  0  0  0  0  0
  1  2  1  0  0  0  0
  1 26  1  0  0  0  0
  2  3  2  0  0  0  0
  2  4  1  0  0  0  0
  4  5  1  0  0  0  0
  4 27  1  0  0  0  0
  4 28  1  0  0  0  0
  5 25  1  0  0  0  0
  5  6  1  0  0  0  0
  5 51  1  0  0  0  0
  6  7  1  0  0  0  0
  6 29  1  0  0  0  0
  6 30  1  0  0  0  0
  7  8  1  0  0  0  0
  7 31  1  0  0  0  0
  7 32  1  0  0  0  0
  8  9  1  0  0  0  0
  8 24  1  0  0  0  0
  8 33  1  0  0  0  0
  9 10  1  0  0  0  0
  9 34  1  0  0  0  0
 10 11  2  0  0  0  0
 10 12  1  0  0  0  0
 12 13  1  0  0  0  0
 12 35  1  0  0  0  0
 13 23  1  0  0  0  0
 13 14  2  0  0  0  0
 14 15  1  0  0  0  0
 14 36  1  0  0  0  0
 15 16  2  0  0  0  0
 15 37  1  0  0  0  0
 16 17  1  0  0  0  0
 16 22  1  0  0  0  0
 17 21  1  0  0  0  0
 17 18  1  0  0  0  0
 18 19  1  0  0  0  0
 18 38  1  0  0  0  0
 18 39  1  0  0  0  0
 19 20  1  0  0  0  0
 19 40  1  0  0  0  0
 19 41  1  0  0  0  0
 20 21  1  0  0  0  0
 20 42  1  0  0  0  0
 20 43  1  0  0  0  0
 21 44  1  0  0  0  0
 21 45  1  0  0  0  0
 22 23  2  0  0  0  0
 22 52  1  0  0  0  0
 23 46  1  0  0  0  0
 24 25  1  0  0  0  0
 24 47  1  0  0  0  0
 24 48  1  0  0  0  0
 25 49  1  0  0  0  0
 25 50  1  0  0  0  0
M  CHG  1   1  -1
M  CHG  1   5   1
M  CHG  1  22   1
M  END
> <s_m_source_file>
AV-unprocessed.smi

> <i_m_source_file_index>
1911

> <i_lp_mmshare_version>
43012

> <i_f3d_flags>
0

> <s_epik_input>
W05IMl1DKD1PKVtDSDJdTjFbQ0gyXVtDSDJdW0NIXShbQ0gyXVtDSDJdMSlbTkhdQyg9TylbTkhdYzJbY0hdW2NIXWMobltjSF0yKU4zW0NIMl1bQ0gyXVtDSDJdW0NIMl0z

> <s_epik_cmdline>
J2VwaWtfcHl0aG9uJywgJy1waCcsICc3LjAnLCAnLXRuJywgJzgnLCAnLW1hJywgJzIwMCcsICctbWV0YWxfYmluZGluZycsICctaW1hZScsICc8aW5maWxlLm1hZT4nLCAnLW9tYWUnLCAnPG91dGZpbGUubWFlPic=

> <r_lp_tautomer_probability>
0.999994

> <r_epik_Ionization_Penalty>
6.97817

> <r_epik_Ionization_Penalty_Charging>
6.97815

> <r_epik_Ionization_Penalty_Neutral>
1.89299e-05

> <r_epik_State_Penalty>
7.80985

> <r_epik_Charging_Adjusted_Penalty>
14.788

> <i_epik_Tot_Q>
1

> <i_epik_Tot_abs_Q>
3

> <r_epik_Metal_State_Penalty>
3.85727

> <b_epik_Metal_Only>
1

> <s_lp_Force_Field>
OPLS_2005

> <r_lp_Energy>
40.2861

> <b_lp_Chiralities_Consistent>
1

> <s_lp_Variant>
AV-unprocessed.smi:1911-9

> <Gold.Version>
5.8.1

> <Gold.Id.Protein>
6NUR|6NUR_protein|mol2

> <Gold.PLP.Fitness>
53.2800

> <Gold.PLP.PLP>
-42.7048

> <Gold.PLP.part.hbond>
-5.6056

> <Gold.PLP.part.metal>
0.0000

> <Gold.PLP.part.buried>
-3.3230

> <Gold.PLP.part.nonpolar>
-34.1168

> <Gold.PLP.part.repulsive>
0.6302

> <Gold.PLP.ligand.clash>
0.0000

> <Gold.PLP.ligand.torsion>
0.9801

> <Gold.PLP.Chemscore.Hbond>
4.0773

> <Gold.PLP.Chemscore.CHOScore>
0.0000

> <Gold.PLP.Chemscore.Metal>
0.0000

> <Gold.Chemscore.Hbonds>
donor molecule, donor type, donor heavy atom, donor atom, acceptor molecule, acceptor atom, score
      L1  H     1    26       P1 10186  1.00
      L1  H    12    35       P1  7957  0.31
      L1  H    22    52       P1  8028  1.92
      P1  H 10785 10796       L1     1  0.36

> <Gold.PLP.Chemscore.Internal.Correction>
0.3034

> <Gold.Rescore>
     Score         DG    S(hbond)    S(metal)    S(lipo)     H(rot)  DE(clash)    DE(int)     intcor
     15.48     -20.63       2.57        0.00      97.53       1.90       3.67       1.48       ----

> <Gold.Chemscore.Fitness>
15.4823

> <Gold.Chemscore.DG>
-20.6322

> <Gold.Chemscore.ZeroCoef>
-5.4800

> <Gold.Chemscore.Hbond>
2.5748

> <Gold.Chemscore.Metal>
0.0000

> <Gold.Chemscore.Lipo>
97.5310

> <Gold.Chemscore.Internal_Hbond>
0.0000

> <Gold.Chemscore.DEClash>
3.6743

> <Gold.Chemscore.DEInternal>
1.4756

> <Gold.Chemscore.Rot>
1.8979

> <Gold.Chemscore.Internal.Correction>
   9.000000E+99

> <Gold.Chemscore.Hbonds>
donor molecule, donor type, donor heavy atom, donor atom, acceptor molecule, acceptor atom, score
      L1  H     1    26       P1 10186  1.00
      L1  H    12    35       P1  7957  0.31
      L1  H    22    52       P1  8028  0.92
      P1  H 10785 10796       L1     1  0.06

> <Gold.Chemscore.Hbond.Weighted>
-8.5998

> <Gold.Chemscore.Metal.Weighted>
-0.0000

> <Gold.Chemscore.Lipo.Weighted>
-11.4111

> <Gold.Chemscore.Internal_Hbond.Weighted>
0.0000

> <Gold.Chemscore.DEClash.Weighted>
3.6743

> <Gold.Chemscore.DEInternal.Weighted>
1.4756

> <Gold.Chemscore.Rot.Weighted>
4.8587

> <Gold.Chemscore.Internal.Correction.Weighted>
   9.000000E+99

> <Gold.Protein.RotatedTorsions>
[ 6907 6896 6895 6894 ] final   72.93 input  -60.11 | X-H torsion
[ 7974 7965 7964 7962 ] final  -47.56 input  175.53 | X-H torsion
[ 8008 7997 7996 7995 ] final  -33.88 input   59.86 | X-H torsion
[ 10167 10162 10161 10158 ] final  -70.96 input  -65.29 | X-H torsion
[ 10718 10713 10712 10709 ] final -167.66 input   66.30 | X-H torsion
[ 10763 10752 10751 10750 ] final  -29.95 input  -60.55 | X-H torsion
[ 11005 11000 10999 10996 ] final  -93.55 input  -57.11 | X-H torsion

> <Gold.Protein.ActiveResidues>
 VAL166  LYS551  ARG553  GLY616  TRP617  ASP618  TYR619  PRO620  LYS621  CYS622 
 ASP623  PHE694  ASN695  SER759  ASP760  ASP761  ALA762  ILE779  LEU786  VAL792 
 PHE793  MET794  SER795  GLU796  ALA797  LYS798  CYS799  TRP800  GLU811  SER814 

> <Gold.Protein.RotatedAtoms>
  152.4895  134.4497  159.9570 H   0  0  0  0  0  0  0  0  0  0  0  0  # atno 6907 bound_to 6896
  151.4487  133.3617  159.2800 H   0  0  0  0  0  0  0  0  0  0  0  0  # atno 6908 bound_to 6896
  150.9037  134.8474  159.7438 H   0  0  0  0  0  0  0  0  0  0  0  0  # atno 6909 bound_to 6896
  145.9603  140.7485  142.9460 H   0  0  0  0  0  0  0  0  0  0  0  0  # atno 7974 bound_to 7965
  154.4136  140.1699  156.1960 H   0  0  0  0  0  0  0  0  0  0  0  0  # atno 8008 bound_to 7997
  155.9564  140.3397  155.6428 H   0  0  0  0  0  0  0  0  0  0  0  0  # atno 8009 bound_to 7997
  155.6805  140.0722  157.2477 H   0  0  0  0  0  0  0  0  0  0  0  0  # atno 8010 bound_to 7997
  140.5311  143.2321  151.7260 H   0  0  0  0  0  0  0  0  0  0  0  0  # atno 10167 bound_to 10162
  156.6855  130.9139  151.3062 H   0  0  0  0  0  0  0  0  0  0  0  0  # atno 10718 bound_to 10713
  153.7731  135.6911  153.4902 H   0  0  0  0  0  0  0  0  0  0  0  0  # atno 10763 bound_to 10752
  153.1861  135.4488  155.0089 H   0  0  0  0  0  0  0  0  0  0  0  0  # atno 10764 bound_to 10752
  154.8110  135.3377  154.7239 H   0  0  0  0  0  0  0  0  0  0  0  0  # atno 10765 bound_to 10752
  141.1494  133.7895  157.0175 H   0  0  0  0  0  0  0  0  0  0  0  0  # atno 11005 bound_to 11000
  144.6814  140.2581  143.7323 LP  0  0  0  0  0  0  0  0  0  0  0  0  # atno 17320 bound_to 7965
  145.8048  139.1979  143.2027 LP  0  0  0  0  0  0  0  0  0  0  0  0  # atno 17321 bound_to 7965
  139.4954  144.4112  152.0078 LP  0  0  0  0  0  0  0  0  0  0  0  0  # atno 17342 bound_to 10162
  140.3215  144.3423  150.6008 LP  0  0  0  0  0  0  0  0  0  0  0  0  # atno 17343 bound_to 10162
  157.7028  130.9351  150.0837 LP  0  0  0  0  0  0  0  0  0  0  0  0  # atno 17370 bound_to 10713
  156.1836  130.3651  149.9003 LP  0  0  0  0  0  0  0  0  0  0  0  0  # atno 17371 bound_to 10713
  140.0837  134.9633  157.1666 LP  0  0  0  0  0  0  0  0  0  0  0  0  # atno 17394 bound_to 11000
  140.3540  134.2567  155.7195 LP  0  0  0  0  0  0  0  0  0  0  0  0  # atno 17395 bound_to 11000

$$$$
