AV-unprocessed.smi:581|AV-procd|sdf|2992|dock10
  -GOLD-   2262023493D 1   1.00000     0.00000
 Structure written by MMmdl.
 35 36  0  0  0  0  0  0  0  0  2 V2000
  148.4636  140.9707  155.3098 C   0  0  0  0  0  0  0  0  0  0  0  0
  149.7924  140.8438  156.0350 C   0  0  0  0  0  0  0  0  0  0  0  0
  150.0582  141.8771  156.9142 N   0  0  0  0  0  0  0  0  0  0  0  0
  151.2500  141.8729  157.6265 C   0  0  0  0  0  0  0  0  0  0  0  0
  151.4023  142.9508  158.4958 N   0  0  0  0  0  0  0  0  0  0  0  0
  152.5433  142.9995  159.4086 C   0  0  0  0  0  0  0  0  0  0  0  0
  152.2845  143.9723  160.5712 C   0  0  0  0  0  0  0  0  0  0  0  0
  151.9662  145.2588  160.0564 O   0  0  0  0  0  0  0  0  0  0  0  0
  150.7894  145.2243  159.2596 C   0  0  0  0  0  0  0  0  0  0  0  0
  151.0033  144.2878  158.0585 C   0  0  0  0  0  0  0  0  0  0  0  0
  152.1481  140.9395  157.5036 N   0  0  0  0  0  0  0  0  0  0  0  0
  151.9425  139.8691  156.6200 C   0  0  0  0  0  0  0  0  0  0  0  0
  152.8060  139.0030  156.4892 O   0  0  0  0  0  0  0  0  0  0  0  0
  150.6719  139.8270  155.8615 C   0  0  0  0  0  0  0  0  0  0  0  0
  150.4261  138.6714  154.8858 C   0  0  0  0  0  0  0  0  0  0  0  0
  149.7329  137.4366  155.5053 C   0  0  0  0  0  0  0  0  0  0  0  0
  150.7293  136.4367  156.0965 C   0  0  0  0  0  0  0  0  0  0  0  0
  150.2553  135.4376  156.6806 O   0  0  0  0  0  0  0  0  0  0  0  0
  151.9452  136.6897  155.9531 O   0  5  0  0  0  0  0  0  0  0  0  0
  149.3619  142.6003  157.0168 H   0  0  0  0  0  0  0  0  0  0  0  0
  147.7879  140.1679  155.6026 H   0  0  0  0  0  0  0  0  0  0  0  0
  148.6074  140.9304  154.2301 H   0  0  0  0  0  0  0  0  0  0  0  0
  147.9714  141.9160  155.5419 H   0  0  0  0  0  0  0  0  0  0  0  0
  153.4298  143.3093  158.8535 H   0  0  0  0  0  0  0  0  0  0  0  0
  152.7481  142.0051  159.8084 H   0  0  0  0  0  0  0  0  0  0  0  0
  151.4746  143.6112  161.2074 H   0  0  0  0  0  0  0  0  0  0  0  0
  153.1719  144.0511  161.1993 H   0  0  0  0  0  0  0  0  0  0  0  0
  149.9379  144.8983  159.8592 H   0  0  0  0  0  0  0  0  0  0  0  0
  150.5666  146.2336  158.9133 H   0  0  0  0  0  0  0  0  0  0  0  0
  150.0887  144.2493  157.4657 H   0  0  0  0  0  0  0  0  0  0  0  0
  151.7816  144.6902  157.4084 H   0  0  0  0  0  0  0  0  0  0  0  0
  151.3591  138.3647  154.4114 H   0  0  0  0  0  0  0  0  0  0  0  0
  149.8131  139.0395  154.0637 H   0  0  0  0  0  0  0  0  0  0  0  0
  149.0270  137.7379  156.2784 H   0  0  0  0  0  0  0  0  0  0  0  0
  149.1442  136.9274  154.7417 H   0  0  0  0  0  0  0  0  0  0  0  0
  1 21  1  0  0  0  0
  1 22  1  0  0  0  0
  1 23  1  0  0  0  0
  1  2  1  0  0  0  0
  2 14  2  0  0  0  0
  2  3  1  0  0  0  0
  3 20  1  0  0  0  0
  3  4  1  0  0  0  0
  4  5  1  0  0  0  0
  4 11  2  0  0  0  0
  5 10  1  0  0  0  0
  5  6  1  0  0  0  0
  6  7  1  0  0  0  0
  6 24  1  0  0  0  0
  6 25  1  0  0  0  0
  7  8  1  0  0  0  0
  7 26  1  0  0  0  0
  7 27  1  0  0  0  0
  8  9  1  0  0  0  0
  9 10  1  0  0  0  0
  9 28  1  0  0  0  0
  9 29  1  0  0  0  0
 10 30  1  0  0  0  0
 10 31  1  0  0  0  0
 11 12  1  0  0  0  0
 12 13  2  0  0  0  0
 12 14  1  0  0  0  0
 14 15  1  0  0  0  0
 15 16  1  0  0  0  0
 15 32  1  0  0  0  0
 15 33  1  0  0  0  0
 16 17  1  0  0  0  0
 16 34  1  0  0  0  0
 16 35  1  0  0  0  0
 17 18  2  0  0  0  0
 17 19  1  0  0  0  0
M  CHG  1  19  -1
M  END
> <s_m_source_file>
AV-unprocessed.smi

> <i_m_source_file_index>
581

> <i_lp_mmshare_version>
43012

> <i_f3d_flags>
0

> <s_epik_input>
W0NIMl0xW0NIMl1PW0NIMl1bQ0gyXU4xYyhuYzJbQ0gzXSlbbkhdYyg9TyljMltDSDJdW0NIMl1DKD1PKVtPSF0=

> <s_epik_cmdline>
J2VwaWtfcHl0aG9uJywgJy1waCcsICc3LjAnLCAnLXRuJywgJzgnLCAnLW1hJywgJzIwMCcsICctbWV0YWxfYmluZGluZycsICctaW1hZScsICc8aW5maWxlLm1hZT4nLCAnLW9tYWUnLCAnPG91dGZpbGUubWFlPic=

> <r_lp_tautomer_probability>
0.108306

> <r_epik_Ionization_Penalty>
0.0702858

> <r_epik_Ionization_Penalty_Charging>
0.050334

> <r_epik_Ionization_Penalty_Neutral>
0.0199519

> <r_epik_State_Penalty>
1.38976

> <r_epik_Charging_Adjusted_Penalty>
1.44009

> <i_epik_Tot_Q>
-1

> <i_epik_Tot_abs_Q>
1

> <r_epik_Metal_State_Penalty>
1.61644

> <b_epik_Metal_Only>
0

> <s_lp_Force_Field>
OPLS_2005

> <r_lp_Energy>
27.984

> <b_lp_Chiralities_Consistent>
1

> <s_lp_Variant>
AV-unprocessed.smi:581-2

> <Gold.Version>
5.8.1

> <Gold.Id.Protein>
6NUR|6NUR_protein|mol2

> <Gold.PLP.Fitness>
47.8488

> <Gold.PLP.PLP>
-39.0106

> <Gold.PLP.part.hbond>
-2.9828

> <Gold.PLP.part.metal>
0.0000

> <Gold.PLP.part.buried>
-2.6018

> <Gold.PLP.part.nonpolar>
-33.0624

> <Gold.PLP.part.repulsive>
0.3080

> <Gold.PLP.ligand.clash>
0.0000

> <Gold.PLP.ligand.torsion>
0.8986

> <Gold.PLP.Chemscore.Hbond>
3.4313

> <Gold.PLP.Chemscore.CHOScore>
0.0000

> <Gold.PLP.Chemscore.Metal>
0.0000

> <Gold.Chemscore.Hbonds>
donor molecule, donor type, donor heavy atom, donor atom, acceptor molecule, acceptor atom, score
      P1  H  7997  8008       L1    13  1.00
      P1  H 10752 10763       L1    19  2.00

> <Gold.PLP.Chemscore.Internal.Correction>
0.3415

> <Gold.Rescore>
     Score         DG    S(hbond)    S(metal)    S(lipo)     H(rot)  DE(clash)    DE(int)     intcor
     13.17     -15.75       1.61        0.00      83.17       1.89       0.22       2.36       ----

> <Gold.Chemscore.Fitness>
13.1654

> <Gold.Chemscore.DG>
-15.7498

> <Gold.Chemscore.ZeroCoef>
-5.4800

> <Gold.Chemscore.Hbond>
1.6090

> <Gold.Chemscore.Metal>
0.0000

> <Gold.Chemscore.Lipo>
83.1741

> <Gold.Chemscore.Internal_Hbond>
0.0000

> <Gold.Chemscore.DEClash>
0.2222

> <Gold.Chemscore.DEInternal>
2.3622

> <Gold.Chemscore.Rot>
1.8890

> <Gold.Chemscore.Internal.Correction>
   9.000000E+99

> <Gold.Chemscore.Hbonds>
donor molecule, donor type, donor heavy atom, donor atom, acceptor molecule, acceptor atom, score
      P1  H  7997  8008       L1    13  0.26
      P1  H 10752 10763       L1    19  0.95

> <Gold.Chemscore.Hbond.Weighted>
-5.3742

> <Gold.Chemscore.Metal.Weighted>
-0.0000

> <Gold.Chemscore.Lipo.Weighted>
-9.7314

> <Gold.Chemscore.Internal_Hbond.Weighted>
0.0000

> <Gold.Chemscore.DEClash.Weighted>
0.2222

> <Gold.Chemscore.DEInternal.Weighted>
2.3622

> <Gold.Chemscore.Rot.Weighted>
4.8357

> <Gold.Chemscore.Internal.Correction.Weighted>
   9.000000E+99

> <Gold.Protein.RotatedTorsions>
[ 6907 6896 6895 6894 ] final -103.78 input  -60.11 | X-H torsion
[ 7974 7965 7964 7962 ] final  -28.42 input  175.53 | X-H torsion
[ 8008 7997 7996 7995 ] final  -44.01 input   59.86 | X-H torsion
[ 10167 10162 10161 10158 ] final  -54.54 input  -65.29 | X-H torsion
[ 10718 10713 10712 10709 ] final  159.85 input   66.30 | X-H torsion
[ 10763 10752 10751 10750 ] final   71.52 input  -60.55 | X-H torsion
[ 11005 11000 10999 10996 ] final  124.28 input  -57.11 | X-H torsion

> <Gold.Protein.ActiveResidues>
 VAL166  LYS551  ARG553  GLY616  TRP617  ASP618  TYR619  PRO620  LYS621  CYS622 
 ASP623  PHE694  ASN695  SER759  ASP760  ASP761  ALA762  ILE779  LEU786  VAL792 
 PHE793  MET794  SER795  GLU796  ALA797  LYS798  CYS799  TRP800  GLU811  SER814 

> <Gold.Protein.RotatedAtoms>
  150.7256  134.0378  159.3755 H   0  0  0  0  0  0  0  0  0  0  0  0  # atno 6907 bound_to 6896
  151.8350  135.0607  160.0450 H   0  0  0  0  0  0  0  0  0  0  0  0  # atno 6908 bound_to 6896
  152.2905  133.5521  159.5591 H   0  0  0  0  0  0  0  0  0  0  0  0  # atno 6909 bound_to 6896
  146.1289  140.5280  142.8702 H   0  0  0  0  0  0  0  0  0  0  0  0  # atno 7974 bound_to 7965
  154.3997  140.1433  156.3614 H   0  0  0  0  0  0  0  0  0  0  0  0  # atno 8008 bound_to 7997
  155.8178  140.3470  155.5475 H   0  0  0  0  0  0  0  0  0  0  0  0  # atno 8009 bound_to 7997
  155.8320  140.0913  157.1777 H   0  0  0  0  0  0  0  0  0  0  0  0  # atno 8010 bound_to 7997
  140.6424  143.2515  151.4951 H   0  0  0  0  0  0  0  0  0  0  0  0  # atno 10167 bound_to 10162
  157.1585  131.0581  151.2244 H   0  0  0  0  0  0  0  0  0  0  0  0  # atno 10718 bound_to 10713
  153.0404  135.5134  154.7606 H   0  0  0  0  0  0  0  0  0  0  0  0  # atno 10763 bound_to 10752
  154.6548  135.2930  154.9943 H   0  0  0  0  0  0  0  0  0  0  0  0  # atno 10764 bound_to 10752
  154.0815  135.6663  153.4891 H   0  0  0  0  0  0  0  0  0  0  0  0  # atno 10765 bound_to 10752
  139.9351  134.9640  156.8386 H   0  0  0  0  0  0  0  0  0  0  0  0  # atno 11005 bound_to 11000
  144.7671  140.5554  143.6696 LP  0  0  0  0  0  0  0  0  0  0  0  0  # atno 17320 bound_to 7965
  145.5303  139.1475  143.3503 LP  0  0  0  0  0  0  0  0  0  0  0  0  # atno 17321 bound_to 7965
  139.5634  144.2101  152.1727 LP  0  0  0  0  0  0  0  0  0  0  0  0  # atno 17342 bound_to 10162
  140.1376  144.5232  150.6764 LP  0  0  0  0  0  0  0  0  0  0  0  0  # atno 17343 bound_to 10162
  157.4154  130.7408  149.6872 LP  0  0  0  0  0  0  0  0  0  0  0  0  # atno 17370 bound_to 10713
  155.9758  130.4084  150.3825 LP  0  0  0  0  0  0  0  0  0  0  0  0  # atno 17371 bound_to 10713
  140.6096  134.0095  155.7571 LP  0  0  0  0  0  0  0  0  0  0  0  0  # atno 17394 bound_to 11000
  141.0961  133.9841  157.3158 LP  0  0  0  0  0  0  0  0  0  0  0  0  # atno 17395 bound_to 11000

$$$$
