AV-unprocessed.smi:3343|AV-procd|sdf|12895|dock8
  -GOLD-   2272019303D 1   1.00000     0.00000
 Structure written by MMmdl.
 42 43  0  0  0  0  0  0  0  0  2 V2000
  148.9402  140.6017  154.5348 C   0  0  0  0  0  0  0  0  0  0  0  0
  149.1883  139.1245  154.1679 C   0  0  2  0  0  0  0  0  0  0  0  0
  148.3175  138.1463  154.9775 C   0  0  0  0  0  0  0  0  0  0  0  0
  147.7965  138.4940  156.0378 O   0  0  0  0  0  0  0  0  0  0  0  0
  148.1612  136.9179  154.4581 N   0  0  0  0  0  0  0  0  0  0  0  0
  147.4046  135.8370  155.0764 C   0  0  0  0  0  0  0  0  0  0  0  0
  147.6651  134.5147  154.3368 C   0  0  0  0  0  0  0  0  0  0  0  0
  147.0650  134.4950  152.9794 N   0  3  0  0  0  0  0  0  0  0  0  0
  145.6266  134.8558  152.9935 C   0  0  0  0  0  0  0  0  0  0  0  0
  145.0649  134.9139  151.5573 C   0  0  0  0  0  0  0  0  0  0  0  0
  145.2546  133.6527  150.8390 N   0  0  0  0  0  0  0  0  0  0  0  0
  144.3896  132.5816  151.3218 C   0  0  0  0  0  0  0  0  0  0  0  0
  146.6728  133.2900  150.8353 C   0  0  0  0  0  0  0  0  0  0  0  0
  147.2592  133.2103  152.2609 C   0  0  0  0  0  0  0  0  0  0  0  0
  150.6004  138.7760  154.2783 N   0  0  0  0  0  0  0  0  0  0  0  0
  151.2251  137.6261  154.0152 C   0  0  0  0  0  0  0  0  0  0  0  0
  152.5265  137.6506  154.2658 N   0  0  0  0  0  0  0  0  0  0  0  0
  152.6491  138.9362  154.7114 C   0  0  0  0  0  0  0  0  0  0  0  0
  151.5245  139.6507  154.7487 N   0  0  0  0  0  0  0  0  0  0  0  0
  147.8972  140.8785  154.3765 H   0  0  0  0  0  0  0  0  0  0  0  0
  149.5483  141.2626  153.9166 H   0  0  0  0  0  0  0  0  0  0  0  0
  149.1842  140.8089  155.5776 H   0  0  0  0  0  0  0  0  0  0  0  0
  148.9079  138.9990  153.1209 H   0  0  0  0  0  0  0  0  0  0  0  0
  148.6142  136.7159  153.5785 H   0  0  0  0  0  0  0  0  0  0  0  0
  147.6779  135.7248  156.1270 H   0  0  0  0  0  0  0  0  0  0  0  0
  146.3495  136.1071  155.0460 H   0  0  0  0  0  0  0  0  0  0  0  0
  148.7348  134.3088  154.2725 H   0  0  0  0  0  0  0  0  0  0  0  0
  147.2299  133.7072  154.9280 H   0  0  0  0  0  0  0  0  0  0  0  0
  145.0684  134.1477  153.6074 H   0  0  0  0  0  0  0  0  0  0  0  0
  145.5036  135.8344  153.4590 H   0  0  0  0  0  0  0  0  0  0  0  0
  144.0051  135.1713  151.5726 H   0  0  0  0  0  0  0  0  0  0  0  0
  145.5667  135.7076  151.0019 H   0  0  0  0  0  0  0  0  0  0  0  0
  144.5225  131.6868  150.7133 H   0  0  0  0  0  0  0  0  0  0  0  0
  143.3434  132.8792  151.2457 H   0  0  0  0  0  0  0  0  0  0  0  0
  144.5892  132.3157  152.3592 H   0  0  0  0  0  0  0  0  0  0  0  0
  146.8067  132.3409  150.3148 H   0  0  0  0  0  0  0  0  0  0  0  0
  147.2194  134.0375  150.2585 H   0  0  0  0  0  0  0  0  0  0  0  0
  148.3215  132.9824  152.1845 H   0  0  0  0  0  0  0  0  0  0  0  0
  146.8082  132.3928  152.8249 H   0  0  0  0  0  0  0  0  0  0  0  0
  150.7166  136.7509  153.6380 H   0  0  0  0  0  0  0  0  0  0  0  0
  153.5938  139.3557  155.0249 H   0  0  0  0  0  0  0  0  0  0  0  0
  147.5317  135.2116  152.4418 H   0  0  0  0  0  0  0  0  0  0  0  0
  1  2  1  0  0  0  0
  1 20  1  0  0  0  0
  1 21  1  0  0  0  0
  1 22  1  0  0  0  0
  2  3  1  0  0  0  0
  2 15  1  0  0  0  0
  2 23  1  0  0  0  0
  3  4  2  0  0  0  0
  3  5  1  0  0  0  0
  5  6  1  0  0  0  0
  5 24  1  0  0  0  0
  6  7  1  0  0  0  0
  6 25  1  0  0  0  0
  6 26  1  0  0  0  0
  7  8  1  0  0  0  0
  7 27  1  0  0  0  0
  7 28  1  0  0  0  0
  8 14  1  0  0  0  0
  8  9  1  0  0  0  0
  8 42  1  0  0  0  0
  9 10  1  0  0  0  0
  9 29  1  0  0  0  0
  9 30  1  0  0  0  0
 10 11  1  0  0  0  0
 10 31  1  0  0  0  0
 10 32  1  0  0  0  0
 11 12  1  0  0  0  0
 11 13  1  0  0  0  0
 12 33  1  0  0  0  0
 12 34  1  0  0  0  0
 12 35  1  0  0  0  0
 13 14  1  0  0  0  0
 13 36  1  0  0  0  0
 13 37  1  0  0  0  0
 14 38  1  0  0  0  0
 14 39  1  0  0  0  0
 15 19  1  0  0  0  0
 15 16  1  0  0  0  0
 16 17  2  0  0  0  0
 16 40  1  0  0  0  0
 17 18  1  0  0  0  0
 18 19  2  0  0  0  0
 18 41  1  0  0  0  0
M  CHG  1   8   1
M  END
> <s_m_source_file>
AV-unprocessed.smi

> <i_m_source_file_index>
3343

> <i_lp_mmshare_version>
43012

> <i_f3d_flags>
0

> <s_epik_input>
bjFbY0hdbltjSF1uMVtDQEhdKFtDSDNdKUMoPU8pW05IXVtDSDJdW0NIMl1OMltDSDJdW0NIMl1OKFtDSDNdKVtDSDJdW0NIMl0y

> <s_epik_cmdline>
J2VwaWtfcHl0aG9uJywgJy1waCcsICc3LjAnLCAnLXRuJywgJzgnLCAnLW1hJywgJzIwMCcsICctbWV0YWxfYmluZGluZycsICctaW1hZScsICc8aW5maWxlLm1hZT4nLCAnLW9tYWUnLCAnPG91dGZpbGUubWFlPic=

> <r_epik_Ionization_Penalty>
0.559944

> <r_epik_Ionization_Penalty_Charging>
0.558624

> <r_epik_Ionization_Penalty_Neutral>
0.00131959

> <r_epik_State_Penalty>
2.08679

> <r_epik_Charging_Adjusted_Penalty>
2.64542

> <i_epik_Tot_Q>
1

> <i_epik_Tot_abs_Q>
1

> <r_epik_Metal_State_Penalty>
2.0868

> <b_epik_Metal_Only>
0

> <s_lp_Force_Field>
OPLS_2005

> <r_lp_Energy>
23.1114

> <b_lp_Chiralities_Consistent>
1

> <s_lp_Variant>
AV-unprocessed.smi:3343-5

> <Gold.Version>
5.8.1

> <Gold.Id.Protein>
6NUR|6NUR_protein|mol2

> <Gold.PLP.Fitness>
47.8799

> <Gold.PLP.PLP>
-32.3884

> <Gold.PLP.part.hbond>
-4.0000

> <Gold.PLP.part.metal>
0.0000

> <Gold.PLP.part.buried>
-3.7063

> <Gold.PLP.part.nonpolar>
-24.7976

> <Gold.PLP.part.repulsive>
0.2967

> <Gold.PLP.ligand.clash>
0.0000

> <Gold.PLP.ligand.torsion>
0.5541

> <Gold.PLP.Chemscore.Hbond>
4.5868

> <Gold.PLP.Chemscore.CHOScore>
0.9054

> <Gold.PLP.Chemscore.Metal>
0.0000

> <Gold.Chemscore.Hbonds>
donor molecule, donor type, donor heavy atom, donor atom, acceptor molecule, acceptor atom, score
      L1  H     5    24       P1  7948  1.00
      L1  H     8    42       P1  7948  2.00
      P1  H  7989  7998       L1    19  1.00
      P1  H 10752 10765       L1    17  0.62
      L1  C    16    40       P1  7948  0.29
      L1  C    16    40       P1  7949  0.56

> <Gold.PLP.Chemscore.Internal.Correction>
0.1231

> <Gold.Rescore>
     Score         DG    S(hbond)    S(metal)    S(lipo)     H(rot)  DE(clash)    DE(int)     intcor
     13.21     -13.71       2.88        0.00      45.77       2.63       0.04       0.47       ----

> <Gold.Chemscore.Fitness>
13.2111

> <Gold.Chemscore.DG>
-13.7148

> <Gold.Chemscore.ZeroCoef>
-5.4800

> <Gold.Chemscore.Hbond>
2.8763

> <Gold.Chemscore.Metal>
0.0000

> <Gold.Chemscore.Lipo>
45.7707

> <Gold.Chemscore.Internal_Hbond>
0.0000

> <Gold.Chemscore.DEClash>
0.0360

> <Gold.Chemscore.DEInternal>
0.4677

> <Gold.Chemscore.Rot>
2.6278

> <Gold.Chemscore.Internal.Correction>
   9.000000E+99

> <Gold.Chemscore.Hbonds>
donor molecule, donor type, donor heavy atom, donor atom, acceptor molecule, acceptor atom, score
      L1  H     5    24       P1  7948  1.00
      L1  H     8    42       P1  7948  0.98
      P1  H  7989  7998       L1    19  0.27
      P1  H 10752 10765       L1    17  0.21

> <Gold.Chemscore.Hbond.Weighted>
-9.6067

> <Gold.Chemscore.Metal.Weighted>
-0.0000

> <Gold.Chemscore.Lipo.Weighted>
-5.3552

> <Gold.Chemscore.Internal_Hbond.Weighted>
0.0000

> <Gold.Chemscore.DEClash.Weighted>
0.0360

> <Gold.Chemscore.DEInternal.Weighted>
0.4677

> <Gold.Chemscore.Rot.Weighted>
6.7271

> <Gold.Chemscore.Internal.Correction.Weighted>
   9.000000E+99

> <Gold.Protein.RotatedTorsions>
[ 6907 6896 6895 6894 ] final  -55.01 input  -60.11 | X-H torsion
[ 7974 7965 7964 7962 ] final  152.19 input  175.53 | X-H torsion
[ 8008 7997 7996 7995 ] final   81.08 input   59.86 | X-H torsion
[ 10167 10162 10161 10158 ] final -152.96 input  -65.29 | X-H torsion
[ 10718 10713 10712 10709 ] final  -54.18 input   66.30 | X-H torsion
[ 10763 10752 10751 10750 ] final  157.15 input  -60.55 | X-H torsion
[ 11005 11000 10999 10996 ] final  -29.88 input  -57.11 | X-H torsion

> <Gold.Protein.ActiveResidues>
 VAL166  LYS551  ARG553  GLY616  TRP617  ASP618  TYR619  PRO620  LYS621  CYS622 
 ASP623  PHE694  ASN695  SER759  ASP760  ASP761  ALA762  ILE779  LEU786  VAL792 
 PHE793  MET794  SER795  GLU796  ALA797  LYS798  CYS799  TRP800  GLU811  SER814 

> <Gold.Protein.RotatedAtoms>
  150.8288  134.7532  159.6835 H   0  0  0  0  0  0  0  0  0  0  0  0  # atno 6907 bound_to 6896
  152.4395  134.5615  159.9905 H   0  0  0  0  0  0  0  0  0  0  0  0  # atno 6908 bound_to 6896
  151.5781  133.3343  159.3039 H   0  0  0  0  0  0  0  0  0  0  0  0  # atno 6909 bound_to 6896
  144.8239  139.6636  143.6088 H   0  0  0  0  0  0  0  0  0  0  0  0  # atno 7974 bound_to 7965
  155.8922  140.3438  155.5964 H   0  0  0  0  0  0  0  0  0  0  0  0  # atno 8008 bound_to 7997
  155.7597  140.0831  157.2180 H   0  0  0  0  0  0  0  0  0  0  0  0  # atno 8009 bound_to 7997
  154.4034  140.1538  156.2806 H   0  0  0  0  0  0  0  0  0  0  0  0  # atno 8010 bound_to 7997
  139.7137  143.9067  152.2478 H   0  0  0  0  0  0  0  0  0  0  0  0  # atno 10167 bound_to 10162
  156.1472  130.4152  150.0004 H   0  0  0  0  0  0  0  0  0  0  0  0  # atno 10718 bound_to 10713
  154.1957  135.2792  155.3007 H   0  0  0  0  0  0  0  0  0  0  0  0  # atno 10763 bound_to 10752
  154.5893  135.5564  153.7266 H   0  0  0  0  0  0  0  0  0  0  0  0  # atno 10764 bound_to 10752
  153.0100  135.6364  154.2096 H   0  0  0  0  0  0  0  0  0  0  0  0  # atno 10765 bound_to 10752
  140.9334  133.7324  156.0970 H   0  0  0  0  0  0  0  0  0  0  0  0  # atno 11005 bound_to 11000
  146.2545  139.6271  142.9404 LP  0  0  0  0  0  0  0  0  0  0  0  0  # atno 17320 bound_to 7965
  145.5043  141.0437  143.2523 LP  0  0  0  0  0  0  0  0  0  0  0  0  # atno 17321 bound_to 7965
  139.8944  144.6947  150.8735 LP  0  0  0  0  0  0  0  0  0  0  0  0  # atno 17342 bound_to 10162
  140.7739  143.3562  151.1917 LP  0  0  0  0  0  0  0  0  0  0  0  0  # atno 17343 bound_to 10162
  156.7872  130.9243  151.3646 LP  0  0  0  0  0  0  0  0  0  0  0  0  # atno 17370 bound_to 10713
  157.6627  130.8980  149.9864 LP  0  0  0  0  0  0  0  0  0  0  0  0  # atno 17371 bound_to 10713
  140.7832  134.3702  157.5482 LP  0  0  0  0  0  0  0  0  0  0  0  0  # atno 17394 bound_to 11000
  139.8802  134.9094  156.2990 LP  0  0  0  0  0  0  0  0  0  0  0  0  # atno 17395 bound_to 11000

$$$$
