AV-unprocessed.smi:1831|AV-procd|sdf|7460|dock6
  -GOLD-   22720 9153D 1   1.00000     0.00000
 Structure written by MMmdl.
 40 41  0  0  0  0  0  0  0  0  3 V2000
  146.8352  135.4187  161.9436 C   0  0  0  0  0  0  0  0  0  0  0  0
  147.7071  135.9256  160.8467 C   0  0  0  0  0  0  0  0  0  0  0  0
  148.2692  137.1363  160.8734 N   0  0  0  0  0  0  0  0  0  0  0  0
  149.0380  137.3810  159.7446 N   0  0  0  0  0  0  0  0  0  0  0  0
  149.0529  136.3522  158.8860 C   0  0  0  0  0  0  0  0  0  0  0  0
  149.7384  136.3857  157.7315 N   0  5  0  0  0  0  0  0  0  0  0  0
  149.8466  135.2677  156.9808 C   0  0  0  0  0  0  0  0  0  0  0  0
  149.9795  134.1163  157.4004 O   0  0  0  0  0  0  0  0  0  0  0  0
  149.7503  135.4952  155.6630 N   0  0  0  0  0  0  0  0  0  0  0  0
  149.6991  134.4838  154.6074 C   0  0  0  0  0  0  0  0  0  0  0  0
  148.3601  133.7042  154.5690 C   0  0  2  0  0  0  0  0  0  0  0  0
  148.3750  132.4983  153.6176 C   0  0  0  0  0  0  0  0  0  0  0  0
  147.5632  132.9210  152.3834 C   0  0  0  0  0  0  0  0  0  0  0  0
  147.1324  134.3197  152.6070 N   0  3  1  0  0  0  0  0  0  0  0  0
  145.8725  134.7242  151.9246 C   0  0  0  0  0  0  0  0  0  0  0  0
  145.6049  136.2313  152.0961 C   0  0  0  0  0  0  0  0  0  0  0  0
  144.6675  133.9225  152.4507 C   0  0  0  0  0  0  0  0  0  0  0  0
  147.1712  134.5322  154.0688 C   0  0  0  0  0  0  0  0  0  0  0  0
  148.0788  134.9808  159.4144 S   0  0  0  0  0  0  0  0  0  0  0  0
  147.4190  135.2901  162.8551 H   0  0  0  0  0  0  0  0  0  0  0  0
  146.3988  134.4583  161.6692 H   0  0  0  0  0  0  0  0  0  0  0  0
  146.0283  136.1254  162.1386 H   0  0  0  0  0  0  0  0  0  0  0  0
  149.6628  136.4575  155.3702 H   0  0  0  0  0  0  0  0  0  0  0  0
  149.8383  135.0014  153.6580 H   0  0  0  0  0  0  0  0  0  0  0  0
  150.5383  133.7917  154.6924 H   0  0  0  0  0  0  0  0  0  0  0  0
  148.1552  133.3666  155.5858 H   0  0  0  0  0  0  0  0  0  0  0  0
  149.3879  132.1919  153.3534 H   0  0  0  0  0  0  0  0  0  0  0  0
  147.8977  131.6403  154.0928 H   0  0  0  0  0  0  0  0  0  0  0  0
  148.1546  132.8516  151.4698 H   0  0  0  0  0  0  0  0  0  0  0  0
  146.6969  132.2668  152.2745 H   0  0  0  0  0  0  0  0  0  0  0  0
  145.9802  134.5167  150.8589 H   0  0  0  0  0  0  0  0  0  0  0  0
  144.6609  136.5166  151.6309 H   0  0  0  0  0  0  0  0  0  0  0  0
  146.3817  136.8399  151.6334 H   0  0  0  0  0  0  0  0  0  0  0  0
  145.5498  136.5066  153.1496 H   0  0  0  0  0  0  0  0  0  0  0  0
  143.7390  134.2682  151.9953 H   0  0  0  0  0  0  0  0  0  0  0  0
  144.5639  134.0260  153.5315 H   0  0  0  0  0  0  0  0  0  0  0  0
  144.7535  132.8602  152.2225 H   0  0  0  0  0  0  0  0  0  0  0  0
  146.2486  134.1504  154.5093 H   0  0  0  0  0  0  0  0  0  0  0  0
  147.2549  135.5850  154.3380 H   0  0  0  0  0  0  0  0  0  0  0  0
  147.8717  134.8983  152.2309 H   0  0  0  0  0  0  0  0  0  0  0  0
  1  2  1  0  0  0  0
  1 20  1  0  0  0  0
  1 21  1  0  0  0  0
  1 22  1  0  0  0  0
  2 19  1  0  0  0  0
  2  3  2  0  0  0  0
  3  4  1  0  0  0  0
  4  5  2  0  0  0  0
  5  6  1  0  0  0  0
  5 19  1  0  0  0  0
  6  7  1  0  0  0  0
  7  8  2  0  0  0  0
  7  9  1  0  0  0  0
  9 10  1  0  0  0  0
  9 23  1  0  0  0  0
 10 11  1  0  0  0  0
 10 24  1  0  0  0  0
 10 25  1  0  0  0  0
 11 18  1  0  0  0  0
 11 12  1  0  0  0  0
 11 26  1  0  0  0  0
 12 13  1  0  0  0  0
 12 27  1  0  0  0  0
 12 28  1  0  0  0  0
 13 14  1  0  0  0  0
 13 29  1  0  0  0  0
 13 30  1  0  0  0  0
 14 15  1  0  0  0  0
 14 18  1  0  0  0  0
 14 40  1  0  0  0  0
 15 16  1  0  0  0  0
 15 17  1  0  0  0  0
 15 31  1  0  0  0  0
 16 32  1  0  0  0  0
 16 33  1  0  0  0  0
 16 34  1  0  0  0  0
 17 35  1  0  0  0  0
 17 36  1  0  0  0  0
 17 37  1  0  0  0  0
 18 38  1  0  0  0  0
 18 39  1  0  0  0  0
M  CHG  1   6  -1
M  CHG  1  14   1
M  END
> <s_m_source_file>
AV-unprocessed.smi

> <i_m_source_file_index>
1831

> <i_lp_mmshare_version>
43012

> <i_f3d_flags>
0

> <s_epik_input>
W0NIM11jMW5uYyhzMSlbTkhdQyg9TylbTkhdW0NIMl1bQ0BASF0yW0NIMl1bQ0gyXU4oW0NIMl0yKVtDSF0oW0NIM10pW0NIM10=

> <s_epik_cmdline>
J2VwaWtfcHl0aG9uJywgJy1waCcsICc3LjAnLCAnLXRuJywgJzgnLCAnLW1hJywgJzIwMCcsICctbWV0YWxfYmluZGluZycsICctaW1hZScsICc8aW5maWxlLm1hZT4nLCAnLW9tYWUnLCAnPG91dGZpbGUubWFlPic=

> <r_lp_tautomer_probability>
1

> <r_epik_Ionization_Penalty>
4.24531

> <r_epik_Ionization_Penalty_Charging>
4.11954

> <r_epik_Ionization_Penalty_Neutral>
0.125766

> <r_epik_State_Penalty>
4.11879

> <r_epik_Charging_Adjusted_Penalty>
8.23833

> <i_epik_Tot_Q>
0

> <i_epik_Tot_abs_Q>
2

> <r_epik_Metal_State_Penalty>
0.659341

> <b_epik_Metal_Only>
1

> <s_lp_Force_Field>
OPLS_2005

> <r_lp_Energy>
22.0545

> <b_lp_Chiralities_Consistent>
1

> <s_lp_Variant>
AV-unprocessed.smi:1831-5

> <Gold.Version>
5.8.1

> <Gold.Id.Protein>
6NUR|6NUR_protein|mol2

> <Gold.PLP.Fitness>
40.9188

> <Gold.PLP.PLP>
-28.9601

> <Gold.PLP.part.hbond>
-5.3718

> <Gold.PLP.part.metal>
0.0000

> <Gold.PLP.part.buried>
-3.1850

> <Gold.PLP.part.nonpolar>
-20.8715

> <Gold.PLP.part.repulsive>
0.0464

> <Gold.PLP.ligand.clash>
0.0000

> <Gold.PLP.ligand.torsion>
0.4304

> <Gold.PLP.Chemscore.Hbond>
4.2265

> <Gold.PLP.Chemscore.CHOScore>
0.0000

> <Gold.PLP.Chemscore.Metal>
0.0000

> <Gold.Chemscore.Hbonds>
donor molecule, donor type, donor heavy atom, donor atom, acceptor molecule, acceptor atom, score
      L1  H    14    40       P1  7948  2.00
      P1  H  6896  6908       L1     8  0.94
      P1  H  6931  6943       L1     3  0.79
      P1  H  6934  6947       L1     3  0.37

> <Gold.PLP.Chemscore.Internal.Correction>
0.1400

> <Gold.Rescore>
     Score         DG    S(hbond)    S(metal)    S(lipo)     H(rot)  DE(clash)    DE(int)     intcor
     13.88     -15.66       2.28        0.00      54.96       1.51       0.11       1.67       ----

> <Gold.Chemscore.Fitness>
13.8789

> <Gold.Chemscore.DG>
-15.6629

> <Gold.Chemscore.ZeroCoef>
-5.4800

> <Gold.Chemscore.Hbond>
2.2834

> <Gold.Chemscore.Metal>
0.0000

> <Gold.Chemscore.Lipo>
54.9553

> <Gold.Chemscore.Internal_Hbond>
0.0000

> <Gold.Chemscore.DEClash>
0.1103

> <Gold.Chemscore.DEInternal>
1.6737

> <Gold.Chemscore.Rot>
1.5131

> <Gold.Chemscore.Internal.Correction>
   9.000000E+99

> <Gold.Chemscore.Hbonds>
donor molecule, donor type, donor heavy atom, donor atom, acceptor molecule, acceptor atom, score
      L1  H    14    40       P1  7948  0.74
      P1  H  6896  6908       L1     8  0.78
      P1  H  6931  6943       L1     3  0.13
      P1  H  6934  6947       L1     3  0.07

> <Gold.Chemscore.Hbond.Weighted>
-7.6266

> <Gold.Chemscore.Metal.Weighted>
-0.0000

> <Gold.Chemscore.Lipo.Weighted>
-6.4298

> <Gold.Chemscore.Internal_Hbond.Weighted>
0.0000

> <Gold.Chemscore.DEClash.Weighted>
0.1103

> <Gold.Chemscore.DEInternal.Weighted>
1.6737

> <Gold.Chemscore.Rot.Weighted>
3.8735

> <Gold.Chemscore.Internal.Correction.Weighted>
   9.000000E+99

> <Gold.Protein.RotatedTorsions>
[ 6907 6896 6895 6894 ] final  128.65 input  -60.11 | X-H torsion
[ 7974 7965 7964 7962 ] final -147.33 input  175.53 | X-H torsion
[ 8008 7997 7996 7995 ] final  -52.07 input   59.86 | X-H torsion
[ 10167 10162 10161 10158 ] final -158.94 input  -65.29 | X-H torsion
[ 10718 10713 10712 10709 ] final -142.97 input   66.30 | X-H torsion
[ 10763 10752 10751 10750 ] final -173.06 input  -60.55 | X-H torsion
[ 11005 11000 10999 10996 ] final  166.13 input  -57.11 | X-H torsion

> <Gold.Protein.ActiveResidues>
 VAL166  LYS551  ARG553  GLY616  TRP617  ASP618  TYR619  PRO620  LYS621  CYS622 
 ASP623  PHE694  ASN695  SER759  ASP760  ASP761  ALA762  ILE779  LEU786  VAL792 
 PHE793  MET794  SER795  GLU796  ALA797  LYS798  CYS799  TRP800  GLU811  SER814 

> <Gold.Protein.RotatedAtoms>
  152.3699  133.6405  159.6078 H   0  0  0  0  0  0  0  0  0  0  0  0  # atno 6907 bound_to 6896
  150.7661  133.9288  159.3429 H   0  0  0  0  0  0  0  0  0  0  0  0  # atno 6908 bound_to 6896
  151.7112  135.0913  160.0319 H   0  0  0  0  0  0  0  0  0  0  0  0  # atno 6909 bound_to 6896
  144.8100  140.5340  143.5649 H   0  0  0  0  0  0  0  0  0  0  0  0  # atno 7974 bound_to 7965
  154.4097  140.1233  156.4931 H   0  0  0  0  0  0  0  0  0  0  0  0  # atno 8008 bound_to 7997
  155.6970  140.3495  155.4897 H   0  0  0  0  0  0  0  0  0  0  0  0  # atno 8009 bound_to 7997
  155.9419  140.1088  157.1039 H   0  0  0  0  0  0  0  0  0  0  0  0  # atno 8010 bound_to 7997
  139.6653  143.9840  152.2251 H   0  0  0  0  0  0  0  0  0  0  0  0  # atno 10167 bound_to 10162
  156.3523  130.7694  151.1849 H   0  0  0  0  0  0  0  0  0  0  0  0  # atno 10718 bound_to 10713
  154.6122  135.2866  155.0419 H   0  0  0  0  0  0  0  0  0  0  0  0  # atno 10763 bound_to 10752
  154.1645  135.6483  153.4998 H   0  0  0  0  0  0  0  0  0  0  0  0  # atno 10764 bound_to 10752
  153.0200  135.5386  154.6880 H   0  0  0  0  0  0  0  0  0  0  0  0  # atno 10765 bound_to 10752
  140.2632  134.7885  157.3609 H   0  0  0  0  0  0  0  0  0  0  0  0  # atno 11005 bound_to 11000
  145.5346  139.1475  143.3480 LP  0  0  0  0  0  0  0  0  0  0  0  0  # atno 17320 bound_to 7965
  146.2397  140.5487  142.8939 LP  0  0  0  0  0  0  0  0  0  0  0  0  # atno 17321 bound_to 7965
  139.9590  144.6570  150.8098 LP  0  0  0  0  0  0  0  0  0  0  0  0  # atno 17342 bound_to 10162
  140.7597  143.3134  151.2790 LP  0  0  0  0  0  0  0  0  0  0  0  0  # atno 17343 bound_to 10162
  157.7463  131.0424  150.4692 LP  0  0  0  0  0  0  0  0  0  0  0  0  # atno 17370 bound_to 10713
  156.4889  130.4091  149.6418 LP  0  0  0  0  0  0  0  0  0  0  0  0  # atno 17371 bound_to 10713
  140.1444  134.4930  155.8007 LP  0  0  0  0  0  0  0  0  0  0  0  0  # atno 17394 bound_to 11000
  141.2187  133.6838  156.7268 LP  0  0  0  0  0  0  0  0  0  0  0  0  # atno 17395 bound_to 11000

$$$$
