#       Name:                AV-unprocessed.smi:995
#       Creating user name   scv26
#       Creation time:       Fri Mar 27 02:24:36 2020


#       File generated by GOLD software.
#

@<TRIPOS>MOLECULE
AV-unprocessed.smi:995
    46    47     1
SMALL
NO_CHARGES


@<TRIPOS>ATOM
      1 ****        -1.8378   0.6465   1.8523 O.2            1 S1                 0.0000
      2 ****        -2.3039  -0.0152   0.9246 C.2            1 S1                 0.0000
      3 ****        -1.5603  -0.6461  -0.0041 N.am           1 S1                 0.0000
      4 ****        -0.1479  -0.6509  -0.1621 C.ar           1 S1                 0.0000
      5 ****         0.4284  -1.6920  -0.9174 C.ar           1 S1                 0.0000
      6 ****         1.8229  -1.7129  -1.1070 C.ar           1 S1                 0.0000
      7 ****         2.6003  -0.6832  -0.5411 C.ar           1 S1                 0.0000
      8 ****         3.9670  -0.7101  -0.7277 O.3            1 S1                 0.0000
      9 ****         4.7538   0.3293  -0.1512 C.3            1 S1                 0.0000
     10 ****         6.2332   0.0900  -0.4878 C.3            1 S1                 0.0000
     11 ****         6.6137  -1.0881   0.0084 F              1 S1                 0.0000
     12 ****         6.3611   0.0762  -1.8153 F              1 S1                 0.0000
     13 ****         7.1474   1.1918   0.0714 C.3            1 S1                 0.0000
     14 ****         7.0076   1.3100   1.3921 F              1 S1                 0.0000
     15 ****         8.4237   0.9385  -0.2186 F              1 S1                 0.0000
     16 ****         2.0549   0.3316   0.1736 N.ar           1 S1                 0.0000
     17 ****         0.7169   0.3456   0.3530 C.ar           1 S1                 0.0000
     18 ****        -3.8241  -0.2063   0.8083 C.3            1 S1                 0.0000
     19 ****        -4.6260   0.9406   1.4667 C.3            1 S1                 0.0000
     20 ****        -6.0168   0.7093   1.2827 O.3            1 S1                 0.0000
     21 ****        -6.3541   0.6494  -0.0959 C.3            1 S1                 0.0000
     22 ****        -5.5701  -0.4989  -0.7505 C.3            1 S1                 0.0000
     23 ****        -4.1788  -0.2698  -0.5717 O.3            1 S1                 0.0000
     24 ****        -2.0717  -1.2288  -0.6513 H              1 S1                 0.0000
     25 ****        -0.1877  -2.4696  -1.3449 H              1 S1                 0.0000
     26 ****         2.2880  -2.5040  -1.6765 H              1 S1                 0.0000
     27 ****         4.4416   1.2992  -0.5422 H              1 S1                 0.0000
     28 ****         4.6179   0.3449   0.9316 H              1 S1                 0.0000
     29 ****         6.9060   2.1627  -0.3620 H              1 S1                 0.0000
     30 ****         0.3473   1.1944   0.9065 H              1 S1                 0.0000
     31 ****        -4.0747  -1.1543   1.2878 H              1 S1                 0.0000
     32 ****        -4.4271   0.9877   2.5379 H              1 S1                 0.0000
     33 ****        -4.3502   1.9090   1.0454 H              1 S1                 0.0000
     34 ****        -7.4266   0.4811  -0.1941 H              1 S1                 0.0000
     35 ****        -6.1307   1.6006  -0.5817 H              1 S1                 0.0000
     36 ****        -5.8530  -1.4608  -0.3200 H              1 S1                 0.0000
     37 ****        -5.7885  -0.5467  -1.8174 H              1 S1                 0.0000
     38 ****        -0.8472   0.7411   1.9506 LP             1 S1                 0.0000
     39 ****        -2.4499   1.0893   2.5075 LP             1 S1                 0.0000
     40 ****         4.1304  -0.6913  -1.7141 LP             1 S1                 0.0000
     41 ****         4.2991  -1.5749  -0.3512 LP             1 S1                 0.0000
     42 ****         2.6303   1.0530   0.5589 LP             1 S1                 0.0000
     43 ****        -6.5299   1.4530   1.7112 LP             1 S1                 0.0000
     44 ****        -6.2626  -0.1579   1.7158 LP             1 S1                 0.0000
     45 ****        -3.6703  -1.0154  -1.0024 LP             1 S1                 0.0000
     46 ****        -3.9349   0.5960  -1.0086 LP             1 S1                 0.0000
@<TRIPOS>BOND
    1    1    2 2     
    2    2    3 am    
    3    2   18 1     
    4    3    4 1     
    5    3   24 1     
    6    4   17 ar    
    7    4    5 ar    
    8    5    6 ar    
    9    5   25 1     
   10    6    7 ar    
   11    6   26 1     
   12    7    8 1     
   13    7   16 ar    
   14    8    9 1     
   15    9   10 1     
   16    9   27 1     
   17    9   28 1     
   18   10   11 1     
   19   10   12 1     
   20   10   13 1     
   21   13   14 1     
   22   13   15 1     
   23   13   29 1     
   24   16   17 ar    
   25   17   30 1     
   26   18   23 1     
   27   18   19 1     
   28   18   31 1     
   29   19   20 1     
   30   19   32 1     
   31   19   33 1     
   32   20   21 1     
   33   21   22 1     
   34   21   34 1     
   35   21   35 1     
   36   22   23 1     
   37   22   36 1     
   38   22   37 1     
   39    1   38 1     
   40    1   39 1     
   41    8   40 1     
   42    8   41 1     
   43   16   42 1     
   44   20   43 1     
   45   20   44 1     
   46   23   45 1     
   47   23   46 1     
@<TRIPOS>SUBSTRUCTURE
      1 S1             1
@<TRIPOS>SET
LONE_PAIRS      STATIC     ATOMS    <user>   **** ""
9 38 39 40 41 42 43 44 45 46
DONOR_HYDROGENS      STATIC     ATOMS    <user>   **** ""
1 24
ATOM$BLUE        STATIC     ATOMS    COLORGROUP SYSTEM
9 38 39 40 41 42 43 44 45 46
ATOM$RED        STATIC     ATOMS    COLORGROUP SYSTEM
1 24
