AV-unprocessed.smi:34|AV-procd|sdf|221|dock5
  -GOLD-   2262015543D 1   1.00000     0.00000
 Structure written by MMmdl.
 55 59  0  0  0  0  0  0  0  0  1 V2000
  153.3065  136.4394  160.0747 O   0  0  0  0  0  0  0  0  0  0  0  0
  153.3380  137.5819  160.5329 C   0  0  0  0  0  0  0  0  0  0  0  0
  152.7728  138.7154  159.8220 N   0  0  0  0  0  0  0  0  0  0  0  0
  152.0718  138.7110  158.6636 C   0  0  0  0  0  0  0  0  0  0  0  0
  151.8843  137.5831  157.9289 N   0  0  0  0  0  0  0  0  0  0  0  0
  151.1779  137.6278  156.7956 C   0  0  0  0  0  0  0  0  0  0  0  0
  150.5814  138.6766  156.2263 N   0  0  0  0  0  0  0  0  0  0  0  0
  150.7651  139.8136  156.9574 C   0  0  0  0  0  0  0  0  0  0  0  0
  151.4922  139.9116  158.1764 C   0  0  0  0  0  0  0  0  0  0  0  0
  151.4653  141.2222  158.6355 N   0  0  0  0  0  0  0  0  0  0  0  0
  150.7603  141.8576  157.7379 C   0  0  0  0  0  0  0  0  0  0  0  0
  150.3022  141.0863  156.6930 N   0  0  0  0  0  0  0  0  0  0  0  0
  149.4717  141.5221  155.5311 C   0  0  2  0  0  0  0  0  0  0  0  0
  148.2301  141.9198  156.0198 O   0  0  0  0  0  0  0  0  0  0  0  0
  147.2478  141.6099  155.0448 C   0  0  2  0  0  0  0  0  0  0  0  0
  145.8461  141.5905  155.6665 C   0  0  0  0  0  0  0  0  0  0  0  0
  145.3689  142.9210  155.7800 O   0  0  0  0  0  0  0  0  0  0  0  0
  145.1828  143.6671  154.6737 C   0  0  0  0  0  0  0  0  0  0  0  0
  145.7355  143.4388  153.5957 O   0  0  0  0  0  0  0  0  0  0  0  0
  144.2378  144.8006  154.8906 C   0  0  0  0  0  0  0  0  0  0  0  0
  143.8736  145.6189  153.7957 C   0  0  0  0  0  0  0  0  0  0  0  0
  142.9822  146.6953  153.9697 C   0  0  0  0  0  0  0  0  0  0  0  0
  142.4429  146.9660  155.2408 C   0  0  0  0  0  0  0  0  0  0  0  0
  142.7966  146.1593  156.3379 C   0  0  0  0  0  0  0  0  0  0  0  0
  143.6885  145.0828  156.1660 C   0  0  0  0  0  0  0  0  0  0  0  0
  147.7161  140.2596  154.4975 C   0  0  2  0  0  0  0  0  0  0  0  0
  147.3136  139.2599  155.2838 F   0  0  0  0  0  0  0  0  0  0  0  0
  149.2367  140.3629  154.5453 C   0  0  1  0  0  0  0  0  0  0  0  0
  149.7349  140.6579  153.2559 O   0  0  0  0  0  0  0  0  0  0  0  0
  154.0430  137.8960  161.8208 C   0  0  0  0  0  0  0  0  0  0  0  0
  153.9631  136.9964  162.9078 C   0  0  0  0  0  0  0  0  0  0  0  0
  154.6068  137.2904  164.1258 C   0  0  0  0  0  0  0  0  0  0  0  0
  155.3302  138.4894  164.2696 C   0  0  0  0  0  0  0  0  0  0  0  0
  155.4046  139.3971  163.1964 C   0  0  0  0  0  0  0  0  0  0  0  0
  154.7610  139.1046  161.9780 C   0  0  0  0  0  0  0  0  0  0  0  0
  152.8972  139.6169  160.2591 H   0  0  0  0  0  0  0  0  0  0  0  0
  151.0759  136.6896  156.2706 H   0  0  0  0  0  0  0  0  0  0  0  0
  150.5535  142.9153  157.8144 H   0  0  0  0  0  0  0  0  0  0  0  0
  150.0051  142.3689  155.0961 H   0  0  0  0  0  0  0  0  0  0  0  0
  147.2982  142.3535  154.2472 H   0  0  0  0  0  0  0  0  0  0  0  0
  145.1659  141.0231  155.0300 H   0  0  0  0  0  0  0  0  0  0  0  0
  145.8672  141.1058  156.6437 H   0  0  0  0  0  0  0  0  0  0  0  0
  144.2748  145.4305  152.8101 H   0  0  0  0  0  0  0  0  0  0  0  0
  142.7120  147.3137  153.1263 H   0  0  0  0  0  0  0  0  0  0  0  0
  141.7590  147.7913  155.3743 H   0  0  0  0  0  0  0  0  0  0  0  0
  142.3829  146.3656  157.3141 H   0  0  0  0  0  0  0  0  0  0  0  0
  143.9374  144.4824  157.0289 H   0  0  0  0  0  0  0  0  0  0  0  0
  147.3198  140.0493  153.5033 H   0  0  0  0  0  0  0  0  0  0  0  0
  149.6946  139.4391  154.9030 H   0  0  0  0  0  0  0  0  0  0  0  0
  149.4532  139.9778  152.6634 H   0  0  0  0  0  0  0  0  0  0  0  0
  153.4108  136.0722  162.8142 H   0  0  0  0  0  0  0  0  0  0  0  0
  154.5441  136.5957  164.9503 H   0  0  0  0  0  0  0  0  0  0  0  0
  155.8237  138.7147  165.2035 H   0  0  0  0  0  0  0  0  0  0  0  0
  155.9538  140.3205  163.3086 H   0  0  0  0  0  0  0  0  0  0  0  0
  154.8230  139.8205  161.1712 H   0  0  0  0  0  0  0  0  0  0  0  0
  1  2  2  0  0  0  0
  2  3  1  0  0  0  0
  2 30  1  0  0  0  0
  3  4  1  0  0  0  0
  3 36  1  0  0  0  0
  4  9  1  0  0  0  0
  4  5  2  0  0  0  0
  5  6  1  0  0  0  0
  6  7  2  0  0  0  0
  6 37  1  0  0  0  0
  7  8  1  0  0  0  0
  8 12  1  0  0  0  0
  8  9  2  0  0  0  0
  9 10  1  0  0  0  0
 10 11  2  0  0  0  0
 11 12  1  0  0  0  0
 11 38  1  0  0  0  0
 12 13  1  0  0  0  0
 13 28  1  0  0  0  0
 13 14  1  0  0  0  0
 13 39  1  0  0  0  0
 14 15  1  0  0  0  0
 15 16  1  0  0  0  0
 15 26  1  0  0  0  0
 15 40  1  0  0  0  0
 16 17  1  0  0  0  0
 16 41  1  0  0  0  0
 16 42  1  0  0  0  0
 17 18  1  0  0  0  0
 18 19  2  0  0  0  0
 18 20  1  0  0  0  0
 20 25  1  0  0  0  0
 20 21  2  0  0  0  0
 21 22  1  0  0  0  0
 21 43  1  0  0  0  0
 22 23  2  0  0  0  0
 22 44  1  0  0  0  0
 23 24  1  0  0  0  0
 23 45  1  0  0  0  0
 24 25  2  0  0  0  0
 24 46  1  0  0  0  0
 25 47  1  0  0  0  0
 26 27  1  0  0  0  0
 26 28  1  0  0  0  0
 26 48  1  0  0  0  0
 28 29  1  0  0  0  0
 28 49  1  0  0  0  0
 29 50  1  0  0  0  0
 30 35  1  0  0  0  0
 30 31  2  0  0  0  0
 31 32  1  0  0  0  0
 31 51  1  0  0  0  0
 32 33  2  0  0  0  0
 32 52  1  0  0  0  0
 33 34  1  0  0  0  0
 33 53  1  0  0  0  0
 34 35  2  0  0  0  0
 34 54  1  0  0  0  0
 35 55  1  0  0  0  0
M  END
> <s_m_source_file>
AV-unprocessed.smi

> <i_m_source_file_index>
34

> <i_lp_mmshare_version>
43012

> <i_f3d_flags>
0

> <s_epik_input>
W2NIXTFbY0hdW2NIXVtjSF1bY0hdYzFDKD1PKVtOSF1jKG5bY0hdbjIpYyhjMjMpbltjSF1uM1tDQEBIXTRPW0NASF0oW0NAQEhdKEYpW0NASF00W09IXSlbQ0gyXU9DKD1PKWM1W2NIXVtjSF1bY0hdW2NIXVtjSF01

> <s_epik_cmdline>
J2VwaWtfcHl0aG9uJywgJy1waCcsICc3LjAnLCAnLXRuJywgJzgnLCAnLW1hJywgJzIwMCcsICctbWV0YWxfYmluZGluZycsICctaW1hZScsICc8aW5maWxlLm1hZT4nLCAnLW9tYWUnLCAnPG91dGZpbGUubWFlPic=

> <r_lp_tautomer_probability>
1

> <r_epik_Ionization_Penalty>
0.00257489

> <r_epik_Ionization_Penalty_Charging>
0

> <r_epik_Ionization_Penalty_Neutral>
0.00257489

> <r_epik_State_Penalty>
0.00519398

> <r_epik_Charging_Adjusted_Penalty>
0.00519398

> <i_epik_Tot_Q>
0

> <i_epik_Tot_abs_Q>
0

> <r_epik_Metal_State_Penalty>
0.335891

> <b_epik_Metal_Only>
0

> <s_epik_Chemistry_Notes>
This compound has an ester and may undergo hydrolysis at high or low pH. This compound contains an acetal/aminal-like group ( X-CH(R)-Y where X, Y are N, S, or O) that may be acid/base labile, releasing an aldehyde.

> <s_lp_Force_Field>
OPLS_2005

> <r_lp_Energy>
45.7986

> <b_lp_Chiralities_Consistent>
1

> <s_lp_Variant>
AV-unprocessed.smi:34-7

> <Gold.Version>
5.8.1

> <Gold.Id.Protein>
6NUR|6NUR_protein|mol2

> <Gold.PLP.Fitness>
56.6930

> <Gold.PLP.PLP>
-50.7126

> <Gold.PLP.part.hbond>
-2.5747

> <Gold.PLP.part.metal>
0.0000

> <Gold.PLP.part.buried>
-8.2525

> <Gold.PLP.part.nonpolar>
-41.7462

> <Gold.PLP.part.repulsive>
1.5403

> <Gold.PLP.ligand.clash>
0.5642

> <Gold.PLP.ligand.torsion>
1.0646

> <Gold.PLP.Chemscore.Hbond>
2.8036

> <Gold.PLP.Chemscore.CHOScore>
0.0000

> <Gold.PLP.Chemscore.Metal>
0.0000

> <Gold.Chemscore.Hbonds>
donor molecule, donor type, donor heavy atom, donor atom, acceptor molecule, acceptor atom, score
      L1  H    29    50       P1  7957  0.46
      P1  H  6896  6908       L1     1  1.00
      P1  H  7989  7998       L1    29  0.30
      P1  H  8011  8017       L1    29  1.00

> <Gold.PLP.Chemscore.Internal.Correction>
0.2631

> <Gold.Rescore>
     Score         DG    S(hbond)    S(metal)    S(lipo)     H(rot)  DE(clash)    DE(int)     intcor
     13.10     -19.04       2.40        0.00     107.05       2.72       0.71       5.22       ----

> <Gold.Chemscore.Fitness>
13.1043

> <Gold.Chemscore.DG>
-19.0434

> <Gold.Chemscore.ZeroCoef>
-5.4800

> <Gold.Chemscore.Hbond>
2.3969

> <Gold.Chemscore.Metal>
0.0000

> <Gold.Chemscore.Lipo>
107.0490

> <Gold.Chemscore.Internal_Hbond>
0.0000

> <Gold.Chemscore.DEClash>
0.7147

> <Gold.Chemscore.DEInternal>
5.2244

> <Gold.Chemscore.Rot>
2.7215

> <Gold.Chemscore.Internal.Correction>
   9.000000E+99

> <Gold.Chemscore.Hbonds>
donor molecule, donor type, donor heavy atom, donor atom, acceptor molecule, acceptor atom, score
      L1  H    29    50       P1  7957  0.43
      P1  H  6896  6908       L1     1  1.00
      P1  H  7989  7998       L1    29  0.17
      P1  H  8011  8017       L1    29  0.73

> <Gold.Chemscore.Hbond.Weighted>
-8.0058

> <Gold.Chemscore.Metal.Weighted>
-0.0000

> <Gold.Chemscore.Lipo.Weighted>
-12.5247

> <Gold.Chemscore.Internal_Hbond.Weighted>
0.0000

> <Gold.Chemscore.DEClash.Weighted>
0.7147

> <Gold.Chemscore.DEInternal.Weighted>
5.2244

> <Gold.Chemscore.Rot.Weighted>
6.9670

> <Gold.Chemscore.Internal.Correction.Weighted>
   9.000000E+99

> <Gold.Protein.RotatedTorsions>
[ 6907 6896 6895 6894 ] final  -80.19 input  -60.11 | X-H torsion
[ 7974 7965 7964 7962 ] final  -85.54 input  175.53 | X-H torsion
[ 8008 7997 7996 7995 ] final   93.05 input   59.86 | X-H torsion
[ 10167 10162 10161 10158 ] final  132.54 input  -65.29 | X-H torsion
[ 10718 10713 10712 10709 ] final  156.28 input   66.30 | X-H torsion
[ 10763 10752 10751 10750 ] final -100.56 input  -60.55 | X-H torsion
[ 11005 11000 10999 10996 ] final   -2.62 input  -57.11 | X-H torsion

> <Gold.Protein.ActiveResidues>
 VAL166  LYS551  ARG553  GLY616  TRP617  ASP618  TYR619  PRO620  LYS621  CYS622 
 ASP623  PHE694  ASN695  SER759  ASP760  ASP761  ALA762  ILE779  LEU786  VAL792 
 PHE793  MET794  SER795  GLU796  ALA797  LYS798  CYS799  TRP800  GLU811  SER814 

> <Gold.Protein.RotatedAtoms>
  150.6934  134.4007  159.5117 H   0  0  0  0  0  0  0  0  0  0  0  0  # atno 6907 bound_to 6896
  152.1781  134.8774  160.0538 H   0  0  0  0  0  0  0  0  0  0  0  0  # atno 6908 bound_to 6896
  151.9775  133.3711  159.4131 H   0  0  0  0  0  0  0  0  0  0  0  0  # atno 6909 bound_to 6896
  145.4919  140.9552  143.1807 H   0  0  0  0  0  0  0  0  0  0  0  0  # atno 7974 bound_to 7965
  156.0423  140.3318  155.7258 H   0  0  0  0  0  0  0  0  0  0  0  0  # atno 8008 bound_to 7997
  155.5725  140.0629  157.2820 H   0  0  0  0  0  0  0  0  0  0  0  0  # atno 8009 bound_to 7997
  154.4398  140.1858  156.0882 H   0  0  0  0  0  0  0  0  0  0  0  0  # atno 8010 bound_to 7997
  139.5335  144.6657  151.4867 H   0  0  0  0  0  0  0  0  0  0  0  0  # atno 10167 bound_to 10162
  157.2070  131.0689  151.1992 H   0  0  0  0  0  0  0  0  0  0  0  0  # atno 10718 bound_to 10713
  154.7588  135.4930  153.9426 H   0  0  0  0  0  0  0  0  0  0  0  0  # atno 10763 bound_to 10752
  153.1227  135.6735  153.9316 H   0  0  0  0  0  0  0  0  0  0  0  0  # atno 10764 bound_to 10752
  153.9043  135.3106  155.3427 H   0  0  0  0  0  0  0  0  0  0  0  0  # atno 10765 bound_to 10752
  140.6603  133.9326  155.8432 H   0  0  0  0  0  0  0  0  0  0  0  0  # atno 11005 bound_to 11000
  144.7829  139.6488  143.7146 LP  0  0  0  0  0  0  0  0  0  0  0  0  # atno 17320 bound_to 7965
  146.2279  139.5757  142.9575 LP  0  0  0  0  0  0  0  0  0  0  0  0  # atno 17321 bound_to 7965
  140.6528  143.8661  150.6803 LP  0  0  0  0  0  0  0  0  0  0  0  0  # atno 17342 bound_to 10162
  140.2031  143.3943  152.1776 LP  0  0  0  0  0  0  0  0  0  0  0  0  # atno 17343 bound_to 10162
  157.3710  130.7181  149.6565 LP  0  0  0  0  0  0  0  0  0  0  0  0  # atno 17370 bound_to 10713
  155.9694  130.4199  150.4396 LP  0  0  0  0  0  0  0  0  0  0  0  0  # atno 17371 bound_to 10713
  141.0470  134.0540  157.3832 LP  0  0  0  0  0  0  0  0  0  0  0  0  # atno 17394 bound_to 11000
  139.9015  135.0166  156.7291 LP  0  0  0  0  0  0  0  0  0  0  0  0  # atno 17395 bound_to 11000

$$$$
