AV-unprocessed.smi:256|AV-procd|sdf|1960|dock10
  -GOLD-   2262021103D 1   1.00000     0.00000
 Structure written by MMmdl.
 62 65  0  0  0  0  0  0  0  0  2 V2000
  147.7770  135.1277  156.1983 C   0  0  0  0  0  0  0  0  0  0  0  0
  147.3040  135.0437  154.7395 C   0  0  0  0  0  0  0  0  0  0  0  0
  146.6031  136.3303  154.2269 C   0  0  1  0  0  0  0  0  0  0  0  0
  147.4956  137.5546  154.5594 C   0  0  0  0  0  0  0  0  0  0  0  0
  147.0250  138.7808  153.9265 N   0  0  0  0  0  0  0  0  0  0  0  0
  147.4923  139.9701  154.3845 C   0  0  0  0  0  0  0  0  0  0  0  0
  146.8698  141.1258  154.0294 N   0  0  0  0  0  0  0  0  0  0  0  0
  147.3235  142.3013  154.4747 C   0  0  0  0  0  0  0  0  0  0  0  0
  148.3690  142.5460  155.2664 N   0  0  0  0  0  0  0  0  0  0  0  0
  149.0044  141.3925  155.6194 C   0  0  0  0  0  0  0  0  0  0  0  0
  148.6338  140.0745  155.2292 C   0  0  0  0  0  0  0  0  0  0  0  0
  149.5197  139.1533  155.7753 N   0  0  0  0  0  0  0  0  0  0  0  0
  150.3594  139.8836  156.4568 C   0  0  0  0  0  0  0  0  0  0  0  0
  150.1323  141.2407  156.4079 N   0  0  0  0  0  0  0  0  0  0  0  0
  150.9164  142.2784  157.0620 C   0  0  0  0  0  0  0  0  0  0  0  0
  150.5526  142.4991  158.5561 C   0  0  0  0  0  0  0  0  0  0  0  0
  149.1402  142.4920  158.6575 O   0  0  0  0  0  0  0  0  0  0  0  0
  151.0928  141.4054  159.5028 C   0  0  0  0  0  0  0  0  0  0  0  0
  152.6121  141.5403  159.7059 C   0  0  0  0  0  0  0  0  0  0  0  0
  152.9205  142.8374  160.2046 O   0  0  0  0  0  0  0  0  0  0  0  0
  152.5600  143.8811  159.3060 C   0  0  0  0  0  0  0  0  0  0  0  0
  151.0391  143.8702  159.0668 C   0  0  0  0  0  0  0  0  0  0  0  0
  146.8741  138.6738  152.4848 C   0  0  0  0  0  0  0  0  0  0  0  0
  145.8902  137.5491  152.1595 C   0  0  0  0  0  0  0  0  0  0  0  0
  146.2946  136.2490  152.7617 N   0  3  2  0  0  0  0  0  0  0  0  0
  145.3204  135.1821  152.3953 C   0  0  0  0  0  0  0  0  0  0  0  0
  145.1332  135.1039  150.8756 C   0  0  0  0  0  0  0  0  0  0  0  0
  144.2545  134.0333  150.5736 O   0  0  0  0  0  0  0  0  0  0  0  0
  144.9125  132.7788  150.5595 C   0  0  0  0  0  0  0  0  0  0  0  0
  148.1785  134.1689  156.5274 H   0  0  0  0  0  0  0  0  0  0  0  0
  146.9544  135.3875  156.8652 H   0  0  0  0  0  0  0  0  0  0  0  0
  148.5656  135.8685  156.3291 H   0  0  0  0  0  0  0  0  0  0  0  0
  148.1548  134.8100  154.0982 H   0  0  0  0  0  0  0  0  0  0  0  0
  146.6489  134.1778  154.6744 H   0  0  0  0  0  0  0  0  0  0  0  0
  145.6511  136.4530  154.7467 H   0  0  0  0  0  0  0  0  0  0  0  0
  147.5275  137.6996  155.6398 H   0  0  0  0  0  0  0  0  0  0  0  0
  148.5194  137.3695  154.2310 H   0  0  0  0  0  0  0  0  0  0  0  0
  146.7706  143.1704  154.1493 H   0  0  0  0  0  0  0  0  0  0  0  0
  151.1802  139.4506  157.0100 H   0  0  0  0  0  0  0  0  0  0  0  0
  151.9697  142.0211  156.9546 H   0  0  0  0  0  0  0  0  0  0  0  0
  150.7795  143.2048  156.5024 H   0  0  0  0  0  0  0  0  0  0  0  0
  148.7830  142.9413  157.9066 H   0  0  0  0  0  0  0  0  0  0  0  0
  150.6124  141.4983  160.4781 H   0  0  0  0  0  0  0  0  0  0  0  0
  150.8441  140.4067  159.1435 H   0  0  0  0  0  0  0  0  0  0  0  0
  152.9581  140.7980  160.4252 H   0  0  0  0  0  0  0  0  0  0  0  0
  153.1565  141.3575  158.7793 H   0  0  0  0  0  0  0  0  0  0  0  0
  152.8593  144.8342  159.7421 H   0  0  0  0  0  0  0  0  0  0  0  0
  153.1121  143.7788  158.3712 H   0  0  0  0  0  0  0  0  0  0  0  0
  150.7605  144.6617  158.3701 H   0  0  0  0  0  0  0  0  0  0  0  0
  150.5453  144.1068  160.0107 H   0  0  0  0  0  0  0  0  0  0  0  0
  146.5244  139.6045  152.0398 H   0  0  0  0  0  0  0  0  0  0  0  0
  147.8477  138.4620  152.0403 H   0  0  0  0  0  0  0  0  0  0  0  0
  144.9015  137.8274  152.5287 H   0  0  0  0  0  0  0  0  0  0  0  0
  145.8064  137.4398  151.0777 H   0  0  0  0  0  0  0  0  0  0  0  0
  145.6036  134.2038  152.7793 H   0  0  0  0  0  0  0  0  0  0  0  0
  144.3546  135.3808  152.8623 H   0  0  0  0  0  0  0  0  0  0  0  0
  144.7049  136.0399  150.5136 H   0  0  0  0  0  0  0  0  0  0  0  0
  146.0932  134.9685  150.3748 H   0  0  0  0  0  0  0  0  0  0  0  0
  144.1943  131.9914  150.3317 H   0  0  0  0  0  0  0  0  0  0  0  0
  145.3598  132.5565  151.5290 H   0  0  0  0  0  0  0  0  0  0  0  0
  145.6938  132.7518  149.7989 H   0  0  0  0  0  0  0  0  0  0  0  0
  147.1690  135.9964  152.3235 H   0  0  0  0  0  0  0  0  0  0  0  0
  1  2  1  0  0  0  0
  1 30  1  0  0  0  0
  1 31  1  0  0  0  0
  1 32  1  0  0  0  0
  2  3  1  0  0  0  0
  2 33  1  0  0  0  0
  2 34  1  0  0  0  0
  3 25  1  0  0  0  0
  3  4  1  0  0  0  0
  3 35  1  0  0  0  0
  4  5  1  0  0  0  0
  4 36  1  0  0  0  0
  4 37  1  0  0  0  0
  5  6  1  0  0  0  0
  5 23  1  0  0  0  0
  6 11  1  0  0  0  0
  6  7  2  0  0  0  0
  7  8  1  0  0  0  0
  8  9  2  0  0  0  0
  8 38  1  0  0  0  0
  9 10  1  0  0  0  0
 10 14  1  0  0  0  0
 10 11  2  0  0  0  0
 11 12  1  0  0  0  0
 12 13  2  0  0  0  0
 13 14  1  0  0  0  0
 13 39  1  0  0  0  0
 14 15  1  0  0  0  0
 15 16  1  0  0  0  0
 15 40  1  0  0  0  0
 15 41  1  0  0  0  0
 16 22  1  0  0  0  0
 16 17  1  0  0  0  0
 16 18  1  0  0  0  0
 17 42  1  0  0  0  0
 18 19  1  0  0  0  0
 18 43  1  0  0  0  0
 18 44  1  0  0  0  0
 19 20  1  0  0  0  0
 19 45  1  0  0  0  0
 19 46  1  0  0  0  0
 20 21  1  0  0  0  0
 21 22  1  0  0  0  0
 21 47  1  0  0  0  0
 21 48  1  0  0  0  0
 22 49  1  0  0  0  0
 22 50  1  0  0  0  0
 23 24  1  0  0  0  0
 23 51  1  0  0  0  0
 23 52  1  0  0  0  0
 24 25  1  0  0  0  0
 24 53  1  0  0  0  0
 24 54  1  0  0  0  0
 25 26  1  0  0  0  0
 25 62  1  0  0  0  0
 26 27  1  0  0  0  0
 26 55  1  0  0  0  0
 26 56  1  0  0  0  0
 27 28  1  0  0  0  0
 27 57  1  0  0  0  0
 27 58  1  0  0  0  0
 28 29  1  0  0  0  0
 29 59  1  0  0  0  0
 29 60  1  0  0  0  0
 29 61  1  0  0  0  0
M  CHG  1  25   1
M  END
> <s_m_source_file>
AV-unprocessed.smi

> <i_m_source_file_index>
256

> <i_lp_mmshare_version>
43012

> <i_f3d_flags>
0

> <s_epik_input>
W0NIM11PW0NIMl1bQ0gyXU4xW0NIMl1bQ0gyXU4oW0NIMl1bQ0BIXTFbQ0gyXVtDSDNdKWMobltjSF1uMiljKGMyMyluW2NIXW4zW0NIMl1DNChbT0hdKVtDSDJdW0NIMl1PW0NIMl1bQ0gyXTQ=

> <s_epik_cmdline>
J2VwaWtfcHl0aG9uJywgJy1waCcsICc3LjAnLCAnLXRuJywgJzgnLCAnLW1hJywgJzIwMCcsICctbWV0YWxfYmluZGluZycsICctaW1hZScsICc8aW5maWxlLm1hZT4nLCAnLW9tYWUnLCAnPG91dGZpbGUubWFlPic=

> <r_lp_tautomer_probability>
1

> <r_epik_Ionization_Penalty>
0.233023

> <r_epik_Ionization_Penalty_Charging>
0.23295

> <r_epik_Ionization_Penalty_Neutral>
7.2493e-05

> <r_epik_State_Penalty>
0.223667

> <r_epik_Charging_Adjusted_Penalty>
0.456618

> <i_epik_Tot_Q>
1

> <i_epik_Tot_abs_Q>
1

> <r_epik_Metal_State_Penalty>
0.226879

> <b_epik_Metal_Only>
0

> <s_lp_Force_Field>
OPLS_2005

> <r_lp_Energy>
45.9613

> <b_lp_Chiralities_Consistent>
1

> <s_lp_Variant>
AV-unprocessed.smi:256-4

> <Gold.Version>
5.8.1

> <Gold.Id.Protein>
6NUR|6NUR_protein|mol2

> <Gold.PLP.Fitness>
49.2629

> <Gold.PLP.PLP>
-40.6947

> <Gold.PLP.part.hbond>
-3.3384

> <Gold.PLP.part.metal>
0.0000

> <Gold.PLP.part.buried>
-3.2548

> <Gold.PLP.part.nonpolar>
-39.4581

> <Gold.PLP.part.repulsive>
5.7872

> <Gold.PLP.ligand.clash>
0.0000

> <Gold.PLP.ligand.torsion>
0.9045

> <Gold.PLP.Chemscore.Hbond>
3.2852

> <Gold.PLP.Chemscore.CHOScore>
0.0000

> <Gold.PLP.Chemscore.Metal>
0.0000

> <Gold.Chemscore.Hbonds>
donor molecule, donor type, donor heavy atom, donor atom, acceptor molecule, acceptor atom, score
      L1  H    25    62       P1  7948  2.00

> <Gold.PLP.Chemscore.Internal.Correction>
0.5218

> <Gold.Rescore>
     Score         DG    S(hbond)    S(metal)    S(lipo)     H(rot)  DE(clash)    DE(int)     intcor
     10.97     -15.30       1.64        0.00     100.99       2.92       2.05       2.27       ----

> <Gold.Chemscore.Fitness>
10.9743

> <Gold.Chemscore.DG>
-15.2951

> <Gold.Chemscore.ZeroCoef>
-5.4800

> <Gold.Chemscore.Hbond>
1.6426

> <Gold.Chemscore.Metal>
0.0000

> <Gold.Chemscore.Lipo>
100.9919

> <Gold.Chemscore.Internal_Hbond>
0.0000

> <Gold.Chemscore.DEClash>
2.0468

> <Gold.Chemscore.DEInternal>
2.2740

> <Gold.Chemscore.Rot>
2.9247

> <Gold.Chemscore.Internal.Correction>
   9.000000E+99

> <Gold.Chemscore.Hbonds>
donor molecule, donor type, donor heavy atom, donor atom, acceptor molecule, acceptor atom, score
      L1  H    25    62       P1  7948  0.99

> <Gold.Chemscore.Hbond.Weighted>
-5.4864

> <Gold.Chemscore.Metal.Weighted>
-0.0000

> <Gold.Chemscore.Lipo.Weighted>
-11.8161

> <Gold.Chemscore.Internal_Hbond.Weighted>
0.0000

> <Gold.Chemscore.DEClash.Weighted>
2.0468

> <Gold.Chemscore.DEInternal.Weighted>
2.2740

> <Gold.Chemscore.Rot.Weighted>
7.4873

> <Gold.Chemscore.Internal.Correction.Weighted>
   9.000000E+99

> <Gold.Protein.RotatedTorsions>
[ 6907 6896 6895 6894 ] final -101.58 input  -60.11 | X-H torsion
[ 7974 7965 7964 7962 ] final -174.18 input  175.53 | X-H torsion
[ 8008 7997 7996 7995 ] final   53.70 input   59.86 | X-H torsion
[ 10167 10162 10161 10158 ] final   32.13 input  -65.29 | X-H torsion
[ 10718 10713 10712 10709 ] final -148.30 input   66.30 | X-H torsion
[ 10763 10752 10751 10750 ] final -104.61 input  -60.55 | X-H torsion
[ 11005 11000 10999 10996 ] final   76.21 input  -57.11 | X-H torsion

> <Gold.Protein.ActiveResidues>
 VAL166  LYS551  ARG553  GLY616  TRP617  ASP618  TYR619  PRO620  LYS621  CYS622 
 ASP623  PHE694  ASN695  SER759  ASP760  ASP761  ALA762  ILE779  LEU786  VAL792 
 PHE793  MET794  SER795  GLU796  ALA797  LYS798  CYS799  TRP800  GLU811  SER814 

> <Gold.Protein.RotatedAtoms>
  150.7161  134.0712  159.3864 H   0  0  0  0  0  0  0  0  0  0  0  0  # atno 6907 bound_to 6896
  151.8694  135.0493  160.0487 H   0  0  0  0  0  0  0  0  0  0  0  0  # atno 6908 bound_to 6896
  152.2655  133.5300  159.5444 H   0  0  0  0  0  0  0  0  0  0  0  0  # atno 6909 bound_to 6896
  144.7133  140.1510  143.6384 H   0  0  0  0  0  0  0  0  0  0  0  0  # atno 7974 bound_to 7965
  155.4726  140.3465  155.4328 H   0  0  0  0  0  0  0  0  0  0  0  0  # atno 8008 bound_to 7997
  156.1091  140.1456  156.9393 H   0  0  0  0  0  0  0  0  0  0  0  0  # atno 8009 bound_to 7997
  154.4744  140.0890  156.7203 H   0  0  0  0  0  0  0  0  0  0  0  0  # atno 8010 bound_to 7997
  140.4527  144.1025  150.6195 H   0  0  0  0  0  0  0  0  0  0  0  0  # atno 10167 bound_to 10162
  156.4185  130.8017  151.2238 H   0  0  0  0  0  0  0  0  0  0  0  0  # atno 10718 bound_to 10713
  154.7890  135.4779  154.0011 H   0  0  0  0  0  0  0  0  0  0  0  0  # atno 10763 bound_to 10752
  153.1603  135.6807  153.8759 H   0  0  0  0  0  0  0  0  0  0  0  0  # atno 10764 bound_to 10752
  153.8375  135.3183  155.3401 H   0  0  0  0  0  0  0  0  0  0  0  0  # atno 10765 bound_to 10752
  139.9308  134.7582  156.1367 H   0  0  0  0  0  0  0  0  0  0  0  0  # atno 11005 bound_to 11000
  145.9116  139.2490  143.1434 LP  0  0  0  0  0  0  0  0  0  0  0  0  # atno 17320 bound_to 7965
  145.9710  140.8760  143.0162 LP  0  0  0  0  0  0  0  0  0  0  0  0  # atno 17321 bound_to 7965
  140.4188  143.2621  151.9741 LP  0  0  0  0  0  0  0  0  0  0  0  0  # atno 17342 bound_to 10162
  139.4798  144.5849  151.7870 LP  0  0  0  0  0  0  0  0  0  0  0  0  # atno 17343 bound_to 10162
  157.7508  131.0235  150.3839 LP  0  0  0  0  0  0  0  0  0  0  0  0  # atno 17370 bound_to 10713
  156.4151  130.3942  149.6864 LP  0  0  0  0  0  0  0  0  0  0  0  0  # atno 17371 bound_to 10713
  141.0896  133.6720  156.2511 LP  0  0  0  0  0  0  0  0  0  0  0  0  # atno 17394 bound_to 11000
  140.6207  134.5365  157.5547 LP  0  0  0  0  0  0  0  0  0  0  0  0  # atno 17395 bound_to 11000

$$$$
