AV-unprocessed.smi:2955|AV-procd|sdf|11303|dock7
  -GOLD-   2272016203D 1   1.00000     0.00000
 Structure written by MMmdl.
 46 48  0  0  0  0  0  0  0  0  2 V2000
  153.4082  142.1648  161.1157 C   0  0  0  0  0  0  0  0  0  0  0  0
  152.6287  143.0061  160.1262 C   0  0  0  0  0  0  0  0  0  0  0  0
  152.6070  144.4101  160.2470 C   0  0  0  0  0  0  0  0  0  0  0  0
  151.8816  145.1833  159.3223 C   0  0  0  0  0  0  0  0  0  0  0  0
  151.1780  144.5552  158.2773 C   0  0  0  0  0  0  0  0  0  0  0  0
  151.1878  143.1518  158.1422 C   0  0  0  0  0  0  0  0  0  0  0  0
  150.4705  142.6204  157.0918 O   0  0  0  0  0  0  0  0  0  0  0  0
  150.4070  141.2072  156.9691 C   0  0  0  0  0  0  0  0  0  0  0  0
  151.0736  140.8037  155.6496 C   0  0  0  0  0  0  0  0  0  0  0  0
  150.1788  139.9886  154.8167 N   0  0  0  0  0  0  0  0  0  0  0  0
  150.3195  138.7128  154.3509 C   0  0  0  0  0  0  0  0  0  0  0  0
  151.4691  137.7796  154.6001 C   0  0  2  0  0  0  0  0  0  0  0  0
  152.7851  138.3719  154.0749 C   0  0  0  0  0  0  0  0  0  0  0  0
  151.2409  136.4735  153.9951 N   0  0  0  0  0  0  0  0  0  0  0  0
  150.9027  135.3753  154.6819 C   0  0  0  0  0  0  0  0  0  0  0  0
  150.7520  135.3657  155.9006 O   0  0  0  0  0  0  0  0  0  0  0  0
  149.1952  138.4229  153.6344 N   0  3  0  0  0  0  0  0  0  0  0  0
  148.3431  139.5271  153.6200 C   0  0  0  0  0  0  0  0  0  0  0  0
  147.1016  139.7119  153.0196 C   0  0  0  0  0  0  0  0  0  0  0  0
  146.4951  140.9730  153.1961 C   0  0  0  0  0  0  0  0  0  0  0  0
  147.1219  141.9908  153.9441 C   0  0  0  0  0  0  0  0  0  0  0  0
  148.3802  141.7907  154.5494 C   0  0  0  0  0  0  0  0  0  0  0  0
  148.9714  140.5396  154.3728 C   0  0  0  0  0  0  0  0  0  0  0  0
  151.9226  142.3801  159.0782 C   0  0  0  0  0  0  0  0  0  0  0  0
  153.8267  142.7759  161.9160 H   0  0  0  0  0  0  0  0  0  0  0  0
  154.2290  141.6542  160.6115 H   0  0  0  0  0  0  0  0  0  0  0  0
  152.7603  141.4126  161.5665 H   0  0  0  0  0  0  0  0  0  0  0  0
  153.1450  144.8985  161.0463 H   0  0  0  0  0  0  0  0  0  0  0  0
  151.8644  146.2592  159.4143 H   0  0  0  0  0  0  0  0  0  0  0  0
  150.6232  145.1571  157.5726 H   0  0  0  0  0  0  0  0  0  0  0  0
  150.9206  140.7304  157.8054 H   0  0  0  0  0  0  0  0  0  0  0  0
  149.3672  140.8755  156.9711 H   0  0  0  0  0  0  0  0  0  0  0  0
  151.3507  141.6899  155.0790 H   0  0  0  0  0  0  0  0  0  0  0  0
  152.0001  140.2571  155.8268 H   0  0  0  0  0  0  0  0  0  0  0  0
  151.5840  137.6426  155.6761 H   0  0  0  0  0  0  0  0  0  0  0  0
  152.9940  139.3344  154.5430 H   0  0  0  0  0  0  0  0  0  0  0  0
  152.7576  138.5251  152.9955 H   0  0  0  0  0  0  0  0  0  0  0  0
  153.6256  137.7122  154.2938 H   0  0  0  0  0  0  0  0  0  0  0  0
  151.3479  136.3983  152.9938 H   0  0  0  0  0  0  0  0  0  0  0  0
  150.7806  134.5000  154.0246 H   0  0  0  0  0  0  0  0  0  0  0  0
  146.6205  138.9342  152.4447 H   0  0  0  0  0  0  0  0  0  0  0  0
  145.5307  141.1638  152.7479 H   0  0  0  0  0  0  0  0  0  0  0  0
  146.6276  142.9449  154.0566 H   0  0  0  0  0  0  0  0  0  0  0  0
  148.8510  142.5786  155.1184 H   0  0  0  0  0  0  0  0  0  0  0  0
  151.9600  141.3034  159.0120 H   0  0  0  0  0  0  0  0  0  0  0  0
  149.0285  137.5318  153.1850 H   0  0  0  0  0  0  0  0  0  0  0  0
  1  2  1  0  0  0  0
  1 25  1  0  0  0  0
  1 26  1  0  0  0  0
  1 27  1  0  0  0  0
  2 24  1  0  0  0  0
  2  3  2  0  0  0  0
  3  4  1  0  0  0  0
  3 28  1  0  0  0  0
  4  5  2  0  0  0  0
  4 29  1  0  0  0  0
  5  6  1  0  0  0  0
  5 30  1  0  0  0  0
  6  7  1  0  0  0  0
  6 24  2  0  0  0  0
  7  8  1  0  0  0  0
  8  9  1  0  0  0  0
  8 31  1  0  0  0  0
  8 32  1  0  0  0  0
  9 10  1  0  0  0  0
  9 33  1  0  0  0  0
  9 34  1  0  0  0  0
 10 23  1  0  0  0  0
 10 11  1  0  0  0  0
 11 12  1  0  0  0  0
 11 17  2  0  0  0  0
 12 13  1  0  0  0  0
 12 14  1  0  0  0  0
 12 35  1  0  0  0  0
 13 36  1  0  0  0  0
 13 37  1  0  0  0  0
 13 38  1  0  0  0  0
 14 15  1  0  0  0  0
 14 39  1  0  0  0  0
 15 16  2  0  0  0  0
 15 40  1  0  0  0  0
 17 18  1  0  0  0  0
 17 46  1  0  0  0  0
 18 23  2  0  0  0  0
 18 19  1  0  0  0  0
 19 20  2  0  0  0  0
 19 41  1  0  0  0  0
 20 21  1  0  0  0  0
 20 42  1  0  0  0  0
 21 22  2  0  0  0  0
 21 43  1  0  0  0  0
 22 23  1  0  0  0  0
 22 44  1  0  0  0  0
 24 45  1  0  0  0  0
M  CHG  1  17   1
M  END
> <s_m_source_file>
AV-unprocessed.smi

> <i_m_source_file_index>
2955

> <i_lp_mmshare_version>
43012

> <i_f3d_flags>
0

> <s_epik_input>
W0NIM11jMVtjSF1bY0hdW2NIXWMoW2NIXTEpT1tDSDJdW0NIMl1uKGMobjIpW0NASF0oW0NIM10pW05IXVtDSF09TyljKGMyMylbY0hdW2NIXVtjSF1bY0hdMw==

> <s_epik_cmdline>
J2VwaWtfcHl0aG9uJywgJy1waCcsICc3LjAnLCAnLXRuJywgJzgnLCAnLW1hJywgJzIwMCcsICctbWV0YWxfYmluZGluZycsICctaW1hZScsICc8aW5maWxlLm1hZT4nLCAnLW9tYWUnLCAnPG91dGZpbGUubWFlPic=

> <r_lp_tautomer_probability>
1

> <r_epik_Ionization_Penalty>
1.15027

> <r_epik_Ionization_Penalty_Charging>
1.15027

> <r_epik_Ionization_Penalty_Neutral>
5.5802e-08

> <r_epik_State_Penalty>
1.21159

> <r_epik_Charging_Adjusted_Penalty>
2.36186

> <i_epik_Tot_Q>
1

> <i_epik_Tot_abs_Q>
1

> <r_epik_Metal_State_Penalty>
1.29223

> <b_epik_Metal_Only>
0

> <s_lp_Force_Field>
OPLS_2005

> <r_lp_Energy>
18.7975

> <b_lp_Chiralities_Consistent>
1

> <s_lp_Variant>
AV-unprocessed.smi:2955-3

> <Gold.Version>
5.8.1

> <Gold.Id.Protein>
6NUR|6NUR_protein|mol2

> <Gold.PLP.Fitness>
61.0473

> <Gold.PLP.PLP>
-53.7449

> <Gold.PLP.part.hbond>
-3.2708

> <Gold.PLP.part.metal>
0.0000

> <Gold.PLP.part.buried>
-0.9716

> <Gold.PLP.part.nonpolar>
-51.1969

> <Gold.PLP.part.repulsive>
1.6419

> <Gold.PLP.ligand.clash>
0.0000

> <Gold.PLP.ligand.torsion>
0.9162

> <Gold.PLP.Chemscore.Hbond>
3.0000

> <Gold.PLP.Chemscore.CHOScore>
0.0000

> <Gold.PLP.Chemscore.Metal>
0.0000

> <Gold.Chemscore.Hbonds>
donor molecule, donor type, donor heavy atom, donor atom, acceptor molecule, acceptor atom, score
      L1  H    14    39       P1  7949  1.00
      L1  H    17    46       P1  7948  2.00

> <Gold.PLP.Chemscore.Internal.Correction>
0.1349

> <Gold.Rescore>
     Score         DG    S(hbond)    S(metal)    S(lipo)     H(rot)  DE(clash)    DE(int)     intcor
     19.74     -21.90       1.62        0.00     145.08       2.32       1.11       1.05       ----

> <Gold.Chemscore.Fitness>
19.7449

> <Gold.Chemscore.DG>
-21.9043

> <Gold.Chemscore.ZeroCoef>
-5.4800

> <Gold.Chemscore.Hbond>
1.6152

> <Gold.Chemscore.Metal>
0.0000

> <Gold.Chemscore.Lipo>
145.0806

> <Gold.Chemscore.Internal_Hbond>
0.0000

> <Gold.Chemscore.DEClash>
1.1118

> <Gold.Chemscore.DEInternal>
1.0477

> <Gold.Chemscore.Rot>
2.3223

> <Gold.Chemscore.Internal.Correction>
   9.000000E+99

> <Gold.Chemscore.Hbonds>
donor molecule, donor type, donor heavy atom, donor atom, acceptor molecule, acceptor atom, score
      L1  H    14    39       P1  7949  0.76
      L1  H    17    46       P1  7948  0.99

> <Gold.Chemscore.Hbond.Weighted>
-5.3949

> <Gold.Chemscore.Metal.Weighted>
-0.0000

> <Gold.Chemscore.Lipo.Weighted>
-16.9744

> <Gold.Chemscore.Internal_Hbond.Weighted>
0.0000

> <Gold.Chemscore.DEClash.Weighted>
1.1118

> <Gold.Chemscore.DEInternal.Weighted>
1.0477

> <Gold.Chemscore.Rot.Weighted>
5.9450

> <Gold.Chemscore.Internal.Correction.Weighted>
   9.000000E+99

> <Gold.Protein.RotatedTorsions>
[ 6907 6896 6895 6894 ] final -139.60 input  -60.11 | X-H torsion
[ 7974 7965 7964 7962 ] final  171.36 input  175.53 | X-H torsion
[ 8008 7997 7996 7995 ] final   -9.88 input   59.86 | X-H torsion
[ 10167 10162 10161 10158 ] final  -51.32 input  -65.29 | X-H torsion
[ 10718 10713 10712 10709 ] final  153.43 input   66.30 | X-H torsion
[ 10763 10752 10751 10750 ] final   38.23 input  -60.55 | X-H torsion
[ 11005 11000 10999 10996 ] final  142.01 input  -57.11 | X-H torsion

> <Gold.Protein.ActiveResidues>
 VAL166  LYS551  ARG553  GLY616  TRP617  ASP618  TYR619  PRO620  LYS621  CYS622 
 ASP623  PHE694  ASN695  SER759  ASP760  ASP761  ALA762  ILE779  LEU786  VAL792 
 PHE793  MET794  SER795  GLU796  ALA797  LYS798  CYS799  TRP800  GLU811  SER814 

> <Gold.Protein.RotatedAtoms>
  151.0499  133.5633  159.2643 H   0  0  0  0  0  0  0  0  0  0  0  0  # atno 6907 bound_to 6896
  151.2648  135.0665  159.9121 H   0  0  0  0  0  0  0  0  0  0  0  0  # atno 6908 bound_to 6896
  152.5380  134.0239  159.8048 H   0  0  0  0  0  0  0  0  0  0  0  0  # atno 6909 bound_to 6896
  144.7297  139.9338  143.6426 H   0  0  0  0  0  0  0  0  0  0  0  0  # atno 7974 bound_to 7965
  154.5606  140.2343  155.8341 H   0  0  0  0  0  0  0  0  0  0  0  0  # atno 8008 bound_to 7997
  156.2026  140.3048  155.9518 H   0  0  0  0  0  0  0  0  0  0  0  0  # atno 8009 bound_to 7997
  155.2896  140.0426  157.3012 H   0  0  0  0  0  0  0  0  0  0  0  0  # atno 8010 bound_to 7997
  140.6594  143.2624  151.4487 H   0  0  0  0  0  0  0  0  0  0  0  0  # atno 10167 bound_to 10162
  157.2449  131.0767  151.1768 H   0  0  0  0  0  0  0  0  0  0  0  0  # atno 10718 bound_to 10713
  153.0008  135.6255  154.2272 H   0  0  0  0  0  0  0  0  0  0  0  0  # atno 10763 bound_to 10752
  154.2014  135.2804  155.2991 H   0  0  0  0  0  0  0  0  0  0  0  0  # atno 10764 bound_to 10752
  154.5680  135.5685  153.7127 H   0  0  0  0  0  0  0  0  0  0  0  0  # atno 10765 bound_to 10752
  140.0444  134.9288  157.0903 H   0  0  0  0  0  0  0  0  0  0  0  0  # atno 11005 bound_to 11000
  146.0837  139.3825  143.0448 LP  0  0  0  0  0  0  0  0  0  0  0  0  # atno 17320 bound_to 7965
  145.7806  140.9858  143.1101 LP  0  0  0  0  0  0  0  0  0  0  0  0  # atno 17321 bound_to 7965
  139.5824  144.1680  152.1985 LP  0  0  0  0  0  0  0  0  0  0  0  0  # atno 17342 bound_to 10162
  140.1009  144.5540  150.6989 LP  0  0  0  0  0  0  0  0  0  0  0  0  # atno 17343 bound_to 10162
  157.3340  130.6999  149.6341 LP  0  0  0  0  0  0  0  0  0  0  0  0  # atno 17370 bound_to 10713
  155.9668  130.4299  150.4853 LP  0  0  0  0  0  0  0  0  0  0  0  0  # atno 17371 bound_to 10713
  140.4017  134.2075  155.7163 LP  0  0  0  0  0  0  0  0  0  0  0  0  # atno 17394 bound_to 11000
  141.1899  133.8227  157.0937 LP  0  0  0  0  0  0  0  0  0  0  0  0  # atno 17395 bound_to 11000

$$$$
