AV-unprocessed.smi:2344|AV-procd|sdf|9358|dock5
  -GOLD-   2272012583D 1   1.00000     0.00000
 Structure written by MMmdl.
 35 36  0  0  0  0  0  0  0  0  1 V2000
  153.9441  141.9482  160.9439 C   0  0  0  0  0  0  0  0  0  0  0  0
  152.8117  142.0653  159.9456 C   0  0  0  0  0  0  0  0  0  0  0  0
  152.1686  143.2964  159.7173 C   0  0  0  0  0  0  0  0  0  0  0  0
  151.1212  143.3507  158.7775 C   0  0  0  0  0  0  0  0  0  0  0  0
  150.7428  142.1765  158.0882 C   0  0  0  0  0  0  0  0  0  0  0  0
  149.6754  142.3392  157.1656 N   0  0  0  0  0  0  0  0  0  0  0  0
  148.9613  141.3856  156.5422 C   0  0  0  0  0  0  0  0  0  0  0  0
  149.1236  140.1719  156.6727 O   0  0  0  0  0  0  0  0  0  0  0  0
  148.0317  141.9238  155.7400 N   0  0  0  0  0  0  0  0  0  0  0  0
  147.1035  141.1629  154.9115 C   0  0  1  0  0  0  0  0  0  0  0  0
  146.5266  142.0342  153.8302 C   0  0  0  0  0  0  0  0  0  0  0  0
  146.7920  141.5803  152.6074 C   0  0  0  0  0  0  0  0  0  0  0  0
  147.6230  140.3241  152.6153 C   0  0  2  0  0  0  0  0  0  0  0  0
  146.9581  139.1877  151.8218 C   0  0  0  0  0  0  0  0  0  0  0  0
  146.9858  139.4751  150.4398 O   0  0  0  0  0  0  0  0  0  0  0  0
  147.7980  140.0193  154.1264 C   0  0  0  0  0  0  0  0  0  0  0  0
  151.3709  140.9956  158.3131 N   0  0  0  0  0  0  0  0  0  0  0  0
  152.3745  140.9443  159.2138 C   0  0  0  0  0  0  0  0  0  0  0  0
  146.2843  140.7756  155.5199 H   0  0  0  0  0  0  0  0  0  0  0  0
  148.5883  140.5690  152.1703 H   0  0  0  0  0  0  0  0  0  0  0  0
  153.8898  142.7403  161.6914 H   0  0  0  0  0  0  0  0  0  0  0  0
  154.9046  142.0217  160.4334 H   0  0  0  0  0  0  0  0  0  0  0  0
  153.9020  140.9900  161.4627 H   0  0  0  0  0  0  0  0  0  0  0  0
  152.4694  144.1859  160.2512 H   0  0  0  0  0  0  0  0  0  0  0  0
  150.6161  144.2874  158.5916 H   0  0  0  0  0  0  0  0  0  0  0  0
  149.4267  143.2941  156.9549 H   0  0  0  0  0  0  0  0  0  0  0  0
  147.9668  142.9298  155.6904 H   0  0  0  0  0  0  0  0  0  0  0  0
  145.9525  142.9220  154.0517 H   0  0  0  0  0  0  0  0  0  0  0  0
  146.4736  142.0512  151.6891 H   0  0  0  0  0  0  0  0  0  0  0  0
  147.4605  138.2370  152.0044 H   0  0  0  0  0  0  0  0  0  0  0  0
  145.9182  139.0683  152.1275 H   0  0  0  0  0  0  0  0  0  0  0  0
  146.0994  139.4630  150.1125 H   0  0  0  0  0  0  0  0  0  0  0  0
  148.8566  139.9329  154.3757 H   0  0  0  0  0  0  0  0  0  0  0  0
  147.3403  139.0655  154.3908 H   0  0  0  0  0  0  0  0  0  0  0  0
  152.8404  139.9799  159.3529 H   0  0  0  0  0  0  0  0  0  0  0  0
  1  2  1  0  0  0  0
  1 21  1  0  0  0  0
  1 22  1  0  0  0  0
  1 23  1  0  0  0  0
  2 18  1  0  0  0  0
  2  3  2  0  0  0  0
  3  4  1  0  0  0  0
  3 24  1  0  0  0  0
  4  5  2  0  0  0  0
  4 25  1  0  0  0  0
  5  6  1  0  0  0  0
  5 17  1  0  0  0  0
  6  7  1  0  0  0  0
  6 26  1  0  0  0  0
  7  8  2  0  0  0  0
  7  9  1  0  0  0  0
  9 10  1  0  0  0  0
  9 27  1  0  0  0  0
 10 19  1  0  0  0  0
 10 16  1  0  0  0  0
 10 11  1  0  0  0  0
 11 12  2  0  0  0  0
 11 28  1  0  0  0  0
 12 13  1  0  0  0  0
 12 29  1  0  0  0  0
 13 20  1  0  0  0  0
 13 14  1  0  0  0  0
 13 16  1  0  0  0  0
 14 15  1  0  0  0  0
 14 30  1  0  0  0  0
 14 31  1  0  0  0  0
 15 32  1  0  0  0  0
 16 33  1  0  0  0  0
 16 34  1  0  0  0  0
 17 18  2  0  0  0  0
 18 35  1  0  0  0  0
M  END
> <s_m_source_file>
AV-unprocessed.smi

> <i_m_source_file_index>
2344

> <i_lp_mmshare_version>
43012

> <i_f3d_flags>
0

> <s_epik_input>
W0NIM11jMVtjSF1bY0hdYyhuW2NIXTEpW05IXUMoPU8pW05IXVtDQEBIXTJbQ0hdPVtDSF1bQ0BASF0oW0NIMl0yKVtDSDJdW09IXQ==

> <s_epik_cmdline>
J2VwaWtfcHl0aG9uJywgJy1waCcsICc3LjAnLCAnLXRuJywgJzgnLCAnLW1hJywgJzIwMCcsICctbWV0YWxfYmluZGluZycsICctaW1hZScsICc8aW5maWxlLm1hZT4nLCAnLW9tYWUnLCAnPG91dGZpbGUubWFlPic=

> <r_lp_tautomer_probability>
1

> <r_epik_Ionization_Penalty>
5.7643e-05

> <r_epik_Ionization_Penalty_Charging>
0

> <r_epik_Ionization_Penalty_Neutral>
5.7643e-05

> <r_epik_State_Penalty>
-0

> <r_epik_Charging_Adjusted_Penalty>
0

> <i_epik_Tot_Q>
0

> <i_epik_Tot_abs_Q>
0

> <r_epik_Metal_State_Penalty>
-0

> <b_epik_Metal_Only>
0

> <s_lp_Force_Field>
OPLS_2005

> <r_lp_Energy>
17.6743

> <b_lp_Chiralities_Consistent>
1

> <s_lp_Variant>
AV-unprocessed.smi:2344-2

> <Gold.Version>
5.8.1

> <Gold.Id.Protein>
6NUR|6NUR_protein|mol2

> <Gold.PLP.Fitness>
44.5459

> <Gold.PLP.PLP>
-33.0956

> <Gold.PLP.part.hbond>
-4.0010

> <Gold.PLP.part.metal>
0.0000

> <Gold.PLP.part.buried>
-2.9382

> <Gold.PLP.part.nonpolar>
-26.1214

> <Gold.PLP.part.repulsive>
0.1069

> <Gold.PLP.ligand.clash>
0.0000

> <Gold.PLP.ligand.torsion>
0.2829

> <Gold.PLP.Chemscore.Hbond>
4.0000

> <Gold.PLP.Chemscore.CHOScore>
0.0000

> <Gold.PLP.Chemscore.Metal>
0.0000

> <Gold.Chemscore.Hbonds>
donor molecule, donor type, donor heavy atom, donor atom, acceptor molecule, acceptor atom, score
      L1  H     6    26       P1  8028  1.00
      L1  H     9    27       P1  8028  1.00
      L1  H    15    32       P1 10171  0.16
      P1  H  7954  7966       L1    15  0.35

> <Gold.PLP.Chemscore.Internal.Correction>
0.0162

> <Gold.Rescore>
     Score         DG    S(hbond)    S(metal)    S(lipo)     H(rot)  DE(clash)    DE(int)     intcor
     18.23     -24.34       3.69        0.00      95.78       1.82       3.51       2.60       ----

> <Gold.Chemscore.Fitness>
18.2289

> <Gold.Chemscore.DG>
-24.3440

> <Gold.Chemscore.ZeroCoef>
-5.4800

> <Gold.Chemscore.Hbond>
3.6863

> <Gold.Chemscore.Metal>
0.0000

> <Gold.Chemscore.Lipo>
95.7839

> <Gold.Chemscore.Internal_Hbond>
0.0000

> <Gold.Chemscore.DEClash>
3.5115

> <Gold.Chemscore.DEInternal>
2.6036

> <Gold.Chemscore.Rot>
1.8184

> <Gold.Chemscore.Internal.Correction>
   9.000000E+99

> <Gold.Chemscore.Hbonds>
donor molecule, donor type, donor heavy atom, donor atom, acceptor molecule, acceptor atom, score
      L1  H     6    26       P1  8028  0.90
      L1  H     9    27       P1  8028  0.68
      L1  H    15    32       P1 10171  0.17
      P1  H  7954  7966       L1    15  0.06

> <Gold.Chemscore.Hbond.Weighted>
-12.3123

> <Gold.Chemscore.Metal.Weighted>
-0.0000

> <Gold.Chemscore.Lipo.Weighted>
-11.2067

> <Gold.Chemscore.Internal_Hbond.Weighted>
0.0000

> <Gold.Chemscore.DEClash.Weighted>
3.5115

> <Gold.Chemscore.DEInternal.Weighted>
2.6036

> <Gold.Chemscore.Rot.Weighted>
4.6551

> <Gold.Chemscore.Internal.Correction.Weighted>
   9.000000E+99

> <Gold.Protein.RotatedTorsions>
[ 6907 6896 6895 6894 ] final  -31.62 input  -60.11 | X-H torsion
[ 7974 7965 7964 7962 ] final   79.55 input  175.53 | X-H torsion
[ 8008 7997 7996 7995 ] final -106.83 input   59.86 | X-H torsion
[ 10167 10162 10161 10158 ] final  176.01 input  -65.29 | X-H torsion
[ 10718 10713 10712 10709 ] final  161.77 input   66.30 | X-H torsion
[ 10763 10752 10751 10750 ] final  126.79 input  -60.55 | X-H torsion
[ 11005 11000 10999 10996 ] final  -19.31 input  -57.11 | X-H torsion

> <Gold.Protein.ActiveResidues>
 VAL166  LYS551  ARG553  GLY616  TRP617  ASP618  TYR619  PRO620  LYS621  CYS622 
 ASP623  PHE694  ASN695  SER759  ASP760  ASP761  ALA762  ILE779  LEU786  VAL792 
 PHE793  MET794  SER795  GLU796  ALA797  LYS798  CYS799  TRP800  GLU811  SER814 

> <Gold.Protein.RotatedAtoms>
  151.0897  134.9908  159.8396 H   0  0  0  0  0  0  0  0  0  0  0  0  # atno 6907 bound_to 6896
  152.5428  134.2081  159.8749 H   0  0  0  0  0  0  0  0  0  0  0  0  # atno 6908 bound_to 6896
  151.2116  133.4509  159.2632 H   0  0  0  0  0  0  0  0  0  0  0  0  # atno 6909 bound_to 6896
  145.6627  139.2475  143.1913 H   0  0  0  0  0  0  0  0  0  0  0  0  # atno 7974 bound_to 7965
  154.9203  140.0407  157.1994 H   0  0  0  0  0  0  0  0  0  0  0  0  # atno 8008 bound_to 7997
  154.8260  140.2891  155.5733 H   0  0  0  0  0  0  0  0  0  0  0  0  # atno 8009 bound_to 7997
  156.2983  140.2510  156.3176 H   0  0  0  0  0  0  0  0  0  0  0  0  # atno 8010 bound_to 7997
  139.5198  144.2964  152.0417 H   0  0  0  0  0  0  0  0  0  0  0  0  # atno 10167 bound_to 10162
  157.1319  131.0519  151.2367 H   0  0  0  0  0  0  0  0  0  0  0  0  # atno 10718 bound_to 10713
  153.6990  135.3286  155.3220 H   0  0  0  0  0  0  0  0  0  0  0  0  # atno 10763 bound_to 10752
  154.8418  135.4450  154.1430 H   0  0  0  0  0  0  0  0  0  0  0  0  # atno 10764 bound_to 10752
  153.2492  135.6979  153.7776 H   0  0  0  0  0  0  0  0  0  0  0  0  # atno 10765 bound_to 10752
  140.8354  133.7965  155.9803 H   0  0  0  0  0  0  0  0  0  0  0  0  # atno 11005 bound_to 11000
  146.1112  140.7426  142.9502 LP  0  0  0  0  0  0  0  0  0  0  0  0  # atno 17320 bound_to 7965
  144.7083  140.3942  143.7100 LP  0  0  0  0  0  0  0  0  0  0  0  0  # atno 17321 bound_to 7965
  140.2414  144.4266  150.6258 LP  0  0  0  0  0  0  0  0  0  0  0  0  # atno 17342 bound_to 10162
  140.6288  143.2185  151.6539 LP  0  0  0  0  0  0  0  0  0  0  0  0  # atno 17343 bound_to 10162
  157.4384  130.7530  149.7049 LP  0  0  0  0  0  0  0  0  0  0  0  0  # atno 17370 bound_to 10713
  155.9806  130.4028  150.3519 LP  0  0  0  0  0  0  0  0  0  0  0  0  # atno 17371 bound_to 10713
  140.8953  134.2445  157.5072 LP  0  0  0  0  0  0  0  0  0  0  0  0  # atno 17394 bound_to 11000
  139.8704  134.9681  156.4619 LP  0  0  0  0  0  0  0  0  0  0  0  0  # atno 17395 bound_to 11000

$$$$
