#       Name:                AV-unprocessed.smi:2356
#       Creating user name   scv26
#       Creation time:       Fri Mar 27 13:03:04 2020


#       File generated by GOLD software.
#

@<TRIPOS>MOLECULE
AV-unprocessed.smi:2356
    59    62     1
SMALL
NO_CHARGES


@<TRIPOS>ATOM
      1 ****        -0.5521  -1.2335  -0.1643 C.3            1 S1                 0.0000
      2 ****        -1.2645   0.1073  -0.1828 C.ar           1 S1                 0.0000
      3 ****        -2.6138   0.0966  -0.1065 N.pl3          1 S1                 1.0000
      4 ****        -3.3823   1.2121  -0.1037 C.ar           1 S1                 0.0000
      5 ****        -4.7823   1.0693  -0.0182 N.3            1 S1                 0.0000
      6 ****        -5.3369  -0.1629   0.5175 C.3            1 S1                 0.0000
      7 ****        -6.8360   0.0988   0.6850 C.3            1 S1                 0.0000
      8 ****        -6.9920   1.6254   0.6609 C.3            1 S1                 0.0000
      9 ****        -5.5772   2.1809   0.4737 C.3            1 S1                 0.0000
     10 ****        -2.7403   2.4694  -0.1918 C.ar           1 S1                 0.0000
     11 ****        -1.3349   2.5350  -0.2739 C.ar           1 S1                 0.0000
     12 ****        -0.5753   1.3391  -0.2796 C.ar           1 S1                 0.0000
     13 ****         0.8452   1.3112  -0.3365 N.am           1 S1                 0.0000
     14 ****         1.7002   2.2534  -0.7790 C.2            1 S1                 0.0000
     15 ****         1.3654   3.3417  -1.2412 O.2            1 S1                 0.0000
     16 ****         2.9956   1.8991  -0.6963 N.am           1 S1                 0.0000
     17 ****         4.1742   2.6771  -1.0861 C.3            1 S1                 0.0000
     18 ****         5.3607   1.7357  -1.3312 C.3            1 S1                 0.0000
     19 ****         6.6351   2.5388  -1.6328 C.3            1 S1                 0.0000
     20 ****         6.9132   3.4485  -0.5704 O.3            1 S1                 0.0000
     21 ****         5.8846   4.4017  -0.2974 C.3            1 S1                 0.0000
     22 ****         5.7672   5.4435  -1.4020 C.3            1 S1                 0.0000
     23 ****         6.7740   6.5644  -1.5090 C.3            1 S1                 0.0000
     24 ****         5.3550   6.8622  -1.0863 C.3            1 S1                 0.0000
     25 ****         4.5542   3.6879   0.0119 C.3            1 S1                 0.0000
     26 ****         0.1530  -1.2795   0.6662 H              1 S1                 0.0000
     27 ****        -0.0000  -1.3829  -1.0925 H              1 S1                 0.0000
     28 ****        -1.2568  -2.0583  -0.0541 H              1 S1                 0.0000
     29 ****        -5.1531  -1.0071  -0.1480 H              1 S1                 0.0000
     30 ****        -4.8773  -0.3806   1.4828 H              1 S1                 0.0000
     31 ****        -7.3918  -0.3440  -0.1424 H              1 S1                 0.0000
     32 ****        -7.2163  -0.3393   1.6084 H              1 S1                 0.0000
     33 ****        -7.6275   1.9192  -0.1754 H              1 S1                 0.0000
     34 ****        -7.4517   2.0065   1.5732 H              1 S1                 0.0000
     35 ****        -5.1718   2.5267   1.4258 H              1 S1                 0.0000
     36 ****        -5.5741   3.0171  -0.2261 H              1 S1                 0.0000
     37 ****        -3.3060   3.3891  -0.1944 H              1 S1                 0.0000
     38 ****        -0.8699   3.5073  -0.3162 H              1 S1                 0.0000
     39 ****         1.2684   0.4374  -0.0597 H              1 S1                 0.0000
     40 ****         3.1851   0.9819  -0.3182 H              1 S1                 0.0000
     41 ****         3.9696   3.2043  -2.0193 H              1 S1                 0.0000
     42 ****         5.5301   1.1114  -0.4525 H              1 S1                 0.0000
     43 ****         5.1437   1.0592  -2.1586 H              1 S1                 0.0000
     44 ****         7.4830   1.8621  -1.7382 H              1 S1                 0.0000
     45 ****         6.5452   3.0696  -2.5807 H              1 S1                 0.0000
     46 ****         6.1948   4.9272   0.6067 H              1 S1                 0.0000
     47 ****         5.3993   5.0555  -2.3491 H              1 S1                 0.0000
     48 ****         7.5482   6.6253  -0.7468 H              1 S1                 0.0000
     49 ****         7.0780   6.8714  -2.5076 H              1 S1                 0.0000
     50 ****         4.7135   7.3701  -1.8035 H              1 S1                 0.0000
     51 ****         5.1853   7.1219  -0.0433 H              1 S1                 0.0000
     52 ****         3.7623   4.4235   0.1560 H              1 S1                 0.0000
     53 ****         4.6550   3.1609   0.9618 H              1 S1                 0.0000
     54 ****        -3.0816  -0.8076  -0.0439 H              1 S1                 0.0000
     55 ****        -4.8810   1.0402  -1.0129 LP             1 S1                 0.0000
     56 ****         0.3964   3.5794  -1.3090 LP             1 S1                 0.0000
     57 ****         2.0619   3.9896  -1.5495 LP             1 S1                 0.0000
     58 ****         7.7457   3.9509  -0.8038 LP             1 S1                 0.0000
     59 ****         7.0680   2.9146   0.2608 LP             1 S1                 0.0000
@<TRIPOS>BOND
    1    1    2 1     
    2    1   26 1     
    3    1   27 1     
    4    1   28 1     
    5    2   12 ar    
    6    2    3 ar    
    7    3    4 ar    
    8    3   54 1     
    9    4    5 1     
   10    4   10 ar    
   11    5    9 1     
   12    5    6 1     
   13    6    7 1     
   14    6   29 1     
   15    6   30 1     
   16    7    8 1     
   17    7   31 1     
   18    7   32 1     
   19    8    9 1     
   20    8   33 1     
   21    8   34 1     
   22    9   35 1     
   23    9   36 1     
   24   10   11 ar    
   25   10   37 1     
   26   11   12 ar    
   27   11   38 1     
   28   12   13 1     
   29   13   14 am    
   30   13   39 1     
   31   14   15 2     
   32   14   16 am    
   33   16   17 1     
   34   16   40 1     
   35   17   25 1     
   36   17   18 1     
   37   17   41 1     
   38   18   19 1     
   39   18   42 1     
   40   18   43 1     
   41   19   20 1     
   42   19   44 1     
   43   19   45 1     
   44   20   21 1     
   45   21   22 1     
   46   21   25 1     
   47   21   46 1     
   48   22   24 1     
   49   22   23 1     
   50   22   47 1     
   51   23   24 1     
   52   23   48 1     
   53   23   49 1     
   54   24   50 1     
   55   24   51 1     
   56   25   52 1     
   57   25   53 1     
   58    5   55 1     
   59   15   56 1     
   60   15   57 1     
   61   20   58 1     
   62   20   59 1     
@<TRIPOS>SUBSTRUCTURE
      1 S1             1
@<TRIPOS>SET
LONE_PAIRS      STATIC     ATOMS    <user>   **** ""
5 55 56 57 58 59
DONOR_HYDROGENS      STATIC     ATOMS    <user>   **** ""
3 54 39 40
ATOM$BLUE        STATIC     ATOMS    COLORGROUP SYSTEM
5 55 56 57 58 59
ATOM$RED        STATIC     ATOMS    COLORGROUP SYSTEM
3 54 39 40
