AV-unprocessed.smi:2232|AV-procd|sdf|9038|dock6
  -GOLD-   2272012243D 1   1.00000     0.00000
 Structure written by MMmdl.
 42 43  0  0  0  0  0  0  0  0  1 V2000
  144.7314  132.1003  150.0354 C   0  0  0  0  0  0  0  0  0  0  0  0
  144.4380  133.2559  150.9689 C   0  0  0  0  0  0  0  0  0  0  0  0
  143.1904  133.3669  151.6119 C   0  0  0  0  0  0  0  0  0  0  0  0
  142.9798  134.4639  152.4698 C   0  0  0  0  0  0  0  0  0  0  0  0
  141.6625  134.6436  153.1946 C   0  0  0  0  0  0  0  0  0  0  0  0
  143.9154  135.4100  152.6991 N   0  0  0  0  0  0  0  0  0  0  0  0
  145.1205  135.3140  152.0848 C   0  0  0  0  0  0  0  0  0  0  0  0
  146.1725  136.2514  152.2636 N   0  0  0  0  0  0  0  0  0  0  0  0
  146.1200  137.4540  152.8631 C   0  0  0  0  0  0  0  0  0  0  0  0
  145.1100  137.9659  153.3477 O   0  0  0  0  0  0  0  0  0  0  0  0
  147.3234  138.0458  152.8705 N   0  0  0  0  0  0  0  0  0  0  0  0
  147.6076  139.3569  153.4418 C   0  0  0  0  0  0  0  0  0  0  0  0
  147.8479  139.2687  154.9611 C   0  0  0  0  0  0  0  0  0  0  0  0
  149.2493  139.3508  155.3697 N   0  0  0  0  0  0  0  0  0  0  0  0
  149.7162  140.7291  155.5075 C   0  0  0  0  0  0  0  0  0  0  0  0
  151.2026  140.7979  155.9014 C   0  0  0  0  0  0  0  0  0  0  0  0
  151.9856  140.0853  154.9497 O   0  0  0  0  0  0  0  0  0  0  0  0
  151.5920  138.7226  154.8280 C   0  0  0  0  0  0  0  0  0  0  0  0
  150.1101  138.6513  154.4215 C   0  0  0  0  0  0  0  0  0  0  0  0
  145.4142  134.2434  151.2104 C   0  0  0  0  0  0  0  0  0  0  0  0
  143.9084  131.3849  150.0191 H   0  0  0  0  0  0  0  0  0  0  0  0
  145.6319  131.5754  150.3547 H   0  0  0  0  0  0  0  0  0  0  0  0
  144.8872  132.4654  149.0200 H   0  0  0  0  0  0  0  0  0  0  0  0
  142.4160  132.6308  151.4526 H   0  0  0  0  0  0  0  0  0  0  0  0
  141.0335  133.7586  153.0951 H   0  0  0  0  0  0  0  0  0  0  0  0
  141.1197  135.4961  152.7860 H   0  0  0  0  0  0  0  0  0  0  0  0
  141.8320  134.8206  154.2572 H   0  0  0  0  0  0  0  0  0  0  0  0
  147.0702  135.9705  151.8983 H   0  0  0  0  0  0  0  0  0  0  0  0
  148.0988  137.5552  152.4497 H   0  0  0  0  0  0  0  0  0  0  0  0
  148.4875  139.7470  152.9317 H   0  0  0  0  0  0  0  0  0  0  0  0
  146.7887  140.0447  153.2236 H   0  0  0  0  0  0  0  0  0  0  0  0
  147.3014  140.0859  155.4341 H   0  0  0  0  0  0  0  0  0  0  0  0
  147.4047  138.3503  155.3498 H   0  0  0  0  0  0  0  0  0  0  0  0
  149.5678  141.2660  154.5693 H   0  0  0  0  0  0  0  0  0  0  0  0
  149.1334  141.2535  156.2638 H   0  0  0  0  0  0  0  0  0  0  0  0
  151.5386  141.8345  155.9349 H   0  0  0  0  0  0  0  0  0  0  0  0
  151.3585  140.3791  156.8967 H   0  0  0  0  0  0  0  0  0  0  0  0
  152.2153  138.2356  154.0781 H   0  0  0  0  0  0  0  0  0  0  0  0
  151.7596  138.2017  155.7721 H   0  0  0  0  0  0  0  0  0  0  0  0
  149.8082  137.6058  154.3496 H   0  0  0  0  0  0  0  0  0  0  0  0
  149.9893  139.0796  153.4253 H   0  0  0  0  0  0  0  0  0  0  0  0
  146.3785  134.1777  150.7272 H   0  0  0  0  0  0  0  0  0  0  0  0
  1  2  1  0  0  0  0
  1 21  1  0  0  0  0
  1 22  1  0  0  0  0
  1 23  1  0  0  0  0
  2 20  1  0  0  0  0
  2  3  2  0  0  0  0
  3  4  1  0  0  0  0
  3 24  1  0  0  0  0
  4  5  1  0  0  0  0
  4  6  2  0  0  0  0
  5 25  1  0  0  0  0
  5 26  1  0  0  0  0
  5 27  1  0  0  0  0
  6  7  1  0  0  0  0
  7  8  1  0  0  0  0
  7 20  2  0  0  0  0
  8  9  1  0  0  0  0
  8 28  1  0  0  0  0
  9 10  2  0  0  0  0
  9 11  1  0  0  0  0
 11 12  1  0  0  0  0
 11 29  1  0  0  0  0
 12 13  1  0  0  0  0
 12 30  1  0  0  0  0
 12 31  1  0  0  0  0
 13 14  1  0  0  0  0
 13 32  1  0  0  0  0
 13 33  1  0  0  0  0
 14 19  1  0  0  0  0
 14 15  1  0  0  0  0
 15 16  1  0  0  0  0
 15 34  1  0  0  0  0
 15 35  1  0  0  0  0
 16 17  1  0  0  0  0
 16 36  1  0  0  0  0
 16 37  1  0  0  0  0
 17 18  1  0  0  0  0
 18 19  1  0  0  0  0
 18 38  1  0  0  0  0
 18 39  1  0  0  0  0
 19 40  1  0  0  0  0
 19 41  1  0  0  0  0
 20 42  1  0  0  0  0
M  END
> <s_m_source_file>
AV-unprocessed.smi

> <i_m_source_file_index>
2232

> <i_lp_mmshare_version>
43012

> <i_f3d_flags>
0

> <s_epik_input>
W0NIM11jMVtjSF1jKFtDSDNdKW5jKFtjSF0xKVtOSF1DKD1PKVtOSF1bQ0gyXVtDSDJdTjJbQ0gyXVtDSDJdT1tDSDJdW0NIMl0y

> <s_epik_cmdline>
J2VwaWtfcHl0aG9uJywgJy1waCcsICc3LjAnLCAnLXRuJywgJzgnLCAnLW1hJywgJzIwMCcsICctbWV0YWxfYmluZGluZycsICctaW1hZScsICc8aW5maWxlLm1hZT4nLCAnLW9tYWUnLCAnPG91dGZpbGUubWFlPic=

> <r_epik_Ionization_Penalty>
0.26623

> <r_epik_Ionization_Penalty_Charging>
0

> <r_epik_Ionization_Penalty_Neutral>
0.26623

> <r_epik_State_Penalty>
0.257924

> <r_epik_Charging_Adjusted_Penalty>
0.257924

> <i_epik_Tot_Q>
0

> <i_epik_Tot_abs_Q>
0

> <r_epik_Metal_State_Penalty>
0.257909

> <b_epik_Metal_Only>
0

> <s_lp_Force_Field>
OPLS_2005

> <r_lp_Energy>
21.9386

> <b_lp_Chiralities_Consistent>
1

> <s_lp_Variant>
AV-unprocessed.smi:2232-1

> <Gold.Version>
5.8.1

> <Gold.Id.Protein>
6NUR|6NUR_protein|mol2

> <Gold.PLP.Fitness>
42.0416

> <Gold.PLP.PLP>
-35.0641

> <Gold.PLP.part.hbond>
-3.0000

> <Gold.PLP.part.metal>
0.0000

> <Gold.PLP.part.buried>
-4.8446

> <Gold.PLP.part.nonpolar>
-28.3021

> <Gold.PLP.part.repulsive>
1.1507

> <Gold.PLP.ligand.clash>
0.0000

> <Gold.PLP.ligand.torsion>
0.7507

> <Gold.PLP.Chemscore.Hbond>
2.8240

> <Gold.PLP.Chemscore.CHOScore>
0.0000

> <Gold.PLP.Chemscore.Metal>
0.0000

> <Gold.Chemscore.Hbonds>
donor molecule, donor type, donor heavy atom, donor atom, acceptor molecule, acceptor atom, score
      L1  H     8    28       P1  7948  0.99
      L1  H    11    29       P1  7948  1.00
      P1  H  7989  7998       L1    17  0.83

> <Gold.PLP.Chemscore.Internal.Correction>
0.0070

> <Gold.Rescore>
     Score         DG    S(hbond)    S(metal)    S(lipo)     H(rot)  DE(clash)    DE(int)     intcor
     17.91     -19.93       2.53        0.00      82.77       1.44       0.02       2.00       ----

> <Gold.Chemscore.Fitness>
17.9110

> <Gold.Chemscore.DG>
-19.9270

> <Gold.Chemscore.ZeroCoef>
-5.4800

> <Gold.Chemscore.Hbond>
2.5322

> <Gold.Chemscore.Metal>
0.0000

> <Gold.Chemscore.Lipo>
82.7723

> <Gold.Chemscore.Internal_Hbond>
0.0000

> <Gold.Chemscore.DEClash>
0.0202

> <Gold.Chemscore.DEInternal>
1.9957

> <Gold.Chemscore.Rot>
1.4433

> <Gold.Chemscore.Internal.Correction>
   9.000000E+99

> <Gold.Chemscore.Hbonds>
donor molecule, donor type, donor heavy atom, donor atom, acceptor molecule, acceptor atom, score
      L1  H     8    28       P1  7948  0.94
      L1  H    11    29       P1  7948  0.99
      P1  H  7989  7998       L1    17  0.25

> <Gold.Chemscore.Hbond.Weighted>
-8.4574

> <Gold.Chemscore.Metal.Weighted>
-0.0000

> <Gold.Chemscore.Lipo.Weighted>
-9.6844

> <Gold.Chemscore.Internal_Hbond.Weighted>
0.0000

> <Gold.Chemscore.DEClash.Weighted>
0.0202

> <Gold.Chemscore.DEInternal.Weighted>
1.9957

> <Gold.Chemscore.Rot.Weighted>
3.6948

> <Gold.Chemscore.Internal.Correction.Weighted>
   9.000000E+99

> <Gold.Protein.RotatedTorsions>
[ 6907 6896 6895 6894 ] final -121.81 input  -60.11 | X-H torsion
[ 7974 7965 7964 7962 ] final  146.24 input  175.53 | X-H torsion
[ 8008 7997 7996 7995 ] final -125.84 input   59.86 | X-H torsion
[ 10167 10162 10161 10158 ] final   85.83 input  -65.29 | X-H torsion
[ 10718 10713 10712 10709 ] final   24.32 input   66.30 | X-H torsion
[ 10763 10752 10751 10750 ] final   64.25 input  -60.55 | X-H torsion
[ 11005 11000 10999 10996 ] final    6.65 input  -57.11 | X-H torsion

> <Gold.Protein.ActiveResidues>
 VAL166  LYS551  ARG553  GLY616  TRP617  ASP618  TYR619  PRO620  LYS621  CYS622 
 ASP623  PHE694  ASN695  SER759  ASP760  ASP761  ALA762  ILE779  LEU786  VAL792 
 PHE793  MET794  SER795  GLU796  ALA797  LYS798  CYS799  TRP800  GLU811  SER814 

> <Gold.Protein.RotatedAtoms>
  150.8518  133.7776  159.3022 H   0  0  0  0  0  0  0  0  0  0  0  0  # atno 6907 bound_to 6896
  151.5446  135.1066  159.9944 H   0  0  0  0  0  0  0  0  0  0  0  0  # atno 6908 bound_to 6896
  152.4558  133.7677  159.6838 H   0  0  0  0  0  0  0  0  0  0  0  0  # atno 6909 bound_to 6896
  144.8687  139.5880  143.5897 H   0  0  0  0  0  0  0  0  0  0  0  0  # atno 7974 bound_to 7965
  155.2199  140.0421  157.2946 H   0  0  0  0  0  0  0  0  0  0  0  0  # atno 8008 bound_to 7997
  154.5956  140.2438  155.7832 H   0  0  0  0  0  0  0  0  0  0  0  0  # atno 8009 bound_to 7997
  156.2288  140.2945  156.0144 H   0  0  0  0  0  0  0  0  0  0  0  0  # atno 8010 bound_to 7997
  139.8937  144.6370  150.8711 H   0  0  0  0  0  0  0  0  0  0  0  0  # atno 10167 bound_to 10162
  157.1782  130.6790  149.6103 H   0  0  0  0  0  0  0  0  0  0  0  0  # atno 10718 bound_to 10713
  153.0048  135.5400  154.6480 H   0  0  0  0  0  0  0  0  0  0  0  0  # atno 10763 bound_to 10752
  154.5719  135.2842  155.0820 H   0  0  0  0  0  0  0  0  0  0  0  0  # atno 10764 bound_to 10752
  154.1983  135.6488  153.5132 H   0  0  0  0  0  0  0  0  0  0  0  0  # atno 10765 bound_to 10752
  140.5571  134.0228  155.7958 H   0  0  0  0  0  0  0  0  0  0  0  0  # atno 11005 bound_to 11000
  146.2915  139.7152  142.9158 LP  0  0  0  0  0  0  0  0  0  0  0  0  # atno 17320 bound_to 7965
  145.4171  141.0403  143.2984 LP  0  0  0  0  0  0  0  0  0  0  0  0  # atno 17321 bound_to 7965
  140.7721  143.3490  151.2052 LP  0  0  0  0  0  0  0  0  0  0  0  0  # atno 17342 bound_to 10162
  139.7087  143.9413  152.2938 LP  0  0  0  0  0  0  0  0  0  0  0  0  # atno 17343 bound_to 10162
  155.9728  130.4655  150.6258 LP  0  0  0  0  0  0  0  0  0  0  0  0  # atno 17370 bound_to 10713
  157.3978  131.0805  151.1336 LP  0  0  0  0  0  0  0  0  0  0  0  0  # atno 17371 bound_to 10713
  141.1137  133.9575  157.2863 LP  0  0  0  0  0  0  0  0  0  0  0  0  # atno 17394 bound_to 11000
  139.9426  135.0189  156.8755 LP  0  0  0  0  0  0  0  0  0  0  0  0  # atno 17395 bound_to 11000

$$$$
