AV-unprocessed.smi:2209|AV-procd|sdf|8947|dock8
  -GOLD-   2272012163D 1   1.00000     0.00000
 Structure written by MMmdl.
 26 27  0  0  0  0  0  0  0  0  2 V2000
  150.6392  137.5651  159.2554 C   0  0  0  0  0  0  0  0  0  0  0  0
  151.4740  138.7432  158.8840 C   0  0  0  0  0  0  0  0  0  0  0  0
  152.7160  138.5983  158.4390 N   0  0  0  0  0  0  0  0  0  0  0  0
  153.1351  139.9172  158.2125 O   0  0  0  0  0  0  0  0  0  0  0  0
  152.0851  140.7029  158.5523 C   0  0  0  0  0  0  0  0  0  0  0  0
  152.2181  142.1876  158.4176 C   0  0  2  0  0  0  0  0  0  0  0  0
  152.2685  142.8912  159.7870 C   0  0  0  0  0  0  0  0  0  0  0  0
  152.3909  144.4122  159.6070 C   0  0  0  0  0  0  0  0  0  0  0  0
  151.2700  144.9514  158.7028 C   0  0  0  0  0  0  0  0  0  0  0  0
  151.2706  144.2546  157.3981 N   0  3  0  0  0  0  0  0  0  0  0  0
  151.1137  142.7882  157.5241 C   0  0  0  0  0  0  0  0  0  0  0  0
  151.0206  140.0237  158.9749 N   0  0  0  0  0  0  0  0  0  0  0  0
  151.1898  136.6345  159.1129 H   0  0  0  0  0  0  0  0  0  0  0  0
  149.7406  137.5311  158.6390 H   0  0  0  0  0  0  0  0  0  0  0  0
  150.3399  137.6309  160.3016 H   0  0  0  0  0  0  0  0  0  0  0  0
  153.1728  142.3744  157.9226 H   0  0  0  0  0  0  0  0  0  0  0  0
  151.3651  142.6651  160.3551 H   0  0  0  0  0  0  0  0  0  0  0  0
  153.1077  142.5167  160.3744 H   0  0  0  0  0  0  0  0  0  0  0  0
  152.3576  144.9065  160.5785 H   0  0  0  0  0  0  0  0  0  0  0  0
  153.3611  144.6531  159.1704 H   0  0  0  0  0  0  0  0  0  0  0  0
  150.2986  144.8200  159.1817 H   0  0  0  0  0  0  0  0  0  0  0  0
  151.4010  146.0208  158.5351 H   0  0  0  0  0  0  0  0  0  0  0  0
  150.5163  144.6174  156.8326 H   0  0  0  0  0  0  0  0  0  0  0  0
  151.1464  142.3445  156.5285 H   0  0  0  0  0  0  0  0  0  0  0  0
  150.1271  142.5719  157.9367 H   0  0  0  0  0  0  0  0  0  0  0  0
  152.1467  144.4463  156.9331 H   0  0  0  0  0  0  0  0  0  0  0  0
  1  2  1  0  0  0  0
  1 13  1  0  0  0  0
  1 14  1  0  0  0  0
  1 15  1  0  0  0  0
  2 12  1  0  0  0  0
  2  3  2  0  0  0  0
  3  4  1  0  0  0  0
  4  5  1  0  0  0  0
  5  6  1  0  0  0  0
  5 12  2  0  0  0  0
  6 11  1  0  0  0  0
  6  7  1  0  0  0  0
  6 16  1  0  0  0  0
  7  8  1  0  0  0  0
  7 17  1  0  0  0  0
  7 18  1  0  0  0  0
  8  9  1  0  0  0  0
  8 19  1  0  0  0  0
  8 20  1  0  0  0  0
  9 10  1  0  0  0  0
  9 21  1  0  0  0  0
  9 22  1  0  0  0  0
 10 11  1  0  0  0  0
 10 23  1  0  0  0  0
 10 26  1  0  0  0  0
 11 24  1  0  0  0  0
 11 25  1  0  0  0  0
M  CHG  1  10   1
M  END
> <s_m_source_file>
AV-unprocessed.smi

> <i_m_source_file_index>
2209

> <i_lp_mmshare_version>
43012

> <i_f3d_flags>
0

> <s_epik_input>
W0NIM11jMW5vYyhuMSlbQ0BASF0yW0NIMl1bQ0gyXVtDSDJdW05IXVtDSDJdMg==

> <s_epik_cmdline>
J2VwaWtfcHl0aG9uJywgJy1waCcsICc3LjAnLCAnLXRuJywgJzgnLCAnLW1hJywgJzIwMCcsICctbWV0YWxfYmluZGluZycsICctaW1hZScsICc8aW5maWxlLm1hZT4nLCAnLW9tYWUnLCAnPG91dGZpbGUubWFlPic=

> <r_lp_tautomer_probability>
1

> <r_epik_Ionization_Penalty>
0.000532935

> <r_epik_Ionization_Penalty_Charging>
0.000532935

> <r_epik_Ionization_Penalty_Neutral>
4.97553e-13

> <r_epik_State_Penalty>
0.000332992

> <r_epik_Charging_Adjusted_Penalty>
0.000865928

> <i_epik_Tot_Q>
1

> <i_epik_Tot_abs_Q>
1

> <r_epik_Metal_State_Penalty>
-0

> <b_epik_Metal_Only>
0

> <s_lp_Force_Field>
OPLS_2005

> <r_lp_Energy>
10.4199

> <b_lp_Chiralities_Consistent>
1

> <s_lp_Variant>
AV-unprocessed.smi:2209-1

> <Gold.Version>
5.8.1

> <Gold.Id.Protein>
6NUR|6NUR_protein|mol2

> <Gold.PLP.Fitness>
33.5481

> <Gold.PLP.PLP>
-24.7388

> <Gold.PLP.part.hbond>
-2.0000

> <Gold.PLP.part.metal>
0.0000

> <Gold.PLP.part.buried>
-4.0631

> <Gold.PLP.part.nonpolar>
-18.4942

> <Gold.PLP.part.repulsive>
0.0323

> <Gold.PLP.ligand.clash>
0.0000

> <Gold.PLP.ligand.torsion>
0.1121

> <Gold.PLP.Chemscore.Hbond>
3.0000

> <Gold.PLP.Chemscore.CHOScore>
0.0000

> <Gold.PLP.Chemscore.Metal>
0.0000

> <Gold.Chemscore.Hbonds>
donor molecule, donor type, donor heavy atom, donor atom, acceptor molecule, acceptor atom, score
      L1  H    10    23       P1  8028  2.00
      P1  H  7997  8009       L1     4  0.99

> <Gold.PLP.Chemscore.Internal.Correction>
0.0335

> <Gold.Rescore>
     Score         DG    S(hbond)    S(metal)    S(lipo)     H(rot)  DE(clash)    DE(int)     intcor
     16.66     -16.71       2.00        0.00      60.89       1.00       0.04       0.02       ----

> <Gold.Chemscore.Fitness>
16.6626

> <Gold.Chemscore.DG>
-16.7147

> <Gold.Chemscore.ZeroCoef>
-5.4800

> <Gold.Chemscore.Hbond>
1.9970

> <Gold.Chemscore.Metal>
0.0000

> <Gold.Chemscore.Lipo>
60.8947

> <Gold.Chemscore.Internal_Hbond>
0.0000

> <Gold.Chemscore.DEClash>
0.0354

> <Gold.Chemscore.DEInternal>
0.0168

> <Gold.Chemscore.Rot>
1.0000

> <Gold.Chemscore.Internal.Correction>
   9.000000E+99

> <Gold.Chemscore.Hbonds>
donor molecule, donor type, donor heavy atom, donor atom, acceptor molecule, acceptor atom, score
      L1  H    10    23       P1  8028  0.83
      P1  H  7997  8009       L1     4  0.83

> <Gold.Chemscore.Hbond.Weighted>
-6.6701

> <Gold.Chemscore.Metal.Weighted>
-0.0000

> <Gold.Chemscore.Lipo.Weighted>
-7.1247

> <Gold.Chemscore.Internal_Hbond.Weighted>
0.0000

> <Gold.Chemscore.DEClash.Weighted>
0.0354

> <Gold.Chemscore.DEInternal.Weighted>
0.0168

> <Gold.Chemscore.Rot.Weighted>
2.5600

> <Gold.Chemscore.Internal.Correction.Weighted>
   9.000000E+99

> <Gold.Protein.RotatedTorsions>
[ 6907 6896 6895 6894 ] final -154.35 input  -60.11 | X-H torsion
[ 7974 7965 7964 7962 ] final  149.39 input  175.53 | X-H torsion
[ 8008 7997 7996 7995 ] final  169.85 input   59.86 | X-H torsion
[ 10167 10162 10161 10158 ] final -141.77 input  -65.29 | X-H torsion
[ 10718 10713 10712 10709 ] final -103.61 input   66.30 | X-H torsion
[ 10763 10752 10751 10750 ] final  -55.91 input  -60.55 | X-H torsion
[ 11005 11000 10999 10996 ] final  120.41 input  -57.11 | X-H torsion

> <Gold.Protein.ActiveResidues>
 VAL166  LYS551  ARG553  GLY616  TRP617  ASP618  TYR619  PRO620  LYS621  CYS622 
 ASP623  PHE694  ASN695  SER759  ASP760  ASP761  ALA762  ILE779  LEU786  VAL792 
 PHE793  MET794  SER795  GLU796  ALA797  LYS798  CYS799  TRP800  GLU811  SER814 

> <Gold.Protein.RotatedAtoms>
  151.2561  133.4325  159.2613 H   0  0  0  0  0  0  0  0  0  0  0  0  # atno 6907 bound_to 6896
  151.0573  134.9713  159.8252 H   0  0  0  0  0  0  0  0  0  0  0  0  # atno 6908 bound_to 6896
  152.5392  134.2513  159.8952 H   0  0  0  0  0  0  0  0  0  0  0  0  # atno 6909 bound_to 6896
  144.8442  139.6274  143.6003 H   0  0  0  0  0  0  0  0  0  0  0  0  # atno 7974 bound_to 7965
  156.1419  140.1553  156.8907 H   0  0  0  0  0  0  0  0  0  0  0  0  # atno 8008 bound_to 7997
  154.4995  140.0829  156.7806 H   0  0  0  0  0  0  0  0  0  0  0  0  # atno 8009 bound_to 7997
  155.4062  140.3416  155.4262 H   0  0  0  0  0  0  0  0  0  0  0  0  # atno 8010 bound_to 7997
  139.8153  143.7648  152.2665 H   0  0  0  0  0  0  0  0  0  0  0  0  # atno 10167 bound_to 10162
  156.0272  130.5476  150.7278 H   0  0  0  0  0  0  0  0  0  0  0  0  # atno 10718 bound_to 10713
  154.1983  135.6415  153.5079 H   0  0  0  0  0  0  0  0  0  0  0  0  # atno 10763 bound_to 10752
  153.0018  135.5445  154.6342 H   0  0  0  0  0  0  0  0  0  0  0  0  # atno 10764 bound_to 10752
  154.5749  135.2920  155.0764 H   0  0  0  0  0  0  0  0  0  0  0  0  # atno 10765 bound_to 10752
  139.9184  134.9634  156.7803 H   0  0  0  0  0  0  0  0  0  0  0  0  # atno 11005 bound_to 11000
  146.2729  139.6681  142.9283 LP  0  0  0  0  0  0  0  0  0  0  0  0  # atno 17320 bound_to 7965
  145.4632  141.0433  143.2740 LP  0  0  0  0  0  0  0  0  0  0  0  0  # atno 17321 bound_to 7965
  139.7809  144.7445  151.0090 LP  0  0  0  0  0  0  0  0  0  0  0  0  # atno 17342 bound_to 10162
  140.7816  143.4543  151.0368 LP  0  0  0  0  0  0  0  0  0  0  0  0  # atno 17343 bound_to 10162
  157.4878  131.0908  151.0462 LP  0  0  0  0  0  0  0  0  0  0  0  0  # atno 17370 bound_to 10713
  157.0877  130.5929  149.5433 LP  0  0  0  0  0  0  0  0  0  0  0  0  # atno 17371 bound_to 10713
  140.6549  133.9697  155.7774 LP  0  0  0  0  0  0  0  0  0  0  0  0  # atno 17394 bound_to 11000
  141.0683  134.0244  157.3563 LP  0  0  0  0  0  0  0  0  0  0  0  0  # atno 17395 bound_to 11000

$$$$
