AV-unprocessed.smi:1213|AV-procd|sdf|5090|dock3
  -GOLD-   22720 4143D 1   1.00000     0.00000
 Structure written by MMmdl.
 36 37  0  0  0  0  0  0  0  0  3 V2000
  145.1900  135.9804  149.7469 N   0  0  0  0  0  0  0  0  0  0  0  0
  145.4323  135.3094  150.8751 C   0  0  0  0  0  0  0  0  0  0  0  0
  145.9249  134.1826  150.8737 O   0  0  0  0  0  0  0  0  0  0  0  0
  145.0860  136.0188  152.1886 C   0  0  0  0  0  0  0  0  0  0  0  0
  146.1665  136.9183  152.6690 N   0  3  2  0  0  0  0  0  0  0  0  0
  146.1673  137.0947  154.1463 C   0  0  0  0  0  0  0  0  0  0  0  0
  147.3811  137.9195  154.6047 C   0  0  0  0  0  0  0  0  0  0  0  0
  147.4192  139.2846  153.9001 C   0  0  1  0  0  0  0  0  0  0  0  0
  148.6221  140.0115  154.2937 N   0  0  0  0  0  0  0  0  0  0  0  0
  149.8686  139.5182  154.3113 C   0  0  0  0  0  0  0  0  0  0  0  0
  150.0724  138.3491  153.9756 O   0  0  0  0  0  0  0  0  0  0  0  0
  150.7985  140.4099  154.7202 N   0  5  0  0  0  0  0  0  0  0  0  0
  150.9233  140.6986  156.0258 C   0  0  0  0  0  0  0  0  0  0  0  0
  151.1868  139.7731  156.9552 N   0  0  0  0  0  0  0  0  0  0  0  0
  151.2819  140.2947  158.2467 C   0  0  0  0  0  0  0  0  0  0  0  0
  151.0944  141.6504  158.3008 C   0  0  0  0  0  0  0  0  0  0  0  0
  150.7913  142.3164  156.7215 S   0  0  0  0  0  0  0  0  0  0  0  0
  147.3786  139.0775  152.3752 C   0  0  0  0  0  0  0  0  0  0  0  0
  146.1682  138.2251  151.9632 C   0  0  0  0  0  0  0  0  0  0  0  0
  145.4056  135.5553  148.8560 H   0  0  0  0  0  0  0  0  0  0  0  0
  144.7968  136.9101  149.7813 H   0  0  0  0  0  0  0  0  0  0  0  0
  144.1826  136.5999  151.9985 H   0  0  0  0  0  0  0  0  0  0  0  0
  144.8331  135.2915  152.9620 H   0  0  0  0  0  0  0  0  0  0  0  0
  145.2434  137.5853  154.4568 H   0  0  0  0  0  0  0  0  0  0  0  0
  146.1890  136.1239  154.6421 H   0  0  0  0  0  0  0  0  0  0  0  0
  147.3459  138.0574  155.6861 H   0  0  0  0  0  0  0  0  0  0  0  0
  148.2965  137.3648  154.3931 H   0  0  0  0  0  0  0  0  0  0  0  0
  146.5404  139.8541  154.2088 H   0  0  0  0  0  0  0  0  0  0  0  0
  148.5049  140.9740  154.5754 H   0  0  0  0  0  0  0  0  0  0  0  0
  151.4878  139.6266  159.0698 H   0  0  0  0  0  0  0  0  0  0  0  0
  151.1170  142.2945  159.1666 H   0  0  0  0  0  0  0  0  0  0  0  0
  147.3386  140.0396  151.8631 H   0  0  0  0  0  0  0  0  0  0  0  0
  148.2966  138.5899  152.0427 H   0  0  0  0  0  0  0  0  0  0  0  0
  146.1987  138.0625  150.8852 H   0  0  0  0  0  0  0  0  0  0  0  0
  145.2407  138.7581  152.1783 H   0  0  0  0  0  0  0  0  0  0  0  0
  147.0371  136.4658  152.4274 H   0  0  0  0  0  0  0  0  0  0  0  0
  1  2  1  0  0  0  0
  1 20  1  0  0  0  0
  1 21  1  0  0  0  0
  2  3  2  0  0  0  0
  2  4  1  0  0  0  0
  4  5  1  0  0  0  0
  4 22  1  0  0  0  0
  4 23  1  0  0  0  0
  5 19  1  0  0  0  0
  5  6  1  0  0  0  0
  5 36  1  0  0  0  0
  6  7  1  0  0  0  0
  6 24  1  0  0  0  0
  6 25  1  0  0  0  0
  7  8  1  0  0  0  0
  7 26  1  0  0  0  0
  7 27  1  0  0  0  0
  8  9  1  0  0  0  0
  8 18  1  0  0  0  0
  8 28  1  0  0  0  0
  9 10  1  0  0  0  0
  9 29  1  0  0  0  0
 10 11  2  0  0  0  0
 10 12  1  0  0  0  0
 12 13  1  0  0  0  0
 13 17  1  0  0  0  0
 13 14  2  0  0  0  0
 14 15  1  0  0  0  0
 15 16  2  0  0  0  0
 15 30  1  0  0  0  0
 16 17  1  0  0  0  0
 16 31  1  0  0  0  0
 18 19  1  0  0  0  0
 18 32  1  0  0  0  0
 18 33  1  0  0  0  0
 19 34  1  0  0  0  0
 19 35  1  0  0  0  0
M  CHG  1   5   1
M  CHG  1  12  -1
M  END
> <s_m_source_file>
AV-unprocessed.smi

> <i_m_source_file_index>
1213

> <i_lp_mmshare_version>
43012

> <i_f3d_flags>
0

> <s_epik_input>
W05IMl1DKD1PKVtDSDJdTjFbQ0gyXVtDSDJdW0NIXShbQ0gyXVtDSDJdMSlbTkhdQyg9TylbTkhdYzJuW2NIXVtjSF1zMg==

> <s_epik_cmdline>
J2VwaWtfcHl0aG9uJywgJy1waCcsICc3LjAnLCAnLXRuJywgJzgnLCAnLW1hJywgJzIwMCcsICctbWV0YWxfYmluZGluZycsICctaW1hZScsICc8aW5maWxlLm1hZT4nLCAnLW9tYWUnLCAnPG91dGZpbGUubWFlPic=

> <r_lp_tautomer_probability>
0.999

> <r_epik_Ionization_Penalty>
7.1168

> <r_epik_Ionization_Penalty_Charging>
6.25003

> <r_epik_Ionization_Penalty_Neutral>
0.866763

> <r_epik_State_Penalty>
6.33484

> <r_epik_Charging_Adjusted_Penalty>
12.5849

> <i_epik_Tot_Q>
0

> <i_epik_Tot_abs_Q>
2

> <r_epik_Metal_State_Penalty>
2.3501

> <b_epik_Metal_Only>
1

> <s_lp_Force_Field>
OPLS_2005

> <r_lp_Energy>
2.02951

> <b_lp_Chiralities_Consistent>
1

> <s_lp_Variant>
AV-unprocessed.smi:1213-7

> <Gold.Version>
5.8.1

> <Gold.Id.Protein>
6NUR|6NUR_protein|mol2

> <Gold.PLP.Fitness>
39.3195

> <Gold.PLP.PLP>
-28.2545

> <Gold.PLP.part.hbond>
-3.9587

> <Gold.PLP.part.metal>
0.0000

> <Gold.PLP.part.buried>
-1.2890

> <Gold.PLP.part.nonpolar>
-24.3520

> <Gold.PLP.part.repulsive>
0.7997

> <Gold.PLP.ligand.clash>
0.0000

> <Gold.PLP.ligand.torsion>
1.9908

> <Gold.PLP.Chemscore.Hbond>
5.0000

> <Gold.PLP.Chemscore.CHOScore>
0.0000

> <Gold.PLP.Chemscore.Metal>
0.0000

> <Gold.Chemscore.Hbonds>
donor molecule, donor type, donor heavy atom, donor atom, acceptor molecule, acceptor atom, score
      L1  H     1    20       P1  7921  1.00
      L1  H     1    21       P1 10171  1.00
      L1  H     5    36       P1  7948  2.00
      P1  H  7989  7998       L1    12  1.00

> <Gold.PLP.Chemscore.Internal.Correction>
0.0466

> <Gold.Rescore>
     Score         DG    S(hbond)    S(metal)    S(lipo)     H(rot)  DE(clash)    DE(int)     intcor
     13.58     -18.24       3.59        0.00      51.01       2.04       1.43       3.23       ----

> <Gold.Chemscore.Fitness>
13.5838

> <Gold.Chemscore.DG>
-18.2396

> <Gold.Chemscore.ZeroCoef>
-5.4800

> <Gold.Chemscore.Hbond>
3.5947

> <Gold.Chemscore.Metal>
0.0000

> <Gold.Chemscore.Lipo>
51.0134

> <Gold.Chemscore.Internal_Hbond>
0.0000

> <Gold.Chemscore.DEClash>
1.4273

> <Gold.Chemscore.DEInternal>
3.2285

> <Gold.Chemscore.Rot>
2.0373

> <Gold.Chemscore.Internal.Correction>
   9.000000E+99

> <Gold.Chemscore.Hbonds>
donor molecule, donor type, donor heavy atom, donor atom, acceptor molecule, acceptor atom, score
      L1  H     1    20       P1  7921  0.98
      L1  H     1    21       P1 10171  1.00
      L1  H     5    36       P1  7948  0.96
      P1  H  7989  7998       L1    12  0.66

> <Gold.Chemscore.Hbond.Weighted>
-12.0064

> <Gold.Chemscore.Metal.Weighted>
-0.0000

> <Gold.Chemscore.Lipo.Weighted>
-5.9686

> <Gold.Chemscore.Internal_Hbond.Weighted>
0.0000

> <Gold.Chemscore.DEClash.Weighted>
1.4273

> <Gold.Chemscore.DEInternal.Weighted>
3.2285

> <Gold.Chemscore.Rot.Weighted>
5.2154

> <Gold.Chemscore.Internal.Correction.Weighted>
   9.000000E+99

> <Gold.Protein.RotatedTorsions>
[ 6907 6896 6895 6894 ] final  -56.39 input  -60.11 | X-H torsion
[ 7974 7965 7964 7962 ] final -126.65 input  175.53 | X-H torsion
[ 8008 7997 7996 7995 ] final  -73.50 input   59.86 | X-H torsion
[ 10167 10162 10161 10158 ] final  165.81 input  -65.29 | X-H torsion
[ 10718 10713 10712 10709 ] final   27.36 input   66.30 | X-H torsion
[ 10763 10752 10751 10750 ] final  -14.86 input  -60.55 | X-H torsion
[ 11005 11000 10999 10996 ] final   57.98 input  -57.11 | X-H torsion

> <Gold.Protein.ActiveResidues>
 VAL166  LYS551  ARG553  GLY616  TRP617  ASP618  TYR619  PRO620  LYS621  CYS622 
 ASP623  PHE694  ASN695  SER759  ASP760  ASP761  ALA762  ILE779  LEU786  VAL792 
 PHE793  MET794  SER795  GLU796  ALA797  LYS798  CYS799  TRP800  GLU811  SER814 

> <Gold.Protein.RotatedAtoms>
  150.8172  134.7360  159.6739 H   0  0  0  0  0  0  0  0  0  0  0  0  # atno 6907 bound_to 6896
  152.4290  134.5811  159.9958 H   0  0  0  0  0  0  0  0  0  0  0  0  # atno 6908 bound_to 6896
  151.6005  133.3319  159.3082 H   0  0  0  0  0  0  0  0  0  0  0  0  # atno 6909 bound_to 6896
  144.9851  140.7678  143.4588 H   0  0  0  0  0  0  0  0  0  0  0  0  # atno 7974 bound_to 7965
  154.5253  140.0778  156.8246 H   0  0  0  0  0  0  0  0  0  0  0  0  # atno 8008 bound_to 7997
  155.3490  140.3411  155.4221 H   0  0  0  0  0  0  0  0  0  0  0  0  # atno 8009 bound_to 7997
  156.1724  140.1624  156.8410 H   0  0  0  0  0  0  0  0  0  0  0  0  # atno 8010 bound_to 7997
  139.4912  144.4093  151.9318 H   0  0  0  0  0  0  0  0  0  0  0  0  # atno 10167 bound_to 10162
  157.2192  130.6970  149.6262 H   0  0  0  0  0  0  0  0  0  0  0  0  # atno 10718 bound_to 10713
  153.5346  135.7014  153.5666 H   0  0  0  0  0  0  0  0  0  0  0  0  # atno 10763 bound_to 10752
  153.3659  135.3957  155.1752 H   0  0  0  0  0  0  0  0  0  0  0  0  # atno 10764 bound_to 10752
  154.8681  135.3800  154.4846 H   0  0  0  0  0  0  0  0  0  0  0  0  # atno 10765 bound_to 10752
  140.0412  134.5871  155.9380 H   0  0  0  0  0  0  0  0  0  0  0  0  # atno 11005 bound_to 11000
  145.2366  139.2091  143.5015 LP  0  0  0  0  0  0  0  0  0  0  0  0  # atno 17320 bound_to 7965
  146.3418  140.2253  142.8592 LP  0  0  0  0  0  0  0  0  0  0  0  0  # atno 17321 bound_to 7965
  140.3534  144.3061  150.5945 LP  0  0  0  0  0  0  0  0  0  0  0  0  # atno 17342 bound_to 10162
  140.5465  143.2214  151.7998 LP  0  0  0  0  0  0  0  0  0  0  0  0  # atno 17343 bound_to 10162
  155.9684  130.4525  150.5778 LP  0  0  0  0  0  0  0  0  0  0  0  0  # atno 17370 bound_to 10713
  157.3593  131.0747  151.1649 LP  0  0  0  0  0  0  0  0  0  0  0  0  # atno 17371 bound_to 10713
  141.1884  133.6562  156.5322 LP  0  0  0  0  0  0  0  0  0  0  0  0  # atno 17394 bound_to 11000
  140.4066  134.7309  157.4811 LP  0  0  0  0  0  0  0  0  0  0  0  0  # atno 17395 bound_to 11000

$$$$
