AV-unprocessed.smi:163|AV-procd|sdf|1380|dock8
  -GOLD-   2262019103D 1   1.00000     0.00000
 Structure written by MMmdl.
 48 51  0  0  0  0  0  0  0  0  1 V2000
  143.8276  145.5357  154.5186 N   0  0  0  0  0  0  0  0  0  0  0  0
  144.7033  144.8301  154.2450 C   0  0  0  0  0  0  0  0  0  0  0  0
  145.8195  143.9348  153.8969 C   0  0  0  0  0  0  0  0  0  0  0  0
  145.7002  142.5358  154.5157 C   0  0  0  0  0  0  0  0  0  0  0  0
  144.7738  142.3050  155.2940 O   0  0  0  0  0  0  0  0  0  0  0  0
  146.6207  141.5998  154.1860 N   0  0  0  0  0  0  0  0  0  0  0  0
  147.7871  141.8252  153.3247 C   0  0  0  0  0  0  0  0  0  0  0  0
  149.0629  141.7375  154.1822 C   0  0  0  0  0  0  0  0  0  0  0  0
  149.1085  140.4726  154.9200 N   0  0  0  0  0  0  0  0  0  0  0  0
  150.3053  140.1851  155.4934 C   0  0  0  0  0  0  0  0  0  0  0  0
  151.2429  139.4936  154.7912 N   0  0  0  0  0  0  0  0  0  0  0  0
  152.4217  139.1977  155.3461 C   0  0  0  0  0  0  0  0  0  0  0  0
  152.8657  139.4935  156.5687 N   0  0  0  0  0  0  0  0  0  0  0  0
  151.9337  140.1918  157.2779 C   0  0  0  0  0  0  0  0  0  0  0  0
  150.6423  140.5793  156.8199 C   0  0  0  0  0  0  0  0  0  0  0  0
  149.9874  141.2987  157.8131 N   0  0  0  0  0  0  0  0  0  0  0  0
  150.8371  141.3255  158.8027 C   0  0  0  0  0  0  0  0  0  0  0  0
  152.0284  140.6753  158.5717 N   0  0  0  0  0  0  0  0  0  0  0  0
  153.1488  140.5496  159.4924 C   0  0  0  0  0  0  0  0  0  0  0  0
  153.5564  141.8831  160.1657 C   0  0  1  0  0  0  0  0  0  0  0  0
  154.7904  141.7026  160.8359 O   0  0  0  0  0  0  0  0  0  0  0  0
  153.7003  143.0250  159.1569 C   0  0  0  0  0  0  0  0  0  0  0  0
  152.4951  143.9122  159.4435 C   0  0  0  0  0  0  0  0  0  0  0  0
  152.3491  143.7911  160.8469 O   0  0  0  0  0  0  0  0  0  0  0  0
  152.5101  142.4165  161.1652 C   0  0  0  0  0  0  0  0  0  0  0  0
  147.8943  140.1271  155.6663 C   0  0  0  0  0  0  0  0  0  0  0  0
  146.6457  140.2557  154.7744 C   0  0  0  0  0  0  0  0  0  0  0  0
  145.8492  143.8606  152.8096 H   0  0  0  0  0  0  0  0  0  0  0  0
  146.7384  144.4163  154.2337 H   0  0  0  0  0  0  0  0  0  0  0  0
  147.8088  141.0584  152.5488 H   0  0  0  0  0  0  0  0  0  0  0  0
  147.7631  142.7760  152.7950 H   0  0  0  0  0  0  0  0  0  0  0  0
  149.9336  141.8565  153.5393 H   0  0  0  0  0  0  0  0  0  0  0  0
  149.0875  142.5611  154.8974 H   0  0  0  0  0  0  0  0  0  0  0  0
  153.1072  138.6450  154.7209 H   0  0  0  0  0  0  0  0  0  0  0  0
  150.6152  141.8254  159.7342 H   0  0  0  0  0  0  0  0  0  0  0  0
  152.8867  139.8099  160.2499 H   0  0  0  0  0  0  0  0  0  0  0  0
  153.9944  140.1342  158.9426 H   0  0  0  0  0  0  0  0  0  0  0  0
  155.2491  140.9823  160.4312 H   0  0  0  0  0  0  0  0  0  0  0  0
  154.6116  143.5972  159.3394 H   0  0  0  0  0  0  0  0  0  0  0  0
  153.7297  142.6891  158.1198 H   0  0  0  0  0  0  0  0  0  0  0  0
  152.6507  144.9479  159.1409 H   0  0  0  0  0  0  0  0  0  0  0  0
  151.6015  143.5345  158.9439 H   0  0  0  0  0  0  0  0  0  0  0  0
  151.5434  141.9338  161.0191 H   0  0  0  0  0  0  0  0  0  0  0  0
  152.7923  142.2787  162.2099 H   0  0  0  0  0  0  0  0  0  0  0  0
  147.9682  139.1066  156.0442 H   0  0  0  0  0  0  0  0  0  0  0  0
  147.8000  140.7871  156.5300 H   0  0  0  0  0  0  0  0  0  0  0  0
  145.7515  140.0288  155.3561 H   0  0  0  0  0  0  0  0  0  0  0  0
  146.6785  139.5145  153.9746 H   0  0  0  0  0  0  0  0  0  0  0  0
  1  2  3  0  0  0  0
  2  3  1  0  0  0  0
  3  4  1  0  0  0  0
  3 28  1  0  0  0  0
  3 29  1  0  0  0  0
  4  5  2  0  0  0  0
  4  6  1  0  0  0  0
  6 27  1  0  0  0  0
  6  7  1  0  0  0  0
  7  8  1  0  0  0  0
  7 30  1  0  0  0  0
  7 31  1  0  0  0  0
  8  9  1  0  0  0  0
  8 32  1  0  0  0  0
  8 33  1  0  0  0  0
  9 10  1  0  0  0  0
  9 26  1  0  0  0  0
 10 15  1  0  0  0  0
 10 11  2  0  0  0  0
 11 12  1  0  0  0  0
 12 13  2  0  0  0  0
 12 34  1  0  0  0  0
 13 14  1  0  0  0  0
 14 18  1  0  0  0  0
 14 15  2  0  0  0  0
 15 16  1  0  0  0  0
 16 17  2  0  0  0  0
 17 18  1  0  0  0  0
 17 35  1  0  0  0  0
 18 19  1  0  0  0  0
 19 20  1  0  0  0  0
 19 36  1  0  0  0  0
 19 37  1  0  0  0  0
 20 25  1  0  0  0  0
 20 21  1  0  0  0  0
 20 22  1  0  0  0  0
 21 38  1  0  0  0  0
 22 23  1  0  0  0  0
 22 39  1  0  0  0  0
 22 40  1  0  0  0  0
 23 24  1  0  0  0  0
 23 41  1  0  0  0  0
 23 42  1  0  0  0  0
 24 25  1  0  0  0  0
 25 43  1  0  0  0  0
 25 44  1  0  0  0  0
 26 27  1  0  0  0  0
 26 45  1  0  0  0  0
 26 46  1  0  0  0  0
 27 47  1  0  0  0  0
 27 48  1  0  0  0  0
M  END
> <s_m_source_file>
AV-unprocessed.smi

> <i_m_source_file_index>
163

> <i_lp_mmshare_version>
43012

> <i_f3d_flags>
0

> <s_epik_input>
TiNDW0NIMl1DKD1PKU4xW0NIMl1bQ0gyXU4oW0NIMl1bQ0gyXTEpYyhuW2NIXW4yKWMoYzIzKW5bY0hdbjNbQ0gyXVtDQEBdNChbT0hdKVtDSDJdW0NIMl1PW0NIMl00

> <s_epik_cmdline>
J2VwaWtfcHl0aG9uJywgJy1waCcsICc3LjAnLCAnLXRuJywgJzgnLCAnLW1hJywgJzIwMCcsICctbWV0YWxfYmluZGluZycsICctaW1hZScsICc8aW5maWxlLm1hZT4nLCAnLW9tYWUnLCAnPG91dGZpbGUubWFlPic=

> <r_lp_tautomer_probability>
1

> <r_epik_Ionization_Penalty>
0.000981096

> <r_epik_Ionization_Penalty_Charging>
0

> <r_epik_Ionization_Penalty_Neutral>
0.000981096

> <r_epik_State_Penalty>
0.000482875

> <r_epik_Charging_Adjusted_Penalty>
0.000482875

> <i_epik_Tot_Q>
0

> <i_epik_Tot_abs_Q>
0

> <r_epik_Metal_State_Penalty>
-0

> <b_epik_Metal_Only>
0

> <s_lp_Force_Field>
OPLS_2005

> <r_lp_Energy>
52.1528

> <b_lp_Chiralities_Consistent>
1

> <s_lp_Variant>
AV-unprocessed.smi:163-1

> <Gold.Version>
5.8.1

> <Gold.Id.Protein>
6NUR|6NUR_protein|mol2

> <Gold.PLP.Fitness>
49.7756

> <Gold.PLP.PLP>
-44.6834

> <Gold.PLP.part.hbond>
-3.0000

> <Gold.PLP.part.metal>
0.0000

> <Gold.PLP.part.buried>
-3.8137

> <Gold.PLP.part.nonpolar>
-37.7883

> <Gold.PLP.part.repulsive>
0.4746

> <Gold.PLP.ligand.clash>
0.0000

> <Gold.PLP.ligand.torsion>
0.6858

> <Gold.PLP.Chemscore.Hbond>
2.0000

> <Gold.PLP.Chemscore.CHOScore>
0.0000

> <Gold.PLP.Chemscore.Metal>
0.0000

> <Gold.Chemscore.Hbonds>
donor molecule, donor type, donor heavy atom, donor atom, acceptor molecule, acceptor atom, score
      P1  H  7989  7998       L1    11  0.90
      P1  H  7997  8009       L1    13  1.00

> <Gold.PLP.Chemscore.Internal.Correction>
0.4638

> <Gold.Rescore>
     Score         DG    S(hbond)    S(metal)    S(lipo)     H(rot)  DE(clash)    DE(int)     intcor
      9.38     -11.17       0.90        0.00      82.55       2.72       0.61       1.17       ----

> <Gold.Chemscore.Fitness>
9.3829

> <Gold.Chemscore.DG>
-11.1667

> <Gold.Chemscore.ZeroCoef>
-5.4800

> <Gold.Chemscore.Hbond>
0.8979

> <Gold.Chemscore.Metal>
0.0000

> <Gold.Chemscore.Lipo>
82.5508

> <Gold.Chemscore.Internal_Hbond>
0.0000

> <Gold.Chemscore.DEClash>
0.6124

> <Gold.Chemscore.DEInternal>
1.1713

> <Gold.Chemscore.Rot>
2.7230

> <Gold.Chemscore.Internal.Correction>
   9.000000E+99

> <Gold.Chemscore.Hbonds>
donor molecule, donor type, donor heavy atom, donor atom, acceptor molecule, acceptor atom, score
      P1  H  7989  7998       L1    11  0.09
      P1  H  7997  8009       L1    13  0.62

> <Gold.Chemscore.Hbond.Weighted>
-2.9991

> <Gold.Chemscore.Metal.Weighted>
-0.0000

> <Gold.Chemscore.Lipo.Weighted>
-9.6584

> <Gold.Chemscore.Internal_Hbond.Weighted>
0.0000

> <Gold.Chemscore.DEClash.Weighted>
0.6124

> <Gold.Chemscore.DEInternal.Weighted>
1.1713

> <Gold.Chemscore.Rot.Weighted>
6.9709

> <Gold.Chemscore.Internal.Correction.Weighted>
   9.000000E+99

> <Gold.Protein.RotatedTorsions>
[ 6907 6896 6895 6894 ] final -163.43 input  -60.11 | X-H torsion
[ 7974 7965 7964 7962 ] final -167.76 input  175.53 | X-H torsion
[ 8008 7997 7996 7995 ] final -167.45 input   59.86 | X-H torsion
[ 10167 10162 10161 10158 ] final -127.31 input  -65.29 | X-H torsion
[ 10718 10713 10712 10709 ] final -100.59 input   66.30 | X-H torsion
[ 10763 10752 10751 10750 ] final -166.24 input  -60.55 | X-H torsion
[ 11005 11000 10999 10996 ] final  115.60 input  -57.11 | X-H torsion

> <Gold.Protein.ActiveResidues>
 VAL166  LYS551  ARG553  GLY616  TRP617  ASP618  TYR619  PRO620  LYS621  CYS622 
 ASP623  PHE694  ASN695  SER759  ASP760  ASP761  ALA762  ILE779  LEU786  VAL792 
 PHE793  MET794  SER795  GLU796  ALA797  LYS798  CYS799  TRP800  GLU811  SER814 

> <Gold.Protein.RotatedAtoms>
  151.3959  133.3773  159.2726 H   0  0  0  0  0  0  0  0  0  0  0  0  # atno 6907 bound_to 6896
  150.9470  134.8875  159.7658 H   0  0  0  0  0  0  0  0  0  0  0  0  # atno 6908 bound_to 6896
  152.5095  134.3913  159.9437 H   0  0  0  0  0  0  0  0  0  0  0  0  # atno 6909 bound_to 6896
  144.7216  140.2470  143.6284 H   0  0  0  0  0  0  0  0  0  0  0  0  # atno 7974 bound_to 7965
  155.8779  140.1004  157.1505 H   0  0  0  0  0  0  0  0  0  0  0  0  # atno 8008 bound_to 7997
  154.4002  140.1334  156.4223 H   0  0  0  0  0  0  0  0  0  0  0  0  # atno 8009 bound_to 7997
  155.7676  140.3461  155.5232 H   0  0  0  0  0  0  0  0  0  0  0  0  # atno 8010 bound_to 7997
  139.9622  143.5937  152.2441 H   0  0  0  0  0  0  0  0  0  0  0  0  # atno 10167 bound_to 10162
  156.0168  130.5335  150.6839 H   0  0  0  0  0  0  0  0  0  0  0  0  # atno 10718 bound_to 10713
  154.6853  135.2961  154.9556 H   0  0  0  0  0  0  0  0  0  0  0  0  # atno 10763 bound_to 10752
  154.0538  135.6641  153.4807 H   0  0  0  0  0  0  0  0  0  0  0  0  # atno 10764 bound_to 10752
  153.0574  135.5136  154.7917 H   0  0  0  0  0  0  0  0  0  0  0  0  # atno 10765 bound_to 10752
  139.9015  134.9586  156.7070 H   0  0  0  0  0  0  0  0  0  0  0  0  # atno 11005 bound_to 11000
  145.8264  139.2066  143.1908 LP  0  0  0  0  0  0  0  0  0  0  0  0  # atno 17320 bound_to 7965
  146.0469  140.8109  142.9801 LP  0  0  0  0  0  0  0  0  0  0  0  0  # atno 17321 bound_to 7965
  139.6545  144.7662  151.2082 LP  0  0  0  0  0  0  0  0  0  0  0  0  # atno 17342 bound_to 10162
  140.7549  143.6107  150.8608 LP  0  0  0  0  0  0  0  0  0  0  0  0  # atno 17343 bound_to 10162
  157.4536  131.0875  151.0820 LP  0  0  0  0  0  0  0  0  0  0  0  0  # atno 17370 bound_to 10713
  157.1329  130.6110  149.5534 LP  0  0  0  0  0  0  0  0  0  0  0  0  # atno 17371 bound_to 10713
  140.7105  133.9227  155.8081 LP  0  0  0  0  0  0  0  0  0  0  0  0  # atno 17394 bound_to 11000
  141.0303  134.0765  157.4021 LP  0  0  0  0  0  0  0  0  0  0  0  0  # atno 17395 bound_to 11000

$$$$
