AV-unprocessed.smi:800|AV-procd|sdf|3788|dock8
  -GOLD-   22720 1223D 1   1.00000     0.00000
 Structure written by MMmdl.
 35 36  0  0  0  0  0  0  0  0  2 V2000
  151.1738  137.4548  155.1997 C   0  0  0  0  0  0  0  0  0  0  0  0
  152.4168  137.8583  156.0081 C   0  0  0  0  0  0  0  0  0  0  0  0
  152.5423  137.0316  157.2953 C   0  0  0  0  0  0  0  0  0  0  0  0
  152.3303  139.2750  156.3600 N   0  5  0  0  0  0  0  0  0  0  0  0
  151.3550  140.1190  155.9179 C   0  0  0  0  0  0  0  0  0  0  0  0
  150.7683  140.1542  154.8305 O   0  0  0  0  0  0  0  0  0  0  0  0
  151.0298  141.1834  156.9269 C   0  0  0  0  0  0  0  0  0  0  0  0
  151.8415  141.2547  158.0075 N   0  0  0  0  0  0  0  0  0  0  0  0
  151.5903  142.1837  158.9369 C   0  0  0  0  0  0  0  0  0  0  0  0
  152.4362  142.2278  160.0530 N   0  0  0  0  0  0  0  0  0  0  0  0
  152.5376  143.4095  160.9124 C   0  0  0  0  0  0  0  0  0  0  0  0
  152.8055  143.0010  162.3710 C   0  0  0  0  0  0  0  0  0  0  0  0
  153.9649  142.1797  162.4377 O   0  0  0  0  0  0  0  0  0  0  0  0
  153.7972  140.9783  161.6947 C   0  0  0  0  0  0  0  0  0  0  0  0
  153.5682  141.3109  160.2107 C   0  0  0  0  0  0  0  0  0  0  0  0
  150.5906  143.0725  158.8799 N   0  0  0  0  0  0  0  0  0  0  0  0
  149.7783  143.0334  157.8032 C   0  0  0  0  0  0  0  0  0  0  0  0
  149.9544  142.0964  156.7680 C   0  0  0  0  0  0  0  0  0  0  0  0
  148.9100  142.1301  155.3874 Cl  0  0  0  0  0  0  0  0  0  0  0  0
  151.2097  136.3992  154.9300 H   0  0  0  0  0  0  0  0  0  0  0  0
  151.1014  138.0265  154.2736 H   0  0  0  0  0  0  0  0  0  0  0  0
  150.2571  137.6218  155.7667 H   0  0  0  0  0  0  0  0  0  0  0  0
  153.2967  137.6464  155.3989 H   0  0  0  0  0  0  0  0  0  0  0  0
  152.6144  135.9674  157.0696 H   0  0  0  0  0  0  0  0  0  0  0  0
  151.6804  137.1741  157.9481 H   0  0  0  0  0  0  0  0  0  0  0  0
  153.4356  137.3087  157.8563 H   0  0  0  0  0  0  0  0  0  0  0  0
  153.3487  144.0387  160.5443 H   0  0  0  0  0  0  0  0  0  0  0  0
  151.6322  144.0153  160.8889 H   0  0  0  0  0  0  0  0  0  0  0  0
  152.9636  143.8873  162.9852 H   0  0  0  0  0  0  0  0  0  0  0  0
  151.9477  142.4727  162.7905 H   0  0  0  0  0  0  0  0  0  0  0  0
  154.6915  140.3654  161.8072 H   0  0  0  0  0  0  0  0  0  0  0  0
  152.9632  140.4003  162.0966 H   0  0  0  0  0  0  0  0  0  0  0  0
  153.4245  140.3765  159.6689 H   0  0  0  0  0  0  0  0  0  0  0  0
  154.4575  141.7831  159.7924 H   0  0  0  0  0  0  0  0  0  0  0  0
  148.9867  143.7669  157.7636 H   0  0  0  0  0  0  0  0  0  0  0  0
  1  2  1  0  0  0  0
  1 20  1  0  0  0  0
  1 21  1  0  0  0  0
  1 22  1  0  0  0  0
  2  3  1  0  0  0  0
  2  4  1  0  0  0  0
  2 23  1  0  0  0  0
  3 24  1  0  0  0  0
  3 25  1  0  0  0  0
  3 26  1  0  0  0  0
  4  5  1  0  0  0  0
  5  6  2  0  0  0  0
  5  7  1  0  0  0  0
  7 18  1  0  0  0  0
  7  8  2  0  0  0  0
  8  9  1  0  0  0  0
  9 10  1  0  0  0  0
  9 16  2  0  0  0  0
 10 15  1  0  0  0  0
 10 11  1  0  0  0  0
 11 12  1  0  0  0  0
 11 27  1  0  0  0  0
 11 28  1  0  0  0  0
 12 13  1  0  0  0  0
 12 29  1  0  0  0  0
 12 30  1  0  0  0  0
 13 14  1  0  0  0  0
 14 15  1  0  0  0  0
 14 31  1  0  0  0  0
 14 32  1  0  0  0  0
 15 33  1  0  0  0  0
 15 34  1  0  0  0  0
 16 17  1  0  0  0  0
 17 18  2  0  0  0  0
 17 35  1  0  0  0  0
 18 19  1  0  0  0  0
M  CHG  1   4  -1
M  END
> <s_m_source_file>
AV-unprocessed.smi

> <i_m_source_file_index>
800

> <i_lp_mmshare_version>
43012

> <i_f3d_flags>
0

> <s_epik_input>
W0NIM11bQ0hdKFtDSDNdKVtOSF1DKD1PKWMxbmMobltjSF1jMUNsKU4yW0NIMl1bQ0gyXU9bQ0gyXVtDSDJdMg==

> <s_epik_cmdline>
J2VwaWtfcHl0aG9uJywgJy1waCcsICc3LjAnLCAnLXRuJywgJzgnLCAnLW1hJywgJzIwMCcsICctbWV0YWxfYmluZGluZycsICctaW1hZScsICc8aW5maWxlLm1hZT4nLCAnLW9tYWUnLCAnPG91dGZpbGUubWFlPic=

> <r_lp_tautomer_probability>
1

> <r_epik_Ionization_Penalty>
6.38192

> <r_epik_Ionization_Penalty_Charging>
6.38189

> <r_epik_Ionization_Penalty_Neutral>
2.33077e-05

> <r_epik_State_Penalty>
6.38188

> <r_epik_Charging_Adjusted_Penalty>
12.7638

> <i_epik_Tot_Q>
-1

> <i_epik_Tot_abs_Q>
1

> <r_epik_Metal_State_Penalty>
2.31349

> <b_epik_Metal_Only>
1

> <s_lp_Force_Field>
OPLS_2005

> <r_lp_Energy>
18.4653

> <b_lp_Chiralities_Consistent>
1

> <s_lp_Variant>
AV-unprocessed.smi:800-2

> <Gold.Version>
5.8.1

> <Gold.Id.Protein>
6NUR|6NUR_protein|mol2

> <Gold.PLP.Fitness>
46.7882

> <Gold.PLP.PLP>
-37.5756

> <Gold.PLP.part.hbond>
-3.2938

> <Gold.PLP.part.metal>
0.0000

> <Gold.PLP.part.buried>
-0.2310

> <Gold.PLP.part.nonpolar>
-33.7205

> <Gold.PLP.part.repulsive>
0.1612

> <Gold.PLP.ligand.clash>
0.0000

> <Gold.PLP.ligand.torsion>
0.3933

> <Gold.PLP.Chemscore.Hbond>
3.0000

> <Gold.PLP.Chemscore.CHOScore>
0.3004

> <Gold.PLP.Chemscore.Metal>
0.0000

> <Gold.Chemscore.Hbonds>
donor molecule, donor type, donor heavy atom, donor atom, acceptor molecule, acceptor atom, score
      P1  H  7989  7998       L1     6  1.00
      P1  H  7997  8010       L1     4  1.07
      L1  C    17    35       P1  8028  0.42
      L1  C    17    35       P1  8029  0.24

> <Gold.PLP.Chemscore.Internal.Correction>
0.0981

> <Gold.Rescore>
     Score         DG    S(hbond)    S(metal)    S(lipo)     H(rot)  DE(clash)    DE(int)     intcor
     14.23     -19.14       1.81        0.00      86.85       1.00       1.57       3.34       ----

> <Gold.Chemscore.Fitness>
14.2302

> <Gold.Chemscore.DG>
-19.1405

> <Gold.Chemscore.ZeroCoef>
-5.4800

> <Gold.Chemscore.Hbond>
1.8141

> <Gold.Chemscore.Metal>
0.0000

> <Gold.Chemscore.Lipo>
86.8499

> <Gold.Chemscore.Internal_Hbond>
0.0000

> <Gold.Chemscore.DEClash>
1.5738

> <Gold.Chemscore.DEInternal>
3.3365

> <Gold.Chemscore.Rot>
1.0000

> <Gold.Chemscore.Internal.Correction>
   9.000000E+99

> <Gold.Chemscore.Hbonds>
donor molecule, donor type, donor heavy atom, donor atom, acceptor molecule, acceptor atom, score
      P1  H  7989  7998       L1     6  0.94
      P1  H  7997  8010       L1     4  0.36

> <Gold.Chemscore.Hbond.Weighted>
-6.0591

> <Gold.Chemscore.Metal.Weighted>
-0.0000

> <Gold.Chemscore.Lipo.Weighted>
-10.1614

> <Gold.Chemscore.Internal_Hbond.Weighted>
0.0000

> <Gold.Chemscore.DEClash.Weighted>
1.5738

> <Gold.Chemscore.DEInternal.Weighted>
3.3365

> <Gold.Chemscore.Rot.Weighted>
2.5600

> <Gold.Chemscore.Internal.Correction.Weighted>
   9.000000E+99

> <Gold.Protein.RotatedTorsions>
[ 6907 6896 6895 6894 ] final  131.40 input  -60.11 | X-H torsion
[ 7974 7965 7964 7962 ] final -121.15 input  175.53 | X-H torsion
[ 8008 7997 7996 7995 ] final   59.67 input   59.86 | X-H torsion
[ 10167 10162 10161 10158 ] final   -1.30 input  -65.29 | X-H torsion
[ 10718 10713 10712 10709 ] final  -81.21 input   66.30 | X-H torsion
[ 10763 10752 10751 10750 ] final   77.36 input  -60.55 | X-H torsion
[ 11005 11000 10999 10996 ] final  118.29 input  -57.11 | X-H torsion

> <Gold.Protein.ActiveResidues>
 VAL166  LYS551  ARG553  GLY616  TRP617  ASP618  TYR619  PRO620  LYS621  CYS622 
 ASP623  PHE694  ASN695  SER759  ASP760  ASP761  ALA762  ILE779  LEU786  VAL792 
 PHE793  MET794  SER795  GLU796  ALA797  LYS798  CYS799  TRP800  GLU811  SER814 

> <Gold.Protein.RotatedAtoms>
  152.3430  133.6089  159.5889 H   0  0  0  0  0  0  0  0  0  0  0  0  # atno 6907 bound_to 6896
  150.7490  133.9693  159.3549 H   0  0  0  0  0  0  0  0  0  0  0  0  # atno 6908 bound_to 6896
  151.7555  135.0823  160.0388 H   0  0  0  0  0  0  0  0  0  0  0  0  # atno 6909 bound_to 6896
  145.0435  140.8163  143.4252 H   0  0  0  0  0  0  0  0  0  0  0  0  # atno 7974 bound_to 7965
  155.5699  140.3490  155.4512 H   0  0  0  0  0  0  0  0  0  0  0  0  # atno 8008 bound_to 7997
  156.0452  140.1305  157.0137 H   0  0  0  0  0  0  0  0  0  0  0  0  # atno 8009 bound_to 7997
  154.4409  140.1016  156.6280 H   0  0  0  0  0  0  0  0  0  0  0  0  # atno 8010 bound_to 7997
  140.6804  143.6792  150.8120 H   0  0  0  0  0  0  0  0  0  0  0  0  # atno 10167 bound_to 10162
  156.0055  130.4597  150.3918 H   0  0  0  0  0  0  0  0  0  0  0  0  # atno 10718 bound_to 10713
  153.0793  135.4917  154.8470 H   0  0  0  0  0  0  0  0  0  0  0  0  # atno 10763 bound_to 10752
  154.7130  135.3023  154.9170 H   0  0  0  0  0  0  0  0  0  0  0  0  # atno 10764 bound_to 10752
  153.9858  135.6784  153.4805 H   0  0  0  0  0  0  0  0  0  0  0  0  # atno 10765 bound_to 10752
  139.9104  134.9619  156.7481 H   0  0  0  0  0  0  0  0  0  0  0  0  # atno 11005 bound_to 11000
  145.1618  139.2454  143.5388 LP  0  0  0  0  0  0  0  0  0  0  0  0  # atno 17320 bound_to 7965
  146.3511  140.1346  142.8596 LP  0  0  0  0  0  0  0  0  0  0  0  0  # atno 17321 bound_to 7965
  140.0491  143.5267  152.2682 LP  0  0  0  0  0  0  0  0  0  0  0  0  # atno 17342 bound_to 10162
  139.6123  144.7611  151.2924 LP  0  0  0  0  0  0  0  0  0  0  0  0  # atno 17343 bound_to 10162
  157.1992  131.0434  151.2659 LP  0  0  0  0  0  0  0  0  0  0  0  0  # atno 17370 bound_to 10713
  157.3991  130.7323  149.6754 LP  0  0  0  0  0  0  0  0  0  0  0  0  # atno 17371 bound_to 10713
  140.6796  133.9487  155.7902 LP  0  0  0  0  0  0  0  0  0  0  0  0  # atno 17394 bound_to 11000
  141.0520  134.0471  157.3771 LP  0  0  0  0  0  0  0  0  0  0  0  0  # atno 17395 bound_to 11000

$$$$
