AV-unprocessed.smi:2302|AV-procd|sdf|9240|dock2
  -GOLD-   2272012453D 1   1.00000     0.00000
 Structure written by MMmdl.
 39 40  0  0  0  0  0  0  0  0  1 V2000
  153.7702  140.9267  160.1109 C   0  0  0  0  0  0  0  0  0  0  0  0
  152.9094  142.1021  159.6972 C   0  0  0  0  0  0  0  0  0  0  0  0
  152.9442  143.3153  160.4124 C   0  0  0  0  0  0  0  0  0  0  0  0
  152.1248  144.3690  159.9699 C   0  0  0  0  0  0  0  0  0  0  0  0
  151.3097  144.1676  158.8393 C   0  0  0  0  0  0  0  0  0  0  0  0
  151.3323  142.9183  158.1792 C   0  0  0  0  0  0  0  0  0  0  0  0
  150.4767  142.8180  157.0500 N   0  0  0  0  0  0  0  0  0  0  0  0
  150.0545  141.7058  156.4233 C   0  0  0  0  0  0  0  0  0  0  0  0
  150.3290  140.5523  156.7565 O   0  0  0  0  0  0  0  0  0  0  0  0
  149.2836  142.0084  155.3687 N   0  0  0  0  0  0  0  0  0  0  0  0
  148.6966  141.0387  154.4498 C   0  0  0  0  0  0  0  0  0  0  0  0
  147.1661  141.1770  154.3845 C   0  0  2  0  0  0  0  0  0  0  0  0
  146.7303  142.6373  154.1499 C   0  0  0  0  0  0  0  0  0  0  0  0
  145.2795  142.7770  154.1521 N   0  0  0  0  0  0  0  0  0  0  0  0
  144.8714  144.1554  153.9270 C   0  0  0  0  0  0  0  0  0  0  0  0
  144.7401  142.2554  155.4008 C   0  0  0  0  0  0  0  0  0  0  0  0
  145.1831  140.8037  155.6479 C   0  0  0  0  0  0  0  0  0  0  0  0
  146.6048  140.7315  155.6183 O   0  0  0  0  0  0  0  0  0  0  0  0
  152.1265  141.9082  158.6143 N   0  0  0  0  0  0  0  0  0  0  0  0
  154.3529  141.1564  161.0034 H   0  0  0  0  0  0  0  0  0  0  0  0
  154.4629  140.6657  159.3104 H   0  0  0  0  0  0  0  0  0  0  0  0
  153.1483  140.0571  160.3245 H   0  0  0  0  0  0  0  0  0  0  0  0
  153.5821  143.4382  161.2753 H   0  0  0  0  0  0  0  0  0  0  0  0
  152.1216  145.3167  160.4878 H   0  0  0  0  0  0  0  0  0  0  0  0
  150.6755  144.9675  158.4857 H   0  0  0  0  0  0  0  0  0  0  0  0
  150.1610  143.6959  156.6656 H   0  0  0  0  0  0  0  0  0  0  0  0
  149.1083  142.9826  155.1717 H   0  0  0  0  0  0  0  0  0  0  0  0
  149.1348  141.1254  153.4541 H   0  0  0  0  0  0  0  0  0  0  0  0
  148.9586  140.0451  154.8147 H   0  0  0  0  0  0  0  0  0  0  0  0
  146.7860  140.5534  153.5729 H   0  0  0  0  0  0  0  0  0  0  0  0
  147.1636  143.2741  154.9230 H   0  0  0  0  0  0  0  0  0  0  0  0
  147.1308  142.9872  153.1976 H   0  0  0  0  0  0  0  0  0  0  0  0
  143.7844  144.2351  153.8942 H   0  0  0  0  0  0  0  0  0  0  0  0
  145.2598  144.5232  152.9768 H   0  0  0  0  0  0  0  0  0  0  0  0
  145.2364  144.8096  154.7202 H   0  0  0  0  0  0  0  0  0  0  0  0
  145.0695  142.8778  156.2344 H   0  0  0  0  0  0  0  0  0  0  0  0
  143.6508  142.3060  155.3842 H   0  0  0  0  0  0  0  0  0  0  0  0
  144.8288  140.4583  156.6190 H   0  0  0  0  0  0  0  0  0  0  0  0
  144.7619  140.1352  154.8954 H   0  0  0  0  0  0  0  0  0  0  0  0
  1  2  1  0  0  0  0
  1 20  1  0  0  0  0
  1 21  1  0  0  0  0
  1 22  1  0  0  0  0
  2 19  1  0  0  0  0
  2  3  2  0  0  0  0
  3  4  1  0  0  0  0
  3 23  1  0  0  0  0
  4  5  2  0  0  0  0
  4 24  1  0  0  0  0
  5  6  1  0  0  0  0
  5 25  1  0  0  0  0
  6  7  1  0  0  0  0
  6 19  2  0  0  0  0
  7  8  1  0  0  0  0
  7 26  1  0  0  0  0
  8  9  2  0  0  0  0
  8 10  1  0  0  0  0
 10 11  1  0  0  0  0
 10 27  1  0  0  0  0
 11 12  1  0  0  0  0
 11 28  1  0  0  0  0
 11 29  1  0  0  0  0
 12 18  1  0  0  0  0
 12 13  1  0  0  0  0
 12 30  1  0  0  0  0
 13 14  1  0  0  0  0
 13 31  1  0  0  0  0
 13 32  1  0  0  0  0
 14 15  1  0  0  0  0
 14 16  1  0  0  0  0
 15 33  1  0  0  0  0
 15 34  1  0  0  0  0
 15 35  1  0  0  0  0
 16 17  1  0  0  0  0
 16 36  1  0  0  0  0
 16 37  1  0  0  0  0
 17 18  1  0  0  0  0
 17 38  1  0  0  0  0
 17 39  1  0  0  0  0
M  END
> <s_m_source_file>
AV-unprocessed.smi

> <i_m_source_file_index>
2302

> <i_lp_mmshare_version>
43012

> <i_f3d_flags>
0

> <s_epik_input>
W0NIM11jMVtjSF1bY0hdW2NIXWMobjEpW05IXUMoPU8pW05IXVtDSDJdW0NAQEhdMltDSDJdTihbQ0gzXSlbQ0gyXVtDSDJdTzI=

> <s_epik_cmdline>
J2VwaWtfcHl0aG9uJywgJy1waCcsICc3LjAnLCAnLXRuJywgJzgnLCAnLW1hJywgJzIwMCcsICctbWV0YWxfYmluZGluZycsICctaW1hZScsICc8aW5maWxlLm1hZT4nLCAnLW9tYWUnLCAnPG91dGZpbGUubWFlPic=

> <r_epik_Ionization_Penalty>
0.729465

> <r_epik_Ionization_Penalty_Charging>
0

> <r_epik_Ionization_Penalty_Neutral>
0.729465

> <r_epik_State_Penalty>
0.754525

> <r_epik_Charging_Adjusted_Penalty>
0.754525

> <i_epik_Tot_Q>
0

> <i_epik_Tot_abs_Q>
0

> <r_epik_Metal_State_Penalty>
0.754521

> <b_epik_Metal_Only>
0

> <s_lp_Force_Field>
OPLS_2005

> <r_lp_Energy>
19.6921

> <b_lp_Chiralities_Consistent>
1

> <s_lp_Variant>
AV-unprocessed.smi:2302-5

> <Gold.Version>
5.8.1

> <Gold.Id.Protein>
6NUR|6NUR_protein|mol2

> <Gold.PLP.Fitness>
44.8658

> <Gold.PLP.PLP>
-39.1293

> <Gold.PLP.part.hbond>
-2.0000

> <Gold.PLP.part.metal>
0.0000

> <Gold.PLP.part.buried>
-7.5660

> <Gold.PLP.part.nonpolar>
-31.8995

> <Gold.PLP.part.repulsive>
0.4978

> <Gold.PLP.ligand.clash>
0.0000

> <Gold.PLP.ligand.torsion>
0.1199

> <Gold.PLP.Chemscore.Hbond>
1.9920

> <Gold.PLP.Chemscore.CHOScore>
0.0000

> <Gold.PLP.Chemscore.Metal>
0.0000

> <Gold.Chemscore.Hbonds>
donor molecule, donor type, donor heavy atom, donor atom, acceptor molecule, acceptor atom, score
      L1  H     7    26       P1  8028  1.00
      L1  H    10    27       P1  8028  1.00

> <Gold.PLP.Chemscore.Internal.Correction>
0.0002

> <Gold.Rescore>
     Score         DG    S(hbond)    S(metal)    S(lipo)     H(rot)  DE(clash)    DE(int)     intcor
     18.12     -19.52       1.93        0.00      92.13       1.25       0.04       1.36       ----

> <Gold.Chemscore.Fitness>
18.1201

> <Gold.Chemscore.DG>
-19.5185

> <Gold.Chemscore.ZeroCoef>
-5.4800

> <Gold.Chemscore.Hbond>
1.9343

> <Gold.Chemscore.Metal>
0.0000

> <Gold.Chemscore.Lipo>
92.1327

> <Gold.Chemscore.Internal_Hbond>
0.0000

> <Gold.Chemscore.DEClash>
0.0375

> <Gold.Chemscore.DEInternal>
1.3609

> <Gold.Chemscore.Rot>
1.2506

> <Gold.Chemscore.Internal.Correction>
   9.000000E+99

> <Gold.Chemscore.Hbonds>
donor molecule, donor type, donor heavy atom, donor atom, acceptor molecule, acceptor atom, score
      L1  H     7    26       P1  8028  0.96
      L1  H    10    27       P1  8028  0.98

> <Gold.Chemscore.Hbond.Weighted>
-6.4605

> <Gold.Chemscore.Metal.Weighted>
-0.0000

> <Gold.Chemscore.Lipo.Weighted>
-10.7795

> <Gold.Chemscore.Internal_Hbond.Weighted>
0.0000

> <Gold.Chemscore.DEClash.Weighted>
0.0375

> <Gold.Chemscore.DEInternal.Weighted>
1.3609

> <Gold.Chemscore.Rot.Weighted>
3.2015

> <Gold.Chemscore.Internal.Correction.Weighted>
   9.000000E+99

> <Gold.Protein.RotatedTorsions>
[ 6907 6896 6895 6894 ] final   50.43 input  -60.11 | X-H torsion
[ 7974 7965 7964 7962 ] final -139.19 input  175.53 | X-H torsion
[ 8008 7997 7996 7995 ] final  -37.33 input   59.86 | X-H torsion
[ 10167 10162 10161 10158 ] final  129.45 input  -65.29 | X-H torsion
[ 10718 10713 10712 10709 ] final  -68.14 input   66.30 | X-H torsion
[ 10763 10752 10751 10750 ] final   25.06 input  -60.55 | X-H torsion
[ 11005 11000 10999 10996 ] final    2.59 input  -57.11 | X-H torsion

> <Gold.Protein.ActiveResidues>
 VAL166  LYS551  ARG553  GLY616  TRP617  ASP618  TYR619  PRO620  LYS621  CYS622 
 ASP623  PHE694  ASN695  SER759  ASP760  ASP761  ALA762  ILE779  LEU786  VAL792 
 PHE793  MET794  SER795  GLU796  ALA797  LYS798  CYS799  TRP800  GLU811  SER814 

> <Gold.Protein.RotatedAtoms>
  152.3017  134.7603  160.0356 H   0  0  0  0  0  0  0  0  0  0  0  0  # atno 6907 bound_to 6896
  151.8114  133.3377  159.3564 H   0  0  0  0  0  0  0  0  0  0  0  0  # atno 6908 bound_to 6896
  150.7277  134.5590  159.5877 H   0  0  0  0  0  0  0  0  0  0  0  0  # atno 6909 bound_to 6896
  144.8697  140.6348  143.5275 H   0  0  0  0  0  0  0  0  0  0  0  0  # atno 7974 bound_to 7965
  154.4055  140.1607  156.2519 H   0  0  0  0  0  0  0  0  0  0  0  0  # atno 8008 bound_to 7997
  155.9111  140.3427  155.6077 H   0  0  0  0  0  0  0  0  0  0  0  0  # atno 8009 bound_to 7997
  155.7334  140.0783  157.2269 H   0  0  0  0  0  0  0  0  0  0  0  0  # atno 8010 bound_to 7997
  139.5477  144.6787  151.4421 H   0  0  0  0  0  0  0  0  0  0  0  0  # atno 10167 bound_to 10162
  156.0520  130.4290  150.1957 H   0  0  0  0  0  0  0  0  0  0  0  0  # atno 10718 bound_to 10713
  153.0718  135.6591  154.0230 H   0  0  0  0  0  0  0  0  0  0  0  0  # atno 10763 bound_to 10752
  153.9873  135.2949  155.3416 H   0  0  0  0  0  0  0  0  0  0  0  0  # atno 10764 bound_to 10752
  154.7095  135.5211  153.8715 H   0  0  0  0  0  0  0  0  0  0  0  0  # atno 10765 bound_to 10752
  140.6026  133.9822  155.8139 H   0  0  0  0  0  0  0  0  0  0  0  0  # atno 11005 bound_to 11000
  145.4154  139.1573  143.4103 LP  0  0  0  0  0  0  0  0  0  0  0  0  # atno 17320 bound_to 7965
  146.2921  140.4260  142.8735 LP  0  0  0  0  0  0  0  0  0  0  0  0  # atno 17321 bound_to 7965
  140.6730  143.8251  150.7023 LP  0  0  0  0  0  0  0  0  0  0  0  0  # atno 17342 bound_to 10162
  140.1681  143.4217  152.2020 LP  0  0  0  0  0  0  0  0  0  0  0  0  # atno 17343 bound_to 10162
  157.0039  130.9931  151.3383 LP  0  0  0  0  0  0  0  0  0  0  0  0  # atno 17370 bound_to 10713
  157.5456  130.8148  149.8082 LP  0  0  0  0  0  0  0  0  0  0  0  0  # atno 17371 bound_to 10713
  141.0862  133.9987  157.3310 LP  0  0  0  0  0  0  0  0  0  0  0  0  # atno 17394 bound_to 11000
  139.9226  135.0201  156.8119 LP  0  0  0  0  0  0  0  0  0  0  0  0  # atno 17395 bound_to 11000

$$$$
