AV-unprocessed.smi:2171|AV-procd|sdf|8829|dock4
  -GOLD-   2272012 23D 1   1.00000     0.00000
 Structure written by MMmdl.
 39 41  0  0  0  0  0  0  0  0  2 V2000
  148.1941  141.1791  153.3768 O   0  0  0  0  0  0  0  0  0  0  0  0
  148.3332  140.1658  154.0608 C   0  0  0  0  0  0  0  0  0  0  0  0
  149.3637  140.1405  155.1922 C   0  0  0  0  0  0  0  0  0  0  0  0
  150.5493  139.3889  154.8127 N   0  0  0  0  0  0  0  0  0  0  0  0
  150.6219  138.1457  154.2186 C   0  0  0  0  0  0  0  0  0  0  0  0
  151.9450  137.8428  154.0694 C   0  0  0  0  0  0  0  0  0  0  0  0
  152.6149  138.9789  154.6039 C   0  0  0  0  0  0  0  0  0  0  0  0
  151.7775  139.9023  155.0475 N   0  0  0  0  0  0  0  0  0  0  0  0
  147.6006  139.0532  153.8906 N   0  0  0  0  0  0  0  0  0  0  0  0
  146.4854  138.9099  152.9583 C   0  0  1  0  0  0  0  0  0  0  0  0
  146.8770  139.2212  151.5010 C   0  0  0  0  0  0  0  0  0  0  0  0
  146.1724  138.1435  150.6705 C   0  0  0  0  0  0  0  0  0  0  0  0
  146.1836  136.9805  151.5652 N   0  3  2  0  0  0  0  0  0  0  0  0
  145.3702  135.8023  151.2032 C   0  0  0  0  0  0  0  0  0  0  0  0
  145.6980  134.6615  152.1906 C   0  0  0  0  0  0  0  0  0  0  0  0
  145.5594  135.1050  153.6647 C   0  0  0  0  0  0  0  0  0  0  0  0
  146.3274  136.4145  153.9449 C   0  0  0  0  0  0  0  0  0  0  0  0
  145.8938  137.4798  152.9204 C   0  0  1  0  0  0  0  0  0  0  0  0
  149.6531  141.1604  155.4477 H   0  0  0  0  0  0  0  0  0  0  0  0
  148.9315  139.6922  156.0885 H   0  0  0  0  0  0  0  0  0  0  0  0
  149.7363  137.5853  153.9571 H   0  0  0  0  0  0  0  0  0  0  0  0
  152.3699  136.9471  153.6410 H   0  0  0  0  0  0  0  0  0  0  0  0
  153.6771  139.1589  154.6827 H   0  0  0  0  0  0  0  0  0  0  0  0
  147.7947  138.2673  154.4942 H   0  0  0  0  0  0  0  0  0  0  0  0
  145.6913  139.6021  153.2456 H   0  0  0  0  0  0  0  0  0  0  0  0
  146.5967  140.2302  151.1968 H   0  0  0  0  0  0  0  0  0  0  0  0
  147.9562  139.1264  151.3695 H   0  0  0  0  0  0  0  0  0  0  0  0
  145.1428  138.4347  150.4563 H   0  0  0  0  0  0  0  0  0  0  0  0
  146.6798  137.9386  149.7273 H   0  0  0  0  0  0  0  0  0  0  0  0
  144.3088  136.0530  151.2350 H   0  0  0  0  0  0  0  0  0  0  0  0
  145.6008  135.4944  150.1828 H   0  0  0  0  0  0  0  0  0  0  0  0
  145.0550  133.8025  151.9966 H   0  0  0  0  0  0  0  0  0  0  0  0
  146.7205  134.3228  152.0175 H   0  0  0  0  0  0  0  0  0  0  0  0
  144.5036  135.2516  153.8962 H   0  0  0  0  0  0  0  0  0  0  0  0
  145.9114  134.3151  154.3290 H   0  0  0  0  0  0  0  0  0  0  0  0
  146.1199  136.7508  154.9611 H   0  0  0  0  0  0  0  0  0  0  0  0
  147.4024  136.2384  153.8816 H   0  0  0  0  0  0  0  0  0  0  0  0
  144.8108  137.5970  153.0007 H   0  0  0  0  0  0  0  0  0  0  0  0
  147.1438  136.6679  151.5846 H   0  0  0  0  0  0  0  0  0  0  0  0
  1  2  2  0  0  0  0
  2  3  1  0  0  0  0
  2  9  1  0  0  0  0
  3  4  1  0  0  0  0
  3 19  1  0  0  0  0
  3 20  1  0  0  0  0
  4  8  1  0  0  0  0
  4  5  1  0  0  0  0
  5  6  2  0  0  0  0
  5 21  1  0  0  0  0
  6  7  1  0  0  0  0
  6 22  1  0  0  0  0
  7  8  2  0  0  0  0
  7 23  1  0  0  0  0
  9 10  1  0  0  0  0
  9 24  1  0  0  0  0
 10 18  1  0  0  0  0
 10 11  1  0  0  0  0
 10 25  1  0  0  0  0
 11 12  1  0  0  0  0
 11 26  1  0  0  0  0
 11 27  1  0  0  0  0
 12 13  1  0  0  0  0
 12 28  1  0  0  0  0
 12 29  1  0  0  0  0
 13 18  1  0  0  0  0
 13 14  1  0  0  0  0
 13 39  1  0  0  0  0
 14 15  1  0  0  0  0
 14 30  1  0  0  0  0
 14 31  1  0  0  0  0
 15 16  1  0  0  0  0
 15 32  1  0  0  0  0
 15 33  1  0  0  0  0
 16 17  1  0  0  0  0
 16 34  1  0  0  0  0
 16 35  1  0  0  0  0
 17 18  1  0  0  0  0
 17 36  1  0  0  0  0
 17 37  1  0  0  0  0
 18 38  1  0  0  0  0
M  CHG  1  13   1
M  END
> <s_m_source_file>
AV-unprocessed.smi

> <i_m_source_file_index>
2171

> <i_lp_mmshare_version>
43012

> <i_f3d_flags>
0

> <s_epik_input>
bjFbY0hdW2NIXVtjSF1uMVtDSDJdQyg9TylbTkhdW0NASF0oW0NIMl1bQ0gyXTIpW0NAQEhdKE4yMylbQ0gyXVtDSDJdW0NIMl1bQ0gyXTM=

> <s_epik_cmdline>
J2VwaWtfcHl0aG9uJywgJy1waCcsICc3LjAnLCAnLXRuJywgJzgnLCAnLW1hJywgJzIwMCcsICctbWV0YWxfYmluZGluZycsICctaW1hZScsICc8aW5maWxlLm1hZT4nLCAnLW9tYWUnLCAnPG91dGZpbGUubWFlPic=

> <r_lp_tautomer_probability>
1

> <r_epik_Ionization_Penalty>
0.00204179

> <r_epik_Ionization_Penalty_Charging>
0.00203239

> <r_epik_Ionization_Penalty_Neutral>
9.40205e-06

> <r_epik_State_Penalty>
0.00138983

> <r_epik_Charging_Adjusted_Penalty>
0.00342221

> <i_epik_Tot_Q>
1

> <i_epik_Tot_abs_Q>
1

> <r_epik_Metal_State_Penalty>
-0

> <b_epik_Metal_Only>
0

> <s_lp_Force_Field>
OPLS_2005

> <r_lp_Energy>
40.8782

> <b_lp_Chiralities_Consistent>
1

> <s_lp_Variant>
AV-unprocessed.smi:2171-4

> <Gold.Version>
5.8.1

> <Gold.Id.Protein>
6NUR|6NUR_protein|mol2

> <Gold.PLP.Fitness>
38.5338

> <Gold.PLP.PLP>
-28.5949

> <Gold.PLP.part.hbond>
-2.7258

> <Gold.PLP.part.metal>
0.0000

> <Gold.PLP.part.buried>
5.6210

> <Gold.PLP.part.nonpolar>
-32.7546

> <Gold.PLP.part.repulsive>
1.7669

> <Gold.PLP.ligand.clash>
0.0000

> <Gold.PLP.ligand.torsion>
0.3825

> <Gold.PLP.Chemscore.Hbond>
2.7190

> <Gold.PLP.Chemscore.CHOScore>
0.8475

> <Gold.PLP.Chemscore.Metal>
0.0000

> <Gold.Chemscore.Hbonds>
donor molecule, donor type, donor heavy atom, donor atom, acceptor molecule, acceptor atom, score
      L1  H    13    39       P1  7948  2.00
      P1  H  7989  7998       L1     8  0.42
      P1  H  8011  8017       L1     1  0.33
      L1  C     5    21       P1  7948  0.87

> <Gold.PLP.Chemscore.Internal.Correction>
0.0043

> <Gold.Rescore>
     Score         DG    S(hbond)    S(metal)    S(lipo)     H(rot)  DE(clash)    DE(int)     intcor
     11.98     -16.19       1.44        0.00      82.04       1.44       3.80       0.40       ----

> <Gold.Chemscore.Fitness>
11.9849

> <Gold.Chemscore.DG>
-16.1853

> <Gold.Chemscore.ZeroCoef>
-5.4800

> <Gold.Chemscore.Hbond>
1.4358

> <Gold.Chemscore.Metal>
0.0000

> <Gold.Chemscore.Lipo>
82.0404

> <Gold.Chemscore.Internal_Hbond>
0.0000

> <Gold.Chemscore.DEClash>
3.7959

> <Gold.Chemscore.DEInternal>
0.4045

> <Gold.Chemscore.Rot>
1.4410

> <Gold.Chemscore.Internal.Correction>
   9.000000E+99

> <Gold.Chemscore.Hbonds>
donor molecule, donor type, donor heavy atom, donor atom, acceptor molecule, acceptor atom, score
      L1  H    13    39       P1  7948  1.00
      P1  H  8011  8017       L1     1  0.34

> <Gold.Chemscore.Hbond.Weighted>
-4.7955

> <Gold.Chemscore.Metal.Weighted>
-0.0000

> <Gold.Chemscore.Lipo.Weighted>
-9.5987

> <Gold.Chemscore.Internal_Hbond.Weighted>
0.0000

> <Gold.Chemscore.DEClash.Weighted>
3.7959

> <Gold.Chemscore.DEInternal.Weighted>
0.4045

> <Gold.Chemscore.Rot.Weighted>
3.6889

> <Gold.Chemscore.Internal.Correction.Weighted>
   9.000000E+99

> <Gold.Protein.RotatedTorsions>
[ 6907 6896 6895 6894 ] final  133.15 input  -60.11 | X-H torsion
[ 7974 7965 7964 7962 ] final   89.44 input  175.53 | X-H torsion
[ 8008 7997 7996 7995 ] final   86.02 input   59.86 | X-H torsion
[ 10167 10162 10161 10158 ] final -143.42 input  -65.29 | X-H torsion
[ 10718 10713 10712 10709 ] final  -37.05 input   66.30 | X-H torsion
[ 10763 10752 10751 10750 ] final -104.73 input  -60.55 | X-H torsion
[ 11005 11000 10999 10996 ] final  167.41 input  -57.11 | X-H torsion

> <Gold.Protein.ActiveResidues>
 VAL166  LYS551  ARG553  GLY616  TRP617  ASP618  TYR619  PRO620  LYS621  CYS622 
 ASP623  PHE694  ASN695  SER759  ASP760  ASP761  ALA762  ILE779  LEU786  VAL792 
 PHE793  MET794  SER795  GLU796  ALA797  LYS798  CYS799  TRP800  GLU811  SER814 

> <Gold.Protein.RotatedAtoms>
  152.3249  133.5894  159.5769 H   0  0  0  0  0  0  0  0  0  0  0  0  # atno 6907 bound_to 6896
  150.7391  133.9955  159.3630 H   0  0  0  0  0  0  0  0  0  0  0  0  # atno 6908 bound_to 6896
  151.7836  135.0755  160.0428 H   0  0  0  0  0  0  0  0  0  0  0  0  # atno 6909 bound_to 6896
  145.5324  139.2284  143.2611 H   0  0  0  0  0  0  0  0  0  0  0  0  # atno 7974 bound_to 7965
  155.9574  140.3396  155.6461 H   0  0  0  0  0  0  0  0  0  0  0  0  # atno 8008 bound_to 7997
  155.6842  140.0741  157.2491 H   0  0  0  0  0  0  0  0  0  0  0  0  # atno 8009 bound_to 7997
  154.4135  140.1669  156.2003 H   0  0  0  0  0  0  0  0  0  0  0  0  # atno 8010 bound_to 7997
  139.7994  143.7854  152.2657 H   0  0  0  0  0  0  0  0  0  0  0  0  # atno 10167 bound_to 10162
  156.3197  130.4264  149.7972 H   0  0  0  0  0  0  0  0  0  0  0  0  # atno 10718 bound_to 10713
  154.7899  135.4775  154.0028 H   0  0  0  0  0  0  0  0  0  0  0  0  # atno 10763 bound_to 10752
  153.1615  135.6809  153.8743 H   0  0  0  0  0  0  0  0  0  0  0  0  # atno 10764 bound_to 10752
  153.8355  135.3186  155.3400 H   0  0  0  0  0  0  0  0  0  0  0  0  # atno 10765 bound_to 10752
  140.2765  134.7784  157.3721 H   0  0  0  0  0  0  0  0  0  0  0  0  # atno 11005 bound_to 11000
  146.2035  140.6141  142.9091 LP  0  0  0  0  0  0  0  0  0  0  0  0  # atno 17320 bound_to 7965
  144.7619  140.5442  143.6729 LP  0  0  0  0  0  0  0  0  0  0  0  0  # atno 17321 bound_to 7965
  139.7969  144.7389  150.9877 LP  0  0  0  0  0  0  0  0  0  0  0  0  # atno 17342 bound_to 10162
  140.7820  143.4384  151.0588 LP  0  0  0  0  0  0  0  0  0  0  0  0  # atno 17343 bound_to 10162
  156.5284  130.8246  151.3228 LP  0  0  0  0  0  0  0  0  0  0  0  0  # atno 17370 bound_to 10713
  157.7409  130.9859  150.2409 LP  0  0  0  0  0  0  0  0  0  0  0  0  # atno 17371 bound_to 10713
  140.1323  134.5079  155.8096 LP  0  0  0  0  0  0  0  0  0  0  0  0  # atno 17394 bound_to 11000
  141.2169  133.6794  156.7062 LP  0  0  0  0  0  0  0  0  0  0  0  0  # atno 17395 bound_to 11000

$$$$
