AV-unprocessed.smi:1005|AV-procd|sdf|4386|dock6
  -GOLD-   22720 2313D 1   1.00000     0.00000
 Structure written by MMmdl.
 55 57  0  0  0  0  0  0  0  0  1 V2000
  152.5635  143.3866  161.6215 C   0  0  0  0  0  0  0  0  0  0  0  0
  152.0691  142.8641  160.2840 C   0  0  0  0  0  0  0  0  0  0  0  0
  152.6963  141.7336  159.7134 C   0  0  0  0  0  0  0  0  0  0  0  0
  152.2676  141.2173  158.4711 C   0  0  0  0  0  0  0  0  0  0  0  0
  152.7293  140.1362  157.7398 N   0  0  0  0  0  0  0  0  0  0  0  0
  151.9271  140.1680  156.6798 C   0  0  0  0  0  0  0  0  0  0  0  0
  151.0041  141.1483  156.6333 N   0  0  0  0  0  0  0  0  0  0  0  0
  150.0267  141.3844  155.5853 C   0  0  0  0  0  0  0  0  0  0  0  0
  149.4786  140.0786  154.9747 C   0  0  2  0  0  0  0  0  0  0  0  0
  150.1850  139.8545  153.7713 O   0  0  0  0  0  0  0  0  0  0  0  0
  147.9627  140.1199  154.6703 C   0  0  0  0  0  0  0  0  0  0  0  0
  147.3177  141.4100  154.9111 N   0  0  0  0  0  0  0  0  0  0  0  0
  146.3995  141.7467  153.8290 C   0  0  0  0  0  0  0  0  0  0  0  0
  145.7182  143.1064  154.0558 C   0  0  0  0  0  0  0  0  0  0  0  0
  145.0321  143.0962  155.3034 O   0  0  0  0  0  0  0  0  0  0  0  0
  145.8833  142.7955  156.4070 C   0  0  1  0  0  0  0  0  0  0  0  0
  145.0990  142.8591  157.7351 C   0  0  0  0  0  0  0  0  0  0  0  0
  144.4622  144.1366  158.0712 N   0  0  0  0  0  0  0  0  0  0  0  0
  143.9957  144.1932  159.4514 C   0  0  0  0  0  0  0  0  0  0  0  0
  143.3603  144.4124  157.1599 C   0  0  0  0  0  0  0  0  0  0  0  0
  146.5911  141.4432  156.1779 C   0  0  0  0  0  0  0  0  0  0  0  0
  151.1863  141.8687  157.8088 C   0  0  0  0  0  0  0  0  0  0  0  0
  150.5523  142.9924  158.3678 C   0  0  0  0  0  0  0  0  0  0  0  0
  150.9934  143.4957  159.6095 C   0  0  0  0  0  0  0  0  0  0  0  0
  150.3046  144.7119  160.2030 C   0  0  0  0  0  0  0  0  0  0  0  0
  153.3834  142.7802  162.0075 H   0  0  0  0  0  0  0  0  0  0  0  0
  151.7606  143.3706  162.3587 H   0  0  0  0  0  0  0  0  0  0  0  0
  152.9229  144.4111  161.5217 H   0  0  0  0  0  0  0  0  0  0  0  0
  153.5152  141.2516  160.2272 H   0  0  0  0  0  0  0  0  0  0  0  0
  152.0200  139.4400  155.8871 H   0  0  0  0  0  0  0  0  0  0  0  0
  149.2126  141.9846  155.9947 H   0  0  0  0  0  0  0  0  0  0  0  0
  150.5043  141.9899  154.8135 H   0  0  0  0  0  0  0  0  0  0  0  0
  149.6980  139.2558  155.6563 H   0  0  0  0  0  0  0  0  0  0  0  0
  149.6081  140.0364  153.0454 H   0  0  0  0  0  0  0  0  0  0  0  0
  147.8208  139.8809  153.6170 H   0  0  0  0  0  0  0  0  0  0  0  0
  147.4432  139.3269  155.2108 H   0  0  0  0  0  0  0  0  0  0  0  0
  146.9374  141.7700  152.8806 H   0  0  0  0  0  0  0  0  0  0  0  0
  145.6368  140.9721  153.7361 H   0  0  0  0  0  0  0  0  0  0  0  0
  146.4525  143.9132  154.0428 H   0  0  0  0  0  0  0  0  0  0  0  0
  145.0041  143.3108  153.2580 H   0  0  0  0  0  0  0  0  0  0  0  0
  146.6434  143.5781  156.4475 H   0  0  0  0  0  0  0  0  0  0  0  0
  144.3208  142.0969  157.6750 H   0  0  0  0  0  0  0  0  0  0  0  0
  145.7508  142.5463  158.5520 H   0  0  0  0  0  0  0  0  0  0  0  0
  143.4705  145.1294  159.6428 H   0  0  0  0  0  0  0  0  0  0  0  0
  144.8275  144.1511  160.1528 H   0  0  0  0  0  0  0  0  0  0  0  0
  143.3136  143.3714  159.6722 H   0  0  0  0  0  0  0  0  0  0  0  0
  142.9143  145.3843  157.3731 H   0  0  0  0  0  0  0  0  0  0  0  0
  142.5804  143.6545  157.2444 H   0  0  0  0  0  0  0  0  0  0  0  0
  143.7067  144.4301  156.1262 H   0  0  0  0  0  0  0  0  0  0  0  0
  145.8577  140.6359  156.1974 H   0  0  0  0  0  0  0  0  0  0  0  0
  147.2753  141.2629  157.0069 H   0  0  0  0  0  0  0  0  0  0  0  0
  149.7342  143.4639  157.8434 H   0  0  0  0  0  0  0  0  0  0  0  0
  149.4890  145.0572  159.5667 H   0  0  0  0  0  0  0  0  0  0  0  0
  151.0120  145.5336  160.3161 H   0  0  0  0  0  0  0  0  0  0  0  0
  149.8872  144.4758  161.1821 H   0  0  0  0  0  0  0  0  0  0  0  0
  1  2  1  0  0  0  0
  1 26  1  0  0  0  0
  1 27  1  0  0  0  0
  1 28  1  0  0  0  0
  2 24  1  0  0  0  0
  2  3  2  0  0  0  0
  3  4  1  0  0  0  0
  3 29  1  0  0  0  0
  4 22  2  0  0  0  0
  4  5  1  0  0  0  0
  5  6  2  0  0  0  0
  6  7  1  0  0  0  0
  6 30  1  0  0  0  0
  7  8  1  0  0  0  0
  7 22  1  0  0  0  0
  8  9  1  0  0  0  0
  8 31  1  0  0  0  0
  8 32  1  0  0  0  0
  9 10  1  0  0  0  0
  9 11  1  0  0  0  0
  9 33  1  0  0  0  0
 10 34  1  0  0  0  0
 11 12  1  0  0  0  0
 11 35  1  0  0  0  0
 11 36  1  0  0  0  0
 12 21  1  0  0  0  0
 12 13  1  0  0  0  0
 13 14  1  0  0  0  0
 13 37  1  0  0  0  0
 13 38  1  0  0  0  0
 14 15  1  0  0  0  0
 14 39  1  0  0  0  0
 14 40  1  0  0  0  0
 15 16  1  0  0  0  0
 16 17  1  0  0  0  0
 16 21  1  0  0  0  0
 16 41  1  0  0  0  0
 17 18  1  0  0  0  0
 17 42  1  0  0  0  0
 17 43  1  0  0  0  0
 18 19  1  0  0  0  0
 18 20  1  0  0  0  0
 19 44  1  0  0  0  0
 19 45  1  0  0  0  0
 19 46  1  0  0  0  0
 20 47  1  0  0  0  0
 20 48  1  0  0  0  0
 20 49  1  0  0  0  0
 21 50  1  0  0  0  0
 21 51  1  0  0  0  0
 22 23  1  0  0  0  0
 23 24  2  0  0  0  0
 23 52  1  0  0  0  0
 24 25  1  0  0  0  0
 25 53  1  0  0  0  0
 25 54  1  0  0  0  0
 25 55  1  0  0  0  0
M  END
> <s_m_source_file>
AV-unprocessed.smi

> <i_m_source_file_index>
1005

> <i_lp_mmshare_version>
43012

> <i_f3d_flags>
0

> <s_epik_input>
W0NIM11jKFtjSF0xKWMoW0NIM10pW2NIXWMoYzEyKW4oW2NIXW4yKVtDSDJdW0NASF0oW09IXSlbQ0gyXU4zW0NIMl1bQ0gyXU9bQ0BIXShbQ0gyXTMpW0NIMl1OKFtDSDNdKVtDSDNd

> <s_epik_cmdline>
J2VwaWtfcHl0aG9uJywgJy1waCcsICc3LjAnLCAnLXRuJywgJzgnLCAnLW1hJywgJzIwMCcsICctbWV0YWxfYmluZGluZycsICctaW1hZScsICc8aW5maWxlLm1hZT4nLCAnLW9tYWUnLCAnPG91dGZpbGUubWFlPic=

> <r_epik_Ionization_Penalty>
2.78613

> <r_epik_Ionization_Penalty_Charging>
0

> <r_epik_Ionization_Penalty_Neutral>
2.78613

> <r_epik_State_Penalty>
2.57336

> <r_epik_Charging_Adjusted_Penalty>
2.57336

> <i_epik_Tot_Q>
0

> <i_epik_Tot_abs_Q>
0

> <r_epik_Metal_State_Penalty>
2.49087

> <b_epik_Metal_Only>
0

> <s_lp_Force_Field>
OPLS_2005

> <r_lp_Energy>
41.5619

> <b_lp_Chiralities_Consistent>
1

> <s_lp_Variant>
AV-unprocessed.smi:1005-25

> <Gold.Version>
5.8.1

> <Gold.Id.Protein>
6NUR|6NUR_protein|mol2

> <Gold.PLP.Fitness>
49.7640

> <Gold.PLP.PLP>
-45.8133

> <Gold.PLP.part.hbond>
-3.0000

> <Gold.PLP.part.metal>
0.0000

> <Gold.PLP.part.buried>
-7.5543

> <Gold.PLP.part.nonpolar>
-35.4532

> <Gold.PLP.part.repulsive>
0.4190

> <Gold.PLP.ligand.clash>
0.0000

> <Gold.PLP.ligand.torsion>
2.2742

> <Gold.PLP.Chemscore.Hbond>
2.8080

> <Gold.PLP.Chemscore.CHOScore>
0.0000

> <Gold.PLP.Chemscore.Metal>
0.0000

> <Gold.Chemscore.Hbonds>
donor molecule, donor type, donor heavy atom, donor atom, acceptor molecule, acceptor atom, score
      L1  H    10    34       P1  7957  0.80
      P1  H  7989  7998       L1    10  0.90
      P1  H  7997  8009       L1     5  1.00

> <Gold.PLP.Chemscore.Internal.Correction>
0.0752

> <Gold.Rescore>
     Score         DG    S(hbond)    S(metal)    S(lipo)     H(rot)  DE(clash)    DE(int)     intcor
     15.32     -18.78       1.53        0.00     120.02       2.29       0.11       3.36       ----

> <Gold.Chemscore.Fitness>
15.3176

> <Gold.Chemscore.DG>
-18.7834

> <Gold.Chemscore.ZeroCoef>
-5.4800

> <Gold.Chemscore.Hbond>
1.5335

> <Gold.Chemscore.Metal>
0.0000

> <Gold.Chemscore.Lipo>
120.0215

> <Gold.Chemscore.Internal_Hbond>
0.0000

> <Gold.Chemscore.DEClash>
0.1071

> <Gold.Chemscore.DEInternal>
3.3588

> <Gold.Chemscore.Rot>
2.2895

> <Gold.Chemscore.Internal.Correction>
   9.000000E+99

> <Gold.Chemscore.Hbonds>
donor molecule, donor type, donor heavy atom, donor atom, acceptor molecule, acceptor atom, score
      L1  H    10    34       P1  7957  0.79
      P1  H  7989  7998       L1    10  0.37
      P1  H  7997  8009       L1     5  0.37

> <Gold.Chemscore.Hbond.Weighted>
-5.1220

> <Gold.Chemscore.Metal.Weighted>
-0.0000

> <Gold.Chemscore.Lipo.Weighted>
-14.0425

> <Gold.Chemscore.Internal_Hbond.Weighted>
0.0000

> <Gold.Chemscore.DEClash.Weighted>
0.1071

> <Gold.Chemscore.DEInternal.Weighted>
3.3588

> <Gold.Chemscore.Rot.Weighted>
5.8612

> <Gold.Chemscore.Internal.Correction.Weighted>
   9.000000E+99

> <Gold.Protein.RotatedTorsions>
[ 6907 6896 6895 6894 ] final -153.12 input  -60.11 | X-H torsion
[ 7974 7965 7964 7962 ] final   42.05 input  175.53 | X-H torsion
[ 8008 7997 7996 7995 ] final  161.29 input   59.86 | X-H torsion
[ 10167 10162 10161 10158 ] final  122.61 input  -65.29 | X-H torsion
[ 10718 10713 10712 10709 ] final  156.20 input   66.30 | X-H torsion
[ 10763 10752 10751 10750 ] final  -95.17 input  -60.55 | X-H torsion
[ 11005 11000 10999 10996 ] final    7.04 input  -57.11 | X-H torsion

> <Gold.Protein.ActiveResidues>
 VAL166  LYS551  ARG553  GLY616  TRP617  ASP618  TYR619  PRO620  LYS621  CYS622 
 ASP623  PHE694  ASN695  SER759  ASP760  ASP761  ALA762  ILE779  LEU786  VAL792 
 PHE793  MET794  SER795  GLU796  ALA797  LYS798  CYS799  TRP800  GLU811  SER814 

> <Gold.Protein.RotatedAtoms>
  151.2378  133.4415  159.2605 H   0  0  0  0  0  0  0  0  0  0  0  0  # atno 6907 bound_to 6896
  151.0734  134.9813  159.8330 H   0  0  0  0  0  0  0  0  0  0  0  0  # atno 6908 bound_to 6896
  152.5415  134.2322  159.8882 H   0  0  0  0  0  0  0  0  0  0  0  0  # atno 6909 bound_to 6896
  146.0772  139.5344  142.9560 H   0  0  0  0  0  0  0  0  0  0  0  0  # atno 7974 bound_to 7965
  156.2113  140.1781  156.7689 H   0  0  0  0  0  0  0  0  0  0  0  0  # atno 8008 bound_to 7997
  154.5726  140.0680  156.9017 H   0  0  0  0  0  0  0  0  0  0  0  0  # atno 8009 bound_to 7997
  155.2645  140.3338  155.4273 H   0  0  0  0  0  0  0  0  0  0  0  0  # atno 8010 bound_to 7997
  139.5848  144.7002  151.3436 H   0  0  0  0  0  0  0  0  0  0  0  0  # atno 10167 bound_to 10162
  157.2082  131.0691  151.1985 H   0  0  0  0  0  0  0  0  0  0  0  0  # atno 10718 bound_to 10713
  154.7123  135.5130  153.8686 H   0  0  0  0  0  0  0  0  0  0  0  0  # atno 10763 bound_to 10752
  153.0791  135.6626  154.0091 H   0  0  0  0  0  0  0  0  0  0  0  0  # atno 10764 bound_to 10752
  153.9931  135.3018  155.3389 H   0  0  0  0  0  0  0  0  0  0  0  0  # atno 10765 bound_to 10752
  140.5527  134.0267  155.7943 H   0  0  0  0  0  0  0  0  0  0  0  0  # atno 11005 bound_to 11000
  145.6284  141.0309  143.1877 LP  0  0  0  0  0  0  0  0  0  0  0  0  # atno 17320 bound_to 7965
  144.7269  139.7846  143.7361 LP  0  0  0  0  0  0  0  0  0  0  0  0  # atno 17321 bound_to 7965
  140.7122  143.7361  150.7587 LP  0  0  0  0  0  0  0  0  0  0  0  0  # atno 17342 bound_to 10162
  140.0903  143.4884  152.2482 LP  0  0  0  0  0  0  0  0  0  0  0  0  # atno 17343 bound_to 10162
  157.3699  130.7175  149.6558 LP  0  0  0  0  0  0  0  0  0  0  0  0  # atno 17370 bound_to 10713
  155.9693  130.4202  150.4410 LP  0  0  0  0  0  0  0  0  0  0  0  0  # atno 17371 bound_to 10713
  141.1162  133.9537  157.2818 LP  0  0  0  0  0  0  0  0  0  0  0  0  # atno 17394 bound_to 11000
  139.9447  135.0186  156.8815 LP  0  0  0  0  0  0  0  0  0  0  0  0  # atno 17395 bound_to 11000

$$$$
