#       Name:                AV-unprocessed.smi:3112
#       Creating user name   scv26
#       Creation time:       Fri Mar 27 17:23:07 2020


#       File generated by GOLD software.
#

@<TRIPOS>MOLECULE
AV-unprocessed.smi:3112
    40    40     1
SMALL
NO_CHARGES


@<TRIPOS>ATOM
      1 ****        -2.9149   3.1161   1.9443 C.3            1 S1                 0.0000
      2 ****        -2.2176   1.7876   1.6226 C.3            1 S1                 0.0000
      3 ****        -1.7413   1.6881   0.1598 C.3            1 S1                 0.0000
      4 ****        -0.7133   2.6229  -0.1019 O.3            1 S1                 0.0000
      5 ****        -1.2673   0.2827  -0.2561 C.3            1 S1                 0.0000
      6 ****        -0.2324  -0.2370   0.6388 N.3            1 S1                 0.0000
      7 ****         0.1487  -1.6459   0.4625 C.3            1 S1                 0.0000
      8 ****         1.0072  -2.0602   1.6693 C.3            1 S1                 0.0000
      9 ****         0.8721  -1.9694  -0.8816 C.3            1 S1                 0.0000
     10 ****        -0.0764  -2.3171  -2.0478 C.3            1 S1                 0.0000
     11 ****         1.9023  -0.9971  -1.2437 N.pl3          1 S1                 0.0000
     12 ****         3.2127  -0.9510  -0.8116 C.2            1 S1                 0.0000
     13 ****         3.7964   0.1460  -1.3770 C.2            1 S1                 0.0000
     14 ****         2.7496   0.7255  -2.1455 C.2            1 S1                 0.0000
     15 ****         1.6209   0.0415  -2.0645 N.2            1 S1                 0.0000
     16 ****        -3.2640   3.1302   2.9768 H              1 S1                 0.0000
     17 ****        -3.7804   3.2733   1.3003 H              1 S1                 0.0000
     18 ****        -2.2398   3.9618   1.8129 H              1 S1                 0.0000
     19 ****        -1.3789   1.6463   2.3050 H              1 S1                 0.0000
     20 ****        -2.9157   0.9746   1.8248 H              1 S1                 0.0000
     21 ****        -2.5751   1.9535  -0.4911 H              1 S1                 0.0000
     22 ****        -1.0385   3.4886   0.0915 H              1 S1                 0.0000
     23 ****        -2.1241  -0.3916  -0.2506 H              1 S1                 0.0000
     24 ****        -0.9090   0.3267  -1.2819 H              1 S1                 0.0000
     25 ****        -0.5115  -0.0797   1.6017 H              1 S1                 0.0000
     26 ****        -0.7528  -2.2575   0.5116 H              1 S1                 0.0000
     27 ****         1.2761  -3.1156   1.6221 H              1 S1                 0.0000
     28 ****         0.4678  -1.9060   2.6044 H              1 S1                 0.0000
     29 ****         1.9301  -1.4824   1.7246 H              1 S1                 0.0000
     30 ****         1.4123  -2.9027  -0.7144 H              1 S1                 0.0000
     31 ****        -0.7575  -3.1204  -1.7666 H              1 S1                 0.0000
     32 ****         0.4896  -2.6620  -2.9137 H              1 S1                 0.0000
     33 ****        -0.6828  -1.4760  -2.3757 H              1 S1                 0.0000
     34 ****         3.6168  -1.6955  -0.1416 H              1 S1                 0.0000
     35 ****         4.8141   0.4860  -1.2552 H              1 S1                 0.0000
     36 ****         2.7754   1.6174  -2.7541 H              1 S1                 0.0000
     37 ****        -0.4464   2.5700  -1.0641 LP             1 S1                 0.0000
     38 ****         0.0788   2.4234   0.4751 LP             1 S1                 0.0000
     39 ****         0.5910   0.2735   0.3911 LP             1 S1                 0.0000
     40 ****         0.7503   0.2466  -2.5116 LP             1 S1                 0.0000
@<TRIPOS>BOND
    1    1    2 1     
    2    1   16 1     
    3    1   17 1     
    4    1   18 1     
    5    2    3 1     
    6    2   19 1     
    7    2   20 1     
    8    3    4 1     
    9    3    5 1     
   10    3   21 1     
   11    4   22 1     
   12    5    6 1     
   13    5   23 1     
   14    5   24 1     
   15    6    7 1     
   16    6   25 1     
   17    7    8 1     
   18    7    9 1     
   19    7   26 1     
   20    8   27 1     
   21    8   28 1     
   22    8   29 1     
   23    9   10 1     
   24    9   11 1     
   25    9   30 1     
   26   10   31 1     
   27   10   32 1     
   28   10   33 1     
   29   11   15 1     
   30   11   12 1     
   31   12   13 2     
   32   12   34 1     
   33   13   14 1     
   34   13   35 1     
   35   14   15 2     
   36   14   36 1     
   37    4   37 1     
   38    4   38 1     
   39    6   39 1     
   40   15   40 1     
@<TRIPOS>SUBSTRUCTURE
      1 S1             1
@<TRIPOS>SET
LONE_PAIRS      STATIC     ATOMS    <user>   **** ""
4 37 38 39 40
DONOR_HYDROGENS      STATIC     ATOMS    <user>   **** ""
2 22 25
ATOM$BLUE        STATIC     ATOMS    COLORGROUP SYSTEM
4 37 38 39 40
ATOM$RED        STATIC     ATOMS    COLORGROUP SYSTEM
2 22 25
