#       Name:                AV-unprocessed.smi:224
#       Creating user name   scv26
#       Creation time:       Thu Mar 26 20:19:24 2020


#       File generated by GOLD software.
#

@<TRIPOS>MOLECULE
AV-unprocessed.smi:224
    66    69     1
SMALL
NO_CHARGES


@<TRIPOS>ATOM
      1 ****        -2.8567   4.2765  -4.4949 C.3            1 S1                 0.0000
      2 ****        -3.5904   3.8311  -3.2211 C.3            1 S1                 0.0000
      3 ****        -4.9793   3.9117  -3.4617 O.3            1 S1                 0.0000
      4 ****        -3.2530   2.3839  -2.8052 C.3            1 S1                 0.0000
      5 ****        -1.8217   2.2071  -2.4242 N.4            1 S1                 1.0000
      6 ****        -1.5455   2.7921  -1.0804 C.3            1 S1                 0.0000
      7 ****        -0.0700   2.6511  -0.6731 C.3            1 S1                 0.0000
      8 ****         0.3740   1.2669  -0.7832 N.3            1 S1                 0.0000
      9 ****         0.2306   0.4277   0.2776 C.ar           1 S1                 0.0000
     10 ****        -0.6531   0.7314   1.2656 N.ar           1 S1                 0.0000
     11 ****        -0.8090  -0.0850   2.3115 C.ar           1 S1                 0.0000
     12 ****        -0.1873  -1.2360   2.5696 N.ar           1 S1                 0.0000
     13 ****         0.7122  -1.5425   1.5920 C.ar           1 S1                 0.0000
     14 ****         0.9788  -0.7762   0.4216 C.ar           1 S1                 0.0000
     15 ****         1.9633  -1.4013  -0.3350 N.2            1 S1                 0.0000
     16 ****         2.2564  -2.4761   0.3448 C.2            1 S1                 0.0000
     17 ****         1.5586  -2.6350   1.5203 N.pl3          1 S1                 0.0000
     18 ****         1.6970  -3.7270   2.4719 C.3            1 S1                 0.0000
     19 ****         2.8495  -3.5154   3.4813 C.3            1 S1                 0.0000
     20 ****         4.0775  -3.4795   2.7740 O.3            1 S1                 0.0000
     21 ****         2.7307  -2.2396   4.3094 C.3            1 S1                 0.0000
     22 ****         3.4039  -2.6243   5.6191 C.3            1 S1                 0.0000
     23 ****         2.9631  -3.9573   5.8148 O.3            1 S1                 0.0000
     24 ****         2.9370  -4.6197   4.5538 C.3            1 S1                 0.0000
     25 ****         0.1592   0.6955  -2.1062 C.3            1 S1                 0.0000
     26 ****        -1.3191   0.7994  -2.5470 C.3            1 S1                 0.0000
     27 ****        -1.4283   0.2426  -3.9818 C.3            1 S1                 0.0000
     28 ****        -1.7761   4.2738  -4.3501 H              1 S1                 0.0000
     29 ****        -3.1439   5.2895  -4.7791 H              1 S1                 0.0000
     30 ****        -3.0809   3.6188  -5.3355 H              1 S1                 0.0000
     31 ****        -3.3739   4.5308  -2.4152 H              1 S1                 0.0000
     32 ****        -5.1968   3.3501  -4.1903 H              1 S1                 0.0000
     33 ****        -3.8846   2.0679  -1.9730 H              1 S1                 0.0000
     34 ****        -3.5277   1.7432  -3.6391 H              1 S1                 0.0000
     35 ****        -1.8035   3.8495  -1.0604 H              1 S1                 0.0000
     36 ****        -2.1830   2.3050  -0.3415 H              1 S1                 0.0000
     37 ****         0.5508   3.2594  -1.3318 H              1 S1                 0.0000
     38 ****         0.0930   3.0359   0.3347 H              1 S1                 0.0000
     39 ****        -1.5349   0.2288   3.0471 H              1 S1                 0.0000
     40 ****         3.0027  -3.1828   0.0111 H              1 S1                 0.0000
     41 ****         0.7501  -3.8419   3.0008 H              1 S1                 0.0000
     42 ****         1.8485  -4.6520   1.9139 H              1 S1                 0.0000
     43 ****         4.7775  -3.3553   3.3966 H              1 S1                 0.0000
     44 ****         3.1724  -1.3616   3.8361 H              1 S1                 0.0000
     45 ****         1.6826  -2.0164   4.5110 H              1 S1                 0.0000
     46 ****         4.4906  -2.6044   5.5241 H              1 S1                 0.0000
     47 ****         3.1160  -1.9784   6.4488 H              1 S1                 0.0000
     48 ****         2.0776  -5.2905   4.5278 H              1 S1                 0.0000
     49 ****         3.8322  -5.2339   4.4412 H              1 S1                 0.0000
     50 ****         0.7942   1.2344  -2.8107 H              1 S1                 0.0000
     51 ****         0.4806  -0.3441  -2.1497 H              1 S1                 0.0000
     52 ****        -1.9167   0.1703  -1.8848 H              1 S1                 0.0000
     53 ****        -0.8954  -0.7049  -4.0703 H              1 S1                 0.0000
     54 ****        -0.9941   0.9297  -4.7090 H              1 S1                 0.0000
     55 ****        -2.4546   0.0342  -4.2795 H              1 S1                 0.0000
     56 ****        -1.2825   2.7444  -3.0878 H              1 S1                 0.0000
     57 ****        -5.2281   4.8555  -3.6793 LP             1 S1                 0.0000
     58 ****        -5.4788   3.6145  -2.6479 LP             1 S1                 0.0000
     59 ****         1.3640   1.3728  -0.6898 LP             1 S1                 0.0000
     60 ****        -1.1906   1.5727   1.2088 LP             1 S1                 0.0000
     61 ****        -0.3587  -1.8016   3.3763 LP             1 S1                 0.0000
     62 ****         2.3571  -1.0969  -1.2023 LP             1 S1                 0.0000
     63 ****         4.0687  -2.7226   2.1206 LP             1 S1                 0.0000
     64 ****         4.2103  -4.3412   2.2842 LP             1 S1                 0.0000
     65 ****         2.0453  -3.9534   6.2119 LP             1 S1                 0.0000
     66 ****         3.5910  -4.4323   6.4314 LP             1 S1                 0.0000
@<TRIPOS>BOND
    1    1    2 1     
    2    1   28 1     
    3    1   29 1     
    4    1   30 1     
    5    2    3 1     
    6    2    4 1     
    7    2   31 1     
    8    3   32 1     
    9    4    5 1     
   10    4   33 1     
   11    4   34 1     
   12    5   26 1     
   13    5    6 1     
   14    5   56 1     
   15    6    7 1     
   16    6   35 1     
   17    6   36 1     
   18    7    8 1     
   19    7   37 1     
   20    7   38 1     
   21    8    9 1     
   22    8   25 1     
   23    9   14 ar    
   24    9   10 ar    
   25   10   11 ar    
   26   11   12 ar    
   27   11   39 1     
   28   12   13 ar    
   29   13   17 1     
   30   13   14 ar    
   31   14   15 1     
   32   15   16 2     
   33   16   17 1     
   34   16   40 1     
   35   17   18 1     
   36   18   19 1     
   37   18   41 1     
   38   18   42 1     
   39   19   24 1     
   40   19   20 1     
   41   19   21 1     
   42   20   43 1     
   43   21   22 1     
   44   21   44 1     
   45   21   45 1     
   46   22   23 1     
   47   22   46 1     
   48   22   47 1     
   49   23   24 1     
   50   24   48 1     
   51   24   49 1     
   52   25   26 1     
   53   25   50 1     
   54   25   51 1     
   55   26   27 1     
   56   26   52 1     
   57   27   53 1     
   58   27   54 1     
   59   27   55 1     
   60    3   57 1     
   61    3   58 1     
   62    8   59 1     
   63   10   60 1     
   64   12   61 1     
   65   15   62 1     
   66   20   63 1     
   67   20   64 1     
   68   23   65 1     
   69   23   66 1     
@<TRIPOS>SUBSTRUCTURE
      1 S1             1
@<TRIPOS>SET
LONE_PAIRS      STATIC     ATOMS    <user>   **** ""
10 57 58 59 60 61 62 63 64 65 66
DONOR_HYDROGENS      STATIC     ATOMS    <user>   **** ""
3 32 56 43
ATOM$BLUE        STATIC     ATOMS    COLORGROUP SYSTEM
10 57 58 59 60 61 62 63 64 65 66
ATOM$RED        STATIC     ATOMS    COLORGROUP SYSTEM
3 32 56 43
