AV-unprocessed.smi:867|AV-procd|sdf|3999|dock8
  -GOLD-   22720 1483D 1   1.00000     0.00000
 Structure written by MMmdl.
 54 57  0  0  0  0  0  0  0  0  3 V2000
  151.6463  139.3323  154.6500 O   0  0  0  0  0  0  0  0  0  0  0  0
  150.5392  139.4269  155.1815 C   0  0  0  0  0  0  0  0  0  0  0  0
  149.7933  138.3492  155.4785 N   0  0  0  0  0  0  0  0  0  0  0  0
  150.1852  136.9659  155.2340 C   0  0  0  0  0  0  0  0  0  0  0  0
  149.0034  136.0016  155.4246 C   0  0  0  0  0  0  0  0  0  0  0  0
  149.3946  134.5617  155.1551 C   0  0  0  0  0  0  0  0  0  0  0  0
  148.8013  133.8449  154.0923 C   0  0  0  0  0  0  0  0  0  0  0  0
  149.1800  132.5054  153.8649 C   0  0  0  0  0  0  0  0  0  0  0  0
  150.1431  131.9122  154.7066 C   0  0  0  0  0  0  0  0  0  0  0  0
  150.6878  132.6285  155.7148 N   0  3  0  0  0  0  0  0  0  0  0  0
  150.3526  133.9135  155.9649 C   0  0  0  0  0  0  0  0  0  0  0  0
  149.9403  140.6156  155.4387 N   0  0  0  0  0  0  0  0  0  0  0  0
  148.7392  140.8154  156.2580 C   0  0  0  0  0  0  0  0  0  0  0  0
  149.1387  141.4219  157.6184 C   0  0  0  0  0  0  0  0  0  0  0  0
  149.9393  142.6733  157.4681 N   0  3  0  0  0  0  0  0  0  0  0  0
  150.3972  143.2761  158.7583 C   0  0  1  0  0  0  0  0  0  0  0  0
  151.6401  142.5416  159.3294 C   0  0  0  0  0  0  0  0  0  0  0  0
  152.6607  143.6697  159.5520 C   0  0  2  0  0  0  0  0  0  0  0  0
  152.1976  144.5606  160.7162 C   0  0  0  0  0  0  0  0  0  0  0  0
  151.0077  145.3175  160.1015 C   0  0  0  0  0  0  0  0  0  0  0  0
  150.9253  144.7371  158.6750 C   0  0  1  0  0  0  0  0  0  0  0  0
  152.4013  144.5545  158.3401 C   0  0  0  0  0  0  0  0  0  0  0  0
  151.0715  142.4969  156.5112 C   0  0  0  0  0  0  0  0  0  0  0  0
  150.6044  141.8928  155.1772 C   0  0  0  0  0  0  0  0  0  0  0  0
  148.8803  138.5003  155.8824 H   0  0  0  0  0  0  0  0  0  0  0  0
  150.5635  136.8949  154.2137 H   0  0  0  0  0  0  0  0  0  0  0  0
  151.0131  136.6914  155.8904 H   0  0  0  0  0  0  0  0  0  0  0  0
  148.6133  136.0752  156.4410 H   0  0  0  0  0  0  0  0  0  0  0  0
  148.1834  136.2793  154.7606 H   0  0  0  0  0  0  0  0  0  0  0  0
  148.0628  134.3146  153.4584 H   0  0  0  0  0  0  0  0  0  0  0  0
  148.7371  131.9417  153.0568 H   0  0  0  0  0  0  0  0  0  0  0  0
  150.4908  130.8944  154.6052 H   0  0  0  0  0  0  0  0  0  0  0  0
  150.8564  134.3786  156.8000 H   0  0  0  0  0  0  0  0  0  0  0  0
  148.0636  141.4931  155.7338 H   0  0  0  0  0  0  0  0  0  0  0  0
  148.1647  139.9041  156.4242 H   0  0  0  0  0  0  0  0  0  0  0  0
  148.2169  141.6173  158.1618 H   0  0  0  0  0  0  0  0  0  0  0  0
  149.7101  140.6945  158.1972 H   0  0  0  0  0  0  0  0  0  0  0  0
  149.5649  143.2305  159.4630 H   0  0  0  0  0  0  0  0  0  0  0  0
  151.4151  141.9967  160.2471 H   0  0  0  0  0  0  0  0  0  0  0  0
  152.0567  141.8290  158.6162 H   0  0  0  0  0  0  0  0  0  0  0  0
  153.6874  143.3163  159.6533 H   0  0  0  0  0  0  0  0  0  0  0  0
  151.9142  143.9793  161.5947 H   0  0  0  0  0  0  0  0  0  0  0  0
  152.9838  145.2564  161.0130 H   0  0  0  0  0  0  0  0  0  0  0  0
  150.0856  145.1752  160.6661 H   0  0  0  0  0  0  0  0  0  0  0  0
  151.2145  146.3882  160.0715 H   0  0  0  0  0  0  0  0  0  0  0  0
  150.3851  145.4106  158.0138 H   0  0  0  0  0  0  0  0  0  0  0  0
  152.9682  145.4872  158.3568 H   0  0  0  0  0  0  0  0  0  0  0  0
  152.5707  144.0490  157.3878 H   0  0  0  0  0  0  0  0  0  0  0  0
  151.5616  143.4486  156.3098 H   0  0  0  0  0  0  0  0  0  0  0  0
  151.8256  141.8483  156.9606 H   0  0  0  0  0  0  0  0  0  0  0  0
  151.4493  141.7919  154.4939 H   0  0  0  0  0  0  0  0  0  0  0  0
  149.9056  142.5695  154.6829 H   0  0  0  0  0  0  0  0  0  0  0  0
  149.3158  143.3467  157.0461 H   0  0  0  0  0  0  0  0  0  0  0  0
  151.3820  132.1795  156.3129 H   0  0  0  0  0  0  0  0  0  0  0  0
  1  2  2  0  0  0  0
  2  3  1  0  0  0  0
  2 12  1  0  0  0  0
  3  4  1  0  0  0  0
  3 25  1  0  0  0  0
  4  5  1  0  0  0  0
  4 26  1  0  0  0  0
  4 27  1  0  0  0  0
  5  6  1  0  0  0  0
  5 28  1  0  0  0  0
  5 29  1  0  0  0  0
  6 11  1  0  0  0  0
  6  7  2  0  0  0  0
  7  8  1  0  0  0  0
  7 30  1  0  0  0  0
  8  9  2  0  0  0  0
  8 31  1  0  0  0  0
  9 10  1  0  0  0  0
  9 32  1  0  0  0  0
 10 11  2  0  0  0  0
 10 54  1  0  0  0  0
 11 33  1  0  0  0  0
 12 24  1  0  0  0  0
 12 13  1  0  0  0  0
 13 14  1  0  0  0  0
 13 34  1  0  0  0  0
 13 35  1  0  0  0  0
 14 15  1  0  0  0  0
 14 36  1  0  0  0  0
 14 37  1  0  0  0  0
 15 16  1  0  0  0  0
 15 23  1  0  0  0  0
 15 53  1  0  0  0  0
 16 21  1  0  0  0  0
 16 17  1  0  0  0  0
 16 38  1  0  0  0  0
 17 18  1  0  0  0  0
 17 39  1  0  0  0  0
 17 40  1  0  0  0  0
 18 22  1  0  0  0  0
 18 19  1  0  0  0  0
 18 41  1  0  0  0  0
 19 20  1  0  0  0  0
 19 42  1  0  0  0  0
 19 43  1  0  0  0  0
 20 21  1  0  0  0  0
 20 44  1  0  0  0  0
 20 45  1  0  0  0  0
 21 22  1  0  0  0  0
 21 46  1  0  0  0  0
 22 47  1  0  0  0  0
 22 48  1  0  0  0  0
 23 24  1  0  0  0  0
 23 49  1  0  0  0  0
 23 50  1  0  0  0  0
 24 51  1  0  0  0  0
 24 52  1  0  0  0  0
M  CHG  1  10   1
M  CHG  1  15   1
M  END
> <s_m_source_file>
AV-unprocessed.smi

> <i_m_source_file_index>
867

> <i_lp_mmshare_version>
43012

> <i_f3d_flags>
0

> <s_epik_input>
W0NIMl0xW0NIMl1bQ0BASF0oW0NIMl0yKVtDQEBIXShbQ0gyXVtDQEhdMTIpTihbQ0gyXVtDSDJdMylbQ0gyXVtDSDJdTjNDKD1PKVtOSF1bQ0gyXVtDSDJdYzRbY0hdW2NIXVtjSF1uW2NIXTQ=

> <s_epik_cmdline>
J2VwaWtfcHl0aG9uJywgJy1waCcsICc3LjAnLCAnLXRuJywgJzgnLCAnLW1hJywgJzIwMCcsICctbWV0YWxfYmluZGluZycsICctaW1hZScsICc8aW5maWxlLm1hZT4nLCAnLW9tYWUnLCAnPG91dGZpbGUubWFlPic=

> <r_epik_Ionization_Penalty>
2.25108

> <r_epik_Ionization_Penalty_Charging>
2.25105

> <r_epik_Ionization_Penalty_Neutral>
2.64641e-05

> <r_epik_State_Penalty>
2.39519

> <r_epik_Charging_Adjusted_Penalty>
4.64625

> <i_epik_Tot_Q>
2

> <i_epik_Tot_abs_Q>
2

> <r_epik_Metal_State_Penalty>
2.40865

> <b_epik_Metal_Only>
0

> <s_lp_Force_Field>
OPLS_2005

> <r_lp_Energy>
104.459

> <b_lp_Chiralities_Consistent>
1

> <s_lp_Variant>
AV-unprocessed.smi:867-6

> <Gold.Version>
5.8.1

> <Gold.Id.Protein>
6NUR|6NUR_protein|mol2

> <Gold.PLP.Fitness>
53.0197

> <Gold.PLP.PLP>
-44.4582

> <Gold.PLP.part.hbond>
-2.0000

> <Gold.PLP.part.metal>
0.0000

> <Gold.PLP.part.buried>
-4.0377

> <Gold.PLP.part.nonpolar>
-37.3839

> <Gold.PLP.part.repulsive>
0.1769

> <Gold.PLP.ligand.clash>
0.0000

> <Gold.PLP.ligand.torsion>
0.2856

> <Gold.PLP.Chemscore.Hbond>
3.0000

> <Gold.PLP.Chemscore.CHOScore>
0.0000

> <Gold.PLP.Chemscore.Metal>
0.0000

> <Gold.Chemscore.Hbonds>
donor molecule, donor type, donor heavy atom, donor atom, acceptor molecule, acceptor atom, score
      L1  H    15    53       P1  8028  2.00
      P1  H  7989  7998       L1     1  1.00

> <Gold.PLP.Chemscore.Internal.Correction>
0.1327

> <Gold.Rescore>
     Score         DG    S(hbond)    S(metal)    S(lipo)     H(rot)  DE(clash)    DE(int)     intcor
     19.12     -22.53       1.48        0.00     135.36       1.46       2.41       0.99       ----

> <Gold.Chemscore.Fitness>
19.1207

> <Gold.Chemscore.DG>
-22.5291

> <Gold.Chemscore.ZeroCoef>
-5.4800

> <Gold.Chemscore.Hbond>
1.4798

> <Gold.Chemscore.Metal>
0.0000

> <Gold.Chemscore.Lipo>
135.3586

> <Gold.Chemscore.Internal_Hbond>
0.0000

> <Gold.Chemscore.DEClash>
2.4143

> <Gold.Chemscore.DEInternal>
0.9941

> <Gold.Chemscore.Rot>
1.4572

> <Gold.Chemscore.Internal.Correction>
   9.000000E+99

> <Gold.Chemscore.Hbonds>
donor molecule, donor type, donor heavy atom, donor atom, acceptor molecule, acceptor atom, score
      L1  H    15    53       P1  8028  0.84
      P1  H  7989  7998       L1     1  0.34

> <Gold.Chemscore.Hbond.Weighted>
-4.9426

> <Gold.Chemscore.Metal.Weighted>
-0.0000

> <Gold.Chemscore.Lipo.Weighted>
-15.8370

> <Gold.Chemscore.Internal_Hbond.Weighted>
0.0000

> <Gold.Chemscore.DEClash.Weighted>
2.4143

> <Gold.Chemscore.DEInternal.Weighted>
0.9941

> <Gold.Chemscore.Rot.Weighted>
3.7305

> <Gold.Chemscore.Internal.Correction.Weighted>
   9.000000E+99

> <Gold.Protein.RotatedTorsions>
[ 6907 6896 6895 6894 ] final  -49.32 input  -60.11 | X-H torsion
[ 7974 7965 7964 7962 ] final   12.52 input  175.53 | X-H torsion
[ 8008 7997 7996 7995 ] final  -16.02 input   59.86 | X-H torsion
[ 10167 10162 10161 10158 ] final  -35.71 input  -65.29 | X-H torsion
[ 10718 10713 10712 10709 ] final  -56.00 input   66.30 | X-H torsion
[ 10763 10752 10751 10750 ] final  -94.73 input  -60.55 | X-H torsion
[ 11005 11000 10999 10996 ] final  -35.23 input  -57.11 | X-H torsion

> <Gold.Protein.ActiveResidues>
 VAL166  LYS551  ARG553  GLY616  TRP617  ASP618  TYR619  PRO620  LYS621  CYS622 
 ASP623  PHE694  ASN695  SER759  ASP760  ASP761  ALA762  ILE779  LEU786  VAL792 
 PHE793  MET794  SER795  GLU796  ALA797  LYS798  CYS799  TRP800  GLU811  SER814 

> <Gold.Protein.RotatedAtoms>
  150.8817  134.8209  159.7229 H   0  0  0  0  0  0  0  0  0  0  0  0  # atno 6907 bound_to 6896
  152.4782  134.4786  159.9668 H   0  0  0  0  0  0  0  0  0  0  0  0  # atno 6908 bound_to 6896
  151.4860  133.3497  159.2881 H   0  0  0  0  0  0  0  0  0  0  0  0  # atno 6909 bound_to 6896
  146.2349  139.9324  142.8494 H   0  0  0  0  0  0  0  0  0  0  0  0  # atno 7974 bound_to 7965
  154.5085  140.2180  155.9204 H   0  0  0  0  0  0  0  0  0  0  0  0  # atno 8008 bound_to 7997
  156.1523  140.3159  155.8634 H   0  0  0  0  0  0  0  0  0  0  0  0  # atno 8009 bound_to 7997
  155.3915  140.0478  157.3031 H   0  0  0  0  0  0  0  0  0  0  0  0  # atno 8010 bound_to 7997
  140.7159  143.3459  151.2258 H   0  0  0  0  0  0  0  0  0  0  0  0  # atno 10167 bound_to 10162
  156.1323  130.4158  150.0246 H   0  0  0  0  0  0  0  0  0  0  0  0  # atno 10718 bound_to 10713
  154.7082  135.5147  153.8627 H   0  0  0  0  0  0  0  0  0  0  0  0  # atno 10763 bound_to 10752
  153.0759  135.6616  154.0156 H   0  0  0  0  0  0  0  0  0  0  0  0  # atno 10764 bound_to 10752
  154.0003  135.3011  155.3383 H   0  0  0  0  0  0  0  0  0  0  0  0  # atno 10765 bound_to 10752
  140.9780  133.7072  156.1635 H   0  0  0  0  0  0  0  0  0  0  0  0  # atno 11005 bound_to 11000
  145.2031  140.9863  143.4144 LP  0  0  0  0  0  0  0  0  0  0  0  0  # atno 17320 bound_to 7965
  144.9756  139.3835  143.6287 LP  0  0  0  0  0  0  0  0  0  0  0  0  # atno 17321 bound_to 7965
  139.6978  143.9584  152.2891 LP  0  0  0  0  0  0  0  0  0  0  0  0  # atno 17342 bound_to 10162
  139.9267  144.6767  150.8405 LP  0  0  0  0  0  0  0  0  0  0  0  0  # atno 17343 bound_to 10162
  156.8155  130.9340  151.3643 LP  0  0  0  0  0  0  0  0  0  0  0  0  # atno 17370 bound_to 10713
  157.6500  130.8876  149.9614 LP  0  0  0  0  0  0  0  0  0  0  0  0  # atno 17371 bound_to 10713
  140.7230  134.4338  157.5573 LP  0  0  0  0  0  0  0  0  0  0  0  0  # atno 17394 bound_to 11000
  139.8938  134.8721  156.2205 LP  0  0  0  0  0  0  0  0  0  0  0  0  # atno 17395 bound_to 11000

$$$$
