AV-unprocessed.smi:2474|AV-procd|sdf|9752|dock3
  -GOLD-   2272013393D 1   1.00000     0.00000
 Structure written by MMmdl.
 40 41  0  0  0  0  0  0  0  0  1 V2000
  154.2762  139.9859  161.5216 C   0  0  0  0  0  0  0  0  0  0  0  0
  153.5626  141.2725  161.2806 C   0  0  0  0  0  0  0  0  0  0  0  0
  152.9771  142.0960  162.2102 C   0  0  0  0  0  0  0  0  0  0  0  0
  152.3895  143.2381  161.6621 N   0  0  0  0  0  0  0  0  0  0  0  0
  152.5130  143.2886  160.3327 C   0  0  0  0  0  0  0  0  0  0  0  0
  151.9941  144.4133  159.4886 C   0  0  1  0  0  0  0  0  0  0  0  0
  152.7801  144.5661  158.1787 C   0  0  0  0  0  0  0  0  0  0  0  0
  150.4648  144.3572  159.2707 C   0  0  0  0  0  0  0  0  0  0  0  0
  150.0887  143.7444  157.9993 N   0  0  0  0  0  0  0  0  0  0  0  0
  150.0828  142.4281  157.7501 C   0  0  0  0  0  0  0  0  0  0  0  0
  150.3617  141.5667  158.5842 O   0  0  0  0  0  0  0  0  0  0  0  0
  149.7592  142.1664  156.4763 N   0  0  0  0  0  0  0  0  0  0  0  0
  149.7189  140.8375  155.8737 C   0  0  2  0  0  0  0  0  0  0  0  0
  151.1524  140.2981  155.6859 C   0  0  0  0  0  0  0  0  0  0  0  0
  151.1767  138.8768  155.1006 C   0  0  0  0  0  0  0  0  0  0  0  0
  150.5194  138.8015  153.7153 C   0  0  0  0  0  0  0  0  0  0  0  0
  148.7684  139.2659  153.7930 S   0  0  0  0  0  0  0  0  0  0  0  0
  148.9568  140.9087  154.5391 C   0  0  0  0  0  0  0  0  0  0  0  0
  153.3856  141.9115  159.6678 S   0  0  0  0  0  0  0  0  0  0  0  0
  154.2845  139.7333  162.5821 H   0  0  0  0  0  0  0  0  0  0  0  0
  155.3104  140.0482  161.1822 H   0  0  0  0  0  0  0  0  0  0  0  0
  153.7920  139.1697  160.9853 H   0  0  0  0  0  0  0  0  0  0  0  0
  152.9341  141.9483  163.2791 H   0  0  0  0  0  0  0  0  0  0  0  0
  152.1914  145.3240  160.0555 H   0  0  0  0  0  0  0  0  0  0  0  0
  153.8424  144.7155  158.3738 H   0  0  0  0  0  0  0  0  0  0  0  0
  152.4256  145.4235  157.6059 H   0  0  0  0  0  0  0  0  0  0  0  0
  152.6780  143.6815  157.5494 H   0  0  0  0  0  0  0  0  0  0  0  0
  149.9779  143.8350  160.0957 H   0  0  0  0  0  0  0  0  0  0  0  0
  150.0616  145.3703  159.2675 H   0  0  0  0  0  0  0  0  0  0  0  0
  149.8462  144.3727  157.2472 H   0  0  0  0  0  0  0  0  0  0  0  0
  149.5474  142.9457  155.8707 H   0  0  0  0  0  0  0  0  0  0  0  0
  149.1719  140.1664  156.5391 H   0  0  0  0  0  0  0  0  0  0  0  0
  151.7203  140.9695  155.0405 H   0  0  0  0  0  0  0  0  0  0  0  0
  151.6706  140.2898  156.6458 H   0  0  0  0  0  0  0  0  0  0  0  0
  152.2103  138.5376  155.0257 H   0  0  0  0  0  0  0  0  0  0  0  0
  150.6778  138.1878  155.7834 H   0  0  0  0  0  0  0  0  0  0  0  0
  151.0317  139.4611  153.0140 H   0  0  0  0  0  0  0  0  0  0  0  0
  150.5950  137.7897  153.3165 H   0  0  0  0  0  0  0  0  0  0  0  0
  147.9625  141.3298  154.6908 H   0  0  0  0  0  0  0  0  0  0  0  0
  149.4759  141.5590  153.8339 H   0  0  0  0  0  0  0  0  0  0  0  0
  1  2  1  0  0  0  0
  1 20  1  0  0  0  0
  1 21  1  0  0  0  0
  1 22  1  0  0  0  0
  2 19  1  0  0  0  0
  2  3  2  0  0  0  0
  3  4  1  0  0  0  0
  3 23  1  0  0  0  0
  4  5  2  0  0  0  0
  5  6  1  0  0  0  0
  5 19  1  0  0  0  0
  6  7  1  0  0  0  0
  6  8  1  0  0  0  0
  6 24  1  0  0  0  0
  7 25  1  0  0  0  0
  7 26  1  0  0  0  0
  7 27  1  0  0  0  0
  8  9  1  0  0  0  0
  8 28  1  0  0  0  0
  8 29  1  0  0  0  0
  9 10  1  0  0  0  0
  9 30  1  0  0  0  0
 10 11  2  0  0  0  0
 10 12  1  0  0  0  0
 12 13  1  0  0  0  0
 12 31  1  0  0  0  0
 13 18  1  0  0  0  0
 13 14  1  0  0  0  0
 13 32  1  0  0  0  0
 14 15  1  0  0  0  0
 14 33  1  0  0  0  0
 14 34  1  0  0  0  0
 15 16  1  0  0  0  0
 15 35  1  0  0  0  0
 15 36  1  0  0  0  0
 16 17  1  0  0  0  0
 16 37  1  0  0  0  0
 16 38  1  0  0  0  0
 17 18  1  0  0  0  0
 18 39  1  0  0  0  0
 18 40  1  0  0  0  0
M  END
> <s_m_source_file>
AV-unprocessed.smi

> <i_m_source_file_index>
2474

> <i_lp_mmshare_version>
43012

> <i_f3d_flags>
0

> <s_epik_input>
W0NIM11jMVtjSF1uYyhzMSlbQ0BIXShbQ0gzXSlbQ0gyXVtOSF1DKD1PKVtOSF1bQ0BASF0yW0NIMl1bQ0gyXVtDSDJdU1tDSDJdMg==

> <s_epik_cmdline>
J2VwaWtfcHl0aG9uJywgJy1waCcsICc3LjAnLCAnLXRuJywgJzgnLCAnLW1hJywgJzIwMCcsICctbWV0YWxfYmluZGluZycsICctaW1hZScsICc8aW5maWxlLm1hZT4nLCAnLW9tYWUnLCAnPG91dGZpbGUubWFlPic=

> <r_epik_Ionization_Penalty>
0.000644338

> <r_epik_Ionization_Penalty_Charging>
0

> <r_epik_Ionization_Penalty_Neutral>
0.000644338

> <r_epik_State_Penalty>
0.000374131

> <r_epik_Charging_Adjusted_Penalty>
0.000374131

> <i_epik_Tot_Q>
0

> <i_epik_Tot_abs_Q>
0

> <r_epik_Metal_State_Penalty>
-0

> <b_epik_Metal_Only>
0

> <s_lp_Force_Field>
OPLS_2005

> <r_lp_Energy>
-6.48006

> <b_lp_Chiralities_Consistent>
1

> <s_lp_Variant>
AV-unprocessed.smi:2474-2

> <Gold.Version>
5.8.1

> <Gold.Id.Protein>
6NUR|6NUR_protein|mol2

> <Gold.PLP.Fitness>
53.7375

> <Gold.PLP.PLP>
-50.2291

> <Gold.PLP.part.hbond>
-2.9524

> <Gold.PLP.part.metal>
0.0000

> <Gold.PLP.part.buried>
-6.6303

> <Gold.PLP.part.nonpolar>
-41.4829

> <Gold.PLP.part.repulsive>
0.2537

> <Gold.PLP.ligand.clash>
0.0000

> <Gold.PLP.ligand.torsion>
1.2742

> <Gold.PLP.Chemscore.Hbond>
1.9760

> <Gold.PLP.Chemscore.CHOScore>
0.0000

> <Gold.PLP.Chemscore.Metal>
0.0000

> <Gold.Chemscore.Hbonds>
donor molecule, donor type, donor heavy atom, donor atom, acceptor molecule, acceptor atom, score
      L1  H     9    30       P1  8028  1.00
      L1  H    12    31       P1  8028  0.99

> <Gold.PLP.Chemscore.Internal.Correction>
0.1289

> <Gold.Rescore>
     Score         DG    S(hbond)    S(metal)    S(lipo)     H(rot)  DE(clash)    DE(int)     intcor
     19.90     -21.06       1.24        0.00     129.75       1.46       0.07       1.09       ----

> <Gold.Chemscore.Fitness>
19.9000

> <Gold.Chemscore.DG>
-21.0575

> <Gold.Chemscore.ZeroCoef>
-5.4800

> <Gold.Chemscore.Hbond>
1.2390

> <Gold.Chemscore.Metal>
0.0000

> <Gold.Chemscore.Lipo>
129.7506

> <Gold.Chemscore.Internal_Hbond>
0.0000

> <Gold.Chemscore.DEClash>
0.0677

> <Gold.Chemscore.DEInternal>
1.0897

> <Gold.Chemscore.Rot>
1.4616

> <Gold.Chemscore.Internal.Correction>
   9.000000E+99

> <Gold.Chemscore.Hbonds>
donor molecule, donor type, donor heavy atom, donor atom, acceptor molecule, acceptor atom, score
      L1  H     9    30       P1  8028  0.38
      L1  H    12    31       P1  8028  0.93

> <Gold.Chemscore.Hbond.Weighted>
-4.1382

> <Gold.Chemscore.Metal.Weighted>
-0.0000

> <Gold.Chemscore.Lipo.Weighted>
-15.1808

> <Gold.Chemscore.Internal_Hbond.Weighted>
0.0000

> <Gold.Chemscore.DEClash.Weighted>
0.0677

> <Gold.Chemscore.DEInternal.Weighted>
1.0897

> <Gold.Chemscore.Rot.Weighted>
3.7416

> <Gold.Chemscore.Internal.Correction.Weighted>
   9.000000E+99

> <Gold.Protein.RotatedTorsions>
[ 6907 6896 6895 6894 ] final  155.39 input  -60.11 | X-H torsion
[ 7974 7965 7964 7962 ] final -147.02 input  175.53 | X-H torsion
[ 8008 7997 7996 7995 ] final  136.74 input   59.86 | X-H torsion
[ 10167 10162 10161 10158 ] final -139.82 input  -65.29 | X-H torsion
[ 10718 10713 10712 10709 ] final    6.37 input   66.30 | X-H torsion
[ 10763 10752 10751 10750 ] final -169.90 input  -60.55 | X-H torsion
[ 11005 11000 10999 10996 ] final  113.28 input  -57.11 | X-H torsion

> <Gold.Protein.ActiveResidues>
 VAL166  LYS551  ARG553  GLY616  TRP617  ASP618  TYR619  PRO620  LYS621  CYS622 
 ASP623  PHE694  ASN695  SER759  ASP760  ASP761  ALA762  ILE779  LEU786  VAL792 
 PHE793  MET794  SER795  GLU796  ALA797  LYS798  CYS799  TRP800  GLU811  SER814 

> <Gold.Protein.RotatedAtoms>
  152.0449  133.3993  159.4352 H   0  0  0  0  0  0  0  0  0  0  0  0  # atno 6907 bound_to 6896
  150.6873  134.3373  159.4862 H   0  0  0  0  0  0  0  0  0  0  0  0  # atno 6908 bound_to 6896
  152.1176  134.9228  160.0615 H   0  0  0  0  0  0  0  0  0  0  0  0  # atno 6909 bound_to 6896
  144.8121  140.5381  143.5635 H   0  0  0  0  0  0  0  0  0  0  0  0  # atno 7974 bound_to 7965
  156.3003  140.2437  156.3795 H   0  0  0  0  0  0  0  0  0  0  0  0  # atno 8008 bound_to 7997
  154.8714  140.0416  157.1746 H   0  0  0  0  0  0  0  0  0  0  0  0  # atno 8009 bound_to 7997
  154.8791  140.2946  155.5439 H   0  0  0  0  0  0  0  0  0  0  0  0  # atno 8010 bound_to 7997
  139.8342  143.7407  152.2665 H   0  0  0  0  0  0  0  0  0  0  0  0  # atno 10167 bound_to 10162
  156.9212  130.5792  149.5648 H   0  0  0  0  0  0  0  0  0  0  0  0  # atno 10718 bound_to 10713
  154.6473  135.2906  155.0030 H   0  0  0  0  0  0  0  0  0  0  0  0  # atno 10763 bound_to 10752
  154.1135  135.6559  153.4893 H   0  0  0  0  0  0  0  0  0  0  0  0  # atno 10764 bound_to 10752
  153.0358  135.5271  154.7366 H   0  0  0  0  0  0  0  0  0  0  0  0  # atno 10765 bound_to 10752
  139.8949  134.9547  156.6715 H   0  0  0  0  0  0  0  0  0  0  0  0  # atno 11005 bound_to 11000
  145.5300  139.1475  143.3505 LP  0  0  0  0  0  0  0  0  0  0  0  0  # atno 17320 bound_to 7965
  146.2421  140.5440  142.8930 LP  0  0  0  0  0  0  0  0  0  0  0  0  # atno 17321 bound_to 7965
  139.7624  144.7502  151.0344 LP  0  0  0  0  0  0  0  0  0  0  0  0  # atno 17342 bound_to 10162
  140.7804  143.4736  151.0113 LP  0  0  0  0  0  0  0  0  0  0  0  0  # atno 17343 bound_to 10162
  156.0490  130.5562  150.8946 LP  0  0  0  0  0  0  0  0  0  0  0  0  # atno 17370 bound_to 10713
  157.5906  131.0944  150.9124 LP  0  0  0  0  0  0  0  0  0  0  0  0  # atno 17371 bound_to 10713
  140.7370  133.9010  155.8251 LP  0  0  0  0  0  0  0  0  0  0  0  0  # atno 17394 bound_to 11000
  141.0108  134.1023  157.4223 LP  0  0  0  0  0  0  0  0  0  0  0  0  # atno 17395 bound_to 11000

$$$$
