AV-unprocessed.smi:1281|AV-procd|sdf|5359|dock7
  -GOLD-   22720 4493D 1   1.00000     0.00000
 Structure written by MMmdl.
 45 46  0  0  0  0  0  0  0  0  1 V2000
  151.8987  144.0159  158.4465 C   0  0  0  0  0  0  0  0  0  0  0  0
  150.9571  143.0149  158.7890 O   0  0  0  0  0  0  0  0  0  0  0  0
  151.1456  141.8157  158.0549 C   0  0  0  0  0  0  0  0  0  0  0  0
  150.8316  142.0703  156.5719 C   0  0  0  0  0  0  0  0  0  0  0  0
  150.6272  140.8185  155.8347 N   0  0  0  0  0  0  0  0  0  0  0  0
  149.4014  140.7363  155.1955 N   0  0  0  0  0  0  0  0  0  0  0  0
  149.0919  139.6805  154.5147 C   0  0  0  0  0  0  0  0  0  0  0  0
  147.7814  139.5505  153.8196 C   0  0  0  0  0  0  0  0  0  0  0  0
  146.8296  140.2875  154.0833 O   0  0  0  0  0  0  0  0  0  0  0  0
  147.7156  138.5798  152.8902 N   0  0  0  0  0  0  0  0  0  0  0  0
  146.5420  138.2651  152.0844 C   0  0  0  0  0  0  0  0  0  0  0  0
  145.3927  137.7125  152.9459 C   0  0  0  0  0  0  0  0  0  0  0  0
  144.8336  136.4067  152.4067 C   0  0  0  0  0  0  0  0  0  0  0  0
  143.7689  135.8016  152.9687 C   0  0  0  0  0  0  0  0  0  0  0  0
  143.1808  134.4869  152.4868 C   0  0  0  0  0  0  0  0  0  0  0  0
  144.1180  133.7455  151.5189 C   0  0  0  0  0  0  0  0  0  0  0  0
  144.7375  134.7101  150.5002 C   0  0  0  0  0  0  0  0  0  0  0  0
  145.5501  135.8160  151.1974 C   0  0  0  0  0  0  0  0  0  0  0  0
  150.0215  138.5689  154.4024 C   0  0  0  0  0  0  0  0  0  0  0  0
  151.2106  138.6605  155.0374 C   0  0  0  0  0  0  0  0  0  0  0  0
  151.5808  139.8389  155.8230 C   0  0  0  0  0  0  0  0  0  0  0  0
  152.6515  139.9399  156.4213 O   0  0  0  0  0  0  0  0  0  0  0  0
  151.7106  144.9123  159.0374 H   0  0  0  0  0  0  0  0  0  0  0  0
  151.8227  144.2852  157.3921 H   0  0  0  0  0  0  0  0  0  0  0  0
  152.9176  143.6848  158.6518 H   0  0  0  0  0  0  0  0  0  0  0  0
  152.1812  141.4878  158.1559 H   0  0  0  0  0  0  0  0  0  0  0  0
  150.5137  141.0196  158.4518 H   0  0  0  0  0  0  0  0  0  0  0  0
  149.9496  142.7079  156.4885 H   0  0  0  0  0  0  0  0  0  0  0  0
  151.6426  142.6425  156.1184 H   0  0  0  0  0  0  0  0  0  0  0  0
  148.5417  138.0203  152.7327 H   0  0  0  0  0  0  0  0  0  0  0  0
  146.2307  139.1801  151.5805 H   0  0  0  0  0  0  0  0  0  0  0  0
  146.8089  137.5535  151.3012 H   0  0  0  0  0  0  0  0  0  0  0  0
  145.7419  137.5544  153.9673 H   0  0  0  0  0  0  0  0  0  0  0  0
  144.5842  138.4417  153.0099 H   0  0  0  0  0  0  0  0  0  0  0  0
  143.2764  136.2584  153.8148 H   0  0  0  0  0  0  0  0  0  0  0  0
  142.9610  133.8544  153.3473 H   0  0  0  0  0  0  0  0  0  0  0  0
  142.2294  134.7020  151.9997 H   0  0  0  0  0  0  0  0  0  0  0  0
  144.9160  133.2613  152.0832 H   0  0  0  0  0  0  0  0  0  0  0  0
  143.5738  132.9504  151.0087 H   0  0  0  0  0  0  0  0  0  0  0  0
  145.3728  134.1666  149.8005 H   0  0  0  0  0  0  0  0  0  0  0  0
  143.9416  135.1622  149.9067 H   0  0  0  0  0  0  0  0  0  0  0  0
  145.7744  136.6081  150.4822 H   0  0  0  0  0  0  0  0  0  0  0  0
  146.5061  135.4124  151.5320 H   0  0  0  0  0  0  0  0  0  0  0  0
  149.7745  137.6866  153.8299 H   0  0  0  0  0  0  0  0  0  0  0  0
  151.9103  137.8411  154.9640 H   0  0  0  0  0  0  0  0  0  0  0  0
  1  2  1  0  0  0  0
  1 23  1  0  0  0  0
  1 24  1  0  0  0  0
  1 25  1  0  0  0  0
  2  3  1  0  0  0  0
  3  4  1  0  0  0  0
  3 26  1  0  0  0  0
  3 27  1  0  0  0  0
  4  5  1  0  0  0  0
  4 28  1  0  0  0  0
  4 29  1  0  0  0  0
  5 21  1  0  0  0  0
  5  6  1  0  0  0  0
  6  7  2  0  0  0  0
  7  8  1  0  0  0  0
  7 19  1  0  0  0  0
  8  9  2  0  0  0  0
  8 10  1  0  0  0  0
 10 11  1  0  0  0  0
 10 30  1  0  0  0  0
 11 12  1  0  0  0  0
 11 31  1  0  0  0  0
 11 32  1  0  0  0  0
 12 13  1  0  0  0  0
 12 33  1  0  0  0  0
 12 34  1  0  0  0  0
 13 18  1  0  0  0  0
 13 14  2  0  0  0  0
 14 15  1  0  0  0  0
 14 35  1  0  0  0  0
 15 16  1  0  0  0  0
 15 36  1  0  0  0  0
 15 37  1  0  0  0  0
 16 17  1  0  0  0  0
 16 38  1  0  0  0  0
 16 39  1  0  0  0  0
 17 18  1  0  0  0  0
 17 40  1  0  0  0  0
 17 41  1  0  0  0  0
 18 42  1  0  0  0  0
 18 43  1  0  0  0  0
 19 20  2  0  0  0  0
 19 44  1  0  0  0  0
 20 21  1  0  0  0  0
 20 45  1  0  0  0  0
 21 22  2  0  0  0  0
M  END
> <s_m_source_file>
AV-unprocessed.smi

> <i_m_source_file_index>
1281

> <i_lp_mmshare_version>
43012

> <i_f3d_flags>
0

> <s_epik_input>
W0NIM11PW0NIMl1bQ0gyXW4xbmMoW2NIXVtjSF1jMT1PKUMoPU8pW05IXVtDSDJdW0NIMl1DMj1bQ0hdW0NIMl1bQ0gyXVtDSDJdW0NIMl0y

> <s_epik_cmdline>
J2VwaWtfcHl0aG9uJywgJy1waCcsICc3LjAnLCAnLXRuJywgJzgnLCAnLW1hJywgJzIwMCcsICctbWV0YWxfYmluZGluZycsICctaW1hZScsICc8aW5maWxlLm1hZT4nLCAnLW9tYWUnLCAnPG91dGZpbGUubWFlPic=

> <r_lp_tautomer_probability>
1

> <r_epik_Ionization_Penalty>
8.17845e-07

> <r_epik_Ionization_Penalty_Charging>
5.79962e-09

> <r_epik_Ionization_Penalty_Neutral>
8.12046e-07

> <r_epik_State_Penalty>
-0

> <r_epik_Charging_Adjusted_Penalty>
5.79962e-09

> <i_epik_Tot_Q>
0

> <i_epik_Tot_abs_Q>
0

> <r_epik_Metal_State_Penalty>
-0

> <b_epik_Metal_Only>
0

> <s_lp_Force_Field>
OPLS_2005

> <r_lp_Energy>
28.483

> <b_lp_Chiralities_Consistent>
1

> <s_lp_Variant>
AV-unprocessed.smi:1281-1

> <Gold.Version>
5.8.1

> <Gold.Id.Protein>
6NUR|6NUR_protein|mol2

> <Gold.PLP.Fitness>
50.5825

> <Gold.PLP.PLP>
-46.1799

> <Gold.PLP.part.hbond>
-3.0000

> <Gold.PLP.part.metal>
0.0000

> <Gold.PLP.part.buried>
-2.5327

> <Gold.PLP.part.nonpolar>
-40.2479

> <Gold.PLP.part.repulsive>
0.3497

> <Gold.PLP.ligand.clash>
0.0000

> <Gold.PLP.ligand.torsion>
0.6012

> <Gold.PLP.Chemscore.Hbond>
1.8160

> <Gold.PLP.Chemscore.CHOScore>
0.0000

> <Gold.PLP.Chemscore.Metal>
0.0000

> <Gold.Chemscore.Hbonds>
donor molecule, donor type, donor heavy atom, donor atom, acceptor molecule, acceptor atom, score
      L1  H    10    30       P1  7948  0.74
      P1  H  7997  8008       L1    22  1.00

> <Gold.PLP.Chemscore.Internal.Correction>
0.1570

> <Gold.Rescore>
     Score         DG    S(hbond)    S(metal)    S(lipo)     H(rot)  DE(clash)    DE(int)     intcor
     17.34     -18.06       1.85        0.00      95.52       1.86       0.07       0.65       ----

> <Gold.Chemscore.Fitness>
17.3362

> <Gold.Chemscore.DG>
-18.0572

> <Gold.Chemscore.ZeroCoef>
-5.4800

> <Gold.Chemscore.Hbond>
1.8489

> <Gold.Chemscore.Metal>
0.0000

> <Gold.Chemscore.Lipo>
95.5210

> <Gold.Chemscore.Internal_Hbond>
0.0000

> <Gold.Chemscore.DEClash>
0.0663

> <Gold.Chemscore.DEInternal>
0.6547

> <Gold.Chemscore.Rot>
1.8649

> <Gold.Chemscore.Internal.Correction>
   9.000000E+99

> <Gold.Chemscore.Hbonds>
donor molecule, donor type, donor heavy atom, donor atom, acceptor molecule, acceptor atom, score
      L1  H    10    30       P1  7948  0.70
      P1  H  7997  8008       L1    22  0.99

> <Gold.Chemscore.Hbond.Weighted>
-6.1754

> <Gold.Chemscore.Metal.Weighted>
-0.0000

> <Gold.Chemscore.Lipo.Weighted>
-11.1760

> <Gold.Chemscore.Internal_Hbond.Weighted>
0.0000

> <Gold.Chemscore.DEClash.Weighted>
0.0663

> <Gold.Chemscore.DEInternal.Weighted>
0.6547

> <Gold.Chemscore.Rot.Weighted>
4.7741

> <Gold.Chemscore.Internal.Correction.Weighted>
   9.000000E+99

> <Gold.Protein.RotatedTorsions>
[ 6907 6896 6895 6894 ] final -122.51 input  -60.11 | X-H torsion
[ 7974 7965 7964 7962 ] final -140.60 input  175.53 | X-H torsion
[ 8008 7997 7996 7995 ] final  -37.40 input   59.86 | X-H torsion
[ 10167 10162 10161 10158 ] final   60.73 input  -65.29 | X-H torsion
[ 10718 10713 10712 10709 ] final  -91.47 input   66.30 | X-H torsion
[ 10763 10752 10751 10750 ] final   59.36 input  -60.55 | X-H torsion
[ 11005 11000 10999 10996 ] final  -27.37 input  -57.11 | X-H torsion

> <Gold.Protein.ActiveResidues>
 VAL166  LYS551  ARG553  GLY616  TRP617  ASP618  TYR619  PRO620  LYS621  CYS622 
 ASP623  PHE694  ASN695  SER759  ASP760  ASP761  ALA762  ILE779  LEU786  VAL792 
 PHE793  MET794  SER795  GLU796  ALA797  LYS798  CYS799  TRP800  GLU811  SER814 

> <Gold.Protein.RotatedAtoms>
  150.8583  133.7682  159.3000 H   0  0  0  0  0  0  0  0  0  0  0  0  # atno 6907 bound_to 6896
  151.5332  135.1067  159.9917 H   0  0  0  0  0  0  0  0  0  0  0  0  # atno 6908 bound_to 6896
  152.4607  133.7772  159.6887 H   0  0  0  0  0  0  0  0  0  0  0  0  # atno 6909 bound_to 6896
  144.8585  140.6181  143.5344 H   0  0  0  0  0  0  0  0  0  0  0  0  # atno 7974 bound_to 7965
  154.4054  140.1605  156.2531 H   0  0  0  0  0  0  0  0  0  0  0  0  # atno 8008 bound_to 7997
  155.9102  140.3428  155.6070 H   0  0  0  0  0  0  0  0  0  0  0  0  # atno 8009 bound_to 7997
  155.7345  140.0784  157.2264 H   0  0  0  0  0  0  0  0  0  0  0  0  # atno 8010 bound_to 7997
  140.1625  144.4356  150.6702 H   0  0  0  0  0  0  0  0  0  0  0  0  # atno 10167 bound_to 10162
  155.9994  130.4949  150.5479 H   0  0  0  0  0  0  0  0  0  0  0  0  # atno 10718 bound_to 10713
  152.9893  135.5574  154.5701 H   0  0  0  0  0  0  0  0  0  0  0  0  # atno 10763 bound_to 10752
  154.5103  135.2802  155.1350 H   0  0  0  0  0  0  0  0  0  0  0  0  # atno 10764 bound_to 10752
  154.2744  135.6357  153.5375 H   0  0  0  0  0  0  0  0  0  0  0  0  # atno 10765 bound_to 10752
  140.9113  133.7459  156.0674 H   0  0  0  0  0  0  0  0  0  0  0  0  # atno 11005 bound_to 11000
  145.4359  139.1542  143.3997 LP  0  0  0  0  0  0  0  0  0  0  0  0  # atno 17320 bound_to 7965
  146.2842  140.4478  142.8764 LP  0  0  0  0  0  0  0  0  0  0  0  0  # atno 17321 bound_to 7965
  140.6634  143.2259  151.5801 LP  0  0  0  0  0  0  0  0  0  0  0  0  # atno 17342 bound_to 10162
  139.5375  144.2741  152.1281 LP  0  0  0  0  0  0  0  0  0  0  0  0  # atno 17343 bound_to 10162
  157.3406  131.0716  151.1791 LP  0  0  0  0  0  0  0  0  0  0  0  0  # atno 17370 bound_to 10713
  157.2641  130.6673  149.5988 LP  0  0  0  0  0  0  0  0  0  0  0  0  # atno 17371 bound_to 10713
  140.8107  134.3403  157.5412 LP  0  0  0  0  0  0  0  0  0  0  0  0  # atno 17394 bound_to 11000
  139.8758  134.9252  156.3369 LP  0  0  0  0  0  0  0  0  0  0  0  0  # atno 17395 bound_to 11000

$$$$
