#       Name:                AV-unprocessed.smi:618
#       Creating user name   scv26
#       Creation time:       Fri Mar 27 00:00:21 2020


#       File generated by GOLD software.
#

@<TRIPOS>MOLECULE
AV-unprocessed.smi:618
    46    48     1
SMALL
NO_CHARGES


@<TRIPOS>ATOM
      1 ****        -0.4306   1.8538   1.8287 O.2            1 S1                 0.0000
      2 ****        -0.8945   0.7324   2.0303 C.2            1 S1                 0.0000
      3 ****        -0.1404  -0.3718   2.1218 N.am           1 S1                 0.0000
      4 ****         1.3129  -0.4138   1.9819 C.3            1 S1                 0.0000
      5 ****         1.7802  -0.5385   0.5169 C.3            1 S1                 0.0000
      6 ****         1.1397  -1.7204  -0.2431 C.3            1 S1                 0.0000
      7 ****         1.5435  -1.7452  -1.6680 N.4            1 S1                 1.0000
      8 ****         2.8661  -2.3339  -1.9710 C.3            1 S1                 0.0000
      9 ****         3.3733  -1.6231  -3.2358 C.3            1 S1                 0.0000
     10 ****         2.2576  -0.6517  -3.6368 C.3            1 S1                 0.0000
     11 ****         1.4628  -0.4363  -2.3479 C.3            1 S1                 0.0000
     12 ****         2.0588   0.6914  -1.4754 C.3            1 S1                 0.0000
     13 ****         1.4860   0.6688  -0.1759 O.3            1 S1                 0.0000
     14 ****        -2.1962   0.4430   2.1979 N.am           1 S1                 0.0000
     15 ****        -3.3186   1.3149   2.1594 C.ar           1 S1                 0.0000
     16 ****        -3.3076   2.6168   1.6014 C.ar           1 S1                 0.0000
     17 ****        -4.4961   3.3719   1.6144 C.ar           1 S1                 0.0000
     18 ****        -5.6523   2.7984   2.1778 C.ar           1 S1                 0.0000
     19 ****        -5.6807   1.5556   2.7027 N.ar           1 S1                 0.0000
     20 ****        -4.5377   0.8375   2.6867 C.ar           1 S1                 0.0000
     21 ****        -0.6052  -1.2496   2.3022 H              1 S1                 0.0000
     22 ****         1.7672   0.4604   2.4513 H              1 S1                 0.0000
     23 ****         1.6674  -1.2770   2.5456 H              1 S1                 0.0000
     24 ****         2.8637  -0.6665   0.5384 H              1 S1                 0.0000
     25 ****         1.3836  -2.6716   0.2315 H              1 S1                 0.0000
     26 ****         0.0533  -1.6297  -0.2223 H              1 S1                 0.0000
     27 ****         3.5650  -2.1745  -1.1490 H              1 S1                 0.0000
     28 ****         2.7685  -3.4097  -2.1189 H              1 S1                 0.0000
     29 ****         4.2880  -1.0735  -3.0094 H              1 S1                 0.0000
     30 ****         3.6033  -2.3249  -4.0382 H              1 S1                 0.0000
     31 ****         2.6364   0.2753  -4.0691 H              1 S1                 0.0000
     32 ****         1.6175  -1.1245  -4.3829 H              1 S1                 0.0000
     33 ****         0.4188  -0.2059  -2.5645 H              1 S1                 0.0000
     34 ****         3.1441   0.6066  -1.3970 H              1 S1                 0.0000
     35 ****         1.8557   1.6608  -1.9311 H              1 S1                 0.0000
     36 ****        -2.4089  -0.5179   2.4227 H              1 S1                 0.0000
     37 ****        -2.4256   3.0475   1.1549 H              1 S1                 0.0000
     38 ****        -4.5217   4.3681   1.1981 H              1 S1                 0.0000
     39 ****        -6.5801   3.3505   2.2024 H              1 S1                 0.0000
     40 ****        -4.5992  -0.1535   3.1126 H              1 S1                 0.0000
     41 ****         0.8814  -2.3409  -2.1447 H              1 S1                 0.0000
     42 ****         0.5565   1.9752   1.7241 LP             1 S1                 0.0000
     43 ****        -1.0406   2.6440   1.7695 LP             1 S1                 0.0000
     44 ****         1.8480   1.4387   0.3497 LP             1 S1                 0.0000
     45 ****         0.4936   0.7593  -0.2591 LP             1 S1                 0.0000
     46 ****        -6.5215   1.1786   3.0911 LP             1 S1                 0.0000
@<TRIPOS>BOND
    1    1    2 2     
    2    2    3 am    
    3    2   14 am    
    4    3    4 1     
    5    3   21 1     
    6    4    5 1     
    7    4   22 1     
    8    4   23 1     
    9    5   13 1     
   10    5    6 1     
   11    5   24 1     
   12    6    7 1     
   13    6   25 1     
   14    6   26 1     
   15    7   11 1     
   16    7    8 1     
   17    7   41 1     
   18    8    9 1     
   19    8   27 1     
   20    8   28 1     
   21    9   10 1     
   22    9   29 1     
   23    9   30 1     
   24   10   11 1     
   25   10   31 1     
   26   10   32 1     
   27   11   12 1     
   28   11   33 1     
   29   12   13 1     
   30   12   34 1     
   31   12   35 1     
   32   14   15 1     
   33   14   36 1     
   34   15   20 ar    
   35   15   16 ar    
   36   16   17 ar    
   37   16   37 1     
   38   17   18 ar    
   39   17   38 1     
   40   18   19 ar    
   41   18   39 1     
   42   19   20 ar    
   43   20   40 1     
   44    1   42 1     
   45    1   43 1     
   46   13   44 1     
   47   13   45 1     
   48   19   46 1     
@<TRIPOS>SUBSTRUCTURE
      1 S1             1
@<TRIPOS>SET
LONE_PAIRS      STATIC     ATOMS    <user>   **** ""
5 42 43 44 45 46
DONOR_HYDROGENS      STATIC     ATOMS    <user>   **** ""
3 21 41 36
ATOM$BLUE        STATIC     ATOMS    COLORGROUP SYSTEM
5 42 43 44 45 46
ATOM$RED        STATIC     ATOMS    COLORGROUP SYSTEM
3 21 41 36
