AV-unprocessed.smi:2156|AV-procd|sdf|8781|dock6
  -GOLD-   2272011563D 1   1.00000     0.00000
 Structure written by MMmdl.
 33 33  0  0  0  0  0  0  0  0  2 V2000
  153.1753  142.6418  162.7583 C   0  0  0  0  0  0  0  0  0  0  0  0
  153.1647  142.5678  161.2274 C   0  0  0  0  0  0  0  0  0  0  0  0
  152.1812  143.5697  160.5979 C   0  0  0  0  0  0  0  0  0  0  0  0
  152.4201  143.8209  159.0967 C   0  0  2  0  0  0  0  0  0  0  0  0
  152.1803  145.2953  158.7314 C   0  0  0  0  0  0  0  0  0  0  0  0
  151.5582  142.9545  158.2957 N   0  0  0  0  0  0  0  0  0  0  0  0
  151.4813  141.6192  158.4018 C   0  0  0  0  0  0  0  0  0  0  0  0
  152.1663  140.9652  159.1897 O   0  0  0  0  0  0  0  0  0  0  0  0
  150.4962  140.9277  157.4485 C   0  0  0  0  0  0  0  0  0  0  0  0
  150.8892  139.5521  157.1017 N   0  0  0  0  0  0  0  0  0  0  0  0
  150.9439  138.6071  158.1413 C   0  0  0  0  0  0  0  0  0  0  0  0
  151.2881  137.3244  157.9184 C   0  0  0  0  0  0  0  0  0  0  0  0
  151.6095  136.9232  156.5545 C   0  0  0  0  0  0  0  0  0  0  0  0
  151.9306  135.7572  156.3331 O   0  0  0  0  0  0  0  0  0  0  0  0
  151.5375  137.8757  155.5791 N   0  5  0  0  0  0  0  0  0  0  0  0
  151.1841  139.1765  155.8205 C   0  0  0  0  0  0  0  0  0  0  0  0
  151.1236  140.0202  154.9255 O   0  0  0  0  0  0  0  0  0  0  0  0
  153.8808  141.9240  163.1771 H   0  0  0  0  0  0  0  0  0  0  0  0
  152.1905  142.4187  163.1696 H   0  0  0  0  0  0  0  0  0  0  0  0
  153.4664  143.6342  163.1035 H   0  0  0  0  0  0  0  0  0  0  0  0
  154.1708  142.7584  160.8521 H   0  0  0  0  0  0  0  0  0  0  0  0
  152.9112  141.5514  160.9245 H   0  0  0  0  0  0  0  0  0  0  0  0
  151.1589  143.2215  160.7517 H   0  0  0  0  0  0  0  0  0  0  0  0
  152.2606  144.5180  161.1312 H   0  0  0  0  0  0  0  0  0  0  0  0
  153.4622  143.5796  158.8781 H   0  0  0  0  0  0  0  0  0  0  0  0
  152.8227  145.9529  159.3173 H   0  0  0  0  0  0  0  0  0  0  0  0
  151.1462  145.5871  158.9179 H   0  0  0  0  0  0  0  0  0  0  0  0
  152.3952  145.4841  157.6792 H   0  0  0  0  0  0  0  0  0  0  0  0
  150.9612  143.4074  157.6191 H   0  0  0  0  0  0  0  0  0  0  0  0
  149.4979  140.9311  157.8903 H   0  0  0  0  0  0  0  0  0  0  0  0
  150.4119  141.5371  156.5478 H   0  0  0  0  0  0  0  0  0  0  0  0
  150.6851  138.9844  159.1198 H   0  0  0  0  0  0  0  0  0  0  0  0
  151.3229  136.6101  158.7279 H   0  0  0  0  0  0  0  0  0  0  0  0
  1  2  1  0  0  0  0
  1 18  1  0  0  0  0
  1 19  1  0  0  0  0
  1 20  1  0  0  0  0
  2  3  1  0  0  0  0
  2 21  1  0  0  0  0
  2 22  1  0  0  0  0
  3  4  1  0  0  0  0
  3 23  1  0  0  0  0
  3 24  1  0  0  0  0
  4  5  1  0  0  0  0
  4  6  1  0  0  0  0
  4 25  1  0  0  0  0
  5 26  1  0  0  0  0
  5 27  1  0  0  0  0
  5 28  1  0  0  0  0
  6  7  1  0  0  0  0
  6 29  1  0  0  0  0
  7  8  2  0  0  0  0
  7  9  1  0  0  0  0
  9 10  1  0  0  0  0
  9 30  1  0  0  0  0
  9 31  1  0  0  0  0
 10 16  1  0  0  0  0
 10 11  1  0  0  0  0
 11 12  2  0  0  0  0
 11 32  1  0  0  0  0
 12 13  1  0  0  0  0
 12 33  1  0  0  0  0
 13 14  2  0  0  0  0
 13 15  1  0  0  0  0
 15 16  1  0  0  0  0
 16 17  2  0  0  0  0
M  CHG  1  15  -1
M  END
> <s_m_source_file>
AV-unprocessed.smi

> <i_m_source_file_index>
2156

> <i_lp_mmshare_version>
43012

> <i_f3d_flags>
0

> <s_epik_input>
W0NIM11bQ0gyXVtDSDJdW0NASF0oW0NIM10pW05IXUMoPU8pW0NIMl1uMVtjSF1bY0hdYyg9TylbbkhdYzE9Tw==

> <s_epik_cmdline>
J2VwaWtfcHl0aG9uJywgJy1waCcsICc3LjAnLCAnLXRuJywgJzgnLCAnLW1hJywgJzIwMCcsICctbWV0YWxfYmluZGluZycsICctaW1hZScsICc8aW5maWxlLm1hZT4nLCAnLW9tYWUnLCAnPG91dGZpbGUubWFlPic=

> <r_lp_tautomer_probability>
0.999537

> <r_epik_Ionization_Penalty>
3.08607

> <r_epik_Ionization_Penalty_Charging>
2.78879e-08

> <r_epik_Ionization_Penalty_Neutral>
3.08607

> <r_epik_State_Penalty>
3.08511

> <r_epik_Charging_Adjusted_Penalty>
3.08511

> <i_epik_Tot_Q>
-1

> <i_epik_Tot_abs_Q>
1

> <r_epik_Metal_State_Penalty>
0.460479

> <b_epik_Metal_Only>
1

> <s_lp_Force_Field>
OPLS_2005

> <r_lp_Energy>
12.6721

> <b_lp_Chiralities_Consistent>
1

> <s_lp_Variant>
AV-unprocessed.smi:2156-3

> <Gold.Version>
5.8.1

> <Gold.Id.Protein>
6NUR|6NUR_protein|mol2

> <Gold.PLP.Fitness>
38.4278

> <Gold.PLP.PLP>
-34.3446

> <Gold.PLP.part.hbond>
-2.0000

> <Gold.PLP.part.metal>
0.0000

> <Gold.PLP.part.buried>
-6.4420

> <Gold.PLP.part.nonpolar>
-26.3366

> <Gold.PLP.part.repulsive>
0.1307

> <Gold.PLP.ligand.clash>
0.0000

> <Gold.PLP.ligand.torsion>
0.9677

> <Gold.PLP.Chemscore.Hbond>
2.0000

> <Gold.PLP.Chemscore.CHOScore>
0.0000

> <Gold.PLP.Chemscore.Metal>
0.0000

> <Gold.Chemscore.Hbonds>
donor molecule, donor type, donor heavy atom, donor atom, acceptor molecule, acceptor atom, score
      P1  H  7989  7998       L1    17  1.00
      P1  H 10752 10764       L1    14  1.00

> <Gold.PLP.Chemscore.Internal.Correction>
0.0186

> <Gold.Rescore>
     Score         DG    S(hbond)    S(metal)    S(lipo)     H(rot)  DE(clash)    DE(int)     intcor
     13.11     -15.59       1.99        0.00      76.29       2.14       0.02       2.46       ----

> <Gold.Chemscore.Fitness>
13.1112

> <Gold.Chemscore.DG>
-15.5856

> <Gold.Chemscore.ZeroCoef>
-5.4800

> <Gold.Chemscore.Hbond>
1.9912

> <Gold.Chemscore.Metal>
0.0000

> <Gold.Chemscore.Lipo>
76.2929

> <Gold.Chemscore.Internal_Hbond>
0.0000

> <Gold.Chemscore.DEClash>
0.0179

> <Gold.Chemscore.DEInternal>
2.4565

> <Gold.Chemscore.Rot>
2.1372

> <Gold.Chemscore.Internal.Correction>
   9.000000E+99

> <Gold.Chemscore.Hbonds>
donor molecule, donor type, donor heavy atom, donor atom, acceptor molecule, acceptor atom, score
      P1  H  7989  7998       L1    17  1.00
      P1  H 10752 10764       L1    14  0.97

> <Gold.Chemscore.Hbond.Weighted>
-6.6506

> <Gold.Chemscore.Metal.Weighted>
-0.0000

> <Gold.Chemscore.Lipo.Weighted>
-8.9263

> <Gold.Chemscore.Internal_Hbond.Weighted>
0.0000

> <Gold.Chemscore.DEClash.Weighted>
0.0179

> <Gold.Chemscore.DEInternal.Weighted>
2.4565

> <Gold.Chemscore.Rot.Weighted>
5.4713

> <Gold.Chemscore.Internal.Correction.Weighted>
   9.000000E+99

> <Gold.Protein.RotatedTorsions>
[ 6907 6896 6895 6894 ] final  120.34 input  -60.11 | X-H torsion
[ 7974 7965 7964 7962 ] final  107.27 input  175.53 | X-H torsion
[ 8008 7997 7996 7995 ] final -167.41 input   59.86 | X-H torsion
[ 10167 10162 10161 10158 ] final   71.36 input  -65.29 | X-H torsion
[ 10718 10713 10712 10709 ] final   11.77 input   66.30 | X-H torsion
[ 10763 10752 10751 10750 ] final  -20.92 input  -60.55 | X-H torsion
[ 11005 11000 10999 10996 ] final -121.79 input  -57.11 | X-H torsion

> <Gold.Protein.ActiveResidues>
 VAL166  LYS551  ARG553  GLY616  TRP617  ASP618  TYR619  PRO620  LYS621  CYS622 
 ASP623  PHE694  ASN695  SER759  ASP760  ASP761  ALA762  ILE779  LEU786  VAL792 
 PHE793  MET794  SER795  GLU796  ALA797  LYS798  CYS799  TRP800  GLU811  SER814 

> <Gold.Protein.RotatedAtoms>
  152.4405  133.7440  159.6656 H   0  0  0  0  0  0  0  0  0  0  0  0  # atno 6907 bound_to 6896
  150.8295  133.8104  159.3110 H   0  0  0  0  0  0  0  0  0  0  0  0  # atno 6908 bound_to 6896
  151.5762  135.1063  160.0058 H   0  0  0  0  0  0  0  0  0  0  0  0  # atno 6909 bound_to 6896
  145.2959  139.2585  143.3840 H   0  0  0  0  0  0  0  0  0  0  0  0  # atno 7974 bound_to 7965
  155.8773  140.1003  157.1509 H   0  0  0  0  0  0  0  0  0  0  0  0  # atno 8008 bound_to 7997
  154.4002  140.1335  156.4216 H   0  0  0  0  0  0  0  0  0  0  0  0  # atno 8009 bound_to 7997
  155.7683  140.3461  155.5236 H   0  0  0  0  0  0  0  0  0  0  0  0  # atno 8010 bound_to 7997
  140.0469  144.5344  150.7392 H   0  0  0  0  0  0  0  0  0  0  0  0  # atno 10167 bound_to 10162
  157.0004  130.6077  149.5696 H   0  0  0  0  0  0  0  0  0  0  0  0  # atno 10718 bound_to 10713
  153.6280  135.6990  153.5286 H   0  0  0  0  0  0  0  0  0  0  0  0  # atno 10763 bound_to 10752
  153.2883  135.4165  155.1143 H   0  0  0  0  0  0  0  0  0  0  0  0  # atno 10764 bound_to 10752
  154.8528  135.3619  154.5822 H   0  0  0  0  0  0  0  0  0  0  0  0  # atno 10765 bound_to 10752
  141.0043  134.0357  157.3497 H   0  0  0  0  0  0  0  0  0  0  0  0  # atno 11005 bound_to 11000
  146.3169  140.3461  142.8652 LP  0  0  0  0  0  0  0  0  0  0  0  0  # atno 17320 bound_to 7965
  144.9134  140.7784  143.5793 LP  0  0  0  0  0  0  0  0  0  0  0  0  # atno 17321 bound_to 7965
  140.7235  143.2612  151.4201 LP  0  0  0  0  0  0  0  0  0  0  0  0  # atno 17342 bound_to 10162
  139.5978  144.1360  152.2163 LP  0  0  0  0  0  0  0  0  0  0  0  0  # atno 17343 bound_to 10162
  156.0173  130.5268  150.8173 LP  0  0  0  0  0  0  0  0  0  0  0  0  # atno 17370 bound_to 10713
  157.5394  131.0940  150.9848 LP  0  0  0  0  0  0  0  0  0  0  0  0  # atno 17371 bound_to 10713
  139.9055  135.0178  156.7466 LP  0  0  0  0  0  0  0  0  0  0  0  0  # atno 17394 bound_to 11000
  140.6837  133.9451  155.7925 LP  0  0  0  0  0  0  0  0  0  0  0  0  # atno 17395 bound_to 11000

$$$$
