AV-unprocessed.smi:1244|AV-procd|sdf|5232|dock4
  -GOLD-   22720 4333D 1   1.00000     0.00000
 Structure written by MMmdl.
 56 58  0  0  0  0  0  0  0  0  3 V2000
  151.0687  142.2178  157.4108 C   0  0  0  0  0  0  0  0  0  0  0  0
  150.8544  141.5706  156.0379 C   0  0  1  0  0  0  0  0  0  0  0  0
  151.2503  140.0823  156.0302 C   0  0  0  0  0  0  0  0  0  0  0  0
  150.9576  139.4709  154.7102 N   0  3  1  0  0  0  0  0  0  0  0  0
  151.3565  138.0441  154.6213 C   0  0  0  0  0  0  0  0  0  0  0  0
  150.4505  137.1308  155.4693 C   0  0  0  0  0  0  0  0  0  0  0  0
  149.7315  136.1654  154.6457 N   0  0  0  0  0  0  0  0  0  0  0  0
  149.6848  134.8467  154.8838 C   0  0  0  0  0  0  0  0  0  0  0  0
  150.2149  134.3138  155.8586 O   0  0  0  0  0  0  0  0  0  0  0  0
  149.0122  134.1955  153.9201 N   0  0  0  0  0  0  0  0  0  0  0  0
  148.8290  132.7896  153.7914 C   0  0  0  0  0  0  0  0  0  0  0  0
  149.6097  131.8789  154.5485 C   0  0  0  0  0  0  0  0  0  0  0  0
  149.4263  130.4926  154.3877 C   0  0  0  0  0  0  0  0  0  0  0  0
  148.4609  130.0363  153.4740 C   0  0  0  0  0  0  0  0  0  0  0  0
  147.7201  130.9277  152.7835 N   0  3  0  0  0  0  0  0  0  0  0  0
  147.8392  132.2736  152.9048 C   0  0  0  0  0  0  0  0  0  0  0  0
  146.9870  133.0843  152.1212 N   0  0  0  0  0  0  0  0  0  0  0  0
  146.2153  132.5053  151.0278 C   0  0  0  0  0  0  0  0  0  0  0  0
  145.1883  133.5731  150.6606 C   0  0  0  0  0  0  0  0  0  0  0  0
  144.8722  134.2040  152.0136 C   0  0  0  0  0  0  0  0  0  0  0  0
  146.2027  134.1295  152.7705 C   0  0  0  0  0  0  0  0  0  0  0  0
  149.5365  139.6862  154.3489 C   0  0  0  0  0  0  0  0  0  0  0  0
  149.1851  141.1857  154.4022 C   0  0  1  0  0  0  0  0  0  0  0  0
  147.7023  141.4432  154.1126 C   0  0  0  0  0  0  0  0  0  0  0  0
  149.4761  141.6859  155.7024 O   0  0  0  0  0  0  0  0  0  0  0  0
  152.1137  142.1560  157.7158 H   0  0  0  0  0  0  0  0  0  0  0  0
  150.4669  141.7280  158.1769 H   0  0  0  0  0  0  0  0  0  0  0  0
  150.7904  143.2718  157.3926 H   0  0  0  0  0  0  0  0  0  0  0  0
  151.4507  142.1135  155.3021 H   0  0  0  0  0  0  0  0  0  0  0  0
  152.3105  139.9918  156.2645 H   0  0  0  0  0  0  0  0  0  0  0  0
  150.7051  139.5457  156.8087 H   0  0  0  0  0  0  0  0  0  0  0  0
  151.3656  137.7331  153.5757 H   0  0  0  0  0  0  0  0  0  0  0  0
  152.3800  137.9342  154.9831 H   0  0  0  0  0  0  0  0  0  0  0  0
  151.0537  136.5785  156.1904 H   0  0  0  0  0  0  0  0  0  0  0  0
  149.7295  137.7080  156.0489 H   0  0  0  0  0  0  0  0  0  0  0  0
  149.2677  136.5220  153.8226 H   0  0  0  0  0  0  0  0  0  0  0  0
  148.7159  134.7496  153.1300 H   0  0  0  0  0  0  0  0  0  0  0  0
  150.3478  132.2260  155.2560 H   0  0  0  0  0  0  0  0  0  0  0  0
  150.0201  129.7909  154.9551 H   0  0  0  0  0  0  0  0  0  0  0  0
  148.2541  128.9937  153.2805 H   0  0  0  0  0  0  0  0  0  0  0  0
  146.8537  132.2492  150.1814 H   0  0  0  0  0  0  0  0  0  0  0  0
  145.7015  131.6018  151.3591 H   0  0  0  0  0  0  0  0  0  0  0  0
  145.6396  134.3149  150.0002 H   0  0  0  0  0  0  0  0  0  0  0  0
  144.3088  133.1641  150.1625 H   0  0  0  0  0  0  0  0  0  0  0  0
  144.4890  135.2214  151.9302 H   0  0  0  0  0  0  0  0  0  0  0  0
  144.1216  133.6037  152.5300 H   0  0  0  0  0  0  0  0  0  0  0  0
  146.0451  133.9274  153.8308 H   0  0  0  0  0  0  0  0  0  0  0  0
  146.7356  135.0761  152.6788 H   0  0  0  0  0  0  0  0  0  0  0  0
  149.3499  139.3019  153.3451 H   0  0  0  0  0  0  0  0  0  0  0  0
  148.8978  139.1232  155.0321 H   0  0  0  0  0  0  0  0  0  0  0  0
  149.7813  141.7298  153.6673 H   0  0  0  0  0  0  0  0  0  0  0  0
  147.4299  141.0936  153.1165 H   0  0  0  0  0  0  0  0  0  0  0  0
  147.4748  142.5083  154.1639 H   0  0  0  0  0  0  0  0  0  0  0  0
  147.0636  140.9317  154.8331 H   0  0  0  0  0  0  0  0  0  0  0  0
  151.5029  139.9701  154.0219 H   0  0  0  0  0  0  0  0  0  0  0  0
  147.0216  130.5650  152.1344 H   0  0  0  0  0  0  0  0  0  0  0  0
  1  2  1  0  0  0  0
  1 26  1  0  0  0  0
  1 27  1  0  0  0  0
  1 28  1  0  0  0  0
  2 25  1  0  0  0  0
  2  3  1  0  0  0  0
  2 29  1  0  0  0  0
  3  4  1  0  0  0  0
  3 30  1  0  0  0  0
  3 31  1  0  0  0  0
  4  5  1  0  0  0  0
  4 22  1  0  0  0  0
  4 55  1  0  0  0  0
  5  6  1  0  0  0  0
  5 32  1  0  0  0  0
  5 33  1  0  0  0  0
  6  7  1  0  0  0  0
  6 34  1  0  0  0  0
  6 35  1  0  0  0  0
  7  8  1  0  0  0  0
  7 36  1  0  0  0  0
  8  9  2  0  0  0  0
  8 10  1  0  0  0  0
 10 11  1  0  0  0  0
 10 37  1  0  0  0  0
 11 16  1  0  0  0  0
 11 12  2  0  0  0  0
 12 13  1  0  0  0  0
 12 38  1  0  0  0  0
 13 14  2  0  0  0  0
 13 39  1  0  0  0  0
 14 15  1  0  0  0  0
 14 40  1  0  0  0  0
 15 16  2  0  0  0  0
 15 56  1  0  0  0  0
 16 17  1  0  0  0  0
 17 21  1  0  0  0  0
 17 18  1  0  0  0  0
 18 19  1  0  0  0  0
 18 41  1  0  0  0  0
 18 42  1  0  0  0  0
 19 20  1  0  0  0  0
 19 43  1  0  0  0  0
 19 44  1  0  0  0  0
 20 21  1  0  0  0  0
 20 45  1  0  0  0  0
 20 46  1  0  0  0  0
 21 47  1  0  0  0  0
 21 48  1  0  0  0  0
 22 23  1  0  0  0  0
 22 49  1  0  0  0  0
 22 50  1  0  0  0  0
 23 24  1  0  0  0  0
 23 25  1  0  0  0  0
 23 51  1  0  0  0  0
 24 52  1  0  0  0  0
 24 53  1  0  0  0  0
 24 54  1  0  0  0  0
M  CHG  1   4   1
M  CHG  1  15   1
M  END
> <s_m_source_file>
AV-unprocessed.smi

> <i_m_source_file_index>
1244

> <i_lp_mmshare_version>
43012

> <i_f3d_flags>
0

> <s_epik_input>
W0NIM11bQ0BASF0xW0NIMl1OKFtDSDJdW0NASF0oTzEpW0NIM10pW0NIMl1bQ0gyXVtOSF1DKD1PKVtOSF1jMltjSF1bY0hdW2NIXW5jMk4zW0NIMl1bQ0gyXVtDSDJdW0NIMl0z

> <s_epik_cmdline>
J2VwaWtfcHl0aG9uJywgJy1waCcsICc3LjAnLCAnLXRuJywgJzgnLCAnLW1hJywgJzIwMCcsICctbWV0YWxfYmluZGluZycsICctaW1hZScsICc8aW5maWxlLm1hZT4nLCAnLW9tYWUnLCAnPG91dGZpbGUubWFlPic=

> <r_lp_tautomer_probability>
0.999994

> <r_epik_Ionization_Penalty>
1.81601

> <r_epik_Ionization_Penalty_Charging>
1.81599

> <r_epik_Ionization_Penalty_Neutral>
2.01972e-05

> <r_epik_State_Penalty>
1.85672

> <r_epik_Charging_Adjusted_Penalty>
3.6727

> <i_epik_Tot_Q>
2

> <i_epik_Tot_abs_Q>
2

> <r_epik_Metal_State_Penalty>
1.93796

> <b_epik_Metal_Only>
0

> <s_lp_Force_Field>
OPLS_2005

> <r_lp_Energy>
51.4993

> <b_lp_Chiralities_Consistent>
1

> <s_lp_Variant>
AV-unprocessed.smi:1244-12

> <Gold.Version>
5.8.1

> <Gold.Id.Protein>
6NUR|6NUR_protein|mol2

> <Gold.PLP.Fitness>
51.4999

> <Gold.PLP.PLP>
-46.8621

> <Gold.PLP.part.hbond>
-3.0000

> <Gold.PLP.part.metal>
0.0000

> <Gold.PLP.part.buried>
-6.2959

> <Gold.PLP.part.nonpolar>
-38.9096

> <Gold.PLP.part.repulsive>
1.6636

> <Gold.PLP.ligand.clash>
0.0000

> <Gold.PLP.ligand.torsion>
0.7098

> <Gold.PLP.Chemscore.Hbond>
1.8800

> <Gold.PLP.Chemscore.CHOScore>
0.0000

> <Gold.PLP.Chemscore.Metal>
0.0000

> <Gold.Chemscore.Hbonds>
donor molecule, donor type, donor heavy atom, donor atom, acceptor molecule, acceptor atom, score
      L1  H     7    36       P1  7948  0.88
      L1  H    10    37       P1  7948  1.00

> <Gold.PLP.Chemscore.Internal.Correction>
0.4175

> <Gold.Rescore>
     Score         DG    S(hbond)    S(metal)    S(lipo)     H(rot)  DE(clash)    DE(int)     intcor
     15.08     -17.28       1.28        0.00      99.81       1.63       0.07       2.12       ----

> <Gold.Chemscore.Fitness>
15.0812

> <Gold.Chemscore.DG>
-17.2770

> <Gold.Chemscore.ZeroCoef>
-5.4800

> <Gold.Chemscore.Hbond>
1.2845

> <Gold.Chemscore.Metal>
0.0000

> <Gold.Chemscore.Lipo>
99.8091

> <Gold.Chemscore.Internal_Hbond>
0.0000

> <Gold.Chemscore.DEClash>
0.0719

> <Gold.Chemscore.DEInternal>
2.1239

> <Gold.Chemscore.Rot>
1.6293

> <Gold.Chemscore.Internal.Correction>
   9.000000E+99

> <Gold.Chemscore.Hbonds>
donor molecule, donor type, donor heavy atom, donor atom, acceptor molecule, acceptor atom, score
      L1  H     7    36       P1  7948  0.79
      L1  H    10    37       P1  7948  0.29

> <Gold.Chemscore.Hbond.Weighted>
-4.2902

> <Gold.Chemscore.Metal.Weighted>
-0.0000

> <Gold.Chemscore.Lipo.Weighted>
-11.6777

> <Gold.Chemscore.Internal_Hbond.Weighted>
0.0000

> <Gold.Chemscore.DEClash.Weighted>
0.0719

> <Gold.Chemscore.DEInternal.Weighted>
2.1239

> <Gold.Chemscore.Rot.Weighted>
4.1709

> <Gold.Chemscore.Internal.Correction.Weighted>
   9.000000E+99

> <Gold.Protein.RotatedTorsions>
[ 6907 6896 6895 6894 ] final   88.47 input  -60.11 | X-H torsion
[ 7974 7965 7964 7962 ] final  -78.06 input  175.53 | X-H torsion
[ 8008 7997 7996 7995 ] final   38.05 input   59.86 | X-H torsion
[ 10167 10162 10161 10158 ] final   46.43 input  -65.29 | X-H torsion
[ 10718 10713 10712 10709 ] final   57.71 input   66.30 | X-H torsion
[ 10763 10752 10751 10750 ] final   99.99 input  -60.55 | X-H torsion
[ 11005 11000 10999 10996 ] final   55.63 input  -57.11 | X-H torsion

> <Gold.Protein.ActiveResidues>
 VAL166  LYS551  ARG553  GLY616  TRP617  ASP618  TYR619  PRO620  LYS621  CYS622 
 ASP623  PHE694  ASN695  SER759  ASP760  ASP761  ALA762  ILE779  LEU786  VAL792 
 PHE793  MET794  SER795  GLU796  ALA797  LYS798  CYS799  TRP800  GLU811  SER814 

> <Gold.Protein.RotatedAtoms>
  152.5425  134.2116  159.8751 H   0  0  0  0  0  0  0  0  0  0  0  0  # atno 6907 bound_to 6896
  151.2098  133.4556  159.2605 H   0  0  0  0  0  0  0  0  0  0  0  0  # atno 6908 bound_to 6896
  151.0908  134.9927  159.8457 H   0  0  0  0  0  0  0  0  0  0  0  0  # atno 6909 bound_to 6896
  145.5914  140.9428  143.1290 H   0  0  0  0  0  0  0  0  0  0  0  0  # atno 7974 bound_to 7965
  155.2138  140.3325  155.4325 H   0  0  0  0  0  0  0  0  0  0  0  0  # atno 8008 bound_to 7997
  156.2360  140.1872  156.7166 H   0  0  0  0  0  0  0  0  0  0  0  0  # atno 8009 bound_to 7997
  154.6061  140.0616  156.9418 H   0  0  0  0  0  0  0  0  0  0  0  0  # atno 8010 bound_to 7997
  140.3139  144.2787  150.6194 H   0  0  0  0  0  0  0  0  0  0  0  0  # atno 10167 bound_to 10162
  157.5536  130.8784  149.9002 H   0  0  0  0  0  0  0  0  0  0  0  0  # atno 10718 bound_to 10713
  153.3083  135.4094  155.1313 H   0  0  0  0  0  0  0  0  0  0  0  0  # atno 10763 bound_to 10752
  154.8569  135.3558  154.5758 H   0  0  0  0  0  0  0  0  0  0  0  0  # atno 10764 bound_to 10752
  153.6186  135.7065  153.5377 H   0  0  0  0  0  0  0  0  0  0  0  0  # atno 10765 bound_to 10752
  140.0592  134.5627  155.9172 H   0  0  0  0  0  0  0  0  0  0  0  0  # atno 11005 bound_to 11000
  144.7349  139.7614  143.7333 LP  0  0  0  0  0  0  0  0  0  0  0  0  # atno 17320 bound_to 7965
  146.1644  139.4770  142.9968 LP  0  0  0  0  0  0  0  0  0  0  0  0  # atno 17321 bound_to 7965
  140.5543  143.2201  151.7873 LP  0  0  0  0  0  0  0  0  0  0  0  0  # atno 17342 bound_to 10162
  139.4888  144.4434  151.9738 LP  0  0  0  0  0  0  0  0  0  0  0  0  # atno 17343 bound_to 10162
  156.0599  130.3702  150.1006 LP  0  0  0  0  0  0  0  0  0  0  0  0  # atno 17370 bound_to 10713
  156.9177  130.9672  151.3553 LP  0  0  0  0  0  0  0  0  0  0  0  0  # atno 17371 bound_to 10713
  141.1965  133.6592  156.5697 LP  0  0  0  0  0  0  0  0  0  0  0  0  # atno 17394 bound_to 11000
  140.3797  134.7534  157.4653 LP  0  0  0  0  0  0  0  0  0  0  0  0  # atno 17395 bound_to 11000

$$$$
