#       Name:                AV-unprocessed.smi:2394
#       Creating user name   scv26
#       Creation time:       Fri Mar 27 13:11:58 2020


#       File generated by GOLD software.
#

@<TRIPOS>MOLECULE
AV-unprocessed.smi:2394
    48    49     1
SMALL
NO_CHARGES


@<TRIPOS>ATOM
      1 ****        -1.4347  -2.1053  -4.4911 C.3            1 S1                 0.0000
      2 ****        -2.0699  -2.5793  -3.1727 C.3            1 S1                 0.0000
      3 ****        -1.6538  -1.7912  -1.9023 C.3            1 S1                 0.0000
      4 ****        -2.1317  -0.4653  -2.0362 O.3            1 S1                 0.0000
      5 ****        -2.3128  -2.3839  -0.6259 C.3            1 S1                 0.0000
      6 ****        -3.8432  -2.5365  -0.6651 C.3            1 S1                 0.0000
      7 ****        -0.1053  -1.7352  -1.7644 C.3            1 S1                 0.0000
      8 ****         0.3745  -1.0895  -0.5512 N.pl3          1 S1                 0.0000
      9 ****         0.7078  -1.7058   0.6348 C.2            1 S1                 0.0000
     10 ****         1.1175  -0.9076   1.5831 N.2            1 S1                 0.0000
     11 ****         1.0756   0.3530   1.0012 C.ar           1 S1                 0.0000
     12 ****         1.3898   1.6587   1.4597 C.ar           1 S1                 0.0000
     13 ****         1.8327   1.8659   2.7201 N.pl3          1 S1                 0.0000
     14 ****         2.2780   3.1839   3.1644 C.3            1 S1                 0.0000
     15 ****         3.6884   3.5029   2.6405 C.3            1 S1                 0.0000
     16 ****         2.2322   3.2616   4.6959 C.3            1 S1                 0.0000
     17 ****         1.2270   2.6901   0.5897 N.ar           1 S1                 0.0000
     18 ****         0.7904   2.4569  -0.6520 C.ar           1 S1                 0.0000
     19 ****         0.4618   1.2928  -1.2166 N.ar           1 S1                 0.0000
     20 ****         0.6171   0.2572  -0.3425 C.ar           1 S1                 0.0000
     21 ****        -1.8569  -2.6502  -5.3353 H              1 S1                 0.0000
     22 ****        -0.3584  -2.2752  -4.5077 H              1 S1                 0.0000
     23 ****        -1.6131  -1.0438  -4.6638 H              1 S1                 0.0000
     24 ****        -3.1514  -2.5291  -3.2994 H              1 S1                 0.0000
     25 ****        -1.8334  -3.6349  -3.0346 H              1 S1                 0.0000
     26 ****        -3.0733  -0.4908  -2.1094 H              1 S1                 0.0000
     27 ****        -1.8754  -3.3611  -0.4181 H              1 S1                 0.0000
     28 ****        -2.0722  -1.7613   0.2361 H              1 S1                 0.0000
     29 ****        -4.2169  -2.8689   0.3036 H              1 S1                 0.0000
     30 ****        -4.1589  -3.2770  -1.3995 H              1 S1                 0.0000
     31 ****        -4.3363  -1.5929  -0.8989 H              1 S1                 0.0000
     32 ****         0.3024  -2.7468  -1.7861 H              1 S1                 0.0000
     33 ****         0.3419  -1.2104  -2.6089 H              1 S1                 0.0000
     34 ****         0.6284  -2.7739   0.7770 H              1 S1                 0.0000
     35 ****         1.9455   1.1174   3.3884 H              1 S1                 0.0000
     36 ****         1.5861   3.9368   2.7846 H              1 S1                 0.0000
     37 ****         4.0148   4.4886   2.9729 H              1 S1                 0.0000
     38 ****         3.7228   3.5000   1.5510 H              1 S1                 0.0000
     39 ****         4.4171   2.7742   2.9970 H              1 S1                 0.0000
     40 ****         2.5273   4.2506   5.0473 H              1 S1                 0.0000
     41 ****         2.9033   2.5325   5.1517 H              1 S1                 0.0000
     42 ****         1.2257   3.0676   5.0681 H              1 S1                 0.0000
     43 ****         0.6912   3.3272  -1.2837 H              1 S1                 0.0000
     44 ****        -1.7411  -0.0475  -2.8565 LP             1 S1                 0.0000
     45 ****        -1.8705   0.0698  -1.2329 LP             1 S1                 0.0000
     46 ****         1.3967  -1.1480   2.5127 LP             1 S1                 0.0000
     47 ****         1.4341   3.6247   0.8788 LP             1 S1                 0.0000
     48 ****         0.1428   1.1928  -2.1591 LP             1 S1                 0.0000
@<TRIPOS>BOND
    1    1    2 1     
    2    1   21 1     
    3    1   22 1     
    4    1   23 1     
    5    2    3 1     
    6    2   24 1     
    7    2   25 1     
    8    3    4 1     
    9    3    5 1     
   10    3    7 1     
   11    4   26 1     
   12    5    6 1     
   13    5   27 1     
   14    5   28 1     
   15    6   29 1     
   16    6   30 1     
   17    6   31 1     
   18    7    8 1     
   19    7   32 1     
   20    7   33 1     
   21    8   20 1     
   22    8    9 1     
   23    9   10 2     
   24    9   34 1     
   25   10   11 1     
   26   11   20 ar    
   27   11   12 ar    
   28   12   13 1     
   29   12   17 ar    
   30   13   14 1     
   31   13   35 1     
   32   14   15 1     
   33   14   16 1     
   34   14   36 1     
   35   15   37 1     
   36   15   38 1     
   37   15   39 1     
   38   16   40 1     
   39   16   41 1     
   40   16   42 1     
   41   17   18 ar    
   42   18   19 ar    
   43   18   43 1     
   44   19   20 ar    
   45    4   44 1     
   46    4   45 1     
   47   10   46 1     
   48   17   47 1     
   49   19   48 1     
@<TRIPOS>SUBSTRUCTURE
      1 S1             1
@<TRIPOS>SET
LONE_PAIRS      STATIC     ATOMS    <user>   **** ""
5 44 45 46 47 48
DONOR_HYDROGENS      STATIC     ATOMS    <user>   **** ""
2 26 35
ATOM$BLUE        STATIC     ATOMS    COLORGROUP SYSTEM
5 44 45 46 47 48
ATOM$RED        STATIC     ATOMS    COLORGROUP SYSTEM
2 26 35
