#       Name:                AV-unprocessed.smi:744
#       Creating user name   scv26
#       Creation time:       Fri Mar 27 00:56:38 2020


#       File generated by GOLD software.
#

@<TRIPOS>MOLECULE
AV-unprocessed.smi:744
    39    40     1
SMALL
NO_CHARGES


@<TRIPOS>ATOM
      1 ****         0.0679   1.6858   0.8490 O.2            1 S1                 0.0000
      2 ****        -0.4527   0.5913   1.0665 C.2            1 S1                 0.0000
      3 ****         0.2481  -0.5398   1.2305 N.am           1 S1                 0.0000
      4 ****         1.7011  -0.6452   1.1475 C.3            1 S1                 0.0000
      5 ****         2.2155  -0.6469  -0.3084 C.3            1 S1                 0.0000
      6 ****         3.7478  -0.7237  -0.3933 C.3            1 S1                 0.0000
      7 ****         4.0823  -1.4364  -1.7130 C.3            1 S1                 0.0000
      8 ****         2.7443  -1.8648  -2.3245 C.3            1 S1                 0.0000
      9 ****         1.7472  -1.8323  -1.1655 C.3            1 S1                 0.0000
     10 ****         0.4265  -1.6789  -1.6449 O.3            1 S1                 0.0000
     11 ****        -1.7741   0.3627   1.1647 N.am           1 S1                 0.0000
     12 ****        -2.8389   1.2932   1.0305 C.ar           1 S1                 0.0000
     13 ****        -4.1337   0.7469   1.1812 C.ar           1 S1                 0.0000
     14 ****        -5.2583   1.5862   1.0620 C.ar           1 S1                 0.0000
     15 ****        -5.0591   2.9524   0.7951 C.ar           1 S1                 0.0000
     16 ****        -3.7374   3.4158   0.6610 C.ar           1 S1                 0.0000
     17 ****        -2.6582   2.6132   0.7746 N.ar           1 S1                 0.0000
     18 ****        -0.2601  -1.3950   1.4021 H              1 S1                 0.0000
     19 ****         2.1592   0.1720   1.7072 H              1 S1                 0.0000
     20 ****         2.0001  -1.5654   1.6503 H              1 S1                 0.0000
     21 ****         1.9092   0.2780  -0.8008 H              1 S1                 0.0000
     22 ****         4.2009   0.2666  -0.3377 H              1 S1                 0.0000
     23 ****         4.1466  -1.3066   0.4381 H              1 S1                 0.0000
     24 ****         4.6326  -0.7861  -2.3939 H              1 S1                 0.0000
     25 ****         4.7089  -2.3074  -1.5169 H              1 S1                 0.0000
     26 ****         2.4548  -1.1391  -3.0863 H              1 S1                 0.0000
     27 ****         2.7955  -2.8422  -2.8050 H              1 S1                 0.0000
     28 ****         1.8194  -2.7587  -0.5939 H              1 S1                 0.0000
     29 ****         0.3769  -0.8712  -2.1333 H              1 S1                 0.0000
     30 ****        -2.0515  -0.5905   1.3462 H              1 S1                 0.0000
     31 ****        -4.2689  -0.3054   1.3853 H              1 S1                 0.0000
     32 ****        -6.2559   1.1877   1.1730 H              1 S1                 0.0000
     33 ****        -5.8963   3.6273   0.6961 H              1 S1                 0.0000
     34 ****        -3.5407   4.4578   0.4566 H              1 S1                 0.0000
     35 ****         1.0630   1.7626   0.7867 LP             1 S1                 0.0000
     36 ****        -0.5044   2.4978   0.7347 LP             1 S1                 0.0000
     37 ****        -0.2104  -1.6471  -0.8747 LP             1 S1                 0.0000
     38 ****         0.1921  -2.4478  -2.2397 LP             1 S1                 0.0000
     39 ****        -1.7364   2.9870   0.6714 LP             1 S1                 0.0000
@<TRIPOS>BOND
    1    1    2 2     
    2    2    3 am    
    3    2   11 am    
    4    3    4 1     
    5    3   18 1     
    6    4    5 1     
    7    4   19 1     
    8    4   20 1     
    9    5    9 1     
   10    5    6 1     
   11    5   21 1     
   12    6    7 1     
   13    6   22 1     
   14    6   23 1     
   15    7    8 1     
   16    7   24 1     
   17    7   25 1     
   18    8    9 1     
   19    8   26 1     
   20    8   27 1     
   21    9   10 1     
   22    9   28 1     
   23   10   29 1     
   24   11   12 1     
   25   11   30 1     
   26   12   17 ar    
   27   12   13 ar    
   28   13   14 ar    
   29   13   31 1     
   30   14   15 ar    
   31   14   32 1     
   32   15   16 ar    
   33   15   33 1     
   34   16   17 ar    
   35   16   34 1     
   36    1   35 1     
   37    1   36 1     
   38   10   37 1     
   39   10   38 1     
   40   17   39 1     
@<TRIPOS>SUBSTRUCTURE
      1 S1             1
@<TRIPOS>SET
LONE_PAIRS      STATIC     ATOMS    <user>   **** ""
5 35 36 37 38 39
DONOR_HYDROGENS      STATIC     ATOMS    <user>   **** ""
3 18 29 30
ATOM$BLUE        STATIC     ATOMS    COLORGROUP SYSTEM
5 35 36 37 38 39
ATOM$RED        STATIC     ATOMS    COLORGROUP SYSTEM
3 18 29 30
