AV-unprocessed.smi:1047|AV-procd|sdf|4575|dock2
  -GOLD-   22720 3 33D 1   1.00000     0.00000
 Structure written by MMmdl.
 56 58  0  0  0  0  0  0  0  0  2 V2000
  144.0034  135.6772  150.7220 C   0  0  0  0  0  0  0  0  0  0  0  0
  145.5130  135.9192  150.5817 C   0  0  0  0  0  0  0  0  0  0  0  0
  146.1528  136.2875  151.8692 N   0  3  2  0  0  0  0  0  0  0  0  0
  145.9156  135.2760  152.9265 C   0  0  0  0  0  0  0  0  0  0  0  0
  146.6552  135.6625  154.2179 C   0  0  0  0  0  0  0  0  0  0  0  0
  146.2351  136.9518  154.6459 O   0  0  0  0  0  0  0  0  0  0  0  0
  146.5078  137.9589  153.6766 C   0  0  2  0  0  0  0  0  0  0  0  0
  146.1450  139.3307  154.2697 C   0  0  0  0  0  0  0  0  0  0  0  0
  146.6048  140.4265  153.4218 N   0  0  0  0  0  0  0  0  0  0  0  0
  147.1106  141.5746  154.1701 C   0  0  0  0  0  0  0  0  0  0  0  0
  148.1331  141.1571  155.2426 C   0  0  2  0  0  0  0  0  0  0  0  0
  148.1370  142.1195  156.2796 O   0  0  0  0  0  0  0  0  0  0  0  0
  149.5543  140.9070  154.6958 C   0  0  0  0  0  0  0  0  0  0  0  0
  150.4292  140.3118  155.6896 N   0  0  0  0  0  0  0  0  0  0  0  0
  150.8574  139.0358  155.7339 C   0  0  0  0  0  0  0  0  0  0  0  0
  151.6529  138.6957  156.7440 N   0  0  0  0  0  0  0  0  0  0  0  0
  151.7542  139.8913  157.4346 C   0  0  0  0  0  0  0  0  0  0  0  0
  152.4571  140.2114  158.6168 C   0  0  0  0  0  0  0  0  0  0  0  0
  152.4158  141.5181  159.1537 C   0  0  0  0  0  0  0  0  0  0  0  0
  153.1836  141.8173  160.4292 C   0  0  0  0  0  0  0  0  0  0  0  0
  151.6633  142.5295  158.5041 C   0  0  0  0  0  0  0  0  0  0  0  0
  151.6059  143.9410  159.0607 C   0  0  0  0  0  0  0  0  0  0  0  0
  150.9539  142.2263  157.3233 C   0  0  0  0  0  0  0  0  0  0  0  0
  151.0022  140.9224  156.7998 C   0  0  0  0  0  0  0  0  0  0  0  0
  145.7765  137.6380  152.3553 C   0  0  0  0  0  0  0  0  0  0  0  0
  143.5516  135.5043  149.7449 H   0  0  0  0  0  0  0  0  0  0  0  0
  143.5050  136.5386  151.1675 H   0  0  0  0  0  0  0  0  0  0  0  0
  143.7845  134.8044  151.3365 H   0  0  0  0  0  0  0  0  0  0  0  0
  146.0050  135.0444  150.1540 H   0  0  0  0  0  0  0  0  0  0  0  0
  145.6551  136.7330  149.8691 H   0  0  0  0  0  0  0  0  0  0  0  0
  144.8447  135.1912  153.1191 H   0  0  0  0  0  0  0  0  0  0  0  0
  146.2598  134.2977  152.5889 H   0  0  0  0  0  0  0  0  0  0  0  0
  146.4363  134.9419  155.0059 H   0  0  0  0  0  0  0  0  0  0  0  0
  147.7357  135.6496  154.0670 H   0  0  0  0  0  0  0  0  0  0  0  0
  147.5826  137.9631  153.4867 H   0  0  0  0  0  0  0  0  0  0  0  0
  145.0636  139.3901  154.3991 H   0  0  0  0  0  0  0  0  0  0  0  0
  146.5819  139.4238  155.2646 H   0  0  0  0  0  0  0  0  0  0  0  0
  145.8472  140.7299  152.8171 H   0  0  0  0  0  0  0  0  0  0  0  0
  147.5712  142.2932  153.4908 H   0  0  0  0  0  0  0  0  0  0  0  0
  146.2789  142.0931  154.6485 H   0  0  0  0  0  0  0  0  0  0  0  0
  147.7757  140.2293  155.6910 H   0  0  0  0  0  0  0  0  0  0  0  0
  148.5822  142.8931  155.9684 H   0  0  0  0  0  0  0  0  0  0  0  0
  149.5124  140.2423  153.8321 H   0  0  0  0  0  0  0  0  0  0  0  0
  150.0107  141.8354  154.3512 H   0  0  0  0  0  0  0  0  0  0  0  0
  150.5651  138.3150  154.9842 H   0  0  0  0  0  0  0  0  0  0  0  0
  153.0299  139.4406  159.1113 H   0  0  0  0  0  0  0  0  0  0  0  0
  153.9337  142.5884  160.2517 H   0  0  0  0  0  0  0  0  0  0  0  0
  153.6973  140.9310  160.8025 H   0  0  0  0  0  0  0  0  0  0  0  0
  152.5070  142.1646  161.2102 H   0  0  0  0  0  0  0  0  0  0  0  0
  150.9968  144.5921  158.4329 H   0  0  0  0  0  0  0  0  0  0  0  0
  152.6062  144.3709  159.1158 H   0  0  0  0  0  0  0  0  0  0  0  0
  151.1726  143.9401  160.0611 H   0  0  0  0  0  0  0  0  0  0  0  0
  150.3731  142.9857  156.8210 H   0  0  0  0  0  0  0  0  0  0  0  0
  146.0306  138.3932  151.6122 H   0  0  0  0  0  0  0  0  0  0  0  0
  144.6951  137.6779  152.4944 H   0  0  0  0  0  0  0  0  0  0  0  0
  147.1494  136.2978  151.7049 H   0  0  0  0  0  0  0  0  0  0  0  0
  1  2  1  0  0  0  0
  1 26  1  0  0  0  0
  1 27  1  0  0  0  0
  1 28  1  0  0  0  0
  2  3  1  0  0  0  0
  2 29  1  0  0  0  0
  2 30  1  0  0  0  0
  3 25  1  0  0  0  0
  3  4  1  0  0  0  0
  3 56  1  0  0  0  0
  4  5  1  0  0  0  0
  4 31  1  0  0  0  0
  4 32  1  0  0  0  0
  5  6  1  0  0  0  0
  5 33  1  0  0  0  0
  5 34  1  0  0  0  0
  6  7  1  0  0  0  0
  7  8  1  0  0  0  0
  7 25  1  0  0  0  0
  7 35  1  0  0  0  0
  8  9  1  0  0  0  0
  8 36  1  0  0  0  0
  8 37  1  0  0  0  0
  9 10  1  0  0  0  0
  9 38  1  0  0  0  0
 10 11  1  0  0  0  0
 10 39  1  0  0  0  0
 10 40  1  0  0  0  0
 11 12  1  0  0  0  0
 11 13  1  0  0  0  0
 11 41  1  0  0  0  0
 12 42  1  0  0  0  0
 13 14  1  0  0  0  0
 13 43  1  0  0  0  0
 13 44  1  0  0  0  0
 14 24  1  0  0  0  0
 14 15  1  0  0  0  0
 15 16  2  0  0  0  0
 15 45  1  0  0  0  0
 16 17  1  0  0  0  0
 17 24  2  0  0  0  0
 17 18  1  0  0  0  0
 18 19  2  0  0  0  0
 18 46  1  0  0  0  0
 19 20  1  0  0  0  0
 19 21  1  0  0  0  0
 20 47  1  0  0  0  0
 20 48  1  0  0  0  0
 20 49  1  0  0  0  0
 21 22  1  0  0  0  0
 21 23  2  0  0  0  0
 22 50  1  0  0  0  0
 22 51  1  0  0  0  0
 22 52  1  0  0  0  0
 23 24  1  0  0  0  0
 23 53  1  0  0  0  0
 25 54  1  0  0  0  0
 25 55  1  0  0  0  0
M  CHG  1   3   1
M  END
> <s_m_source_file>
AV-unprocessed.smi

> <i_m_source_file_index>
1047

> <i_lp_mmshare_version>
43012

> <i_f3d_flags>
0

> <s_epik_input>
W0NIM11bQ0gyXU4xW0NIMl1bQ0gyXU9bQ0BIXShbQ0gyXTEpW0NIMl1bTkhdW0NIMl1bQ0BIXShbT0hdKVtDSDJdbihbY0hdbjIpYyhjMjMpW2NIXWMoW0NIM10pYyhbY0hdMylbQ0gzXQ==

> <s_epik_cmdline>
J2VwaWtfcHl0aG9uJywgJy1waCcsICc3LjAnLCAnLXRuJywgJzgnLCAnLW1hJywgJzIwMCcsICctbWV0YWxfYmluZGluZycsICctaW1hZScsICc8aW5maWxlLm1hZT4nLCAnLW9tYWUnLCAnPG91dGZpbGUubWFlPic=

> <r_epik_Ionization_Penalty>
1.19246

> <r_epik_Ionization_Penalty_Charging>
0.210041

> <r_epik_Ionization_Penalty_Neutral>
0.982415

> <r_epik_State_Penalty>
1.57595

> <r_epik_Charging_Adjusted_Penalty>
1.78599

> <i_epik_Tot_Q>
1

> <i_epik_Tot_abs_Q>
1

> <r_epik_Metal_State_Penalty>
1.46172

> <b_epik_Metal_Only>
0

> <s_lp_Force_Field>
OPLS_2005

> <r_lp_Energy>
33.3518

> <b_lp_Chiralities_Consistent>
1

> <s_lp_Variant>
AV-unprocessed.smi:1047-16

> <Gold.Version>
5.8.1

> <Gold.Id.Protein>
6NUR|6NUR_protein|mol2

> <Gold.PLP.Fitness>
57.6794

> <Gold.PLP.PLP>
-46.9316

> <Gold.PLP.part.hbond>
-3.0000

> <Gold.PLP.part.metal>
0.0000

> <Gold.PLP.part.buried>
-3.7528

> <Gold.PLP.part.nonpolar>
-40.5326

> <Gold.PLP.part.repulsive>
0.0954

> <Gold.PLP.ligand.clash>
0.0000

> <Gold.PLP.ligand.torsion>
0.7859

> <Gold.PLP.Chemscore.Hbond>
4.0000

> <Gold.PLP.Chemscore.CHOScore>
0.0000

> <Gold.PLP.Chemscore.Metal>
0.0000

> <Gold.Chemscore.Hbonds>
donor molecule, donor type, donor heavy atom, donor atom, acceptor molecule, acceptor atom, score
      L1  H     3    56       P1  7948  2.00
      L1  H     9    38       P1 10175  0.51
      L1  H    12    42       P1  8028  1.00

> <Gold.PLP.Chemscore.Internal.Correction>
0.3196

> <Gold.Rescore>
     Score         DG    S(hbond)    S(metal)    S(lipo)     H(rot)  DE(clash)    DE(int)     intcor
     21.34     -22.19       2.91        0.00     117.02       2.62       0.04       0.81       ----

> <Gold.Chemscore.Fitness>
21.3392

> <Gold.Chemscore.DG>
-22.1901

> <Gold.Chemscore.ZeroCoef>
-5.4800

> <Gold.Chemscore.Hbond>
2.9127

> <Gold.Chemscore.Metal>
0.0000

> <Gold.Chemscore.Lipo>
117.0198

> <Gold.Chemscore.Internal_Hbond>
0.0000

> <Gold.Chemscore.DEClash>
0.0417

> <Gold.Chemscore.DEInternal>
0.8092

> <Gold.Chemscore.Rot>
2.6209

> <Gold.Chemscore.Internal.Correction>
   9.000000E+99

> <Gold.Chemscore.Hbonds>
donor molecule, donor type, donor heavy atom, donor atom, acceptor molecule, acceptor atom, score
      L1  H     3    56       P1  7948  1.00
      L1  H     9    38       P1 10175  0.25
      L1  H    12    42       P1  8028  0.98

> <Gold.Chemscore.Hbond.Weighted>
-9.7284

> <Gold.Chemscore.Metal.Weighted>
-0.0000

> <Gold.Chemscore.Lipo.Weighted>
-13.6913

> <Gold.Chemscore.Internal_Hbond.Weighted>
0.0000

> <Gold.Chemscore.DEClash.Weighted>
0.0417

> <Gold.Chemscore.DEInternal.Weighted>
0.8092

> <Gold.Chemscore.Rot.Weighted>
6.7096

> <Gold.Chemscore.Internal.Correction.Weighted>
   9.000000E+99

> <Gold.Protein.RotatedTorsions>
[ 6907 6896 6895 6894 ] final -137.76 input  -60.11 | X-H torsion
[ 7974 7965 7964 7962 ] final  121.80 input  175.53 | X-H torsion
[ 8008 7997 7996 7995 ] final   62.38 input   59.86 | X-H torsion
[ 10167 10162 10161 10158 ] final  132.87 input  -65.29 | X-H torsion
[ 10718 10713 10712 10709 ] final -119.27 input   66.30 | X-H torsion
[ 10763 10752 10751 10750 ] final  133.29 input  -60.55 | X-H torsion
[ 11005 11000 10999 10996 ] final  -63.68 input  -57.11 | X-H torsion

> <Gold.Protein.ActiveResidues>
 VAL166  LYS551  ARG553  GLY616  TRP617  ASP618  TYR619  PRO620  LYS621  CYS622 
 ASP623  PHE694  ASN695  SER759  ASP760  ASP761  ALA762  ILE779  LEU786  VAL792 
 PHE793  MET794  SER795  GLU796  ALA797  LYS798  CYS799  TRP800  GLU811  SER814 

> <Gold.Protein.RotatedAtoms>
  151.0265  133.5829  159.2665 H   0  0  0  0  0  0  0  0  0  0  0  0  # atno 6907 bound_to 6896
  151.2926  135.0745  159.9219 H   0  0  0  0  0  0  0  0  0  0  0  0  # atno 6908 bound_to 6896
  152.5335  133.9960  159.7927 H   0  0  0  0  0  0  0  0  0  0  0  0  # atno 6909 bound_to 6896
  145.1150  139.3427  143.4743 H   0  0  0  0  0  0  0  0  0  0  0  0  # atno 7974 bound_to 7965
  155.6134  140.3495  155.4629 H   0  0  0  0  0  0  0  0  0  0  0  0  # atno 8008 bound_to 7997
  156.0136  140.1238  157.0453 H   0  0  0  0  0  0  0  0  0  0  0  0  # atno 8009 bound_to 7997
  154.4289  140.1076  156.5851 H   0  0  0  0  0  0  0  0  0  0  0  0  # atno 8010 bound_to 7997
  139.5321  144.6642  151.4915 H   0  0  0  0  0  0  0  0  0  0  0  0  # atno 10167 bound_to 10162
  156.1168  130.6292  150.9395 H   0  0  0  0  0  0  0  0  0  0  0  0  # atno 10718 bound_to 10713
  153.8047  135.3137  155.3394 H   0  0  0  0  0  0  0  0  0  0  0  0  # atno 10763 bound_to 10752
  154.8075  135.4688  154.0433 H   0  0  0  0  0  0  0  0  0  0  0  0  # atno 10764 bound_to 10752
  153.1792  135.6891  153.8589 H   0  0  0  0  0  0  0  0  0  0  0  0  # atno 10765 bound_to 10752
  141.1401  133.6655  156.5718 H   0  0  0  0  0  0  0  0  0  0  0  0  # atno 11005 bound_to 11000
  146.3524  140.1085  142.8605 LP  0  0  0  0  0  0  0  0  0  0  0  0  # atno 17320 bound_to 7965
  145.0804  140.9217  143.4829 LP  0  0  0  0  0  0  0  0  0  0  0  0  # atno 17321 bound_to 7965
  140.6505  143.8706  150.6781 LP  0  0  0  0  0  0  0  0  0  0  0  0  # atno 17342 bound_to 10162
  140.2069  143.3914  152.1748 LP  0  0  0  0  0  0  0  0  0  0  0  0  # atno 17343 bound_to 10162
  157.6352  131.0917  150.8363 LP  0  0  0  0  0  0  0  0  0  0  0  0  # atno 17370 bound_to 10713
  156.8465  130.5066  149.5316 LP  0  0  0  0  0  0  0  0  0  0  0  0  # atno 17371 bound_to 10713
  140.3907  134.7443  157.4720 LP  0  0  0  0  0  0  0  0  0  0  0  0  # atno 17394 bound_to 11000
  140.0568  134.6052  155.8795 LP  0  0  0  0  0  0  0  0  0  0  0  0  # atno 17395 bound_to 11000

$$$$
