#       Name:                AV-unprocessed.smi:92
#       Creating user name   scv26
#       Creation time:       Thu Mar 26 17:27:38 2020


#       File generated by GOLD software.
#

@<TRIPOS>MOLECULE
AV-unprocessed.smi:92
    69    72     1
SMALL
NO_CHARGES


@<TRIPOS>ATOM
      1 ****        -4.1323  -4.8478   0.5576 C.3            1 S1                 0.0000
      2 ****        -4.5677  -3.7323   1.5187 C.3            1 S1                 0.0000
      3 ****        -3.9469  -2.4237   1.1922 N.4            1 S1                 1.0000
      4 ****        -2.5092  -2.3487   1.5572 C.3            1 S1                 0.0000
      5 ****        -1.8811  -1.0249   1.0935 C.3            1 S1                 0.0000
      6 ****        -2.6478   0.1985   1.6584 C.3            1 S1                 0.0000
      7 ****        -2.0783   1.4972   1.2618 N.3            1 S1                 0.0000
      8 ****        -2.7295   2.6978   1.7804 C.3            1 S1                 0.0000
      9 ****        -0.7331   1.5827   1.3714 C.ar           1 S1                 0.0000
     10 ****        -0.1596   1.6952   2.5982 N.ar           1 S1                 0.0000
     11 ****         1.1716   1.7457   2.7066 C.ar           1 S1                 0.0000
     12 ****         2.0909   1.6922   1.7395 N.ar           1 S1                 0.0000
     13 ****         1.5137   1.5773   0.5081 C.ar           1 S1                 0.0000
     14 ****         0.1187   1.5182   0.2386 C.ar           1 S1                 0.0000
     15 ****        -0.1024   1.3877  -1.1256 N.2            1 S1                 0.0000
     16 ****         1.0985   1.3650  -1.6366 C.2            1 S1                 0.0000
     17 ****         2.1290   1.4796  -0.7285 N.pl3          1 S1                 0.0000
     18 ****         3.5356   1.4507  -1.0124 C.3            1 S1                 0.0000
     19 ****         4.1305   2.1811  -2.2191 C.3            1 S1                 0.0000
     20 ****         5.1968   1.0687  -2.3521 C.3            1 S1                 0.0000
     21 ****         5.4979   0.6462  -3.8009 C.3            1 S1                 0.0000
     22 ****         6.0080  -0.6693  -3.8724 O.3            1 S1                 0.0000
     23 ****         6.5223   1.3852  -1.6275 C.3            1 S1                 0.0000
     24 ****         7.2609   0.2188  -1.3273 O.3            1 S1                 0.0000
     25 ****         4.1854   0.1898  -1.5802 C.3            1 S1                 0.0000
     26 ****        -4.1495   0.0723   1.2840 C.3            1 S1                 0.0000
     27 ****        -4.4463   0.3017  -0.2134 C.3            1 S1                 0.0000
     28 ****        -4.7093  -1.2829   1.7613 C.3            1 S1                 0.0000
     29 ****        -4.6788  -5.7674   0.7678 H              1 S1                 0.0000
     30 ****        -3.0710  -5.0777   0.6475 H              1 S1                 0.0000
     31 ****        -4.3323  -4.5754  -0.4791 H              1 S1                 0.0000
     32 ****        -5.6525  -3.6417   1.4480 H              1 S1                 0.0000
     33 ****        -4.3482  -4.0049   2.5521 H              1 S1                 0.0000
     34 ****        -2.4015  -2.4536   2.6380 H              1 S1                 0.0000
     35 ****        -1.9590  -3.1731   1.1052 H              1 S1                 0.0000
     36 ****        -0.8412  -1.0196   1.4214 H              1 S1                 0.0000
     37 ****        -1.8551  -0.9881   0.0040 H              1 S1                 0.0000
     38 ****        -2.5769   0.1505   2.7465 H              1 S1                 0.0000
     39 ****        -2.1243   3.5897   1.6092 H              1 S1                 0.0000
     40 ****        -2.9106   2.6092   2.8523 H              1 S1                 0.0000
     41 ****        -3.6863   2.8590   1.2844 H              1 S1                 0.0000
     42 ****         1.5554   1.8384   3.7119 H              1 S1                 0.0000
     43 ****         1.2639   1.2537  -2.6984 H              1 S1                 0.0000
     44 ****         4.0484   1.7618  -0.1008 H              1 S1                 0.0000
     45 ****         3.4489   2.2247  -3.0699 H              1 S1                 0.0000
     46 ****         4.5272   3.1714  -1.9930 H              1 S1                 0.0000
     47 ****         4.5931   0.6752  -4.4089 H              1 S1                 0.0000
     48 ****         6.2061   1.3268  -4.2744 H              1 S1                 0.0000
     49 ****         6.1728  -0.8797  -4.7788 H              1 S1                 0.0000
     50 ****         7.1471   2.0503  -2.2244 H              1 S1                 0.0000
     51 ****         6.3413   1.9065  -0.6872 H              1 S1                 0.0000
     52 ****         8.0580   0.4714  -0.8871 H              1 S1                 0.0000
     53 ****         4.6220  -0.4679  -0.8280 H              1 S1                 0.0000
     54 ****         3.5170  -0.3657  -2.2407 H              1 S1                 0.0000
     55 ****        -4.7000   0.8373   1.8323 H              1 S1                 0.0000
     56 ****        -3.9686  -0.4458  -0.8462 H              1 S1                 0.0000
     57 ****        -4.1042   1.2814  -0.5470 H              1 S1                 0.0000
     58 ****        -5.5181   0.2548  -0.4077 H              1 S1                 0.0000
     59 ****        -5.7604  -1.3595   1.4794 H              1 S1                 0.0000
     60 ****        -4.6754  -1.3375   2.8508 H              1 S1                 0.0000
     61 ****        -4.0026  -2.3241   0.1885 H              1 S1                 0.0000
     62 ****        -2.3024   1.4930   0.2873 LP             1 S1                 0.0000
     63 ****        -0.7317   1.7400   3.4172 LP             1 S1                 0.0000
     64 ****         3.0775   1.7313   1.8976 LP             1 S1                 0.0000
     65 ****        -0.9777   1.3255  -1.6051 LP             1 S1                 0.0000
     66 ****         5.3406  -1.3106  -3.4936 LP             1 S1                 0.0000
     67 ****         6.8600  -0.7291  -3.3523 LP             1 S1                 0.0000
     68 ****         7.4825  -0.2666  -2.1731 LP             1 S1                 0.0000
     69 ****         6.7219  -0.3774  -0.7323 LP             1 S1                 0.0000
@<TRIPOS>BOND
    1    1    2 1     
    2    1   29 1     
    3    1   30 1     
    4    1   31 1     
    5    2    3 1     
    6    2   32 1     
    7    2   33 1     
    8    3   28 1     
    9    3    4 1     
   10    3   61 1     
   11    4    5 1     
   12    4   34 1     
   13    4   35 1     
   14    5    6 1     
   15    5   36 1     
   16    5   37 1     
   17    6    7 1     
   18    6   26 1     
   19    6   38 1     
   20    7    8 1     
   21    7    9 1     
   22    8   39 1     
   23    8   40 1     
   24    8   41 1     
   25    9   14 ar    
   26    9   10 ar    
   27   10   11 ar    
   28   11   12 ar    
   29   11   42 1     
   30   12   13 ar    
   31   13   17 1     
   32   13   14 ar    
   33   14   15 1     
   34   15   16 2     
   35   16   17 1     
   36   16   43 1     
   37   17   18 1     
   38   18   25 1     
   39   18   19 1     
   40   18   44 1     
   41   19   20 1     
   42   19   45 1     
   43   19   46 1     
   44   20   21 1     
   45   20   23 1     
   46   20   25 1     
   47   21   22 1     
   48   21   47 1     
   49   21   48 1     
   50   22   49 1     
   51   23   24 1     
   52   23   50 1     
   53   23   51 1     
   54   24   52 1     
   55   25   53 1     
   56   25   54 1     
   57   26   27 1     
   58   26   28 1     
   59   26   55 1     
   60   27   56 1     
   61   27   57 1     
   62   27   58 1     
   63   28   59 1     
   64   28   60 1     
   65    7   62 1     
   66   10   63 1     
   67   12   64 1     
   68   15   65 1     
   69   22   66 1     
   70   22   67 1     
   71   24   68 1     
   72   24   69 1     
@<TRIPOS>SUBSTRUCTURE
      1 S1             1
@<TRIPOS>SET
LONE_PAIRS      STATIC     ATOMS    <user>   **** ""
8 62 63 64 65 66 67 68 69
DONOR_HYDROGENS      STATIC     ATOMS    <user>   **** ""
3 61 49 52
ATOM$BLUE        STATIC     ATOMS    COLORGROUP SYSTEM
8 62 63 64 65 66 67 68 69
ATOM$RED        STATIC     ATOMS    COLORGROUP SYSTEM
3 61 49 52
