AV-unprocessed.smi:3234|AV-procd|sdf|12356|dock4
  -GOLD-   2272018213D 1   1.00000     0.00000
 Structure written by MMmdl.
 37 39  0  0  0  0  0  0  0  0  4 V2000
  151.3779  137.2127  156.6241 O   0  0  0  0  0  0  0  0  0  0  0  0
  150.9586  136.9382  155.4939 C   0  0  0  0  0  0  0  0  0  0  0  0
  150.4555  137.9032  154.7036 N   0  0  0  0  0  0  0  0  0  0  0  0
  150.2663  139.2814  154.9913 C   0  0  0  0  0  0  0  0  0  0  0  0
  149.1270  139.9165  154.4500 C   0  0  0  0  0  0  0  0  0  0  0  0
  148.8919  141.2778  154.7310 C   0  0  0  0  0  0  0  0  0  0  0  0
  149.7469  141.9581  155.5245 N   0  3  0  0  0  0  0  0  0  0  0  0
  150.8384  141.3887  156.0797 C   0  0  0  0  0  0  0  0  0  0  0  0
  151.1257  140.0308  155.8336 C   0  0  0  0  0  0  0  0  0  0  0  0
  150.9561  135.7223  154.8831 N   0  5  0  0  0  0  0  0  0  0  0  0
  150.0366  134.6269  155.2039 C   0  0  2  0  0  0  0  0  0  0  0  0
  150.3474  133.3803  154.3532 C   0  0  0  0  0  0  0  0  0  0  0  0
  148.9893  132.9058  153.8396 C   0  0  0  0  0  0  0  0  0  0  0  0
  148.1976  134.1406  153.7111 N   0  3  1  0  0  0  0  0  0  0  0  0
  146.7415  133.9212  153.5826 C   0  0  0  0  0  0  0  0  0  0  0  0
  146.2789  133.7670  152.1537 C   0  0  0  0  0  0  0  0  0  0  0  0
  146.0191  135.0578  152.8998 C   0  0  0  0  0  0  0  0  0  0  0  0
  148.5883  135.0069  154.8411 C   0  0  0  0  0  0  0  0  0  0  0  0
  150.2415  137.6207  153.7584 H   0  0  0  0  0  0  0  0  0  0  0  0
  148.4419  139.3691  153.8185 H   0  0  0  0  0  0  0  0  0  0  0  0
  148.0503  141.8372  154.3498 H   0  0  0  0  0  0  0  0  0  0  0  0
  151.4418  142.0294  156.7058 H   0  0  0  0  0  0  0  0  0  0  0  0
  151.9889  139.5829  156.3027 H   0  0  0  0  0  0  0  0  0  0  0  0
  150.0631  134.3585  156.2611 H   0  0  0  0  0  0  0  0  0  0  0  0
  150.9784  133.6326  153.4988 H   0  0  0  0  0  0  0  0  0  0  0  0
  150.8663  132.6086  154.9225 H   0  0  0  0  0  0  0  0  0  0  0  0
  149.0665  132.3792  152.8879 H   0  0  0  0  0  0  0  0  0  0  0  0
  148.5178  132.2313  154.5586 H   0  0  0  0  0  0  0  0  0  0  0  0
  146.2607  133.3635  154.3847 H   0  0  0  0  0  0  0  0  0  0  0  0
  147.0286  133.7854  151.3645 H   0  0  0  0  0  0  0  0  0  0  0  0
  145.4256  133.1175  151.9695 H   0  0  0  0  0  0  0  0  0  0  0  0
  144.9946  135.2580  153.2067 H   0  0  0  0  0  0  0  0  0  0  0  0
  146.5968  135.9330  152.6078 H   0  0  0  0  0  0  0  0  0  0  0  0
  147.9400  134.8033  155.6951 H   0  0  0  0  0  0  0  0  0  0  0  0
  148.4610  136.0592  154.5817 H   0  0  0  0  0  0  0  0  0  0  0  0
  148.5225  134.6039  152.8746 H   0  0  0  0  0  0  0  0  0  0  0  0
  149.5573  142.9419  155.7175 H   0  0  0  0  0  0  0  0  0  0  0  0
  1  2  2  0  0  0  0
  2  3  1  0  0  0  0
  2 10  1  0  0  0  0
  3  4  1  0  0  0  0
  3 19  1  0  0  0  0
  4  9  1  0  0  0  0
  4  5  2  0  0  0  0
  5  6  1  0  0  0  0
  5 20  1  0  0  0  0
  6  7  2  0  0  0  0
  6 21  1  0  0  0  0
  7  8  1  0  0  0  0
  7 37  1  0  0  0  0
  8  9  2  0  0  0  0
  8 22  1  0  0  0  0
  9 23  1  0  0  0  0
 10 11  1  0  0  0  0
 11 18  1  0  0  0  0
 11 12  1  0  0  0  0
 11 24  1  0  0  0  0
 12 13  1  0  0  0  0
 12 25  1  0  0  0  0
 12 26  1  0  0  0  0
 13 14  1  0  0  0  0
 13 27  1  0  0  0  0
 13 28  1  0  0  0  0
 14 15  1  0  0  0  0
 14 18  1  0  0  0  0
 14 36  1  0  0  0  0
 15 17  1  0  0  0  0
 15 16  1  0  0  0  0
 15 29  1  0  0  0  0
 16 17  1  0  0  0  0
 16 30  1  0  0  0  0
 16 31  1  0  0  0  0
 17 32  1  0  0  0  0
 17 33  1  0  0  0  0
 18 34  1  0  0  0  0
 18 35  1  0  0  0  0
M  CHG  1   7   1
M  CHG  1  10  -1
M  CHG  1  14   1
M  END
> <s_m_source_file>
AV-unprocessed.smi

> <i_m_source_file_index>
3234

> <i_lp_mmshare_version>
43012

> <i_f3d_flags>
0

> <s_epik_input>
W2NIXTFbY0hdbltjSF1bY0hdYzFbTkhdQyg9TylbTkhdW0NAQEhdMltDSDJdW0NIMl1OKFtDSDJdMilbQ0hdM1tDSDJdW0NIMl0z

> <s_epik_cmdline>
J2VwaWtfcHl0aG9uJywgJy1waCcsICc3LjAnLCAnLXRuJywgJzgnLCAnLW1hJywgJzIwMCcsICctbWV0YWxfYmluZGluZycsICctaW1hZScsICc8aW5maWxlLm1hZT4nLCAnLW9tYWUnLCAnPG91dGZpbGUubWFlPic=

> <r_epik_Ionization_Penalty>
8.3234

> <r_epik_Ionization_Penalty_Charging>
8.3234

> <r_epik_Ionization_Penalty_Neutral>
3.58513e-06

> <r_epik_State_Penalty>
7.99376

> <r_epik_Charging_Adjusted_Penalty>
16.3172

> <i_epik_Tot_Q>
1

> <i_epik_Tot_abs_Q>
3

> <r_epik_Metal_State_Penalty>
3.98956

> <b_epik_Metal_Only>
1

> <s_lp_Force_Field>
OPLS_2005

> <r_lp_Energy>
40.8871

> <b_lp_Chiralities_Consistent>
1

> <s_lp_Variant>
AV-unprocessed.smi:3234-9

> <Gold.Version>
5.8.1

> <Gold.Id.Protein>
6NUR|6NUR_protein|mol2

> <Gold.PLP.Fitness>
43.8856

> <Gold.PLP.PLP>
-28.0938

> <Gold.PLP.part.hbond>
-3.0000

> <Gold.PLP.part.metal>
0.0000

> <Gold.PLP.part.buried>
-2.9306

> <Gold.PLP.part.nonpolar>
-20.9677

> <Gold.PLP.part.repulsive>
0.4210

> <Gold.PLP.ligand.clash>
0.0000

> <Gold.PLP.ligand.torsion>
1.5876

> <Gold.PLP.Chemscore.Hbond>
5.9000

> <Gold.PLP.Chemscore.CHOScore>
0.0000

> <Gold.PLP.Chemscore.Metal>
0.0000

> <Gold.Chemscore.Hbonds>
donor molecule, donor type, donor heavy atom, donor atom, acceptor molecule, acceptor atom, score
      L1  H     7    37       P1  8028  2.00
      L1  H    14    36       P1  7948  2.00
      P1  H 10752 10764       L1    10  1.80

> <Gold.PLP.Chemscore.Internal.Correction>
1.2671

> <Gold.Rescore>
     Score         DG    S(hbond)    S(metal)    S(lipo)     H(rot)  DE(clash)    DE(int)     intcor
     11.92     -16.03       1.64        0.00      69.87       1.21       1.40       2.71       ----

> <Gold.Chemscore.Fitness>
11.9153

> <Gold.Chemscore.DG>
-16.0321

> <Gold.Chemscore.ZeroCoef>
-5.4800

> <Gold.Chemscore.Hbond>
1.6398

> <Gold.Chemscore.Metal>
0.0000

> <Gold.Chemscore.Lipo>
69.8708

> <Gold.Chemscore.Internal_Hbond>
0.0000

> <Gold.Chemscore.DEClash>
1.4041

> <Gold.Chemscore.DEInternal>
2.7127

> <Gold.Chemscore.Rot>
1.2108

> <Gold.Chemscore.Internal.Correction>
   9.000000E+99

> <Gold.Chemscore.Hbonds>
donor molecule, donor type, donor heavy atom, donor atom, acceptor molecule, acceptor atom, score
      L1  H     7    37       P1  8028  1.00
      L1  H    14    36       P1  7948  0.25
      P1  H 10752 10764       L1    10  0.17

> <Gold.Chemscore.Hbond.Weighted>
-5.4768

> <Gold.Chemscore.Metal.Weighted>
-0.0000

> <Gold.Chemscore.Lipo.Weighted>
-8.1749

> <Gold.Chemscore.Internal_Hbond.Weighted>
0.0000

> <Gold.Chemscore.DEClash.Weighted>
1.4041

> <Gold.Chemscore.DEInternal.Weighted>
2.7127

> <Gold.Chemscore.Rot.Weighted>
3.0996

> <Gold.Chemscore.Internal.Correction.Weighted>
   9.000000E+99

> <Gold.Protein.RotatedTorsions>
[ 6907 6896 6895 6894 ] final  167.35 input  -60.11 | X-H torsion
[ 7974 7965 7964 7962 ] final   35.75 input  175.53 | X-H torsion
[ 8008 7997 7996 7995 ] final  -55.56 input   59.86 | X-H torsion
[ 10167 10162 10161 10158 ] final    7.79 input  -65.29 | X-H torsion
[ 10718 10713 10712 10709 ] final   31.73 input   66.30 | X-H torsion
[ 10763 10752 10751 10750 ] final  -60.17 input  -60.55 | X-H torsion
[ 11005 11000 10999 10996 ] final -154.09 input  -57.11 | X-H torsion

> <Gold.Protein.ActiveResidues>
 VAL166  LYS551  ARG553  GLY616  TRP617  ASP618  TYR619  PRO620  LYS621  CYS622 
 ASP623  PHE694  ASN695  SER759  ASP760  ASP761  ALA762  ILE779  LEU786  VAL792 
 PHE793  MET794  SER795  GLU796  ALA797  LYS798  CYS799  TRP800  GLU811  SER814 

> <Gold.Protein.RotatedAtoms>
  151.8647  133.3464  159.3714 H   0  0  0  0  0  0  0  0  0  0  0  0  # atno 6907 bound_to 6896
  150.7169  134.5172  159.5645 H   0  0  0  0  0  0  0  0  0  0  0  0  # atno 6908 bound_to 6896
  152.2692  134.7951  160.0468 H   0  0  0  0  0  0  0  0  0  0  0  0  # atno 6909 bound_to 6896
  146.1260  139.6103  142.9258 H   0  0  0  0  0  0  0  0  0  0  0  0  # atno 7974 bound_to 7965
  154.4199  140.1150  156.5496 H   0  0  0  0  0  0  0  0  0  0  0  0  # atno 8008 bound_to 7997
  155.6423  140.3496  155.4700 H   0  0  0  0  0  0  0  0  0  0  0  0  # atno 8009 bound_to 7997
  155.9860  140.1170  157.0672 H   0  0  0  0  0  0  0  0  0  0  0  0  # atno 8010 bound_to 7997
  140.6351  143.7904  150.7349 H   0  0  0  0  0  0  0  0  0  0  0  0  # atno 10167 bound_to 10162
  157.2762  130.7232  149.6531 H   0  0  0  0  0  0  0  0  0  0  0  0  # atno 10718 bound_to 10713
  154.2651  135.6301  153.5289 H   0  0  0  0  0  0  0  0  0  0  0  0  # atno 10763 bound_to 10752
  152.9889  135.5597  154.5662 H   0  0  0  0  0  0  0  0  0  0  0  0  # atno 10764 bound_to 10752
  154.5219  135.2883  155.1230 H   0  0  0  0  0  0  0  0  0  0  0  0  # atno 10765 bound_to 10752
  140.7011  134.3936  157.5209 H   0  0  0  0  0  0  0  0  0  0  0  0  # atno 11005 bound_to 11000
  145.5363  141.0424  143.2355 LP  0  0  0  0  0  0  0  0  0  0  0  0  # atno 17320 bound_to 7965
  144.7643  139.6882  143.7221 LP  0  0  0  0  0  0  0  0  0  0  0  0  # atno 17321 bound_to 7965
  140.1524  143.4346  152.2122 LP  0  0  0  0  0  0  0  0  0  0  0  0  # atno 17342 bound_to 10162
  139.5562  144.7374  151.4287 LP  0  0  0  0  0  0  0  0  0  0  0  0  # atno 17343 bound_to 10162
  155.9664  130.4352  150.5082 LP  0  0  0  0  0  0  0  0  0  0  0  0  # atno 17370 bound_to 10713
  157.3016  131.0646  151.2064 LP  0  0  0  0  0  0  0  0  0  0  0  0  # atno 17371 bound_to 10713
  139.8896  134.8825  156.2410 LP  0  0  0  0  0  0  0  0  0  0  0  0  # atno 17394 bound_to 11000
  141.0163  133.7067  156.1194 LP  0  0  0  0  0  0  0  0  0  0  0  0  # atno 17395 bound_to 11000

$$$$
