AV-unprocessed.smi:3165|AV-procd|sdf|12085|dock1
  -GOLD-   2272017513D 1   1.00000     0.00000
 Structure written by MMmdl.
 38 39  0  0  0  0  0  0  0  0  2 V2000
  147.4999  140.6434  153.8186 C   0  0  0  0  0  0  0  0  0  0  0  0
  148.0882  139.2226  153.8213 C   0  0  2  0  0  0  0  0  0  0  0  0
  149.6177  139.2200  154.0496 C   0  0  0  0  0  0  0  0  0  0  0  0
  150.0152  139.9741  155.2246 N   0  0  0  0  0  0  0  0  0  0  0  0
  149.2401  140.3784  156.2916 C   0  0  0  0  0  0  0  0  0  0  0  0
  150.0530  141.0683  157.1448 C   0  0  0  0  0  0  0  0  0  0  0  0
  151.3222  141.0377  156.5024 C   0  0  0  0  0  0  0  0  0  0  0  0
  151.2955  140.3845  155.3520 N   0  0  0  0  0  0  0  0  0  0  0  0
  147.7361  138.5442  152.5539 N   0  3  0  0  0  0  0  0  0  0  0  0
  146.2937  138.5209  152.2300 C   0  0  0  0  0  0  0  0  0  0  0  0
  145.7413  137.0891  152.2680 C   0  0  2  0  0  0  0  0  0  0  0  0
  145.8978  136.3808  150.9081 C   0  0  0  0  0  0  0  0  0  0  0  0
  145.2501  134.9921  150.9437 C   0  0  0  0  0  0  0  0  0  0  0  0
  143.8000  135.1123  151.4228 C   0  0  0  0  0  0  0  0  0  0  0  0
  143.7394  135.8848  152.7497 C   0  0  0  0  0  0  0  0  0  0  0  0
  144.3553  137.1608  152.5979 O   0  0  0  0  0  0  0  0  0  0  0  0
  147.6571  141.1454  154.7735 H   0  0  0  0  0  0  0  0  0  0  0  0
  146.4240  140.6220  153.6411 H   0  0  0  0  0  0  0  0  0  0  0  0
  147.9533  141.2588  153.0411 H   0  0  0  0  0  0  0  0  0  0  0  0
  147.6076  138.6764  154.6346 H   0  0  0  0  0  0  0  0  0  0  0  0
  149.9951  138.2041  154.1677 H   0  0  0  0  0  0  0  0  0  0  0  0
  150.1280  139.6409  153.1822 H   0  0  0  0  0  0  0  0  0  0  0  0
  148.1878  140.1436  156.3562 H   0  0  0  0  0  0  0  0  0  0  0  0
  149.7827  141.5277  158.0840 H   0  0  0  0  0  0  0  0  0  0  0  0
  152.2551  141.4691  156.8344 H   0  0  0  0  0  0  0  0  0  0  0  0
  148.2019  139.0364  151.8050 H   0  0  0  0  0  0  0  0  0  0  0  0
  145.7369  139.1510  152.9235 H   0  0  0  0  0  0  0  0  0  0  0  0
  146.1542  138.9395  151.2323 H   0  0  0  0  0  0  0  0  0  0  0  0
  146.2706  136.5203  153.0352 H   0  0  0  0  0  0  0  0  0  0  0  0
  145.4310  136.9795  150.1247 H   0  0  0  0  0  0  0  0  0  0  0  0
  146.9526  136.2918  150.6462 H   0  0  0  0  0  0  0  0  0  0  0  0
  145.2885  134.5282  149.9577 H   0  0  0  0  0  0  0  0  0  0  0  0
  145.8082  134.3426  151.6194 H   0  0  0  0  0  0  0  0  0  0  0  0
  143.2068  135.6338  150.6706 H   0  0  0  0  0  0  0  0  0  0  0  0
  143.3572  134.1228  151.5397 H   0  0  0  0  0  0  0  0  0  0  0  0
  142.7018  136.0283  153.0516 H   0  0  0  0  0  0  0  0  0  0  0  0
  144.2286  135.3254  153.5486 H   0  0  0  0  0  0  0  0  0  0  0  0
  148.0865  137.5969  152.5788 H   0  0  0  0  0  0  0  0  0  0  0  0
  1  2  1  0  0  0  0
  1 17  1  0  0  0  0
  1 18  1  0  0  0  0
  1 19  1  0  0  0  0
  2  3  1  0  0  0  0
  2  9  1  0  0  0  0
  2 20  1  0  0  0  0
  3  4  1  0  0  0  0
  3 21  1  0  0  0  0
  3 22  1  0  0  0  0
  4  8  1  0  0  0  0
  4  5  1  0  0  0  0
  5  6  2  0  0  0  0
  5 23  1  0  0  0  0
  6  7  1  0  0  0  0
  6 24  1  0  0  0  0
  7  8  2  0  0  0  0
  7 25  1  0  0  0  0
  9 10  1  0  0  0  0
  9 26  1  0  0  0  0
  9 38  1  0  0  0  0
 10 11  1  0  0  0  0
 10 27  1  0  0  0  0
 10 28  1  0  0  0  0
 11 16  1  0  0  0  0
 11 12  1  0  0  0  0
 11 29  1  0  0  0  0
 12 13  1  0  0  0  0
 12 30  1  0  0  0  0
 12 31  1  0  0  0  0
 13 14  1  0  0  0  0
 13 32  1  0  0  0  0
 13 33  1  0  0  0  0
 14 15  1  0  0  0  0
 14 34  1  0  0  0  0
 14 35  1  0  0  0  0
 15 16  1  0  0  0  0
 15 36  1  0  0  0  0
 15 37  1  0  0  0  0
M  CHG  1   9   1
M  END
> <s_m_source_file>
AV-unprocessed.smi

> <i_m_source_file_index>
3165

> <i_lp_mmshare_version>
43012

> <i_f3d_flags>
0

> <s_epik_input>
bjFbY0hdW2NIXVtjSF1uMVtDSDJdW0NAQEhdKFtDSDNdKVtOSF1bQ0gyXVtDQEBIXTJbQ0gyXVtDSDJdW0NIMl1bQ0gyXU8y

> <s_epik_cmdline>
J2VwaWtfcHl0aG9uJywgJy1waCcsICc3LjAnLCAnLXRuJywgJzgnLCAnLW1hJywgJzIwMCcsICctbWV0YWxfYmluZGluZycsICctaW1hZScsICc8aW5maWxlLm1hZT4nLCAnLW9tYWUnLCAnPG91dGZpbGUubWFlPic=

> <r_lp_tautomer_probability>
1

> <r_epik_Ionization_Penalty>
0.00849196

> <r_epik_Ionization_Penalty_Charging>
0.00848754

> <r_epik_Ionization_Penalty_Neutral>
4.42049e-06

> <r_epik_State_Penalty>
0.00639836

> <r_epik_Charging_Adjusted_Penalty>
0.0148859

> <i_epik_Tot_Q>
1

> <i_epik_Tot_abs_Q>
1

> <r_epik_Metal_State_Penalty>
0.00639878

> <b_epik_Metal_Only>
0

> <s_lp_Force_Field>
OPLS_2005

> <r_lp_Energy>
12.7964

> <b_lp_Chiralities_Consistent>
1

> <s_lp_Variant>
AV-unprocessed.smi:3165-1

> <Gold.Version>
5.8.1

> <Gold.Id.Protein>
6NUR|6NUR_protein|mol2

> <Gold.PLP.Fitness>
38.9116

> <Gold.PLP.PLP>
-29.0307

> <Gold.PLP.part.hbond>
-3.0000

> <Gold.PLP.part.metal>
0.0000

> <Gold.PLP.part.buried>
-1.1443

> <Gold.PLP.part.nonpolar>
-25.6288

> <Gold.PLP.part.repulsive>
0.2967

> <Gold.PLP.ligand.clash>
0.0000

> <Gold.PLP.ligand.torsion>
0.9768

> <Gold.PLP.Chemscore.Hbond>
3.9280

> <Gold.PLP.Chemscore.CHOScore>
0.0000

> <Gold.PLP.Chemscore.Metal>
0.0000

> <Gold.Chemscore.Hbonds>
donor molecule, donor type, donor heavy atom, donor atom, acceptor molecule, acceptor atom, score
      L1  H     9    26       P1  7957  1.00
      L1  H     9    38       P1  7948  2.00
      P1  H  7989  7998       L1     8  0.91

> <Gold.PLP.Chemscore.Internal.Correction>
0.0506

> <Gold.Rescore>
     Score         DG    S(hbond)    S(metal)    S(lipo)     H(rot)  DE(clash)    DE(int)     intcor
     15.10     -16.23       2.17        0.00      65.83       1.64       0.09       1.04       ----

> <Gold.Chemscore.Fitness>
15.0984

> <Gold.Chemscore.DG>
-16.2326

> <Gold.Chemscore.ZeroCoef>
-5.4800

> <Gold.Chemscore.Hbond>
2.1735

> <Gold.Chemscore.Metal>
0.0000

> <Gold.Chemscore.Lipo>
65.8348

> <Gold.Chemscore.Internal_Hbond>
0.0000

> <Gold.Chemscore.DEClash>
0.0918

> <Gold.Chemscore.DEInternal>
1.0424

> <Gold.Chemscore.Rot>
1.6444

> <Gold.Chemscore.Internal.Correction>
   9.000000E+99

> <Gold.Chemscore.Hbonds>
donor molecule, donor type, donor heavy atom, donor atom, acceptor molecule, acceptor atom, score
      L1  H     9    26       P1  7957  0.91
      L1  H     9    38       P1  7948  0.95
      P1  H  7989  7998       L1     8  0.20

> <Gold.Chemscore.Hbond.Weighted>
-7.2596

> <Gold.Chemscore.Metal.Weighted>
-0.0000

> <Gold.Chemscore.Lipo.Weighted>
-7.7027

> <Gold.Chemscore.Internal_Hbond.Weighted>
0.0000

> <Gold.Chemscore.DEClash.Weighted>
0.0918

> <Gold.Chemscore.DEInternal.Weighted>
1.0424

> <Gold.Chemscore.Rot.Weighted>
4.2097

> <Gold.Chemscore.Internal.Correction.Weighted>
   9.000000E+99

> <Gold.Protein.RotatedTorsions>
[ 6907 6896 6895 6894 ] final  -86.21 input  -60.11 | X-H torsion
[ 7974 7965 7964 7962 ] final    2.66 input  175.53 | X-H torsion
[ 8008 7997 7996 7995 ] final   38.33 input   59.86 | X-H torsion
[ 10167 10162 10161 10158 ] final  -17.61 input  -65.29 | X-H torsion
[ 10718 10713 10712 10709 ] final   -6.43 input   66.30 | X-H torsion
[ 10763 10752 10751 10750 ] final  -64.01 input  -60.55 | X-H torsion
[ 11005 11000 10999 10996 ] final -164.56 input  -57.11 | X-H torsion

> <Gold.Protein.ActiveResidues>
 VAL166  LYS551  ARG553  GLY616  TRP617  ASP618  TYR619  PRO620  LYS621  CYS622 
 ASP623  PHE694  ASN695  SER759  ASP760  ASP761  ALA762  ILE779  LEU786  VAL792 
 PHE793  MET794  SER795  GLU796  ALA797  LYS798  CYS799  TRP800  GLU811  SER814 

> <Gold.Protein.RotatedAtoms>
  150.6867  134.3086  159.4736 H   0  0  0  0  0  0  0  0  0  0  0  0  # atno 6907 bound_to 6896
  152.0974  134.9362  160.0579 H   0  0  0  0  0  0  0  0  0  0  0  0  # atno 6908 bound_to 6896
  152.0655  133.4047  159.4473 H   0  0  0  0  0  0  0  0  0  0  0  0  # atno 6909 bound_to 6896
  146.2444  140.0803  142.8357 H   0  0  0  0  0  0  0  0  0  0  0  0  # atno 7974 bound_to 7965
  155.2184  140.3329  155.4319 H   0  0  0  0  0  0  0  0  0  0  0  0  # atno 8008 bound_to 7997
  156.2343  140.1865  156.7209 H   0  0  0  0  0  0  0  0  0  0  0  0  # atno 8009 bound_to 7997
  154.6031  140.0620  156.9381 H   0  0  0  0  0  0  0  0  0  0  0  0  # atno 8010 bound_to 7997
  140.7249  143.4998  150.9884 H   0  0  0  0  0  0  0  0  0  0  0  0  # atno 10167 bound_to 10162
  156.7320  130.5183  149.5843 H   0  0  0  0  0  0  0  0  0  0  0  0  # atno 10718 bound_to 10713
  154.3236  135.6191  153.5519 H   0  0  0  0  0  0  0  0  0  0  0  0  # atno 10763 bound_to 10752
  152.9817  135.5730  154.5041 H   0  0  0  0  0  0  0  0  0  0  0  0  # atno 10764 bound_to 10752
  154.4714  135.2859  155.1616 H   0  0  0  0  0  0  0  0  0  0  0  0  # atno 10765 bound_to 10752
  140.5855  134.5098  157.5185 H   0  0  0  0  0  0  0  0  0  0  0  0  # atno 11005 bound_to 11000
  145.0739  140.9174  143.4865 LP  0  0  0  0  0  0  0  0  0  0  0  0  # atno 17320 bound_to 7965
  145.0942  139.2868  143.5719 LP  0  0  0  0  0  0  0  0  0  0  0  0  # atno 17321 bound_to 7965
  139.8707  143.7196  152.3166 LP  0  0  0  0  0  0  0  0  0  0  0  0  # atno 17342 bound_to 10162
  139.7444  144.7551  151.0602 LP  0  0  0  0  0  0  0  0  0  0  0  0  # atno 17343 bound_to 10162
  156.1522  130.6318  151.0611 LP  0  0  0  0  0  0  0  0  0  0  0  0  # atno 17370 bound_to 10713
  157.6855  131.0826  150.7255 LP  0  0  0  0  0  0  0  0  0  0  0  0  # atno 17371 bound_to 10713
  139.9298  134.7986  156.0964 LP  0  0  0  0  0  0  0  0  0  0  0  0  # atno 17394 bound_to 11000
  141.0969  133.6692  156.2665 LP  0  0  0  0  0  0  0  0  0  0  0  0  # atno 17395 bound_to 11000

$$$$
