AV-unprocessed.smi:1303|AV-procd|sdf|5428|dock9
  -GOLD-   22720 4583D 1   1.00000     0.00000
 Structure written by MMmdl.
 40 41  0  0  0  0  0  0  0  0  1 V2000
  144.6445  141.1503  156.1464 C   0  0  0  0  0  0  0  0  0  0  0  0
  145.8659  142.0771  156.0277 C   0  0  0  0  0  0  0  0  0  0  0  0
  145.5103  143.3797  155.2922 C   0  0  0  0  0  0  0  0  0  0  0  0
  147.0275  141.3641  155.3240 C   0  0  0  0  0  0  0  0  0  0  0  0
  146.8756  140.2304  154.8676 O   0  0  0  0  0  0  0  0  0  0  0  0
  148.1800  142.0453  155.2297 N   0  0  0  0  0  0  0  0  0  0  0  0
  149.3780  141.5683  154.5452 C   0  0  0  0  0  0  0  0  0  0  0  0
  150.4446  140.9903  155.4670 C   0  0  0  0  0  0  0  0  0  0  0  0
  150.9816  139.7157  155.2014 C   0  0  0  0  0  0  0  0  0  0  0  0
  151.9622  139.2058  156.0722 C   0  0  0  0  0  0  0  0  0  0  0  0
  152.4165  139.8778  157.1504 N   0  0  0  0  0  0  0  0  0  0  0  0
  151.9095  141.1065  157.4180 C   0  0  0  0  0  0  0  0  0  0  0  0
  152.4004  141.8054  158.5421 N   0  0  0  0  0  0  0  0  0  0  0  0
  151.9246  143.1700  158.7619 C   0  0  0  0  0  0  0  0  0  0  0  0
  152.7649  143.8617  159.8485 C   0  0  0  0  0  0  0  0  0  0  0  0
  152.7516  143.0778  161.0367 O   0  0  0  0  0  0  0  0  0  0  0  0
  153.3198  141.7892  160.8271 C   0  0  0  0  0  0  0  0  0  0  0  0
  152.5021  141.0239  159.7726 C   0  0  0  0  0  0  0  0  0  0  0  0
  150.9103  141.6895  156.6032 C   0  0  0  0  0  0  0  0  0  0  0  0
  144.9004  140.2191  156.6534 H   0  0  0  0  0  0  0  0  0  0  0  0
  144.2362  140.8961  155.1674 H   0  0  0  0  0  0  0  0  0  0  0  0
  143.8497  141.6267  156.7207 H   0  0  0  0  0  0  0  0  0  0  0  0
  146.1855  142.3384  157.0380 H   0  0  0  0  0  0  0  0  0  0  0  0
  146.3788  144.0338  155.2008 H   0  0  0  0  0  0  0  0  0  0  0  0
  144.7407  143.9331  155.8308 H   0  0  0  0  0  0  0  0  0  0  0  0
  145.1338  143.1842  154.2873 H   0  0  0  0  0  0  0  0  0  0  0  0
  148.2210  142.9705  155.6317 H   0  0  0  0  0  0  0  0  0  0  0  0
  149.0801  140.7927  153.8398 H   0  0  0  0  0  0  0  0  0  0  0  0
  149.8055  142.3784  153.9519 H   0  0  0  0  0  0  0  0  0  0  0  0
  150.6524  139.1393  154.3494 H   0  0  0  0  0  0  0  0  0  0  0  0
  152.3955  138.2321  155.8974 H   0  0  0  0  0  0  0  0  0  0  0  0
  151.9861  143.7446  157.8371 H   0  0  0  0  0  0  0  0  0  0  0  0
  150.8762  143.1437  159.0617 H   0  0  0  0  0  0  0  0  0  0  0  0
  153.7912  144.0122  159.5098 H   0  0  0  0  0  0  0  0  0  0  0  0
  152.3549  144.8475  160.0685 H   0  0  0  0  0  0  0  0  0  0  0  0
  154.3616  141.8849  160.5167 H   0  0  0  0  0  0  0  0  0  0  0  0
  153.3182  141.2431  161.7703 H   0  0  0  0  0  0  0  0  0  0  0  0
  151.4971  140.8303  160.1496 H   0  0  0  0  0  0  0  0  0  0  0  0
  152.9670  140.0543  159.6005 H   0  0  0  0  0  0  0  0  0  0  0  0
  150.4993  142.6569  156.8494 H   0  0  0  0  0  0  0  0  0  0  0  0
  1  2  1  0  0  0  0
  1 20  1  0  0  0  0
  1 21  1  0  0  0  0
  1 22  1  0  0  0  0
  2  3  1  0  0  0  0
  2  4  1  0  0  0  0
  2 23  1  0  0  0  0
  3 24  1  0  0  0  0
  3 25  1  0  0  0  0
  3 26  1  0  0  0  0
  4  5  2  0  0  0  0
  4  6  1  0  0  0  0
  6  7  1  0  0  0  0
  6 27  1  0  0  0  0
  7  8  1  0  0  0  0
  7 28  1  0  0  0  0
  7 29  1  0  0  0  0
  8 19  1  0  0  0  0
  8  9  2  0  0  0  0
  9 10  1  0  0  0  0
  9 30  1  0  0  0  0
 10 11  2  0  0  0  0
 10 31  1  0  0  0  0
 11 12  1  0  0  0  0
 12 13  1  0  0  0  0
 12 19  2  0  0  0  0
 13 18  1  0  0  0  0
 13 14  1  0  0  0  0
 14 15  1  0  0  0  0
 14 32  1  0  0  0  0
 14 33  1  0  0  0  0
 15 16  1  0  0  0  0
 15 34  1  0  0  0  0
 15 35  1  0  0  0  0
 16 17  1  0  0  0  0
 17 18  1  0  0  0  0
 17 36  1  0  0  0  0
 17 37  1  0  0  0  0
 18 38  1  0  0  0  0
 18 39  1  0  0  0  0
 19 40  1  0  0  0  0
M  END
> <s_m_source_file>
AV-unprocessed.smi

> <i_m_source_file_index>
1303

> <i_lp_mmshare_version>
43012

> <i_f3d_flags>
0

> <s_epik_input>
W0NIM11bQ0hdKFtDSDNdKUMoPU8pW05IXVtDSDJdYzFbY0hdW2NIXW5jKFtjSF0xKU4yW0NIMl1bQ0gyXU9bQ0gyXVtDSDJdMg==

> <s_epik_cmdline>
J2VwaWtfcHl0aG9uJywgJy1waCcsICc3LjAnLCAnLXRuJywgJzgnLCAnLW1hJywgJzIwMCcsICctbWV0YWxfYmluZGluZycsICctaW1hZScsICc8aW5maWxlLm1hZT4nLCAnLW9tYWUnLCAnPG91dGZpbGUubWFlPic=

> <r_lp_tautomer_probability>
1

> <r_epik_Ionization_Penalty>
0.00576177

> <r_epik_Ionization_Penalty_Charging>
0

> <r_epik_Ionization_Penalty_Neutral>
0.00576177

> <r_epik_State_Penalty>
0.00422935

> <r_epik_Charging_Adjusted_Penalty>
0.00422935

> <i_epik_Tot_Q>
0

> <i_epik_Tot_abs_Q>
0

> <r_epik_Metal_State_Penalty>
-0

> <b_epik_Metal_Only>
0

> <s_lp_Force_Field>
OPLS_2005

> <r_lp_Energy>
14.5519

> <b_lp_Chiralities_Consistent>
1

> <s_lp_Variant>
AV-unprocessed.smi:1303-1

> <Gold.Version>
5.8.1

> <Gold.Id.Protein>
6NUR|6NUR_protein|mol2

> <Gold.PLP.Fitness>
40.3880

> <Gold.PLP.PLP>
-34.9047

> <Gold.PLP.part.hbond>
-2.0000

> <Gold.PLP.part.metal>
0.0000

> <Gold.PLP.part.buried>
-2.8621

> <Gold.PLP.part.nonpolar>
-29.6073

> <Gold.PLP.part.repulsive>
0.2291

> <Gold.PLP.ligand.clash>
0.0000

> <Gold.PLP.ligand.torsion>
0.4179

> <Gold.PLP.Chemscore.Hbond>
1.9920

> <Gold.PLP.Chemscore.CHOScore>
0.0000

> <Gold.PLP.Chemscore.Metal>
0.0000

> <Gold.Chemscore.Hbonds>
donor molecule, donor type, donor heavy atom, donor atom, acceptor molecule, acceptor atom, score
      L1  H     6    27       P1  8028  1.00
      P1  H  7997  8010       L1    11  0.99

> <Gold.PLP.Chemscore.Internal.Correction>
0.3431

> <Gold.Rescore>
     Score         DG    S(hbond)    S(metal)    S(lipo)     H(rot)  DE(clash)    DE(int)     intcor
     15.16     -15.77       1.18        0.00      88.27       1.56       0.23       0.38       ----

> <Gold.Chemscore.Fitness>
15.1566

> <Gold.Chemscore.DG>
-15.7658

> <Gold.Chemscore.ZeroCoef>
-5.4800

> <Gold.Chemscore.Hbond>
1.1818

> <Gold.Chemscore.Metal>
0.0000

> <Gold.Chemscore.Lipo>
88.2746

> <Gold.Chemscore.Internal_Hbond>
0.0000

> <Gold.Chemscore.DEClash>
0.2339

> <Gold.Chemscore.DEInternal>
0.3753

> <Gold.Chemscore.Rot>
1.5584

> <Gold.Chemscore.Internal.Correction>
   9.000000E+99

> <Gold.Chemscore.Hbonds>
donor molecule, donor type, donor heavy atom, donor atom, acceptor molecule, acceptor atom, score
      L1  H     6    27       P1  8028  0.91
      P1  H  7997  8010       L1    11  0.18

> <Gold.Chemscore.Hbond.Weighted>
-3.9472

> <Gold.Chemscore.Metal.Weighted>
-0.0000

> <Gold.Chemscore.Lipo.Weighted>
-10.3281

> <Gold.Chemscore.Internal_Hbond.Weighted>
0.0000

> <Gold.Chemscore.DEClash.Weighted>
0.2339

> <Gold.Chemscore.DEInternal.Weighted>
0.3753

> <Gold.Chemscore.Rot.Weighted>
3.9895

> <Gold.Chemscore.Internal.Correction.Weighted>
   9.000000E+99

> <Gold.Protein.RotatedTorsions>
[ 6907 6896 6895 6894 ] final  -10.36 input  -60.11 | X-H torsion
[ 7974 7965 7964 7962 ] final   -3.83 input  175.53 | X-H torsion
[ 8008 7997 7996 7995 ] final   57.27 input   59.86 | X-H torsion
[ 10167 10162 10161 10158 ] final  -83.17 input  -65.29 | X-H torsion
[ 10718 10713 10712 10709 ] final -123.93 input   66.30 | X-H torsion
[ 10763 10752 10751 10750 ] final   95.03 input  -60.55 | X-H torsion
[ 11005 11000 10999 10996 ] final   99.72 input  -57.11 | X-H torsion

> <Gold.Protein.ActiveResidues>
 VAL166  LYS551  ARG553  GLY616  TRP617  ASP618  TYR619  PRO620  LYS621  CYS622 
 ASP623  PHE694  ASN695  SER759  ASP760  ASP761  ALA762  ILE779  LEU786  VAL792 
 PHE793  MET794  SER795  GLU796  ALA797  LYS798  CYS799  TRP800  GLU811  SER814 

> <Gold.Protein.RotatedAtoms>
  151.4031  135.0974  159.9561 H   0  0  0  0  0  0  0  0  0  0  0  0  # atno 6907 bound_to 6896
  152.5044  133.8869  159.7385 H   0  0  0  0  0  0  0  0  0  0  0  0  # atno 6908 bound_to 6896
  150.9347  133.6669  159.2831 H   0  0  0  0  0  0  0  0  0  0  0  0  # atno 6909 bound_to 6896
  146.2383  140.1779  142.8332 H   0  0  0  0  0  0  0  0  0  0  0  0  # atno 7974 bound_to 7965
  155.5311  140.3482  155.4426 H   0  0  0  0  0  0  0  0  0  0  0  0  # atno 8008 bound_to 7997
  156.0718  140.1365  156.9846 H   0  0  0  0  0  0  0  0  0  0  0  0  # atno 8009 bound_to 7997
  154.4532  140.0964  156.6655 H   0  0  0  0  0  0  0  0  0  0  0  0  # atno 8010 bound_to 7997
  140.4251  143.2569  151.8837 H   0  0  0  0  0  0  0  0  0  0  0  0  # atno 10167 bound_to 10162
  156.1544  130.6557  150.9960 H   0  0  0  0  0  0  0  0  0  0  0  0  # atno 10718 bound_to 10713
  153.2484  135.4268  155.0772 H   0  0  0  0  0  0  0  0  0  0  0  0  # atno 10763 bound_to 10752
  154.8371  135.3420  154.6548 H   0  0  0  0  0  0  0  0  0  0  0  0  # atno 10764 bound_to 10752
  153.6970  135.7030  153.5130 H   0  0  0  0  0  0  0  0  0  0  0  0  # atno 10765 bound_to 10752
  139.8770  134.9108  156.4648 H   0  0  0  0  0  0  0  0  0  0  0  0  # atno 11005 bound_to 11000
  144.9958  140.8588  143.5312 LP  0  0  0  0  0  0  0  0  0  0  0  0  # atno 17320 bound_to 7965
  145.1792  139.2361  143.5301 LP  0  0  0  0  0  0  0  0  0  0  0  0  # atno 17321 bound_to 7965
  139.4783  144.5395  151.8549 LP  0  0  0  0  0  0  0  0  0  0  0  0  # atno 17342 bound_to 10162
  140.4490  144.1881  150.5896 LP  0  0  0  0  0  0  0  0  0  0  0  0  # atno 17343 bound_to 10162
  157.6683  131.0867  150.7674 LP  0  0  0  0  0  0  0  0  0  0  0  0  # atno 17370 bound_to 10713
  156.7740  130.4838  149.5413 LP  0  0  0  0  0  0  0  0  0  0  0  0  # atno 17371 bound_to 10713
  140.8838  133.7898  155.9496 LP  0  0  0  0  0  0  0  0  0  0  0  0  # atno 17394 bound_to 11000
  140.8826  134.2593  157.5136 LP  0  0  0  0  0  0  0  0  0  0  0  0  # atno 17395 bound_to 11000

$$$$
