AV-unprocessed.smi:2526|AV-procd|sdf|9941|dock4
  -GOLD-   2272013583D 1   1.00000     0.00000
 Structure written by MMmdl.
 28 29  0  0  0  0  0  0  0  0  1 V2000
  152.5009  145.2870  158.6185 C   0  0  0  0  0  0  0  0  0  0  0  0
  152.0737  143.9162  158.4367 N   0  0  0  0  0  0  0  0  0  0  0  0
  151.1826  143.4097  157.5161 C   0  0  0  0  0  0  0  0  0  0  0  0
  151.0894  142.0612  157.7280 C   0  0  0  0  0  0  0  0  0  0  0  0
  150.2595  141.0310  156.9979 C   0  0  1  0  0  0  0  0  0  0  0  0
  149.5466  141.6434  155.8720 N   0  0  0  0  0  0  0  0  0  0  0  0
  149.3253  141.1047  154.6595 C   0  0  0  0  0  0  0  0  0  0  0  0
  148.6698  141.6965  153.8051 O   0  0  0  0  0  0  0  0  0  0  0  0
  149.9333  139.7342  154.3284 C   0  0  0  0  0  0  0  0  0  0  0  0
  150.3486  138.9381  155.5741 C   0  0  0  0  0  0  0  0  0  0  0  0
  151.1265  139.8307  156.5477 C   0  0  2  0  0  0  0  0  0  0  0  0
  151.5637  139.0457  157.6882 N   0  0  0  0  0  0  0  0  0  0  0  0
  151.9813  141.8427  158.8177 C   0  0  0  0  0  0  0  0  0  0  0  0
  152.5649  142.9520  159.2407 N   0  0  0  0  0  0  0  0  0  0  0  0
  152.3160  145.8582  157.7081 H   0  0  0  0  0  0  0  0  0  0  0  0
  153.5671  145.3212  158.8453 H   0  0  0  0  0  0  0  0  0  0  0  0
  151.9444  145.7375  159.4407 H   0  0  0  0  0  0  0  0  0  0  0  0
  150.6927  144.0441  156.7920 H   0  0  0  0  0  0  0  0  0  0  0  0
  149.4771  140.6571  157.6604 H   0  0  0  0  0  0  0  0  0  0  0  0
  149.1486  142.5551  156.0455 H   0  0  0  0  0  0  0  0  0  0  0  0
  149.2260  139.1552  153.7336 H   0  0  0  0  0  0  0  0  0  0  0  0
  150.8064  139.9045  153.6976 H   0  0  0  0  0  0  0  0  0  0  0  0
  149.4617  138.5308  156.0626 H   0  0  0  0  0  0  0  0  0  0  0  0
  150.9569  138.0846  155.2723 H   0  0  0  0  0  0  0  0  0  0  0  0
  152.0172  140.2012  156.0382 H   0  0  0  0  0  0  0  0  0  0  0  0
  151.3207  138.0757  157.5464 H   0  0  0  0  0  0  0  0  0  0  0  0
  152.5707  139.0810  157.7577 H   0  0  0  0  0  0  0  0  0  0  0  0
  152.2189  140.9124  159.3123 H   0  0  0  0  0  0  0  0  0  0  0  0
  1  2  1  0  0  0  0
  1 15  1  0  0  0  0
  1 16  1  0  0  0  0
  1 17  1  0  0  0  0
  2 14  1  0  0  0  0
  2  3  1  0  0  0  0
  3  4  2  0  0  0  0
  3 18  1  0  0  0  0
  4  5  1  0  0  0  0
  4 13  1  0  0  0  0
  5 11  1  0  0  0  0
  5  6  1  0  0  0  0
  5 19  1  0  0  0  0
  6  7  1  0  0  0  0
  6 20  1  0  0  0  0
  7  8  2  0  0  0  0
  7  9  1  0  0  0  0
  9 10  1  0  0  0  0
  9 21  1  0  0  0  0
  9 22  1  0  0  0  0
 10 11  1  0  0  0  0
 10 23  1  0  0  0  0
 10 24  1  0  0  0  0
 11 12  1  0  0  0  0
 11 25  1  0  0  0  0
 12 26  1  0  0  0  0
 12 27  1  0  0  0  0
 13 14  2  0  0  0  0
 13 28  1  0  0  0  0
M  END
> <s_m_source_file>
AV-unprocessed.smi

> <i_m_source_file_index>
2526

> <i_lp_mmshare_version>
43012

> <i_f3d_flags>
0

> <s_epik_input>
W0NIM11uMVtjSF1jKFtjSF1uMSlbQ0BASF0yW05IXUMoPU8pW0NIMl1bQ0gyXVtDQEhdMltOSDJd

> <s_epik_cmdline>
J2VwaWtfcHl0aG9uJywgJy1waCcsICc3LjAnLCAnLXRuJywgJzgnLCAnLW1hJywgJzIwMCcsICctbWV0YWxfYmluZGluZycsICctaW1hZScsICc8aW5maWxlLm1hZT4nLCAnLW9tYWUnLCAnPG91dGZpbGUubWFlPic=

> <r_lp_tautomer_probability>
1

> <r_epik_Ionization_Penalty>
2.50279

> <r_epik_Ionization_Penalty_Charging>
0

> <r_epik_Ionization_Penalty_Neutral>
2.50279

> <r_epik_State_Penalty>
2.66754

> <r_epik_Charging_Adjusted_Penalty>
2.66754

> <i_epik_Tot_Q>
0

> <i_epik_Tot_abs_Q>
0

> <r_epik_Metal_State_Penalty>
2.66721

> <b_epik_Metal_Only>
0

> <s_lp_Force_Field>
OPLS_2005

> <r_lp_Energy>
8.34042

> <b_lp_Chiralities_Consistent>
1

> <s_lp_Variant>
AV-unprocessed.smi:2526-8

> <Gold.Version>
5.8.1

> <Gold.Id.Protein>
6NUR|6NUR_protein|mol2

> <Gold.PLP.Fitness>
33.0272

> <Gold.PLP.PLP>
-26.7072

> <Gold.PLP.part.hbond>
-1.6032

> <Gold.PLP.part.metal>
0.0000

> <Gold.PLP.part.buried>
-2.4622

> <Gold.PLP.part.nonpolar>
-21.8210

> <Gold.PLP.part.repulsive>
0.2870

> <Gold.PLP.ligand.clash>
0.0000

> <Gold.PLP.ligand.torsion>
0.0938

> <Gold.PLP.Chemscore.Hbond>
1.1605

> <Gold.PLP.Chemscore.CHOScore>
1.0000

> <Gold.PLP.Chemscore.Metal>
0.0000

> <Gold.Chemscore.Hbonds>
donor molecule, donor type, donor heavy atom, donor atom, acceptor molecule, acceptor atom, score
      L1  H     6    20       P1  8028  0.54
      P1  H  8011  8017       L1     8  0.61
      L1  C     3    18       P1  8028  1.00

> <Gold.PLP.Chemscore.Internal.Correction>
0.0260

> <Gold.Rescore>
     Score         DG    S(hbond)    S(metal)    S(lipo)     H(rot)  DE(clash)    DE(int)     intcor
     13.72     -14.73       1.28        0.00      64.39       1.00       0.25       0.76       ----

> <Gold.Chemscore.Fitness>
13.7158

> <Gold.Chemscore.DG>
-14.7257

> <Gold.Chemscore.ZeroCoef>
-5.4800

> <Gold.Chemscore.Hbond>
1.2790

> <Gold.Chemscore.Metal>
0.0000

> <Gold.Chemscore.Lipo>
64.3927

> <Gold.Chemscore.Internal_Hbond>
0.0000

> <Gold.Chemscore.DEClash>
0.2497

> <Gold.Chemscore.DEInternal>
0.7601

> <Gold.Chemscore.Rot>
1.0000

> <Gold.Chemscore.Internal.Correction>
   9.000000E+99

> <Gold.Chemscore.Hbonds>
donor molecule, donor type, donor heavy atom, donor atom, acceptor molecule, acceptor atom, score
      L1  H     6    20       P1  8028  0.53
      P1  H  8011  8017       L1     8  0.50

> <Gold.Chemscore.Hbond.Weighted>
-4.2718

> <Gold.Chemscore.Metal.Weighted>
-0.0000

> <Gold.Chemscore.Lipo.Weighted>
-7.5339

> <Gold.Chemscore.Internal_Hbond.Weighted>
0.0000

> <Gold.Chemscore.DEClash.Weighted>
0.2497

> <Gold.Chemscore.DEInternal.Weighted>
0.7601

> <Gold.Chemscore.Rot.Weighted>
2.5600

> <Gold.Chemscore.Internal.Correction.Weighted>
   9.000000E+99

> <Gold.Protein.RotatedTorsions>
[ 6907 6896 6895 6894 ] final  111.85 input  -60.11 | X-H torsion
[ 7974 7965 7964 7962 ] final  -86.20 input  175.53 | X-H torsion
[ 8008 7997 7996 7995 ] final  158.72 input   59.86 | X-H torsion
[ 10167 10162 10161 10158 ] final   70.93 input  -65.29 | X-H torsion
[ 10718 10713 10712 10709 ] final   84.23 input   66.30 | X-H torsion
[ 10763 10752 10751 10750 ] final   75.58 input  -60.55 | X-H torsion
[ 11005 11000 10999 10996 ] final   45.25 input  -57.11 | X-H torsion

> <Gold.Protein.ActiveResidues>
 VAL166  LYS551  ARG553  GLY616  TRP617  ASP618  TYR619  PRO620  LYS621  CYS622 
 ASP623  PHE694  ASN695  SER759  ASP760  ASP761  ALA762  ILE779  LEU786  VAL792 
 PHE793  MET794  SER795  GLU796  ALA797  LYS798  CYS799  TRP800  GLU811  SER814 

> <Gold.Protein.RotatedAtoms>
  152.4948  133.8599  159.7244 H   0  0  0  0  0  0  0  0  0  0  0  0  # atno 6907 bound_to 6896
  150.9113  133.6985  159.2861 H   0  0  0  0  0  0  0  0  0  0  0  0  # atno 6908 bound_to 6896
  151.4393  135.1022  159.9718 H   0  0  0  0  0  0  0  0  0  0  0  0  # atno 6909 bound_to 6896
  145.4831  140.9556  143.1853 H   0  0  0  0  0  0  0  0  0  0  0  0  # atno 7974 bound_to 7965
  156.2285  140.1851  156.7303 H   0  0  0  0  0  0  0  0  0  0  0  0  # atno 8008 bound_to 7997
  154.5982  140.0640  156.9360 H   0  0  0  0  0  0  0  0  0  0  0  0  # atno 8009 bound_to 7997
  155.2220  140.3308  155.4317 H   0  0  0  0  0  0  0  0  0  0  0  0  # atno 8010 bound_to 7997
  140.0516  144.5307  150.7359 H   0  0  0  0  0  0  0  0  0  0  0  0  # atno 10167 bound_to 10162
  157.6894  131.0124  150.2642 H   0  0  0  0  0  0  0  0  0  0  0  0  # atno 10718 bound_to 10713
  153.0665  135.4983  154.8211 H   0  0  0  0  0  0  0  0  0  0  0  0  # atno 10763 bound_to 10752
  154.6961  135.2993  154.9412 H   0  0  0  0  0  0  0  0  0  0  0  0  # atno 10764 bound_to 10752
  154.0151  135.6749  153.4821 H   0  0  0  0  0  0  0  0  0  0  0  0  # atno 10765 bound_to 10752
  140.1477  134.4501  155.8404 H   0  0  0  0  0  0  0  0  0  0  0  0  # atno 11005 bound_to 11000
  144.7877  139.6392  143.7127 LP  0  0  0  0  0  0  0  0  0  0  0  0  # atno 17320 bound_to 7965
  146.2329  139.5848  142.9543 LP  0  0  0  0  0  0  0  0  0  0  0  0  # atno 17321 bound_to 7965
  140.7214  143.2592  151.4266 LP  0  0  0  0  0  0  0  0  0  0  0  0  # atno 17342 bound_to 10162
  139.5950  144.1418  152.2133 LP  0  0  0  0  0  0  0  0  0  0  0  0  # atno 17343 bound_to 10162
  156.3216  130.3786  149.7570 LP  0  0  0  0  0  0  0  0  0  0  0  0  # atno 17370 bound_to 10713
  156.5138  130.8184  151.3179 LP  0  0  0  0  0  0  0  0  0  0  0  0  # atno 17371 bound_to 10713
  141.2195  133.6859  156.7364 LP  0  0  0  0  0  0  0  0  0  0  0  0  # atno 17394 bound_to 11000
  140.2643  134.8442  157.3788 LP  0  0  0  0  0  0  0  0  0  0  0  0  # atno 17395 bound_to 11000

$$$$
