AV-unprocessed.smi:281|AV-procd|sdf|2110|dock7
  -GOLD-   2262021403D 1   1.00000     0.00000
 Structure written by MMmdl.
 55 59  0  0  0  0  0  0  0  0  1 V2000
  151.5201  132.5051  157.0402 C   0  0  0  0  0  0  0  0  0  0  0  0
  150.6260  133.6545  156.5645 C   0  0  1  0  0  0  0  0  0  0  0  0
  151.4428  134.8851  156.1460 C   0  0  0  0  0  0  0  0  0  0  0  0
  150.5554  135.9181  155.6218 N   0  0  0  0  0  0  0  0  0  0  0  0
  151.0749  137.1601  155.4370 C   0  0  0  0  0  0  0  0  0  0  0  0
  152.1036  137.3428  154.5653 N   0  0  0  0  0  0  0  0  0  0  0  0
  152.6166  138.5604  154.3671 C   0  0  0  0  0  0  0  0  0  0  0  0
  152.2612  139.7163  154.9289 N   0  0  0  0  0  0  0  0  0  0  0  0
  151.2376  139.5420  155.8127 C   0  0  0  0  0  0  0  0  0  0  0  0
  150.5899  138.3117  156.1213 C   0  0  0  0  0  0  0  0  0  0  0  0
  149.5971  138.5299  157.0690 N   0  0  0  0  0  0  0  0  0  0  0  0
  149.6478  139.8129  157.2994 C   0  0  0  0  0  0  0  0  0  0  0  0
  150.6122  140.4973  156.5957 N   0  0  0  0  0  0  0  0  0  0  0  0
  150.8955  141.9232  156.6591 C   0  0  0  0  0  0  0  0  0  0  0  0
  151.2762  142.4187  158.0744 C   0  0  1  0  0  0  0  0  0  0  0  0
  150.1298  142.3764  158.9067 O   0  0  0  0  0  0  0  0  0  0  0  0
  152.3685  141.5752  158.7198 C   0  0  0  0  0  0  0  0  0  0  0  0
  153.0591  142.5691  159.6433 C   0  0  0  0  0  0  0  0  0  0  0  0
  153.0777  143.7571  158.8704 O   0  0  0  0  0  0  0  0  0  0  0  0
  151.8657  143.8438  158.1263 C   0  0  0  0  0  0  0  0  0  0  0  0
  149.7125  135.4424  154.5291 C   0  0  0  0  0  0  0  0  0  0  0  0
  148.9479  134.1465  154.9078 C   0  0  2  0  0  0  0  0  0  0  0  0
  148.3482  133.5018  153.6616 C   0  0  0  0  0  0  0  0  0  0  0  0
  147.1159  132.7878  154.1896 C   0  0  0  0  0  0  0  0  0  0  0  0
  146.6085  133.7305  155.1136 O   0  0  0  0  0  0  0  0  0  0  0  0
  147.7049  134.2740  155.8411 C   0  0  2  0  0  0  0  0  0  0  0  0
  147.3184  135.6834  156.3106 C   0  0  0  0  0  0  0  0  0  0  0  0
  149.8703  133.1924  155.4455 O   0  0  0  0  0  0  0  0  0  0  0  0
  152.1174  132.8028  157.9021 H   0  0  0  0  0  0  0  0  0  0  0  0
  152.2033  132.1849  156.2531 H   0  0  0  0  0  0  0  0  0  0  0  0
  150.9214  131.6423  157.3332 H   0  0  0  0  0  0  0  0  0  0  0  0
  149.9582  133.9282  157.3818 H   0  0  0  0  0  0  0  0  0  0  0  0
  151.9948  135.2673  157.0060 H   0  0  0  0  0  0  0  0  0  0  0  0
  152.1730  134.6101  155.3831 H   0  0  0  0  0  0  0  0  0  0  0  0
  153.4286  138.6163  153.6572 H   0  0  0  0  0  0  0  0  0  0  0  0
  148.9792  140.2951  157.9974 H   0  0  0  0  0  0  0  0  0  0  0  0
  151.6996  142.1439  155.9556 H   0  0  0  0  0  0  0  0  0  0  0  0
  150.0180  142.4599  156.2962 H   0  0  0  0  0  0  0  0  0  0  0  0
  149.4747  142.9540  158.5455 H   0  0  0  0  0  0  0  0  0  0  0  0
  151.9932  140.6931  159.2404 H   0  0  0  0  0  0  0  0  0  0  0  0
  153.0809  141.2373  157.9654 H   0  0  0  0  0  0  0  0  0  0  0  0
  152.4768  142.7307  160.5519 H   0  0  0  0  0  0  0  0  0  0  0  0
  154.0641  142.2567  159.9271 H   0  0  0  0  0  0  0  0  0  0  0  0
  152.1089  144.2272  157.1360 H   0  0  0  0  0  0  0  0  0  0  0  0
  151.1857  144.5570  158.5948 H   0  0  0  0  0  0  0  0  0  0  0  0
  149.0143  136.2065  154.1909 H   0  0  0  0  0  0  0  0  0  0  0  0
  150.3658  135.2371  153.6795 H   0  0  0  0  0  0  0  0  0  0  0  0
  148.0334  134.2683  152.9518 H   0  0  0  0  0  0  0  0  0  0  0  0
  149.0388  132.8348  153.1444 H   0  0  0  0  0  0  0  0  0  0  0  0
  146.3918  132.5569  153.4082 H   0  0  0  0  0  0  0  0  0  0  0  0
  147.3833  131.8640  154.7053 H   0  0  0  0  0  0  0  0  0  0  0  0
  147.8329  133.6382  156.7177 H   0  0  0  0  0  0  0  0  0  0  0  0
  148.1139  136.1410  156.8983 H   0  0  0  0  0  0  0  0  0  0  0  0
  146.4300  135.6475  156.9411 H   0  0  0  0  0  0  0  0  0  0  0  0
  147.0922  136.3363  155.4680 H   0  0  0  0  0  0  0  0  0  0  0  0
  1  2  1  0  0  0  0
  1 29  1  0  0  0  0
  1 30  1  0  0  0  0
  1 31  1  0  0  0  0
  2 28  1  0  0  0  0
  2  3  1  0  0  0  0
  2 32  1  0  0  0  0
  3  4  1  0  0  0  0
  3 33  1  0  0  0  0
  3 34  1  0  0  0  0
  4  5  1  0  0  0  0
  4 21  1  0  0  0  0
  5 10  1  0  0  0  0
  5  6  2  0  0  0  0
  6  7  1  0  0  0  0
  7  8  2  0  0  0  0
  7 35  1  0  0  0  0
  8  9  1  0  0  0  0
  9 13  1  0  0  0  0
  9 10  2  0  0  0  0
 10 11  1  0  0  0  0
 11 12  2  0  0  0  0
 12 13  1  0  0  0  0
 12 36  1  0  0  0  0
 13 14  1  0  0  0  0
 14 15  1  0  0  0  0
 14 37  1  0  0  0  0
 14 38  1  0  0  0  0
 15 20  1  0  0  0  0
 15 16  1  0  0  0  0
 15 17  1  0  0  0  0
 16 39  1  0  0  0  0
 17 18  1  0  0  0  0
 17 40  1  0  0  0  0
 17 41  1  0  0  0  0
 18 19  1  0  0  0  0
 18 42  1  0  0  0  0
 18 43  1  0  0  0  0
 19 20  1  0  0  0  0
 20 44  1  0  0  0  0
 20 45  1  0  0  0  0
 21 22  1  0  0  0  0
 21 46  1  0  0  0  0
 21 47  1  0  0  0  0
 22 26  1  0  0  0  0
 22 23  1  0  0  0  0
 22 28  1  0  0  0  0
 23 24  1  0  0  0  0
 23 48  1  0  0  0  0
 23 49  1  0  0  0  0
 24 25  1  0  0  0  0
 24 50  1  0  0  0  0
 24 51  1  0  0  0  0
 25 26  1  0  0  0  0
 26 27  1  0  0  0  0
 26 52  1  0  0  0  0
 27 53  1  0  0  0  0
 27 54  1  0  0  0  0
 27 55  1  0  0  0  0
M  END
> <s_m_source_file>
AV-unprocessed.smi

> <i_m_source_file_index>
281

> <i_lp_mmshare_version>
43012

> <i_f3d_flags>
0

> <s_epik_input>
W0NIM11bQ0BASF0xT1tDSDJdW0NIMl1bQ0BAXTEyW0NIMl1OKFtDSDJdW0NASF0oTzIpW0NIM10pYyhuW2NIXW4zKWMoYzM0KW5bY0hdbjRbQ0gyXVtDQEBdNShbT0hdKVtDSDJdW0NIMl1PW0NIMl01

> <s_epik_cmdline>
J2VwaWtfcHl0aG9uJywgJy1waCcsICc3LjAnLCAnLXRuJywgJzgnLCAnLW1hJywgJzIwMCcsICctbWV0YWxfYmluZGluZycsICctaW1hZScsICc8aW5maWxlLm1hZT4nLCAnLW9tYWUnLCAnPG91dGZpbGUubWFlPic=

> <r_lp_tautomer_probability>
1

> <r_epik_Ionization_Penalty>
0.00571331

> <r_epik_Ionization_Penalty_Charging>
0

> <r_epik_Ionization_Penalty_Neutral>
0.00571331

> <r_epik_State_Penalty>
0.00399586

> <r_epik_Charging_Adjusted_Penalty>
0.00399586

> <i_epik_Tot_Q>
0

> <i_epik_Tot_abs_Q>
0

> <r_epik_Metal_State_Penalty>
-0

> <b_epik_Metal_Only>
0

> <s_lp_Force_Field>
OPLS_2005

> <r_lp_Energy>
52.955

> <b_lp_Chiralities_Consistent>
1

> <s_lp_Variant>
AV-unprocessed.smi:281-10

> <Gold.Version>
5.8.1

> <Gold.Id.Protein>
6NUR|6NUR_protein|mol2

> <Gold.PLP.Fitness>
41.9476

> <Gold.PLP.PLP>
-37.4105

> <Gold.PLP.part.hbond>
-2.7476

> <Gold.PLP.part.metal>
0.0000

> <Gold.PLP.part.buried>
-3.7044

> <Gold.PLP.part.nonpolar>
-30.8450

> <Gold.PLP.part.repulsive>
0.2963

> <Gold.PLP.ligand.clash>
0.0000

> <Gold.PLP.ligand.torsion>
0.2752

> <Gold.PLP.Chemscore.Hbond>
1.6093

> <Gold.PLP.Chemscore.CHOScore>
0.0000

> <Gold.PLP.Chemscore.Metal>
0.0000

> <Gold.Chemscore.Hbonds>
donor molecule, donor type, donor heavy atom, donor atom, acceptor molecule, acceptor atom, score
      P1  H  7989  7998       L1     8  0.75
      P1  H 10752 10764       L1     6  0.82

> <Gold.PLP.Chemscore.Internal.Correction>
0.2596

> <Gold.Rescore>
     Score         DG    S(hbond)    S(metal)    S(lipo)     H(rot)  DE(clash)    DE(int)     intcor
     14.96     -15.37       1.71        0.00      81.43       2.09       0.08       0.33       ----

> <Gold.Chemscore.Fitness>
14.9630

> <Gold.Chemscore.DG>
-15.3738

> <Gold.Chemscore.ZeroCoef>
-5.4800

> <Gold.Chemscore.Hbond>
1.7137

> <Gold.Chemscore.Metal>
0.0000

> <Gold.Chemscore.Lipo>
81.4307

> <Gold.Chemscore.Internal_Hbond>
0.0000

> <Gold.Chemscore.DEClash>
0.0813

> <Gold.Chemscore.DEInternal>
0.3295

> <Gold.Chemscore.Rot>
2.0927

> <Gold.Chemscore.Internal.Correction>
   9.000000E+99

> <Gold.Chemscore.Hbonds>
donor molecule, donor type, donor heavy atom, donor atom, acceptor molecule, acceptor atom, score
      P1  H  7989  7998       L1     8  0.29
      P1  H 10752 10764       L1     6  0.60

> <Gold.Chemscore.Hbond.Weighted>
-5.7238

> <Gold.Chemscore.Metal.Weighted>
-0.0000

> <Gold.Chemscore.Lipo.Weighted>
-9.5274

> <Gold.Chemscore.Internal_Hbond.Weighted>
0.0000

> <Gold.Chemscore.DEClash.Weighted>
0.0813

> <Gold.Chemscore.DEInternal.Weighted>
0.3295

> <Gold.Chemscore.Rot.Weighted>
5.3573

> <Gold.Chemscore.Internal.Correction.Weighted>
   9.000000E+99

> <Gold.Protein.RotatedTorsions>
[ 6907 6896 6895 6894 ] final  -72.44 input  -60.11 | X-H torsion
[ 7974 7965 7964 7962 ] final -118.22 input  175.53 | X-H torsion
[ 8008 7997 7996 7995 ] final   52.58 input   59.86 | X-H torsion
[ 10167 10162 10161 10158 ] final  138.59 input  -65.29 | X-H torsion
[ 10718 10713 10712 10709 ] final   65.50 input   66.30 | X-H torsion
[ 10763 10752 10751 10750 ] final  -82.21 input  -60.55 | X-H torsion
[ 11005 11000 10999 10996 ] final  -84.49 input  -57.11 | X-H torsion

> <Gold.Protein.ActiveResidues>
 VAL166  LYS551  ARG553  GLY616  TRP617  ASP618  TYR619  PRO620  LYS621  CYS622 
 ASP623  PHE694  ASN695  SER759  ASP760  ASP761  ALA762  ILE779  LEU786  VAL792 
 PHE793  MET794  SER795  GLU796  ALA797  LYS798  CYS799  TRP800  GLU811  SER814 

> <Gold.Protein.RotatedAtoms>
  150.7170  134.5162  159.5631 H   0  0  0  0  0  0  0  0  0  0  0  0  # atno 6907 bound_to 6896
  152.2728  134.7911  160.0420 H   0  0  0  0  0  0  0  0  0  0  0  0  # atno 6908 bound_to 6896
  151.8585  133.3417  159.3733 H   0  0  0  0  0  0  0  0  0  0  0  0  # atno 6909 bound_to 6896
  145.0763  140.8394  143.4065 H   0  0  0  0  0  0  0  0  0  0  0  0  # atno 7974 bound_to 7965
  155.4542  140.3459  155.4304 H   0  0  0  0  0  0  0  0  0  0  0  0  # atno 8008 bound_to 7997
  156.1201  140.1485  156.9246 H   0  0  0  0  0  0  0  0  0  0  0  0  # atno 8009 bound_to 7997
  154.4817  140.0867  156.7372 H   0  0  0  0  0  0  0  0  0  0  0  0  # atno 8010 bound_to 7997
  139.5106  144.6344  151.5734 H   0  0  0  0  0  0  0  0  0  0  0  0  # atno 10167 bound_to 10162
  157.6109  130.9217  149.9985 H   0  0  0  0  0  0  0  0  0  0  0  0  # atno 10718 bound_to 10713
  154.5730  135.5599  153.7113 H   0  0  0  0  0  0  0  0  0  0  0  0  # atno 10763 bound_to 10752
  153.0055  135.6301  154.2088 H   0  0  0  0  0  0  0  0  0  0  0  0  # atno 10764 bound_to 10752
  154.2028  135.2877  155.2965 H   0  0  0  0  0  0  0  0  0  0  0  0  # atno 10765 bound_to 10752
  141.1650  133.7349  156.8875 H   0  0  0  0  0  0  0  0  0  0  0  0  # atno 11005 bound_to 11000
  145.1232  139.2680  143.5578 LP  0  0  0  0  0  0  0  0  0  0  0  0  # atno 17320 bound_to 7965
  146.3530  140.0861  142.8615 LP  0  0  0  0  0  0  0  0  0  0  0  0  # atno 17321 bound_to 7965
  140.6088  143.9474  150.6438 LP  0  0  0  0  0  0  0  0  0  0  0  0  # atno 17342 bound_to 10162
  140.2710  143.3456  152.1238 LP  0  0  0  0  0  0  0  0  0  0  0  0  # atno 17343 bound_to 10162
  156.1212  130.3646  149.9884 LP  0  0  0  0  0  0  0  0  0  0  0  0  # atno 17370 bound_to 10713
  156.7964  130.9275  151.3646 LP  0  0  0  0  0  0  0  0  0  0  0  0  # atno 17371 bound_to 10713
  140.1672  134.9125  157.2788 LP  0  0  0  0  0  0  0  0  0  0  0  0  # atno 17394 bound_to 11000
  140.2544  134.3645  155.7430 LP  0  0  0  0  0  0  0  0  0  0  0  0  # atno 17395 bound_to 11000

$$$$
