AV-unprocessed.smi:292|AV-procd|sdf|2249|dock8
  -GOLD-   2262022133D 1   1.00000     0.00000
 Structure written by MMmdl.
 33 34  0  0  0  0  0  0  0  0  1 V2000
  149.6906  133.5120  155.4327 N   0  0  0  0  0  0  0  0  0  0  0  0
  149.9764  134.6215  155.2702 C   0  0  0  0  0  0  0  0  0  0  0  0
  150.3353  136.0147  155.0661 C   0  0  0  0  0  0  0  0  0  0  0  0
  151.5401  136.3692  154.5322 N   0  0  0  0  0  0  0  0  0  0  0  0
  151.3954  137.6881  154.5551 C   0  0  0  0  0  0  0  0  0  0  0  0
  150.2240  138.0981  155.0537 N   0  0  0  0  0  0  0  0  0  0  0  0
  149.7062  139.4414  155.2634 C   0  0  0  0  0  0  0  0  0  0  0  0
  150.6535  140.3409  156.0711 C   0  0  0  0  0  0  0  0  0  0  0  0
  151.6959  140.7377  155.5516 O   0  0  0  0  0  0  0  0  0  0  0  0
  150.3039  140.6434  157.3332 N   0  0  0  0  0  0  0  0  0  0  0  0
  151.0498  141.4952  158.2572 C   0  0  2  0  0  0  0  0  0  0  0  0
  151.0334  142.9686  157.7737 C   0  0  0  0  0  0  0  0  0  0  0  0
  152.2235  143.8439  158.2190 C   0  0  0  0  0  0  0  0  0  0  0  0
  152.4827  143.8903  159.7384 C   0  0  0  0  0  0  0  0  0  0  0  0
  152.6565  142.5296  160.4538 C   0  0  0  0  0  0  0  0  0  0  0  0
  153.1331  141.4519  159.5878 N   0  0  0  0  0  0  0  0  0  0  0  0
  152.4417  140.9112  158.5696 C   0  0  0  0  0  0  0  0  0  0  0  0
  152.9058  139.9932  157.8940 O   0  0  0  0  0  0  0  0  0  0  0  0
  149.5035  137.0011  155.3943 N   0  0  0  0  0  0  0  0  0  0  0  0
  152.1598  138.3691  154.2107 H   0  0  0  0  0  0  0  0  0  0  0  0
  149.5219  139.9014  154.2920 H   0  0  0  0  0  0  0  0  0  0  0  0
  148.7441  139.3713  155.7730 H   0  0  0  0  0  0  0  0  0  0  0  0
  149.4273  140.2784  157.6773 H   0  0  0  0  0  0  0  0  0  0  0  0
  150.5098  141.4573  159.2044 H   0  0  0  0  0  0  0  0  0  0  0  0
  151.0058  142.9893  156.6834 H   0  0  0  0  0  0  0  0  0  0  0  0
  150.1023  143.4353  158.0977 H   0  0  0  0  0  0  0  0  0  0  0  0
  153.1284  143.5103  157.7092 H   0  0  0  0  0  0  0  0  0  0  0  0
  152.0595  144.8613  157.8629 H   0  0  0  0  0  0  0  0  0  0  0  0
  153.3857  144.4803  159.8986 H   0  0  0  0  0  0  0  0  0  0  0  0
  151.6821  144.4456  160.2282 H   0  0  0  0  0  0  0  0  0  0  0  0
  153.3567  142.6415  161.2819 H   0  0  0  0  0  0  0  0  0  0  0  0
  151.7154  142.2272  160.9147 H   0  0  0  0  0  0  0  0  0  0  0  0
  154.0498  141.0774  159.7864 H   0  0  0  0  0  0  0  0  0  0  0  0
  1  2  3  0  0  0  0
  2  3  1  0  0  0  0
  3 19  2  0  0  0  0
  3  4  1  0  0  0  0
  4  5  2  0  0  0  0
  5  6  1  0  0  0  0
  5 20  1  0  0  0  0
  6  7  1  0  0  0  0
  6 19  1  0  0  0  0
  7  8  1  0  0  0  0
  7 21  1  0  0  0  0
  7 22  1  0  0  0  0
  8  9  2  0  0  0  0
  8 10  1  0  0  0  0
 10 11  1  0  0  0  0
 10 23  1  0  0  0  0
 11 17  1  0  0  0  0
 11 12  1  0  0  0  0
 11 24  1  0  0  0  0
 12 13  1  0  0  0  0
 12 25  1  0  0  0  0
 12 26  1  0  0  0  0
 13 14  1  0  0  0  0
 13 27  1  0  0  0  0
 13 28  1  0  0  0  0
 14 15  1  0  0  0  0
 14 29  1  0  0  0  0
 14 30  1  0  0  0  0
 15 16  1  0  0  0  0
 15 31  1  0  0  0  0
 15 32  1  0  0  0  0
 16 17  1  0  0  0  0
 16 33  1  0  0  0  0
 17 18  2  0  0  0  0
M  END
> <s_m_source_file>
AV-unprocessed.smi

> <i_m_source_file_index>
292

> <i_lp_mmshare_version>
43012

> <i_f3d_flags>
0

> <s_epik_input>
TiNDYzFuW2NIXW4objEpW0NIMl1DKD1PKVtOSF1bQ0BASF0yW0NIMl1bQ0gyXVtDSDJdW0NIMl1bTkhdQzI9Tw==

> <s_epik_cmdline>
J2VwaWtfcHl0aG9uJywgJy1waCcsICc3LjAnLCAnLXRuJywgJzgnLCAnLW1hJywgJzIwMCcsICctbWV0YWxfYmluZGluZycsICctaW1hZScsICc8aW5maWxlLm1hZT4nLCAnLW9tYWUnLCAnPG91dGZpbGUubWFlPic=

> <r_lp_tautomer_probability>
1

> <r_epik_Ionization_Penalty>
1.99744e-07

> <r_epik_Ionization_Penalty_Charging>
0

> <r_epik_Ionization_Penalty_Neutral>
1.99744e-07

> <r_epik_State_Penalty>
-0

> <r_epik_Charging_Adjusted_Penalty>
0

> <i_epik_Tot_Q>
0

> <i_epik_Tot_abs_Q>
0

> <r_epik_Metal_State_Penalty>
-0

> <b_epik_Metal_Only>
0

> <s_lp_Force_Field>
OPLS_2005

> <r_lp_Energy>
19.194

> <b_lp_Chiralities_Consistent>
1

> <s_lp_Variant>
AV-unprocessed.smi:292-1

> <Gold.Version>
5.8.1

> <Gold.Id.Protein>
6NUR|6NUR_protein|mol2

> <Gold.PLP.Fitness>
40.8741

> <Gold.PLP.PLP>
-33.2536

> <Gold.PLP.part.hbond>
-3.0000

> <Gold.PLP.part.metal>
0.0000

> <Gold.PLP.part.buried>
-3.7030

> <Gold.PLP.part.nonpolar>
-27.7572

> <Gold.PLP.part.repulsive>
1.2217

> <Gold.PLP.ligand.clash>
0.0000

> <Gold.PLP.ligand.torsion>
0.2005

> <Gold.PLP.Chemscore.Hbond>
2.6560

> <Gold.PLP.Chemscore.CHOScore>
0.0000

> <Gold.PLP.Chemscore.Metal>
0.0000

> <Gold.Chemscore.Hbonds>
donor molecule, donor type, donor heavy atom, donor atom, acceptor molecule, acceptor atom, score
      P1  H  7989  7998       L1     9  0.64
      P1  H  7997  8010       L1    18  1.00
      P1  H 10752 10765       L1     4  1.00

> <Gold.PLP.Chemscore.Internal.Correction>
0.0535

> <Gold.Rescore>
     Score         DG    S(hbond)    S(metal)    S(lipo)     H(rot)  DE(clash)    DE(int)     intcor
     12.91     -15.62       2.73        0.00      55.60       2.14       0.15       2.56       ----

> <Gold.Chemscore.Fitness>
12.9055

> <Gold.Chemscore.DG>
-15.6200

> <Gold.Chemscore.ZeroCoef>
-5.4800

> <Gold.Chemscore.Hbond>
2.7317

> <Gold.Chemscore.Metal>
0.0000

> <Gold.Chemscore.Lipo>
55.6036

> <Gold.Chemscore.Internal_Hbond>
0.0000

> <Gold.Chemscore.DEClash>
0.1528

> <Gold.Chemscore.DEInternal>
2.5617

> <Gold.Chemscore.Rot>
2.1444

> <Gold.Chemscore.Internal.Correction>
   9.000000E+99

> <Gold.Chemscore.Hbonds>
donor molecule, donor type, donor heavy atom, donor atom, acceptor molecule, acceptor atom, score
      P1  H  7989  7998       L1     9  0.56
      P1  H  7997  8010       L1    18  0.98
      P1  H 10752 10765       L1     4  0.95

> <Gold.Chemscore.Hbond.Weighted>
-9.1240

> <Gold.Chemscore.Metal.Weighted>
-0.0000

> <Gold.Chemscore.Lipo.Weighted>
-6.5056

> <Gold.Chemscore.Internal_Hbond.Weighted>
0.0000

> <Gold.Chemscore.DEClash.Weighted>
0.1528

> <Gold.Chemscore.DEInternal.Weighted>
2.5617

> <Gold.Chemscore.Rot.Weighted>
5.4896

> <Gold.Chemscore.Internal.Correction.Weighted>
   9.000000E+99

> <Gold.Protein.RotatedTorsions>
[ 6907 6896 6895 6894 ] final   27.56 input  -60.11 | X-H torsion
[ 7974 7965 7964 7962 ] final -129.93 input  175.53 | X-H torsion
[ 8008 7997 7996 7995 ] final   40.03 input   59.86 | X-H torsion
[ 10167 10162 10161 10158 ] final  -86.34 input  -65.29 | X-H torsion
[ 10718 10713 10712 10709 ] final -145.27 input   66.30 | X-H torsion
[ 10763 10752 10751 10750 ] final  151.59 input  -60.55 | X-H torsion
[ 11005 11000 10999 10996 ] final   80.17 input  -57.11 | X-H torsion

> <Gold.Protein.ActiveResidues>
 VAL166  LYS551  ARG553  GLY616  TRP617  ASP618  TYR619  PRO620  LYS621  CYS622 
 ASP623  PHE694  ASN695  SER759  ASP760  ASP761  ALA762  ILE779  LEU786  VAL792 
 PHE793  MET794  SER795  GLU796  ALA797  LYS798  CYS799  TRP800  GLU811  SER814 

> <Gold.Protein.RotatedAtoms>
  152.0040  134.9913  160.0565 H   0  0  0  0  0  0  0  0  0  0  0  0  # atno 6907 bound_to 6896
  152.1492  133.4507  159.4813 H   0  0  0  0  0  0  0  0  0  0  0  0  # atno 6908 bound_to 6896
  150.6873  134.2128  159.4409 H   0  0  0  0  0  0  0  0  0  0  0  0  # atno 6909 bound_to 6896
  144.9524  140.7359  143.4779 H   0  0  0  0  0  0  0  0  0  0  0  0  # atno 7974 bound_to 7965
  155.2465  140.3349  155.4286 H   0  0  0  0  0  0  0  0  0  0  0  0  # atno 8008 bound_to 7997
  156.2234  140.1819  156.7467 H   0  0  0  0  0  0  0  0  0  0  0  0  # atno 8009 bound_to 7997
  154.5860  140.0645  156.9157 H   0  0  0  0  0  0  0  0  0  0  0  0  # atno 8010 bound_to 7997
  140.3951  143.2687  151.9215 H   0  0  0  0  0  0  0  0  0  0  0  0  # atno 10167 bound_to 10162
  156.3804  130.7834  151.2025 H   0  0  0  0  0  0  0  0  0  0  0  0  # atno 10718 bound_to 10713
  154.1063  135.2842  155.3240 H   0  0  0  0  0  0  0  0  0  0  0  0  # atno 10763 bound_to 10752
  154.6521  135.5365  153.7917 H   0  0  0  0  0  0  0  0  0  0  0  0  # atno 10764 bound_to 10752
  153.0361  135.6512  154.1224 H   0  0  0  0  0  0  0  0  0  0  0  0  # atno 10765 bound_to 10752
  139.9144  134.7900  156.1875 H   0  0  0  0  0  0  0  0  0  0  0  0  # atno 11005 bound_to 11000
  145.2823  139.1913  143.4784 LP  0  0  0  0  0  0  0  0  0  0  0  0  # atno 17320 bound_to 7965
  146.3325  140.2787  142.8609 LP  0  0  0  0  0  0  0  0  0  0  0  0  # atno 17321 bound_to 7965
  139.4787  144.5689  151.8120 LP  0  0  0  0  0  0  0  0  0  0  0  0  # atno 17342 bound_to 10162
  140.4799  144.1465  150.5931 LP  0  0  0  0  0  0  0  0  0  0  0  0  # atno 17343 bound_to 10162
  157.7492  131.0346  150.4324 LP  0  0  0  0  0  0  0  0  0  0  0  0  # atno 17370 bound_to 10713
  156.4567  130.4023  149.6602 LP  0  0  0  0  0  0  0  0  0  0  0  0  # atno 17371 bound_to 10713
  141.0604  133.6844  156.1942 LP  0  0  0  0  0  0  0  0  0  0  0  0  # atno 17394 bound_to 11000
  140.6669  134.4908  157.5586 LP  0  0  0  0  0  0  0  0  0  0  0  0  # atno 17395 bound_to 11000

$$$$
