AV-unprocessed.smi:1167|AV-procd|sdf|4938|dock2
  -GOLD-   22720 3523D 1   1.00000     0.00000
 Structure written by MMmdl.
 41 42  0  0  0  0  0  0  0  0  1 V2000
  145.8596  136.9074  152.6882 C   0  0  0  0  0  0  0  0  0  0  0  0
  146.1752  138.1454  152.0608 O   0  0  0  0  0  0  0  0  0  0  0  0
  146.8767  139.0872  152.7853 C   0  0  0  0  0  0  0  0  0  0  0  0
  146.6671  140.4505  152.5000 C   0  0  0  0  0  0  0  0  0  0  0  0
  147.3803  141.4192  153.2324 C   0  0  0  0  0  0  0  0  0  0  0  0
  148.2864  140.9914  154.2335 C   0  0  0  0  0  0  0  0  0  0  0  0
  149.0720  141.8528  155.0493 N   0  0  0  0  0  0  0  0  0  0  0  0
  150.1725  141.5821  155.7729 C   0  0  0  0  0  0  0  0  0  0  0  0
  150.7242  140.4859  155.8600 O   0  0  0  0  0  0  0  0  0  0  0  0
  150.6113  142.6788  156.4070 N   0  0  0  0  0  0  0  0  0  0  0  0
  151.7818  142.7378  157.2776 C   0  0  0  0  0  0  0  0  0  0  0  0
  151.6943  141.6200  158.3389 C   0  0  0  0  0  0  0  0  0  0  0  0
  152.8061  141.7609  159.3939 C   0  0  0  0  0  0  0  0  0  0  0  0
  152.7232  143.0973  159.9942 N   0  0  0  0  0  0  0  0  0  0  0  0
  152.3070  143.3045  161.2666 C   0  0  0  0  0  0  0  0  0  0  0  0
  152.1847  144.7372  161.7907 C   0  0  0  0  0  0  0  0  0  0  0  0
  152.0178  142.3832  162.0304 O   0  0  0  0  0  0  0  0  0  0  0  0
  153.0052  144.1497  159.0099 C   0  0  0  0  0  0  0  0  0  0  0  0
  151.9037  144.1322  157.9352 C   0  0  0  0  0  0  0  0  0  0  0  0
  148.4200  139.6027  154.4415 C   0  0  0  0  0  0  0  0  0  0  0  0
  147.7405  138.6691  153.7428 N   0  0  0  0  0  0  0  0  0  0  0  0
  145.3098  136.2786  151.9879 H   0  0  0  0  0  0  0  0  0  0  0  0
  145.2289  137.0540  153.5662 H   0  0  0  0  0  0  0  0  0  0  0  0
  146.7612  136.3670  152.9806 H   0  0  0  0  0  0  0  0  0  0  0  0
  145.9706  140.7500  151.7306 H   0  0  0  0  0  0  0  0  0  0  0  0
  147.2094  142.4585  153.0047 H   0  0  0  0  0  0  0  0  0  0  0  0
  148.7463  142.8072  155.0938 H   0  0  0  0  0  0  0  0  0  0  0  0
  150.0980  143.5388  156.2793 H   0  0  0  0  0  0  0  0  0  0  0  0
  152.6794  142.5574  156.6828 H   0  0  0  0  0  0  0  0  0  0  0  0
  150.7246  141.6575  158.8380 H   0  0  0  0  0  0  0  0  0  0  0  0
  151.7582  140.6423  157.8601 H   0  0  0  0  0  0  0  0  0  0  0  0
  152.7223  140.9606  160.1304 H   0  0  0  0  0  0  0  0  0  0  0  0
  153.7843  141.6330  158.9280 H   0  0  0  0  0  0  0  0  0  0  0  0
  151.4841  145.3129  161.1851 H   0  0  0  0  0  0  0  0  0  0  0  0
  153.1547  145.2355  161.7828 H   0  0  0  0  0  0  0  0  0  0  0  0
  151.8177  144.7406  162.8176 H   0  0  0  0  0  0  0  0  0  0  0  0
  153.0832  145.1454  159.4439 H   0  0  0  0  0  0  0  0  0  0  0  0
  153.9754  143.9581  158.5495 H   0  0  0  0  0  0  0  0  0  0  0  0
  152.1146  144.8889  157.1787 H   0  0  0  0  0  0  0  0  0  0  0  0
  150.9532  144.4103  158.3932 H   0  0  0  0  0  0  0  0  0  0  0  0
  149.0965  139.2247  155.1945 H   0  0  0  0  0  0  0  0  0  0  0  0
  1  2  1  0  0  0  0
  1 22  1  0  0  0  0
  1 23  1  0  0  0  0
  1 24  1  0  0  0  0
  2  3  1  0  0  0  0
  3 21  1  0  0  0  0
  3  4  2  0  0  0  0
  4  5  1  0  0  0  0
  4 25  1  0  0  0  0
  5  6  2  0  0  0  0
  5 26  1  0  0  0  0
  6  7  1  0  0  0  0
  6 20  1  0  0  0  0
  7  8  1  0  0  0  0
  7 27  1  0  0  0  0
  8  9  2  0  0  0  0
  8 10  1  0  0  0  0
 10 11  1  0  0  0  0
 10 28  1  0  0  0  0
 11 19  1  0  0  0  0
 11 12  1  0  0  0  0
 11 29  1  0  0  0  0
 12 13  1  0  0  0  0
 12 30  1  0  0  0  0
 12 31  1  0  0  0  0
 13 14  1  0  0  0  0
 13 32  1  0  0  0  0
 13 33  1  0  0  0  0
 14 15  1  0  0  0  0
 14 18  1  0  0  0  0
 15 16  1  0  0  0  0
 15 17  2  0  0  0  0
 16 34  1  0  0  0  0
 16 35  1  0  0  0  0
 16 36  1  0  0  0  0
 18 19  1  0  0  0  0
 18 37  1  0  0  0  0
 18 38  1  0  0  0  0
 19 39  1  0  0  0  0
 19 40  1  0  0  0  0
 20 21  2  0  0  0  0
 20 41  1  0  0  0  0
M  END
> <s_m_source_file>
AV-unprocessed.smi

> <i_m_source_file_index>
1167

> <i_lp_mmshare_version>
43012

> <i_f3d_flags>
0

> <s_epik_input>
W0NIM11PYzFbY0hdW2NIXWMoW2NIXW4xKVtOSF1DKD1PKVtOSF1bQ0hdMltDSDJdW0NIMl1OKEMoPU8pW0NIM10pW0NIMl1bQ0gyXTI=

> <s_epik_cmdline>
J2VwaWtfcHl0aG9uJywgJy1waCcsICc3LjAnLCAnLXRuJywgJzgnLCAnLW1hJywgJzIwMCcsICctbWV0YWxfYmluZGluZycsICctaW1hZScsICc8aW5maWxlLm1hZT4nLCAnLW9tYWUnLCAnPG91dGZpbGUubWFlPic=

> <r_lp_tautomer_probability>
1

> <r_epik_Ionization_Penalty>
9.6092e-05

> <r_epik_Ionization_Penalty_Charging>
0

> <r_epik_Ionization_Penalty_Neutral>
9.6092e-05

> <r_epik_State_Penalty>
-0

> <r_epik_Charging_Adjusted_Penalty>
0

> <i_epik_Tot_Q>
0

> <i_epik_Tot_abs_Q>
0

> <r_epik_Metal_State_Penalty>
-0

> <b_epik_Metal_Only>
0

> <s_lp_Force_Field>
OPLS_2005

> <r_lp_Energy>
24.5609

> <b_lp_Chiralities_Consistent>
1

> <s_lp_Variant>
AV-unprocessed.smi:1167-1

> <Gold.Version>
5.8.1

> <Gold.Id.Protein>
6NUR|6NUR_protein|mol2

> <Gold.PLP.Fitness>
46.2011

> <Gold.PLP.PLP>
-38.3855

> <Gold.PLP.part.hbond>
-3.0000

> <Gold.PLP.part.metal>
0.0000

> <Gold.PLP.part.buried>
-2.2606

> <Gold.PLP.part.nonpolar>
-34.5517

> <Gold.PLP.part.repulsive>
0.9340

> <Gold.PLP.ligand.clash>
0.0000

> <Gold.PLP.ligand.torsion>
0.5042

> <Gold.PLP.Chemscore.Hbond>
2.9357

> <Gold.PLP.Chemscore.CHOScore>
0.0000

> <Gold.PLP.Chemscore.Metal>
0.0000

> <Gold.Chemscore.Hbonds>
donor molecule, donor type, donor heavy atom, donor atom, acceptor molecule, acceptor atom, score
      L1  H     7    27       P1  8028  1.00
      L1  H    10    28       P1  8028  1.00
      P1  H  6933  6945       L1    17  0.83

> <Gold.PLP.Chemscore.Internal.Correction>
0.0168

> <Gold.Rescore>
     Score         DG    S(hbond)    S(metal)    S(lipo)     H(rot)  DE(clash)    DE(int)     intcor
     16.39     -22.75       2.66        0.00      99.56       1.27       3.61       2.74       ----

> <Gold.Chemscore.Fitness>
16.3905

> <Gold.Chemscore.DG>
-22.7471

> <Gold.Chemscore.ZeroCoef>
-5.4800

> <Gold.Chemscore.Hbond>
2.6590

> <Gold.Chemscore.Metal>
0.0000

> <Gold.Chemscore.Lipo>
99.5630

> <Gold.Chemscore.Internal_Hbond>
0.0000

> <Gold.Chemscore.DEClash>
3.6145

> <Gold.Chemscore.DEInternal>
2.7420

> <Gold.Chemscore.Rot>
1.2746

> <Gold.Chemscore.Internal.Correction>
   9.000000E+99

> <Gold.Chemscore.Hbonds>
donor molecule, donor type, donor heavy atom, donor atom, acceptor molecule, acceptor atom, score
      L1  H     7    27       P1  8028  0.95
      L1  H    10    28       P1  8028  1.00
      P1  H  6933  6945       L1    17  0.77

> <Gold.Chemscore.Hbond.Weighted>
-8.8812

> <Gold.Chemscore.Metal.Weighted>
-0.0000

> <Gold.Chemscore.Lipo.Weighted>
-11.6489

> <Gold.Chemscore.Internal_Hbond.Weighted>
0.0000

> <Gold.Chemscore.DEClash.Weighted>
3.6145

> <Gold.Chemscore.DEInternal.Weighted>
2.7420

> <Gold.Chemscore.Rot.Weighted>
3.2630

> <Gold.Chemscore.Internal.Correction.Weighted>
   9.000000E+99

> <Gold.Protein.RotatedTorsions>
[ 6907 6896 6895 6894 ] final  -25.43 input  -60.11 | X-H torsion
[ 7974 7965 7964 7962 ] final  134.20 input  175.53 | X-H torsion
[ 8008 7997 7996 7995 ] final -136.83 input   59.86 | X-H torsion
[ 10167 10162 10161 10158 ] final  -53.99 input  -65.29 | X-H torsion
[ 10718 10713 10712 10709 ] final  -18.99 input   66.30 | X-H torsion
[ 10763 10752 10751 10750 ] final  -16.98 input  -60.55 | X-H torsion
[ 11005 11000 10999 10996 ] final  -73.61 input  -57.11 | X-H torsion

> <Gold.Protein.ActiveResidues>
 VAL166  LYS551  ARG553  GLY616  TRP617  ASP618  TYR619  PRO620  LYS621  CYS622 
 ASP623  PHE694  ASN695  SER759  ASP760  ASP761  ALA762  ILE779  LEU786  VAL792 
 PHE793  MET794  SER795  GLU796  ALA797  LYS798  CYS799  TRP800  GLU811  SER814 

> <Gold.Protein.RotatedAtoms>
  151.1753  135.0336  159.8768 H   0  0  0  0  0  0  0  0  0  0  0  0  # atno 6907 bound_to 6896
  152.5447  134.1124  159.8374 H   0  0  0  0  0  0  0  0  0  0  0  0  # atno 6908 bound_to 6896
  151.1235  133.5040  159.2633 H   0  0  0  0  0  0  0  0  0  0  0  0  # atno 6909 bound_to 6896
  144.9788  139.4527  143.5397 H   0  0  0  0  0  0  0  0  0  0  0  0  # atno 7974 bound_to 7965
  155.4017  140.0506  157.3036 H   0  0  0  0  0  0  0  0  0  0  0  0  # atno 8008 bound_to 7997
  154.4988  140.2148  155.9351 H   0  0  0  0  0  0  0  0  0  0  0  0  # atno 8009 bound_to 7997
  156.1440  140.3149  155.8546 H   0  0  0  0  0  0  0  0  0  0  0  0  # atno 8010 bound_to 7997
  140.6455  143.2532  151.4872 H   0  0  0  0  0  0  0  0  0  0  0  0  # atno 10167 bound_to 10162
  156.5519  130.4704  149.6448 H   0  0  0  0  0  0  0  0  0  0  0  0  # atno 10718 bound_to 10713
  153.5668  135.7008  153.5522 H   0  0  0  0  0  0  0  0  0  0  0  0  # atno 10763 bound_to 10752
  153.3380  135.4029  155.1549 H   0  0  0  0  0  0  0  0  0  0  0  0  # atno 10764 bound_to 10752
  154.8639  135.3735  154.5188 H   0  0  0  0  0  0  0  0  0  0  0  0  # atno 10765 bound_to 10752
  141.1625  133.6884  156.7239 H   0  0  0  0  0  0  0  0  0  0  0  0  # atno 11005 bound_to 11000
  146.3402  139.9047  142.8789 LP  0  0  0  0  0  0  0  0  0  0  0  0  # atno 17320 bound_to 7965
  145.2452  141.0024  143.3913 LP  0  0  0  0  0  0  0  0  0  0  0  0  # atno 17321 bound_to 7965
  139.5665  144.2029  152.1773 LP  0  0  0  0  0  0  0  0  0  0  0  0  # atno 17342 bound_to 10162
  140.1313  144.5286  150.6801 LP  0  0  0  0  0  0  0  0  0  0  0  0  # atno 17343 bound_to 10162
  156.2877  130.7106  151.1947 LP  0  0  0  0  0  0  0  0  0  0  0  0  # atno 17370 bound_to 10713
  157.7386  131.0539  150.5286 LP  0  0  0  0  0  0  0  0  0  0  0  0  # atno 17371 bound_to 10713
  140.2796  134.8328  157.3921 LP  0  0  0  0  0  0  0  0  0  0  0  0  # atno 17394 bound_to 11000
  140.1446  134.4928  155.8006 LP  0  0  0  0  0  0  0  0  0  0  0  0  # atno 17395 bound_to 11000

$$$$
