AV-unprocessed.smi:2511|AV-procd|sdf|9888|dock8
  -GOLD-   2272013523D 1   1.00000     0.00000
 Structure written by MMmdl.
 40 41  0  0  0  0  0  0  0  0  1 V2000
  144.5013  138.0267  152.7901 N   0  0  0  0  0  0  0  0  0  0  0  0
  145.5750  137.6766  153.5064 C   0  0  0  0  0  0  0  0  0  0  0  0
  145.8865  136.5003  153.6866 O   0  0  0  0  0  0  0  0  0  0  0  0
  146.3626  138.8015  154.1234 C   0  0  0  0  0  0  0  0  0  0  0  0
  146.5027  140.0260  153.4312 C   0  0  0  0  0  0  0  0  0  0  0  0
  147.2348  141.0711  154.0264 C   0  0  0  0  0  0  0  0  0  0  0  0
  147.8113  140.8624  155.3012 C   0  0  0  0  0  0  0  0  0  0  0  0
  148.5580  141.8371  156.0159 N   0  0  0  0  0  0  0  0  0  0  0  0
  149.1956  141.7172  157.1973 C   0  0  0  0  0  0  0  0  0  0  0  0
  149.2444  140.6875  157.8664 O   0  0  0  0  0  0  0  0  0  0  0  0
  149.7824  142.8502  157.6250 N   0  0  0  0  0  0  0  0  0  0  0  0
  150.5501  143.0734  158.8524 C   0  0  2  0  0  0  0  0  0  0  0  0
  150.9697  144.5523  158.9290 C   0  0  0  0  0  0  0  0  0  0  0  0
  151.8313  144.8255  160.1706 C   0  0  0  0  0  0  0  0  0  0  0  0
  153.0602  143.9040  160.2110 C   0  0  0  0  0  0  0  0  0  0  0  0
  152.6572  142.4158  160.1477 C   0  0  2  0  0  0  0  0  0  0  0  0
  153.8830  141.4809  160.2063 C   0  0  0  0  0  0  0  0  0  0  0  0
  154.4358  141.4979  161.4196 F   0  0  0  0  0  0  0  0  0  0  0  0
  153.5184  140.2319  159.9161 F   0  0  0  0  0  0  0  0  0  0  0  0
  154.7938  141.8657  159.3121 F   0  0  0  0  0  0  0  0  0  0  0  0
  151.7900  142.1542  158.8977 C   0  0  0  0  0  0  0  0  0  0  0  0
  147.5984  139.6137  155.9190 C   0  0  0  0  0  0  0  0  0  0  0  0
  146.8996  138.6077  155.3527 N   0  0  0  0  0  0  0  0  0  0  0  0
  143.9352  137.3164  152.3500 H   0  0  0  0  0  0  0  0  0  0  0  0
  144.2664  139.0042  152.6933 H   0  0  0  0  0  0  0  0  0  0  0  0
  146.0577  140.1708  152.4573 H   0  0  0  0  0  0  0  0  0  0  0  0
  147.3252  142.0082  153.5000 H   0  0  0  0  0  0  0  0  0  0  0  0
  148.5501  142.7637  155.6154 H   0  0  0  0  0  0  0  0  0  0  0  0
  149.6794  143.6565  157.0254 H   0  0  0  0  0  0  0  0  0  0  0  0
  149.9188  142.8657  159.7184 H   0  0  0  0  0  0  0  0  0  0  0  0
  151.5301  144.8264  158.0337 H   0  0  0  0  0  0  0  0  0  0  0  0
  150.0861  145.1916  158.9485 H   0  0  0  0  0  0  0  0  0  0  0  0
  152.1498  145.8684  160.1787 H   0  0  0  0  0  0  0  0  0  0  0  0
  151.2335  144.6779  161.0708 H   0  0  0  0  0  0  0  0  0  0  0  0
  153.7208  144.1446  159.3773 H   0  0  0  0  0  0  0  0  0  0  0  0
  153.6289  144.1010  161.1202 H   0  0  0  0  0  0  0  0  0  0  0  0
  152.0442  142.2017  161.0250 H   0  0  0  0  0  0  0  0  0  0  0  0
  151.4776  141.1099  158.8832 H   0  0  0  0  0  0  0  0  0  0  0  0
  152.3897  142.3049  157.9988 H   0  0  0  0  0  0  0  0  0  0  0  0
  148.0059  139.4112  156.8990 H   0  0  0  0  0  0  0  0  0  0  0  0
  1  2  1  0  0  0  0
  1 24  1  0  0  0  0
  1 25  1  0  0  0  0
  2  3  2  0  0  0  0
  2  4  1  0  0  0  0
  4 23  1  0  0  0  0
  4  5  2  0  0  0  0
  5  6  1  0  0  0  0
  5 26  1  0  0  0  0
  6  7  2  0  0  0  0
  6 27  1  0  0  0  0
  7  8  1  0  0  0  0
  7 22  1  0  0  0  0
  8  9  1  0  0  0  0
  8 28  1  0  0  0  0
  9 10  2  0  0  0  0
  9 11  1  0  0  0  0
 11 12  1  0  0  0  0
 11 29  1  0  0  0  0
 12 21  1  0  0  0  0
 12 13  1  0  0  0  0
 12 30  1  0  0  0  0
 13 14  1  0  0  0  0
 13 31  1  0  0  0  0
 13 32  1  0  0  0  0
 14 15  1  0  0  0  0
 14 33  1  0  0  0  0
 14 34  1  0  0  0  0
 15 16  1  0  0  0  0
 15 35  1  0  0  0  0
 15 36  1  0  0  0  0
 16 17  1  0  0  0  0
 16 21  1  0  0  0  0
 16 37  1  0  0  0  0
 17 18  1  0  0  0  0
 17 19  1  0  0  0  0
 17 20  1  0  0  0  0
 21 38  1  0  0  0  0
 21 39  1  0  0  0  0
 22 23  2  0  0  0  0
 22 40  1  0  0  0  0
M  END
> <s_m_source_file>
AV-unprocessed.smi

> <i_m_source_file_index>
2511

> <i_lp_mmshare_version>
43012

> <i_f3d_flags>
0

> <s_epik_input>
W05IMl1DKD1PKWMxW2NIXVtjSF1jKFtjSF1uMSlbTkhdQyg9TylbTkhdW0NAQEhdMltDSDJdW0NIMl1bQ0gyXVtDQEBIXShDKEYpKEYpRilbQ0gyXTI=

> <s_epik_cmdline>
J2VwaWtfcHl0aG9uJywgJy1waCcsICc3LjAnLCAnLXRuJywgJzgnLCAnLW1hJywgJzIwMCcsICctbWV0YWxfYmluZGluZycsICctaW1hZScsICc8aW5maWxlLm1hZT4nLCAnLW9tYWUnLCAnPG91dGZpbGUubWFlPic=

> <r_lp_tautomer_probability>
1

> <r_epik_Ionization_Penalty>
4.28758e-05

> <r_epik_Ionization_Penalty_Charging>
0

> <r_epik_Ionization_Penalty_Neutral>
4.28758e-05

> <r_epik_State_Penalty>
-0

> <r_epik_Charging_Adjusted_Penalty>
0

> <i_epik_Tot_Q>
0

> <i_epik_Tot_abs_Q>
0

> <r_epik_Metal_State_Penalty>
-0

> <b_epik_Metal_Only>
0

> <s_lp_Force_Field>
OPLS_2005

> <r_lp_Energy>
28.5247

> <b_lp_Chiralities_Consistent>
1

> <s_lp_Variant>
AV-unprocessed.smi:2511-3

> <Gold.Version>
5.8.1

> <Gold.Id.Protein>
6NUR|6NUR_protein|mol2

> <Gold.PLP.Fitness>
48.4806

> <Gold.PLP.PLP>
-41.3507

> <Gold.PLP.part.hbond>
-3.7628

> <Gold.PLP.part.metal>
0.0000

> <Gold.PLP.part.buried>
-6.5804

> <Gold.PLP.part.nonpolar>
-31.9930

> <Gold.PLP.part.repulsive>
1.1751

> <Gold.PLP.ligand.clash>
0.0000

> <Gold.PLP.ligand.torsion>
0.7410

> <Gold.PLP.Chemscore.Hbond>
2.8634

> <Gold.PLP.Chemscore.CHOScore>
0.0000

> <Gold.PLP.Chemscore.Metal>
0.0000

> <Gold.Chemscore.Hbonds>
donor molecule, donor type, donor heavy atom, donor atom, acceptor molecule, acceptor atom, score
      L1  H     1    25       P1 10175  1.00
      L1  H     8    28       P1  8028  1.00
      L1  H    11    29       P1  8028  1.00

> <Gold.PLP.Chemscore.Internal.Correction>
0.0216

> <Gold.Rescore>
     Score         DG    S(hbond)    S(metal)    S(lipo)     H(rot)  DE(clash)    DE(int)     intcor
     18.85     -23.50       2.80        0.00      95.98       1.00       1.91       2.74       ----

> <Gold.Chemscore.Fitness>
18.8477

> <Gold.Chemscore.DG>
-23.5007

> <Gold.Chemscore.ZeroCoef>
-5.4800

> <Gold.Chemscore.Hbond>
2.7996

> <Gold.Chemscore.Metal>
0.0000

> <Gold.Chemscore.Lipo>
95.9843

> <Gold.Chemscore.Internal_Hbond>
0.0000

> <Gold.Chemscore.DEClash>
1.9143

> <Gold.Chemscore.DEInternal>
2.7387

> <Gold.Chemscore.Rot>
1.0000

> <Gold.Chemscore.Internal.Correction>
   9.000000E+99

> <Gold.Chemscore.Hbonds>
donor molecule, donor type, donor heavy atom, donor atom, acceptor molecule, acceptor atom, score
      L1  H     1    25       P1 10175  0.97
      L1  H     8    28       P1  8028  0.95
      L1  H    11    29       P1  8028  0.93

> <Gold.Chemscore.Hbond.Weighted>
-9.3505

> <Gold.Chemscore.Metal.Weighted>
-0.0000

> <Gold.Chemscore.Lipo.Weighted>
-11.2302

> <Gold.Chemscore.Internal_Hbond.Weighted>
0.0000

> <Gold.Chemscore.DEClash.Weighted>
1.9143

> <Gold.Chemscore.DEInternal.Weighted>
2.7387

> <Gold.Chemscore.Rot.Weighted>
2.5600

> <Gold.Chemscore.Internal.Correction.Weighted>
   9.000000E+99

> <Gold.Protein.RotatedTorsions>
[ 6907 6896 6895 6894 ] final -117.34 input  -60.11 | X-H torsion
[ 7974 7965 7964 7962 ] final  164.71 input  175.53 | X-H torsion
[ 8008 7997 7996 7995 ] final  115.93 input   59.86 | X-H torsion
[ 10167 10162 10161 10158 ] final  -15.83 input  -65.29 | X-H torsion
[ 10718 10713 10712 10709 ] final   50.67 input   66.30 | X-H torsion
[ 10763 10752 10751 10750 ] final  -59.66 input  -60.55 | X-H torsion
[ 11005 11000 10999 10996 ] final   50.47 input  -57.11 | X-H torsion

> <Gold.Protein.ActiveResidues>
 VAL166  LYS551  ARG553  GLY616  TRP617  ASP618  TYR619  PRO620  LYS621  CYS622 
 ASP623  PHE694  ASN695  SER759  ASP760  ASP761  ALA762  ILE779  LEU786  VAL792 
 PHE793  MET794  SER795  GLU796  ALA797  LYS798  CYS799  TRP800  GLU811  SER814 

> <Gold.Protein.RotatedAtoms>
  150.8128  133.8391  159.3174 H   0  0  0  0  0  0  0  0  0  0  0  0  # atno 6907 bound_to 6896
  151.6171  135.1033  160.0103 H   0  0  0  0  0  0  0  0  0  0  0  0  # atno 6908 bound_to 6896
  152.4220  133.7092  159.6525 H   0  0  0  0  0  0  0  0  0  0  0  0  # atno 6909 bound_to 6896
  144.7533  139.8364  143.6358 H   0  0  0  0  0  0  0  0  0  0  0  0  # atno 7974 bound_to 7965
  156.2410  140.2928  156.0445 H   0  0  0  0  0  0  0  0  0  0  0  0  # atno 8008 bound_to 7997
  155.1950  140.0408  157.2924 H   0  0  0  0  0  0  0  0  0  0  0  0  # atno 8009 bound_to 7997
  154.6169  140.2466  155.7606 H   0  0  0  0  0  0  0  0  0  0  0  0  # atno 8010 bound_to 7997
  140.7224  143.5178  150.9670 H   0  0  0  0  0  0  0  0  0  0  0  0  # atno 10167 bound_to 10162
  157.4907  130.8374  149.8199 H   0  0  0  0  0  0  0  0  0  0  0  0  # atno 10718 bound_to 10713
  154.2572  135.6315  153.5261 H   0  0  0  0  0  0  0  0  0  0  0  0  # atno 10763 bound_to 10752
  152.9902  135.5579  154.5743 H   0  0  0  0  0  0  0  0  0  0  0  0  # atno 10764 bound_to 10752
  154.5284  135.2887  155.1177 H   0  0  0  0  0  0  0  0  0  0  0  0  # atno 10765 bound_to 10752
  140.1015  134.5075  155.8759 H   0  0  0  0  0  0  0  0  0  0  0  0  # atno 11005 bound_to 11000
  146.1513  139.4597  143.0047 LP  0  0  0  0  0  0  0  0  0  0  0  0  # atno 17320 bound_to 7965
  145.6865  141.0176  143.1578 LP  0  0  0  0  0  0  0  0  0  0  0  0  # atno 17321 bound_to 7965
  139.8894  143.6972  152.3147 LP  0  0  0  0  0  0  0  0  0  0  0  0  # atno 17342 bound_to 10162
  139.7282  144.7588  151.0844 LP  0  0  0  0  0  0  0  0  0  0  0  0  # atno 17343 bound_to 10162
  156.0172  130.3809  150.2074 LP  0  0  0  0  0  0  0  0  0  0  0  0  # atno 17370 bound_to 10713
  157.0262  130.9994  151.3325 LP  0  0  0  0  0  0  0  0  0  0  0  0  # atno 17371 bound_to 10713
  141.2107  133.6697  156.6526 LP  0  0  0  0  0  0  0  0  0  0  0  0  # atno 17394 bound_to 11000
  140.3214  134.8004  157.4255 LP  0  0  0  0  0  0  0  0  0  0  0  0  # atno 17395 bound_to 11000

$$$$
