AV-unprocessed.smi:3243|AV-procd|sdf|12395|dock4
  -GOLD-   2272018263D 1   1.00000     0.00000
 Structure written by MMmdl.
 37 38  0  0  0  0  0  0  0  0  1 V2000
  153.7777  137.4832  157.5105 C   0  0  0  0  0  0  0  0  0  0  0  0
  152.7559  138.5676  157.8815 C   0  0  0  0  0  0  0  0  0  0  0  0
  151.9396  138.2017  159.1295 C   0  0  0  0  0  0  0  0  0  0  0  0
  151.8769  138.9230  156.7225 C   0  0  0  0  0  0  0  0  0  0  0  0
  150.9602  139.8941  156.7668 N   0  0  0  0  0  0  0  0  0  0  0  0
  150.2687  140.0424  155.5603 C   0  0  0  0  0  0  0  0  0  0  0  0
  149.2057  141.0906  155.4307 C   0  0  0  0  0  0  0  0  0  0  0  0
  148.8683  141.7460  156.7804 C   0  0  0  0  0  0  0  0  0  0  0  0
  149.7207  142.8991  157.0464 N   0  0  0  0  0  0  0  0  0  0  0  0
  150.5079  143.0459  158.1228 C   0  0  0  0  0  0  0  0  0  0  0  0
  150.5779  142.2029  159.0182 O   0  0  0  0  0  0  0  0  0  0  0  0
  151.2876  144.3239  158.1273 C   0  0  1  0  0  0  0  0  0  0  0  0
  151.0084  145.3291  159.2278 C   0  0  0  0  0  0  0  0  0  0  0  0
  152.3192  144.5794  159.2180 C   0  0  1  0  0  0  0  0  0  0  0  0
  152.6582  143.5909  160.3201 C   0  0  0  0  0  0  0  0  0  0  0  0
  150.6779  139.1622  154.5901 C   0  0  0  0  0  0  0  0  0  0  0  0
  151.9484  138.1147  155.1578 S   0  0  0  0  0  0  0  0  0  0  0  0
  154.3950  137.7988  156.6689 H   0  0  0  0  0  0  0  0  0  0  0  0
  153.2860  136.5506  157.2322 H   0  0  0  0  0  0  0  0  0  0  0  0
  154.4443  137.2696  158.3464 H   0  0  0  0  0  0  0  0  0  0  0  0
  153.3270  139.4628  158.1333 H   0  0  0  0  0  0  0  0  0  0  0  0
  151.2691  139.0141  159.4111 H   0  0  0  0  0  0  0  0  0  0  0  0
  152.5917  138.0030  159.9801 H   0  0  0  0  0  0  0  0  0  0  0  0
  151.3330  137.3111  158.9625 H   0  0  0  0  0  0  0  0  0  0  0  0
  149.5282  141.8545  154.7219 H   0  0  0  0  0  0  0  0  0  0  0  0
  148.3032  140.6512  155.0041 H   0  0  0  0  0  0  0  0  0  0  0  0
  147.8326  142.0870  156.7799 H   0  0  0  0  0  0  0  0  0  0  0  0
  148.9552  141.0201  157.5908 H   0  0  0  0  0  0  0  0  0  0  0  0
  149.7173  143.6373  156.3573 H   0  0  0  0  0  0  0  0  0  0  0  0
  151.5369  144.7259  157.1463 H   0  0  0  0  0  0  0  0  0  0  0  0
  151.0223  146.3811  158.9502 H   0  0  0  0  0  0  0  0  0  0  0  0
  150.2850  145.0717  159.9995 H   0  0  0  0  0  0  0  0  0  0  0  0
  153.1924  145.1331  158.8782 H   0  0  0  0  0  0  0  0  0  0  0  0
  151.7619  143.2069  160.8059 H   0  0  0  0  0  0  0  0  0  0  0  0
  153.2670  144.0798  161.0805 H   0  0  0  0  0  0  0  0  0  0  0  0
  153.2232  142.7531  159.9116 H   0  0  0  0  0  0  0  0  0  0  0  0
  150.3113  139.0685  153.5785 H   0  0  0  0  0  0  0  0  0  0  0  0
  1  2  1  0  0  0  0
  1 18  1  0  0  0  0
  1 19  1  0  0  0  0
  1 20  1  0  0  0  0
  2  3  1  0  0  0  0
  2  4  1  0  0  0  0
  2 21  1  0  0  0  0
  3 22  1  0  0  0  0
  3 23  1  0  0  0  0
  3 24  1  0  0  0  0
  4 17  1  0  0  0  0
  4  5  2  0  0  0  0
  5  6  1  0  0  0  0
  6  7  1  0  0  0  0
  6 16  2  0  0  0  0
  7  8  1  0  0  0  0
  7 25  1  0  0  0  0
  7 26  1  0  0  0  0
  8  9  1  0  0  0  0
  8 27  1  0  0  0  0
  8 28  1  0  0  0  0
  9 10  1  0  0  0  0
  9 29  1  0  0  0  0
 10 11  2  0  0  0  0
 10 12  1  0  0  0  0
 12 14  1  0  0  0  0
 12 13  1  0  0  0  0
 12 30  1  0  0  0  0
 13 14  1  0  0  0  0
 13 31  1  0  0  0  0
 13 32  1  0  0  0  0
 14 15  1  0  0  0  0
 14 33  1  0  0  0  0
 15 34  1  0  0  0  0
 15 35  1  0  0  0  0
 15 36  1  0  0  0  0
 16 17  1  0  0  0  0
 16 37  1  0  0  0  0
M  END
> <s_m_source_file>
AV-unprocessed.smi

> <i_m_source_file_index>
3243

> <i_lp_mmshare_version>
43012

> <i_f3d_flags>
0

> <s_epik_input>
W0NIM11bQ0hdKFtDSDNdKWMxbmMoW2NIXXMxKVtDSDJdW0NIMl1bTkhdQyg9TylbQ0BASF0yW0NIMl1bQ0BIXTJbQ0gzXQ==

> <s_epik_cmdline>
J2VwaWtfcHl0aG9uJywgJy1waCcsICc3LjAnLCAnLXRuJywgJzgnLCAnLW1hJywgJzIwMCcsICctbWV0YWxfYmluZGluZycsICctaW1hZScsICc8aW5maWxlLm1hZT4nLCAnLW9tYWUnLCAnPG91dGZpbGUubWFlPic=

> <r_epik_Ionization_Penalty>
0.00084212

> <r_epik_Ionization_Penalty_Charging>
0

> <r_epik_Ionization_Penalty_Neutral>
0.00084212

> <r_epik_State_Penalty>
0.000542609

> <r_epik_Charging_Adjusted_Penalty>
0.000542609

> <i_epik_Tot_Q>
0

> <i_epik_Tot_abs_Q>
0

> <r_epik_Metal_State_Penalty>
-0

> <b_epik_Metal_Only>
0

> <s_lp_Force_Field>
OPLS_2005

> <r_lp_Energy>
-2.57645

> <b_lp_Chiralities_Consistent>
1

> <s_lp_Variant>
AV-unprocessed.smi:3243-2

> <Gold.Version>
5.8.1

> <Gold.Id.Protein>
6NUR|6NUR_protein|mol2

> <Gold.PLP.Fitness>
41.1634

> <Gold.PLP.PLP>
-35.6549

> <Gold.PLP.part.hbond>
-1.3155

> <Gold.PLP.part.metal>
0.0000

> <Gold.PLP.part.buried>
-4.3115

> <Gold.PLP.part.nonpolar>
-30.4909

> <Gold.PLP.part.repulsive>
0.0200

> <Gold.PLP.ligand.clash>
0.0000

> <Gold.PLP.ligand.torsion>
0.3238

> <Gold.PLP.Chemscore.Hbond>
0.9920

> <Gold.PLP.Chemscore.CHOScore>
1.0000

> <Gold.PLP.Chemscore.Metal>
0.0000

> <Gold.Chemscore.Hbonds>
donor molecule, donor type, donor heavy atom, donor atom, acceptor molecule, acceptor atom, score
      L1  H     9    29       P1  8028  0.92
      L1  C    16    37       P1  7957  0.61

> <Gold.PLP.Chemscore.Internal.Correction>
0.1802

> <Gold.Rescore>
     Score         DG    S(hbond)    S(metal)    S(lipo)     H(rot)  DE(clash)    DE(int)     intcor
     15.62     -17.39       0.98        0.00     106.19       1.49       0.06       1.70       ----

> <Gold.Chemscore.Fitness>
15.6181

> <Gold.Chemscore.DG>
-17.3868

> <Gold.Chemscore.ZeroCoef>
-5.4800

> <Gold.Chemscore.Hbond>
0.9848

> <Gold.Chemscore.Metal>
0.0000

> <Gold.Chemscore.Lipo>
106.1904

> <Gold.Chemscore.Internal_Hbond>
0.0000

> <Gold.Chemscore.DEClash>
0.0641

> <Gold.Chemscore.DEInternal>
1.7046

> <Gold.Chemscore.Rot>
1.4870

> <Gold.Chemscore.Internal.Correction>
   9.000000E+99

> <Gold.Chemscore.Hbonds>
donor molecule, donor type, donor heavy atom, donor atom, acceptor molecule, acceptor atom, score
      L1  H     9    29       P1  8028  0.83

> <Gold.Chemscore.Hbond.Weighted>
-3.2891

> <Gold.Chemscore.Metal.Weighted>
-0.0000

> <Gold.Chemscore.Lipo.Weighted>
-12.4243

> <Gold.Chemscore.Internal_Hbond.Weighted>
0.0000

> <Gold.Chemscore.DEClash.Weighted>
0.0641

> <Gold.Chemscore.DEInternal.Weighted>
1.7046

> <Gold.Chemscore.Rot.Weighted>
3.8067

> <Gold.Chemscore.Internal.Correction.Weighted>
   9.000000E+99

> <Gold.Protein.RotatedTorsions>
[ 6907 6896 6895 6894 ] final  -55.97 input  -60.11 | X-H torsion
[ 7974 7965 7964 7962 ] final -131.76 input  175.53 | X-H torsion
[ 8008 7997 7996 7995 ] final  -41.34 input   59.86 | X-H torsion
[ 10167 10162 10161 10158 ] final  164.66 input  -65.29 | X-H torsion
[ 10718 10713 10712 10709 ] final -151.05 input   66.30 | X-H torsion
[ 10763 10752 10751 10750 ] final  171.57 input  -60.55 | X-H torsion
[ 11005 11000 10999 10996 ] final   85.74 input  -57.11 | X-H torsion

> <Gold.Protein.ActiveResidues>
 VAL166  LYS551  ARG553  GLY616  TRP617  ASP618  TYR619  PRO620  LYS621  CYS622 
 ASP623  PHE694  ASN695  SER759  ASP760  ASP761  ALA762  ILE779  LEU786  VAL792 
 PHE793  MET794  SER795  GLU796  ALA797  LYS798  CYS799  TRP800  GLU811  SER814 

> <Gold.Protein.RotatedAtoms>
  150.8206  134.7412  159.6768 H   0  0  0  0  0  0  0  0  0  0  0  0  # atno 6907 bound_to 6896
  152.4322  134.5752  159.9942 H   0  0  0  0  0  0  0  0  0  0  0  0  # atno 6908 bound_to 6896
  151.5937  133.3326  159.3069 H   0  0  0  0  0  0  0  0  0  0  0  0  # atno 6909 bound_to 6896
  144.9349  140.7172  143.4883 H   0  0  0  0  0  0  0  0  0  0  0  0  # atno 7974 bound_to 7965
  154.4005  140.1502  156.3174 H   0  0  0  0  0  0  0  0  0  0  0  0  # atno 8008 bound_to 7997
  155.8560  140.3455  155.5703 H   0  0  0  0  0  0  0  0  0  0  0  0  # atno 8009 bound_to 7997
  155.7932  140.0859  157.1988 H   0  0  0  0  0  0  0  0  0  0  0  0  # atno 8010 bound_to 7997
  139.4892  144.4213  151.9183 H   0  0  0  0  0  0  0  0  0  0  0  0  # atno 10167 bound_to 10162
  156.4542  130.8182  151.2413 H   0  0  0  0  0  0  0  0  0  0  0  0  # atno 10718 bound_to 10713
  154.4137  135.2756  155.2020 H   0  0  0  0  0  0  0  0  0  0  0  0  # atno 10763 bound_to 10752
  154.3995  135.6048  153.5892 H   0  0  0  0  0  0  0  0  0  0  0  0  # atno 10764 bound_to 10752
  152.9831  135.5923  154.4423 H   0  0  0  0  0  0  0  0  0  0  0  0  # atno 10765 bound_to 10752
  139.8963  134.8307  156.2624 H   0  0  0  0  0  0  0  0  0  0  0  0  # atno 11005 bound_to 11000
  145.3083  139.1827  143.4652 LP  0  0  0  0  0  0  0  0  0  0  0  0  # atno 17320 bound_to 7965
  146.3262  140.3084  142.8625 LP  0  0  0  0  0  0  0  0  0  0  0  0  # atno 17321 bound_to 7965
  140.3657  144.2918  150.5927 LP  0  0  0  0  0  0  0  0  0  0  0  0  # atno 17342 bound_to 10162
  140.5363  143.2232  151.8157 LP  0  0  0  0  0  0  0  0  0  0  0  0  # atno 17343 bound_to 10162
  157.7501  131.0128  150.3399 LP  0  0  0  0  0  0  0  0  0  0  0  0  # atno 17370 bound_to 10713
  156.3784  130.3876  149.7120 LP  0  0  0  0  0  0  0  0  0  0  0  0  # atno 17371 bound_to 10713
  141.0154  133.7072  156.1179 LP  0  0  0  0  0  0  0  0  0  0  0  0  # atno 17394 bound_to 11000
  140.7309  134.4255  157.5566 LP  0  0  0  0  0  0  0  0  0  0  0  0  # atno 17395 bound_to 11000

$$$$
