AV-unprocessed.smi:2667|AV-procd|sdf|10335|dock3
  -GOLD-   2272014353D 1   1.00000     0.00000
 Structure written by MMmdl.
 44 46  0  0  0  0  0  0  0  0  1 V2000
  142.9417  147.3533  154.9550 C   0  0  0  0  0  0  0  0  0  0  0  0
  143.8394  146.1244  154.7406 C   0  0  0  0  0  0  0  0  0  0  0  0
  143.7041  145.0543  155.8351 C   0  0  0  0  0  0  0  0  0  0  0  0
  142.9531  145.2490  156.7920 O   0  0  0  0  0  0  0  0  0  0  0  0
  144.5144  143.8111  155.6819 C   0  0  0  0  0  0  0  0  0  0  0  0
  144.5867  142.8348  156.7026 C   0  0  0  0  0  0  0  0  0  0  0  0
  145.3574  141.6703  156.5235 C   0  0  0  0  0  0  0  0  0  0  0  0
  146.0711  141.4496  155.3294 C   0  0  0  0  0  0  0  0  0  0  0  0
  146.7896  140.2771  155.2369 O   0  0  0  0  0  0  0  0  0  0  0  0
  147.6248  140.0884  154.1023 C   0  0  0  0  0  0  0  0  0  0  0  0
  149.0857  140.3384  154.5188 C   0  0  1  0  0  0  0  0  0  0  0  0
  149.8007  140.7778  153.3826 O   0  0  0  0  0  0  0  0  0  0  0  0
  149.2471  141.4241  155.6012 C   0  0  0  0  0  0  0  0  0  0  0  0
  150.4603  141.2656  156.3827 N   0  0  0  0  0  0  0  0  0  0  0  0
  151.3811  140.2910  156.2563 C   0  0  0  0  0  0  0  0  0  0  0  0
  152.4281  140.3314  157.0753 N   0  0  0  0  0  0  0  0  0  0  0  0
  152.1569  141.4667  157.8195 C   0  0  0  0  0  0  0  0  0  0  0  0
  152.8853  142.0705  158.8693 C   0  0  0  0  0  0  0  0  0  0  0  0
  152.4053  143.2428  159.4896 C   0  0  0  0  0  0  0  0  0  0  0  0
  151.1924  143.8280  159.0718 C   0  0  0  0  0  0  0  0  0  0  0  0
  150.4495  143.2448  158.0274 C   0  0  0  0  0  0  0  0  0  0  0  0
  150.9325  142.0761  157.4099 C   0  0  0  0  0  0  0  0  0  0  0  0
  146.0087  142.4310  154.3099 C   0  0  0  0  0  0  0  0  0  0  0  0
  145.2397  143.5972  154.4881 C   0  0  0  0  0  0  0  0  0  0  0  0
  143.0967  148.0832  154.1606 H   0  0  0  0  0  0  0  0  0  0  0  0
  143.1618  147.8467  155.9025 H   0  0  0  0  0  0  0  0  0  0  0  0
  141.8853  147.0820  154.9509 H   0  0  0  0  0  0  0  0  0  0  0  0
  143.6051  145.6695  153.7779 H   0  0  0  0  0  0  0  0  0  0  0  0
  144.8798  146.4471  154.6976 H   0  0  0  0  0  0  0  0  0  0  0  0
  144.0580  142.9558  157.6361 H   0  0  0  0  0  0  0  0  0  0  0  0
  145.3979  140.9344  157.3132 H   0  0  0  0  0  0  0  0  0  0  0  0
  147.5126  139.0894  153.6772 H   0  0  0  0  0  0  0  0  0  0  0  0
  147.3216  140.8100  153.3435 H   0  0  0  0  0  0  0  0  0  0  0  0
  149.5317  139.4092  154.8764 H   0  0  0  0  0  0  0  0  0  0  0  0
  149.6693  140.1515  152.6871 H   0  0  0  0  0  0  0  0  0  0  0  0
  149.2702  142.4135  155.1417 H   0  0  0  0  0  0  0  0  0  0  0  0
  148.3917  141.4173  156.2779 H   0  0  0  0  0  0  0  0  0  0  0  0
  151.2752  139.5066  155.5210 H   0  0  0  0  0  0  0  0  0  0  0  0
  153.8154  141.6310  159.1977 H   0  0  0  0  0  0  0  0  0  0  0  0
  152.9712  143.6952  160.2909 H   0  0  0  0  0  0  0  0  0  0  0  0
  150.8325  144.7253  159.5535 H   0  0  0  0  0  0  0  0  0  0  0  0
  149.5192  143.6896  157.7066 H   0  0  0  0  0  0  0  0  0  0  0  0
  146.5424  142.3140  153.3791 H   0  0  0  0  0  0  0  0  0  0  0  0
  145.2110  144.3248  153.6899 H   0  0  0  0  0  0  0  0  0  0  0  0
  1  2  1  0  0  0  0
  1 25  1  0  0  0  0
  1 26  1  0  0  0  0
  1 27  1  0  0  0  0
  2  3  1  0  0  0  0
  2 28  1  0  0  0  0
  2 29  1  0  0  0  0
  3  4  2  0  0  0  0
  3  5  1  0  0  0  0
  5 24  1  0  0  0  0
  5  6  2  0  0  0  0
  6  7  1  0  0  0  0
  6 30  1  0  0  0  0
  7  8  2  0  0  0  0
  7 31  1  0  0  0  0
  8  9  1  0  0  0  0
  8 23  1  0  0  0  0
  9 10  1  0  0  0  0
 10 11  1  0  0  0  0
 10 32  1  0  0  0  0
 10 33  1  0  0  0  0
 11 12  1  0  0  0  0
 11 13  1  0  0  0  0
 11 34  1  0  0  0  0
 12 35  1  0  0  0  0
 13 14  1  0  0  0  0
 13 36  1  0  0  0  0
 13 37  1  0  0  0  0
 14 22  1  0  0  0  0
 14 15  1  0  0  0  0
 15 16  2  0  0  0  0
 15 38  1  0  0  0  0
 16 17  1  0  0  0  0
 17 22  2  0  0  0  0
 17 18  1  0  0  0  0
 18 19  2  0  0  0  0
 18 39  1  0  0  0  0
 19 20  1  0  0  0  0
 19 40  1  0  0  0  0
 20 21  2  0  0  0  0
 20 41  1  0  0  0  0
 21 22  1  0  0  0  0
 21 42  1  0  0  0  0
 23 24  2  0  0  0  0
 23 43  1  0  0  0  0
 24 44  1  0  0  0  0
M  END
> <s_m_source_file>
AV-unprocessed.smi

> <i_m_source_file_index>
2667

> <i_lp_mmshare_version>
43012

> <i_f3d_flags>
0

> <s_epik_input>
W0NIM11bQ0gyXUMoPU8pYzFbY0hdW2NIXWMoW2NIXVtjSF0xKU9bQ0gyXVtDQEhdKFtPSF0pW0NIMl1uKFtjSF1uMiljKGMyMylbY0hdW2NIXVtjSF1bY0hdMw==

> <s_epik_cmdline>
J2VwaWtfcHl0aG9uJywgJy1waCcsICc3LjAnLCAnLXRuJywgJzgnLCAnLW1hJywgJzIwMCcsICctbWV0YWxfYmluZGluZycsICctaW1hZScsICc8aW5maWxlLm1hZT4nLCAnLW9tYWUnLCAnPG91dGZpbGUubWFlPic=

> <r_lp_tautomer_probability>
0.9999

> <r_epik_Ionization_Penalty>
0.0583018

> <r_epik_Ionization_Penalty_Charging>
0

> <r_epik_Ionization_Penalty_Neutral>
0.0583018

> <r_epik_State_Penalty>
0.0504087

> <r_epik_Charging_Adjusted_Penalty>
0.0504087

> <i_epik_Tot_Q>
0

> <i_epik_Tot_abs_Q>
0

> <r_epik_Metal_State_Penalty>
5.26129e-05

> <b_epik_Metal_Only>
0

> <s_lp_Force_Field>
OPLS_2005

> <r_lp_Energy>
23.9231

> <b_lp_Chiralities_Consistent>
1

> <s_lp_Variant>
AV-unprocessed.smi:2667-2

> <Gold.Version>
5.8.1

> <Gold.Id.Protein>
6NUR|6NUR_protein|mol2

> <Gold.PLP.Fitness>
51.0070

> <Gold.PLP.PLP>
-43.7614

> <Gold.PLP.part.hbond>
-3.0870

> <Gold.PLP.part.metal>
0.0000

> <Gold.PLP.part.buried>
-4.2721

> <Gold.PLP.part.nonpolar>
-36.0785

> <Gold.PLP.part.repulsive>
0.0441

> <Gold.PLP.ligand.clash>
0.0000

> <Gold.PLP.ligand.torsion>
0.9714

> <Gold.PLP.Chemscore.Hbond>
2.9980

> <Gold.PLP.Chemscore.CHOScore>
0.0000

> <Gold.PLP.Chemscore.Metal>
0.0000

> <Gold.Chemscore.Hbonds>
donor molecule, donor type, donor heavy atom, donor atom, acceptor molecule, acceptor atom, score
      L1  H    12    35       P1  7957  0.82
      P1  H  7989  7998       L1    12  0.30
      P1  H  7997  8010       L1    16  0.98
      P1  H  8011  8017       L1    12  0.95

> <Gold.PLP.Chemscore.Internal.Correction>
0.1944

> <Gold.Rescore>
     Score         DG    S(hbond)    S(metal)    S(lipo)     H(rot)  DE(clash)    DE(int)     intcor
     17.31     -18.52       1.93        0.00     111.01       2.49       0.23       0.98       ----

> <Gold.Chemscore.Fitness>
17.3077

> <Gold.Chemscore.DG>
-18.5172

> <Gold.Chemscore.ZeroCoef>
-5.4800

> <Gold.Chemscore.Hbond>
1.9255

> <Gold.Chemscore.Metal>
0.0000

> <Gold.Chemscore.Lipo>
111.0137

> <Gold.Chemscore.Internal_Hbond>
0.0000

> <Gold.Chemscore.DEClash>
0.2260

> <Gold.Chemscore.DEInternal>
0.9836

> <Gold.Chemscore.Rot>
2.4932

> <Gold.Chemscore.Internal.Correction>
   9.000000E+99

> <Gold.Chemscore.Hbonds>
donor molecule, donor type, donor heavy atom, donor atom, acceptor molecule, acceptor atom, score
      L1  H    12    35       P1  7957  0.78
      P1  H  7989  7998       L1    12  0.10
      P1  H  7997  8010       L1    16  0.77
      P1  H  8011  8017       L1    12  0.21

> <Gold.Chemscore.Hbond.Weighted>
-6.4313

> <Gold.Chemscore.Metal.Weighted>
-0.0000

> <Gold.Chemscore.Lipo.Weighted>
-12.9886

> <Gold.Chemscore.Internal_Hbond.Weighted>
0.0000

> <Gold.Chemscore.DEClash.Weighted>
0.2260

> <Gold.Chemscore.DEInternal.Weighted>
0.9836

> <Gold.Chemscore.Rot.Weighted>
6.3826

> <Gold.Chemscore.Internal.Correction.Weighted>
   9.000000E+99

> <Gold.Protein.RotatedTorsions>
[ 6907 6896 6895 6894 ] final  -79.29 input  -60.11 | X-H torsion
[ 7974 7965 7964 7962 ] final -135.83 input  175.53 | X-H torsion
[ 8008 7997 7996 7995 ] final   60.19 input   59.86 | X-H torsion
[ 10167 10162 10161 10158 ] final -103.74 input  -65.29 | X-H torsion
[ 10718 10713 10712 10709 ] final   11.53 input   66.30 | X-H torsion
[ 10763 10752 10751 10750 ] final  -58.54 input  -60.55 | X-H torsion
[ 11005 11000 10999 10996 ] final -133.88 input  -57.11 | X-H torsion

> <Gold.Protein.ActiveResidues>
 VAL166  LYS551  ARG553  GLY616  TRP617  ASP618  TYR619  PRO620  LYS621  CYS622 
 ASP623  PHE694  ASN695  SER759  ASP760  ASP761  ALA762  ILE779  LEU786  VAL792 
 PHE793  MET794  SER795  GLU796  ALA797  LYS798  CYS799  TRP800  GLU811  SER814 

> <Gold.Protein.RotatedAtoms>
  150.6953  134.4144  159.5175 H   0  0  0  0  0  0  0  0  0  0  0  0  # atno 6907 bound_to 6896
  152.1897  134.8680  160.0528 H   0  0  0  0  0  0  0  0  0  0  0  0  # atno 6908 bound_to 6896
  151.9640  133.3669  159.4083 H   0  0  0  0  0  0  0  0  0  0  0  0  # atno 6909 bound_to 6896
  144.8980  140.6733  143.5103 H   0  0  0  0  0  0  0  0  0  0  0  0  # atno 7974 bound_to 7965
  155.5784  140.3491  155.4533 H   0  0  0  0  0  0  0  0  0  0  0  0  # atno 8008 bound_to 7997
  156.0392  140.1292  157.0200 H   0  0  0  0  0  0  0  0  0  0  0  0  # atno 8009 bound_to 7997
  154.4384  140.1027  156.6197 H   0  0  0  0  0  0  0  0  0  0  0  0  # atno 8010 bound_to 7997
  140.2168  143.3706  152.1004 H   0  0  0  0  0  0  0  0  0  0  0  0  # atno 10167 bound_to 10162
  156.9970  130.6064  149.5692 H   0  0  0  0  0  0  0  0  0  0  0  0  # atno 10718 bound_to 10713
  154.2397  135.6346  153.5203 H   0  0  0  0  0  0  0  0  0  0  0  0  # atno 10763 bound_to 10752
  152.9932  135.5539  154.5924 H   0  0  0  0  0  0  0  0  0  0  0  0  # atno 10764 bound_to 10752
  154.5426  135.2896  155.1056 H   0  0  0  0  0  0  0  0  0  0  0  0  # atno 10765 bound_to 10752
  140.9041  134.1653  157.4439 H   0  0  0  0  0  0  0  0  0  0  0  0  # atno 11005 bound_to 11000
  145.3666  139.1668  143.4354 LP  0  0  0  0  0  0  0  0  0  0  0  0  # atno 17320 bound_to 7965
  146.3092  140.3734  142.8676 LP  0  0  0  0  0  0  0  0  0  0  0  0  # atno 17321 bound_to 7965
  139.5159  144.6970  151.5603 LP  0  0  0  0  0  0  0  0  0  0  0  0  # atno 17342 bound_to 10162
  140.6284  143.9123  150.6584 LP  0  0  0  0  0  0  0  0  0  0  0  0  # atno 17343 bound_to 10162
  156.0185  130.5280  150.8207 LP  0  0  0  0  0  0  0  0  0  0  0  0  # atno 17370 bound_to 10713
  157.5418  131.0941  150.9817 LP  0  0  0  0  0  0  0  0  0  0  0  0  # atno 17371 bound_to 10713
  139.8746  134.9910  156.5527 LP  0  0  0  0  0  0  0  0  0  0  0  0  # atno 17394 bound_to 11000
  140.8193  133.8366  155.8881 LP  0  0  0  0  0  0  0  0  0  0  0  0  # atno 17395 bound_to 11000

$$$$
