AV-unprocessed.smi:2394|AV-procd|sdf|9490|dock4
  -GOLD-   2272013123D 1   1.00000     0.00000
 Structure written by MMmdl.
 43 44  0  0  0  0  0  0  0  0  1 V2000
  153.3896  141.8904  161.8031 C   0  0  0  0  0  0  0  0  0  0  0  0
  153.4554  142.7905  160.5574 C   0  0  0  0  0  0  0  0  0  0  0  0
  152.2504  142.6853  159.5853 C   0  0  0  0  0  0  0  0  0  0  0  0
  151.0699  142.9336  160.3263 O   0  0  0  0  0  0  0  0  0  0  0  0
  152.3232  143.7675  158.4725 C   0  0  0  0  0  0  0  0  0  0  0  0
  152.1908  145.2270  158.9406 C   0  0  0  0  0  0  0  0  0  0  0  0
  152.1483  141.2567  158.9780 C   0  0  0  0  0  0  0  0  0  0  0  0
  151.2530  141.1437  157.8357 N   0  0  0  0  0  0  0  0  0  0  0  0
  150.0290  141.7569  157.6832 C   0  0  0  0  0  0  0  0  0  0  0  0
  149.4118  141.5004  156.5618 N   0  0  0  0  0  0  0  0  0  0  0  0
  150.2835  140.6568  155.8851 C   0  0  0  0  0  0  0  0  0  0  0  0
  150.2452  140.0112  154.6219 C   0  0  0  0  0  0  0  0  0  0  0  0
  149.1845  140.1590  153.7968 N   0  0  0  0  0  0  0  0  0  0  0  0
  147.8406  140.3941  154.3177 C   0  0  0  0  0  0  0  0  0  0  0  0
  146.8039  139.5052  153.6102 C   0  0  0  0  0  0  0  0  0  0  0  0
  147.4777  141.8779  154.1755 C   0  0  0  0  0  0  0  0  0  0  0  0
  151.3084  139.2394  154.2743 N   0  0  0  0  0  0  0  0  0  0  0  0
  152.3458  139.1129  155.1078 C   0  0  0  0  0  0  0  0  0  0  0  0
  152.5188  139.6579  156.3140 N   0  0  0  0  0  0  0  0  0  0  0  0
  151.4492  140.4268  156.6681 C   0  0  0  0  0  0  0  0  0  0  0  0
  154.2247  142.1018  162.4708 H   0  0  0  0  0  0  0  0  0  0  0  0
  153.4477  140.8334  161.5442 H   0  0  0  0  0  0  0  0  0  0  0  0
  152.4704  142.0515  162.3666 H   0  0  0  0  0  0  0  0  0  0  0  0
  153.5580  143.8179  160.9069 H   0  0  0  0  0  0  0  0  0  0  0  0
  154.3749  142.5653  160.0160 H   0  0  0  0  0  0  0  0  0  0  0  0
  150.3480  142.5025  159.8956 H   0  0  0  0  0  0  0  0  0  0  0  0
  153.2656  143.6638  157.9334 H   0  0  0  0  0  0  0  0  0  0  0  0
  151.5388  143.5920  157.7359 H   0  0  0  0  0  0  0  0  0  0  0  0
  152.1593  145.8997  158.0832 H   0  0  0  0  0  0  0  0  0  0  0  0
  153.0359  145.5345  159.5559 H   0  0  0  0  0  0  0  0  0  0  0  0
  151.2769  145.3851  159.5133 H   0  0  0  0  0  0  0  0  0  0  0  0
  153.1364  140.9209  158.6604 H   0  0  0  0  0  0  0  0  0  0  0  0
  151.8107  140.5391  159.7260 H   0  0  0  0  0  0  0  0  0  0  0  0
  149.6022  142.3988  158.4403 H   0  0  0  0  0  0  0  0  0  0  0  0
  149.2522  140.0443  152.7958 H   0  0  0  0  0  0  0  0  0  0  0  0
  147.8296  140.1624  155.3835 H   0  0  0  0  0  0  0  0  0  0  0  0
  145.8031  139.6828  154.0046 H   0  0  0  0  0  0  0  0  0  0  0  0
  147.0228  138.4460  153.7461 H   0  0  0  0  0  0  0  0  0  0  0  0
  146.7783  139.7035  152.5383 H   0  0  0  0  0  0  0  0  0  0  0  0
  146.4908  142.0818  154.5915 H   0  0  0  0  0  0  0  0  0  0  0  0
  147.4683  142.1869  153.1295 H   0  0  0  0  0  0  0  0  0  0  0  0
  148.1935  142.5087  154.7037 H   0  0  0  0  0  0  0  0  0  0  0  0
  153.1528  138.4863  154.7579 H   0  0  0  0  0  0  0  0  0  0  0  0
  1  2  1  0  0  0  0
  1 21  1  0  0  0  0
  1 22  1  0  0  0  0
  1 23  1  0  0  0  0
  2  3  1  0  0  0  0
  2 24  1  0  0  0  0
  2 25  1  0  0  0  0
  3  4  1  0  0  0  0
  3  5  1  0  0  0  0
  3  7  1  0  0  0  0
  4 26  1  0  0  0  0
  5  6  1  0  0  0  0
  5 27  1  0  0  0  0
  5 28  1  0  0  0  0
  6 29  1  0  0  0  0
  6 30  1  0  0  0  0
  6 31  1  0  0  0  0
  7  8  1  0  0  0  0
  7 32  1  0  0  0  0
  7 33  1  0  0  0  0
  8 20  1  0  0  0  0
  8  9  1  0  0  0  0
  9 10  2  0  0  0  0
  9 34  1  0  0  0  0
 10 11  1  0  0  0  0
 11 20  2  0  0  0  0
 11 12  1  0  0  0  0
 12 13  1  0  0  0  0
 12 17  2  0  0  0  0
 13 14  1  0  0  0  0
 13 35  1  0  0  0  0
 14 15  1  0  0  0  0
 14 16  1  0  0  0  0
 14 36  1  0  0  0  0
 15 37  1  0  0  0  0
 15 38  1  0  0  0  0
 15 39  1  0  0  0  0
 16 40  1  0  0  0  0
 16 41  1  0  0  0  0
 16 42  1  0  0  0  0
 17 18  1  0  0  0  0
 18 19  2  0  0  0  0
 18 43  1  0  0  0  0
 19 20  1  0  0  0  0
M  END
> <s_m_source_file>
AV-unprocessed.smi

> <i_m_source_file_index>
2394

> <i_lp_mmshare_version>
43012

> <i_f3d_flags>
0

> <s_epik_input>
W0NIM11bQ0gyXUMoW09IXSkoW0NIMl1bQ0gzXSlbQ0gyXW4oW2NIXW4xKWMoYzEyKW5bY0hdbmMyW05IXVtDSF0oW0NIM10pW0NIM10=

> <s_epik_cmdline>
J2VwaWtfcHl0aG9uJywgJy1waCcsICc3LjAnLCAnLXRuJywgJzgnLCAnLW1hJywgJzIwMCcsICctbWV0YWxfYmluZGluZycsICctaW1hZScsICc8aW5maWxlLm1hZT4nLCAnLW9tYWUnLCAnPG91dGZpbGUubWFlPic=

> <r_lp_tautomer_probability>
1

> <r_epik_Ionization_Penalty>
0.0022327

> <r_epik_Ionization_Penalty_Charging>
0

> <r_epik_Ionization_Penalty_Neutral>
0.0022327

> <r_epik_State_Penalty>
-0

> <r_epik_Charging_Adjusted_Penalty>
0

> <i_epik_Tot_Q>
0

> <i_epik_Tot_abs_Q>
0

> <r_epik_Metal_State_Penalty>
-0

> <b_epik_Metal_Only>
0

> <s_lp_Force_Field>
OPLS_2005

> <r_lp_Energy>
13.0667

> <b_lp_Chiralities_Consistent>
1

> <s_lp_Variant>
AV-unprocessed.smi:2394-1

> <Gold.Version>
5.8.1

> <Gold.Id.Protein>
6NUR|6NUR_protein|mol2

> <Gold.PLP.Fitness>
50.6781

> <Gold.PLP.PLP>
-46.4203

> <Gold.PLP.part.hbond>
-4.0000

> <Gold.PLP.part.metal>
0.0000

> <Gold.PLP.part.buried>
-4.6480

> <Gold.PLP.part.nonpolar>
-37.8243

> <Gold.PLP.part.repulsive>
0.4071

> <Gold.PLP.ligand.clash>
0.0000

> <Gold.PLP.ligand.torsion>
0.9205

> <Gold.PLP.Chemscore.Hbond>
2.0000

> <Gold.PLP.Chemscore.CHOScore>
0.0000

> <Gold.PLP.Chemscore.Metal>
0.0000

> <Gold.Chemscore.Hbonds>
donor molecule, donor type, donor heavy atom, donor atom, acceptor molecule, acceptor atom, score
      L1  H    13    35       P1  7957  1.00
      P1  H  7997  8010       L1    19  1.00

> <Gold.PLP.Chemscore.Internal.Correction>
0.0987

> <Gold.Rescore>
     Score         DG    S(hbond)    S(metal)    S(lipo)     H(rot)  DE(clash)    DE(int)     intcor
     13.36     -15.63       1.78        0.00      91.36       2.54       0.04       2.22       ----

> <Gold.Chemscore.Fitness>
13.3637

> <Gold.Chemscore.DG>
-15.6279

> <Gold.Chemscore.ZeroCoef>
-5.4800

> <Gold.Chemscore.Hbond>
1.7846

> <Gold.Chemscore.Metal>
0.0000

> <Gold.Chemscore.Lipo>
91.3632

> <Gold.Chemscore.Internal_Hbond>
0.0000

> <Gold.Chemscore.DEClash>
0.0401

> <Gold.Chemscore.DEInternal>
2.2241

> <Gold.Chemscore.Rot>
2.5398

> <Gold.Chemscore.Internal.Correction>
   9.000000E+99

> <Gold.Chemscore.Hbonds>
donor molecule, donor type, donor heavy atom, donor atom, acceptor molecule, acceptor atom, score
      L1  H    13    35       P1  7957  1.00
      P1  H  7997  8010       L1    19  0.65

> <Gold.Chemscore.Hbond.Weighted>
-5.9604

> <Gold.Chemscore.Metal.Weighted>
-0.0000

> <Gold.Chemscore.Lipo.Weighted>
-10.6895

> <Gold.Chemscore.Internal_Hbond.Weighted>
0.0000

> <Gold.Chemscore.DEClash.Weighted>
0.0401

> <Gold.Chemscore.DEInternal.Weighted>
2.2241

> <Gold.Chemscore.Rot.Weighted>
6.5020

> <Gold.Chemscore.Internal.Correction.Weighted>
   9.000000E+99

> <Gold.Protein.RotatedTorsions>
[ 6907 6896 6895 6894 ] final -131.36 input  -60.11 | X-H torsion
[ 7974 7965 7964 7962 ] final  151.16 input  175.53 | X-H torsion
[ 8008 7997 7996 7995 ] final   68.69 input   59.86 | X-H torsion
[ 10167 10162 10161 10158 ] final   -5.11 input  -65.29 | X-H torsion
[ 10718 10713 10712 10709 ] final   98.19 input   66.30 | X-H torsion
[ 10763 10752 10751 10750 ] final  -62.25 input  -60.55 | X-H torsion
[ 11005 11000 10999 10996 ] final   71.87 input  -57.11 | X-H torsion

> <Gold.Protein.ActiveResidues>
 VAL166  LYS551  ARG553  GLY616  TRP617  ASP618  TYR619  PRO620  LYS621  CYS622 
 ASP623  PHE694  ASN695  SER759  ASP760  ASP761  ALA762  ILE779  LEU786  VAL792 
 PHE793  MET794  SER795  GLU796  ALA797  LYS798  CYS799  TRP800  GLU811  SER814 

> <Gold.Protein.RotatedAtoms>
  150.9501  133.6559  159.2773 H   0  0  0  0  0  0  0  0  0  0  0  0  # atno 6907 bound_to 6896
  151.3917  135.0956  159.9538 H   0  0  0  0  0  0  0  0  0  0  0  0  # atno 6908 bound_to 6896
  152.5106  133.9014  159.7497 H   0  0  0  0  0  0  0  0  0  0  0  0  # atno 6909 bound_to 6896
  144.8312  139.6502  143.6058 H   0  0  0  0  0  0  0  0  0  0  0  0  # atno 7974 bound_to 7965
  155.7121  140.3494  155.4978 H   0  0  0  0  0  0  0  0  0  0  0  0  # atno 8008 bound_to 7997
  155.9346  140.1090  157.1127 H   0  0  0  0  0  0  0  0  0  0  0  0  # atno 8009 bound_to 7997
  154.4091  140.1224  156.4834 H   0  0  0  0  0  0  0  0  0  0  0  0  # atno 8010 bound_to 7997
  140.6951  143.6346  150.8491 H   0  0  0  0  0  0  0  0  0  0  0  0  # atno 10167 bound_to 10162
  157.6900  131.0632  150.4759 H   0  0  0  0  0  0  0  0  0  0  0  0  # atno 10718 bound_to 10713
  154.2970  135.6242  153.5408 H   0  0  0  0  0  0  0  0  0  0  0  0  # atno 10763 bound_to 10752
  152.9845  135.5669  154.5327 H   0  0  0  0  0  0  0  0  0  0  0  0  # atno 10764 bound_to 10752
  154.4949  135.2869  155.1443 H   0  0  0  0  0  0  0  0  0  0  0  0  # atno 10765 bound_to 10752
  139.9520  134.7209  156.0839 H   0  0  0  0  0  0  0  0  0  0  0  0  # atno 11005 bound_to 11000
  146.2615  139.6421  142.9359 LP  0  0  0  0  0  0  0  0  0  0  0  0  # atno 17320 bound_to 7965
  145.4891  141.0438  143.2603 LP  0  0  0  0  0  0  0  0  0  0  0  0  # atno 17321 bound_to 7965
  140.0063  143.5690  152.2856 LP  0  0  0  0  0  0  0  0  0  0  0  0  # atno 17342 bound_to 10162
  139.6397  144.7653  151.2363 LP  0  0  0  0  0  0  0  0  0  0  0  0  # atno 17343 bound_to 10162
  156.5094  130.4135  149.6309 LP  0  0  0  0  0  0  0  0  0  0  0  0  # atno 17370 bound_to 10713
  156.3255  130.7303  151.2223 LP  0  0  0  0  0  0  0  0  0  0  0  0  # atno 17371 bound_to 10713
  141.1185  133.6620  156.3155 LP  0  0  0  0  0  0  0  0  0  0  0  0  # atno 17394 bound_to 11000
  140.5696  134.5853  157.5454 LP  0  0  0  0  0  0  0  0  0  0  0  0  # atno 17395 bound_to 11000

$$$$
