AV-unprocessed.smi:1205|AV-procd|sdf|5044|dock3
  -GOLD-   22720 4 73D 1   1.00000     0.00000
 Structure written by MMmdl.
 49 50  0  0  0  0  0  0  0  0  2 V2000
  149.9086  142.3760  155.2871 C   0  0  0  0  0  0  0  0  0  0  0  0
  149.8005  140.9313  154.8973 C   0  0  0  0  0  0  0  0  0  0  0  0
  148.6197  140.1845  154.6162 C   0  0  0  0  0  0  0  0  0  0  0  0
  149.1111  138.9414  154.3244 C   0  0  0  0  0  0  0  0  0  0  0  0
  148.4300  137.8137  153.9877 N   0  0  0  0  0  0  0  0  0  0  0  0
  147.4096  137.2226  154.6332 C   0  0  0  0  0  0  0  0  0  0  0  0
  146.8748  137.6407  155.6601 O   0  0  0  0  0  0  0  0  0  0  0  0
  147.0334  136.0944  154.0128 N   0  0  0  0  0  0  0  0  0  0  0  0
  145.9416  135.2184  154.4306 C   0  0  0  0  0  0  0  0  0  0  0  0
  144.7605  135.2178  153.4254 C   0  0  1  0  0  0  0  0  0  0  0  0
  144.7303  136.4589  152.5127 C   0  0  0  0  0  0  0  0  0  0  0  0
  144.6924  133.9737  152.6038 N   0  3  1  0  0  0  0  0  0  0  0  0
  143.5478  133.8939  151.6561 C   0  0  0  0  0  0  0  0  0  0  0  0
  143.4267  132.4791  151.0687 C   0  0  0  0  0  0  0  0  0  0  0  0
  144.7383  132.0494  150.3941 C   0  0  0  0  0  0  0  0  0  0  0  0
  145.9382  132.2002  151.3490 C   0  0  2  0  0  0  0  0  0  0  0  0
  145.9741  131.1129  152.4376 C   0  0  0  0  0  0  0  0  0  0  0  0
  145.9798  133.6224  151.9459 C   0  0  0  0  0  0  0  0  0  0  0  0
  150.4851  138.9693  154.4343 N   0  0  0  0  0  0  0  0  0  0  0  0
  151.4610  137.9163  154.2280 C   0  0  0  0  0  0  0  0  0  0  0  0
  150.9058  140.2036  154.7843 N   0  0  0  0  0  0  0  0  0  0  0  0
  148.9256  142.8068  155.4787 H   0  0  0  0  0  0  0  0  0  0  0  0
  150.3791  142.9612  154.4966 H   0  0  0  0  0  0  0  0  0  0  0  0
  150.5043  142.4963  156.1924 H   0  0  0  0  0  0  0  0  0  0  0  0
  147.5952  140.5242  154.6341 H   0  0  0  0  0  0  0  0  0  0  0  0
  148.7419  137.3626  153.1403 H   0  0  0  0  0  0  0  0  0  0  0  0
  147.5315  135.8285  153.1756 H   0  0  0  0  0  0  0  0  0  0  0  0
  146.3203  134.2080  154.5911 H   0  0  0  0  0  0  0  0  0  0  0  0
  145.6057  135.5731  155.4046 H   0  0  0  0  0  0  0  0  0  0  0  0
  143.8376  135.2610  154.0058 H   0  0  0  0  0  0  0  0  0  0  0  0
  144.5516  137.3689  153.0856 H   0  0  0  0  0  0  0  0  0  0  0  0
  143.9297  136.3859  151.7758 H   0  0  0  0  0  0  0  0  0  0  0  0
  145.6687  136.5922  151.9743 H   0  0  0  0  0  0  0  0  0  0  0  0
  142.6166  134.1511  152.1598 H   0  0  0  0  0  0  0  0  0  0  0  0
  143.6812  134.6118  150.8459 H   0  0  0  0  0  0  0  0  0  0  0  0
  143.1621  131.7732  151.8567 H   0  0  0  0  0  0  0  0  0  0  0  0
  142.6120  132.4471  150.3448 H   0  0  0  0  0  0  0  0  0  0  0  0
  144.6609  131.0230  150.0337 H   0  0  0  0  0  0  0  0  0  0  0  0
  144.9036  132.6699  149.5123 H   0  0  0  0  0  0  0  0  0  0  0  0
  146.8437  132.0684  150.7551 H   0  0  0  0  0  0  0  0  0  0  0  0
  145.1154  131.1754  153.1061 H   0  0  0  0  0  0  0  0  0  0  0  0
  146.8728  131.2025  153.0483 H   0  0  0  0  0  0  0  0  0  0  0  0
  145.9784  130.1161  151.9959 H   0  0  0  0  0  0  0  0  0  0  0  0
  146.1932  134.3448  151.1570 H   0  0  0  0  0  0  0  0  0  0  0  0
  146.8012  133.6906  152.6605 H   0  0  0  0  0  0  0  0  0  0  0  0
  150.9736  136.9419  154.1974 H   0  0  0  0  0  0  0  0  0  0  0  0
  152.1859  137.9174  155.0426 H   0  0  0  0  0  0  0  0  0  0  0  0
  151.9833  138.0815  153.2855 H   0  0  0  0  0  0  0  0  0  0  0  0
  144.5386  133.2346  153.2749 H   0  0  0  0  0  0  0  0  0  0  0  0
  1  2  1  0  0  0  0
  1 22  1  0  0  0  0
  1 23  1  0  0  0  0
  1 24  1  0  0  0  0
  2 21  2  0  0  0  0
  2  3  1  0  0  0  0
  3  4  2  0  0  0  0
  3 25  1  0  0  0  0
  4  5  1  0  0  0  0
  4 19  1  0  0  0  0
  5  6  1  0  0  0  0
  5 26  1  0  0  0  0
  6  7  2  0  0  0  0
  6  8  1  0  0  0  0
  8  9  1  0  0  0  0
  8 27  1  0  0  0  0
  9 10  1  0  0  0  0
  9 28  1  0  0  0  0
  9 29  1  0  0  0  0
 10 11  1  0  0  0  0
 10 12  1  0  0  0  0
 10 30  1  0  0  0  0
 11 31  1  0  0  0  0
 11 32  1  0  0  0  0
 11 33  1  0  0  0  0
 12 18  1  0  0  0  0
 12 13  1  0  0  0  0
 12 49  1  0  0  0  0
 13 14  1  0  0  0  0
 13 34  1  0  0  0  0
 13 35  1  0  0  0  0
 14 15  1  0  0  0  0
 14 36  1  0  0  0  0
 14 37  1  0  0  0  0
 15 16  1  0  0  0  0
 15 38  1  0  0  0  0
 15 39  1  0  0  0  0
 16 17  1  0  0  0  0
 16 18  1  0  0  0  0
 16 40  1  0  0  0  0
 17 41  1  0  0  0  0
 17 42  1  0  0  0  0
 17 43  1  0  0  0  0
 18 44  1  0  0  0  0
 18 45  1  0  0  0  0
 19 20  1  0  0  0  0
 19 21  1  0  0  0  0
 20 46  1  0  0  0  0
 20 47  1  0  0  0  0
 20 48  1  0  0  0  0
M  CHG  1  12   1
M  END
> <s_m_source_file>
AV-unprocessed.smi

> <i_m_source_file_index>
1205

> <i_lp_mmshare_version>
43012

> <i_f3d_flags>
0

> <s_epik_input>
W0NIM11jMVtjSF1jKG4objEpW0NIM10pW05IXUMoPU8pW05IXVtDSDJdW0NASF0oW0NIM10pTjJbQ0gyXVtDSDJdW0NIMl1bQ0BASF0oW0NIM10pW0NIMl0y

> <s_epik_cmdline>
J2VwaWtfcHl0aG9uJywgJy1waCcsICc3LjAnLCAnLXRuJywgJzgnLCAnLW1hJywgJzIwMCcsICctbWV0YWxfYmluZGluZycsICctaW1hZScsICc8aW5maWxlLm1hZT4nLCAnLW9tYWUnLCAnPG91dGZpbGUubWFlPic=

> <r_lp_tautomer_probability>
1

> <r_epik_Ionization_Penalty>
0.0020309

> <r_epik_Ionization_Penalty_Charging>
0.00195276

> <r_epik_Ionization_Penalty_Neutral>
7.81448e-05

> <r_epik_State_Penalty>
0.00133177

> <r_epik_Charging_Adjusted_Penalty>
0.00328452

> <i_epik_Tot_Q>
1

> <i_epik_Tot_abs_Q>
1

> <r_epik_Metal_State_Penalty>
-0

> <b_epik_Metal_Only>
0

> <s_lp_Force_Field>
OPLS_2005

> <r_lp_Energy>
25.114

> <b_lp_Chiralities_Consistent>
1

> <s_lp_Variant>
AV-unprocessed.smi:1205-6

> <Gold.Version>
5.8.1

> <Gold.Id.Protein>
6NUR|6NUR_protein|mol2

> <Gold.PLP.Fitness>
40.6510

> <Gold.PLP.PLP>
-33.9297

> <Gold.PLP.part.hbond>
-3.0000

> <Gold.PLP.part.metal>
0.0000

> <Gold.PLP.part.buried>
-2.7335

> <Gold.PLP.part.nonpolar>
-27.7918

> <Gold.PLP.part.repulsive>
0.0810

> <Gold.PLP.ligand.clash>
0.0000

> <Gold.PLP.ligand.torsion>
1.1992

> <Gold.PLP.Chemscore.Hbond>
2.9920

> <Gold.PLP.Chemscore.CHOScore>
0.0000

> <Gold.PLP.Chemscore.Metal>
0.0000

> <Gold.Chemscore.Hbonds>
donor molecule, donor type, donor heavy atom, donor atom, acceptor molecule, acceptor atom, score
      L1  H     5    26       P1  7948  1.00
      L1  H     8    27       P1  7948  0.99
      P1  H  7989  7998       L1    21  1.00

> <Gold.PLP.Chemscore.Internal.Correction>
0.1438

> <Gold.Rescore>
     Score         DG    S(hbond)    S(metal)    S(lipo)     H(rot)  DE(clash)    DE(int)     intcor
     16.57     -18.95       2.23        0.00      83.42       1.47       1.19       1.18       ----

> <Gold.Chemscore.Fitness>
16.5744

> <Gold.Chemscore.DG>
-18.9506

> <Gold.Chemscore.ZeroCoef>
-5.4800

> <Gold.Chemscore.Hbond>
2.2346

> <Gold.Chemscore.Metal>
0.0000

> <Gold.Chemscore.Lipo>
83.4157

> <Gold.Chemscore.Internal_Hbond>
0.0000

> <Gold.Chemscore.DEClash>
1.1935

> <Gold.Chemscore.DEInternal>
1.1827

> <Gold.Chemscore.Rot>
1.4658

> <Gold.Chemscore.Internal.Correction>
   9.000000E+99

> <Gold.Chemscore.Hbonds>
donor molecule, donor type, donor heavy atom, donor atom, acceptor molecule, acceptor atom, score
      L1  H     5    26       P1  7948  1.00
      L1  H     8    27       P1  7948  0.92
      P1  H  7989  7998       L1    21  0.22

> <Gold.Chemscore.Hbond.Weighted>
-7.4635

> <Gold.Chemscore.Metal.Weighted>
-0.0000

> <Gold.Chemscore.Lipo.Weighted>
-9.7596

> <Gold.Chemscore.Internal_Hbond.Weighted>
0.0000

> <Gold.Chemscore.DEClash.Weighted>
1.1935

> <Gold.Chemscore.DEInternal.Weighted>
1.1827

> <Gold.Chemscore.Rot.Weighted>
3.7526

> <Gold.Chemscore.Internal.Correction.Weighted>
   9.000000E+99

> <Gold.Protein.RotatedTorsions>
[ 6907 6896 6895 6894 ] final   45.12 input  -60.11 | X-H torsion
[ 7974 7965 7964 7962 ] final  -96.41 input  175.53 | X-H torsion
[ 8008 7997 7996 7995 ] final  112.59 input   59.86 | X-H torsion
[ 10167 10162 10161 10158 ] final   -6.90 input  -65.29 | X-H torsion
[ 10718 10713 10712 10709 ] final   82.13 input   66.30 | X-H torsion
[ 10763 10752 10751 10750 ] final  121.28 input  -60.55 | X-H torsion
[ 11005 11000 10999 10996 ] final   64.96 input  -57.11 | X-H torsion

> <Gold.Protein.ActiveResidues>
 VAL166  LYS551  ARG553  GLY616  TRP617  ASP618  TYR619  PRO620  LYS621  CYS622 
 ASP623  PHE694  ASN695  SER759  ASP760  ASP761  ALA762  ILE779  LEU786  VAL792 
 PHE793  MET794  SER795  GLU796  ALA797  LYS798  CYS799  TRP800  GLU811  SER814 

> <Gold.Protein.RotatedAtoms>
  152.2407  134.8231  160.0460 H   0  0  0  0  0  0  0  0  0  0  0  0  # atno 6907 bound_to 6896
  151.8947  133.3519  159.3818 H   0  0  0  0  0  0  0  0  0  0  0  0  # atno 6908 bound_to 6896
  150.7053  134.4815  159.5516 H   0  0  0  0  0  0  0  0  0  0  0  0  # atno 6909 bound_to 6896
  145.3472  140.9470  143.2575 H   0  0  0  0  0  0  0  0  0  0  0  0  # atno 7974 bound_to 7965
  156.2202  140.2996  155.9935 H   0  0  0  0  0  0  0  0  0  0  0  0  # atno 8008 bound_to 7997
  155.2500  140.0425  157.3002 H   0  0  0  0  0  0  0  0  0  0  0  0  # atno 8009 bound_to 7997
  154.5829  140.2380  155.8036 H   0  0  0  0  0  0  0  0  0  0  0  0  # atno 8010 bound_to 7997
  140.7012  143.6142  150.8675 H   0  0  0  0  0  0  0  0  0  0  0  0  # atno 10167 bound_to 10162
  157.6850  131.0034  150.2329 H   0  0  0  0  0  0  0  0  0  0  0  0  # atno 10718 bound_to 10713
  153.6115  135.3429  155.2980 H   0  0  0  0  0  0  0  0  0  0  0  0  # atno 10763 bound_to 10752
  154.8617  135.4251  154.2304 H   0  0  0  0  0  0  0  0  0  0  0  0  # atno 10764 bound_to 10752
  153.3156  135.7034  153.7148 H   0  0  0  0  0  0  0  0  0  0  0  0  # atno 10765 bound_to 10752
  139.9925  134.6568  156.0066 H   0  0  0  0  0  0  0  0  0  0  0  0  # atno 11005 bound_to 11000
  144.8745  139.4991  143.6752 LP  0  0  0  0  0  0  0  0  0  0  0  0  # atno 17320 bound_to 7965
  146.2983  139.7346  142.9110 LP  0  0  0  0  0  0  0  0  0  0  0  0  # atno 17321 bound_to 7965
  139.9864  143.5895  152.2925 LP  0  0  0  0  0  0  0  0  0  0  0  0  # atno 17342 bound_to 10162
  139.6534  144.7661  151.2103 LP  0  0  0  0  0  0  0  0  0  0  0  0  # atno 17343 bound_to 10162
  156.2958  130.3752  149.7797 LP  0  0  0  0  0  0  0  0  0  0  0  0  # atno 17370 bound_to 10713
  156.5442  130.8313  151.3279 LP  0  0  0  0  0  0  0  0  0  0  0  0  # atno 17371 bound_to 10713
  141.1578  133.6541  156.4217 LP  0  0  0  0  0  0  0  0  0  0  0  0  # atno 17394 bound_to 11000
  140.4880  134.6602  157.5199 LP  0  0  0  0  0  0  0  0  0  0  0  0  # atno 17395 bound_to 11000

$$$$
