AV-unprocessed.smi:2898|AV-procd|sdf|11142|dock4
  -GOLD-   2272016 23D 1   1.00000     0.00000
 Structure written by MMmdl.
 44 45  0  0  0  0  0  0  0  0  1 V2000
  155.0234  139.9586  160.6816 C   0  0  0  0  0  0  0  0  0  0  0  0
  154.4699  141.0263  161.5818 C   0  0  0  0  0  0  0  0  0  0  0  0
  154.9897  141.1978  162.7848 N   0  0  0  0  0  0  0  0  0  0  0  0
  154.2762  142.2518  163.3609 O   0  0  0  0  0  0  0  0  0  0  0  0
  153.3443  142.6806  162.4720 C   0  0  0  0  0  0  0  0  0  0  0  0
  152.4869  143.8167  162.9208 C   0  0  0  0  0  0  0  0  0  0  0  0
  153.4077  141.9399  161.3203 C   0  0  0  0  0  0  0  0  0  0  0  0
  152.5886  142.0356  160.0534 C   0  0  1  0  0  0  0  0  0  0  0  0
  153.2042  143.0348  159.0569 C   0  0  0  0  0  0  0  0  0  0  0  0
  152.3764  140.6344  159.4413 C   0  0  0  0  0  0  0  0  0  0  0  0
  151.4866  140.6596  158.2855 N   0  0  0  0  0  0  0  0  0  0  0  0
  151.6893  139.9926  157.1364 C   0  0  0  0  0  0  0  0  0  0  0  0
  152.6891  139.2974  156.9476 O   0  0  0  0  0  0  0  0  0  0  0  0
  150.6137  140.1113  156.0327 C   0  0  0  0  0  0  0  0  0  0  0  0
  150.9212  139.2317  154.8848 C   0  0  0  0  0  0  0  0  0  0  0  0
  151.1620  138.5427  153.9861 N   0  0  0  0  0  0  0  0  0  0  0  0
  149.2339  139.7236  156.6224 C   0  0  0  0  0  0  0  0  0  0  0  0
  148.0893  139.9342  155.6151 C   0  0  0  0  0  0  0  0  0  0  0  0
  148.0557  141.3860  155.1148 C   0  0  0  0  0  0  0  0  0  0  0  0
  149.4123  141.8082  154.5307 C   0  0  0  0  0  0  0  0  0  0  0  0
  150.5451  141.5817  155.5477 C   0  0  0  0  0  0  0  0  0  0  0  0
  155.3436  140.3815  159.7291 H   0  0  0  0  0  0  0  0  0  0  0  0
  154.2704  139.1991  160.4709 H   0  0  0  0  0  0  0  0  0  0  0  0
  155.8836  139.4574  161.1266 H   0  0  0  0  0  0  0  0  0  0  0  0
  152.2752  144.4984  162.0979 H   0  0  0  0  0  0  0  0  0  0  0  0
  152.9777  144.3888  163.7082 H   0  0  0  0  0  0  0  0  0  0  0  0
  151.5371  143.4518  163.3113 H   0  0  0  0  0  0  0  0  0  0  0  0
  151.6033  142.4289  160.3059 H   0  0  0  0  0  0  0  0  0  0  0  0
  153.3396  144.0126  159.5197 H   0  0  0  0  0  0  0  0  0  0  0  0
  152.5624  143.1767  158.1871 H   0  0  0  0  0  0  0  0  0  0  0  0
  154.1753  142.7002  158.6940 H   0  0  0  0  0  0  0  0  0  0  0  0
  153.3289  140.2122  159.1216 H   0  0  0  0  0  0  0  0  0  0  0  0
  151.9769  139.9505  160.1923 H   0  0  0  0  0  0  0  0  0  0  0  0
  150.6459  141.2129  158.3717 H   0  0  0  0  0  0  0  0  0  0  0  0
  149.2447  138.6797  156.9394 H   0  0  0  0  0  0  0  0  0  0  0  0
  149.0226  140.3104  157.5180 H   0  0  0  0  0  0  0  0  0  0  0  0
  148.2072  139.2567  154.7688 H   0  0  0  0  0  0  0  0  0  0  0  0
  147.1360  139.6804  156.0793 H   0  0  0  0  0  0  0  0  0  0  0  0
  147.2740  141.5031  154.3636 H   0  0  0  0  0  0  0  0  0  0  0  0
  147.7926  142.0486  155.9403 H   0  0  0  0  0  0  0  0  0  0  0  0
  149.6110  141.2456  153.6180 H   0  0  0  0  0  0  0  0  0  0  0  0
  149.3793  142.8588  154.2413 H   0  0  0  0  0  0  0  0  0  0  0  0
  150.3937  142.2558  156.3925 H   0  0  0  0  0  0  0  0  0  0  0  0
  151.4960  141.8701  155.0969 H   0  0  0  0  0  0  0  0  0  0  0  0
  1  2  1  0  0  0  0
  1 22  1  0  0  0  0
  1 23  1  0  0  0  0
  1 24  1  0  0  0  0
  2  7  1  0  0  0  0
  2  3  2  0  0  0  0
  3  4  1  0  0  0  0
  4  5  1  0  0  0  0
  5  6  1  0  0  0  0
  5  7  2  0  0  0  0
  6 25  1  0  0  0  0
  6 26  1  0  0  0  0
  6 27  1  0  0  0  0
  7  8  1  0  0  0  0
  8  9  1  0  0  0  0
  8 10  1  0  0  0  0
  8 28  1  0  0  0  0
  9 29  1  0  0  0  0
  9 30  1  0  0  0  0
  9 31  1  0  0  0  0
 10 11  1  0  0  0  0
 10 32  1  0  0  0  0
 10 33  1  0  0  0  0
 11 12  1  0  0  0  0
 11 34  1  0  0  0  0
 12 13  2  0  0  0  0
 12 14  1  0  0  0  0
 14 21  1  0  0  0  0
 14 15  1  0  0  0  0
 14 17  1  0  0  0  0
 15 16  3  0  0  0  0
 17 18  1  0  0  0  0
 17 35  1  0  0  0  0
 17 36  1  0  0  0  0
 18 19  1  0  0  0  0
 18 37  1  0  0  0  0
 18 38  1  0  0  0  0
 19 20  1  0  0  0  0
 19 39  1  0  0  0  0
 19 40  1  0  0  0  0
 20 21  1  0  0  0  0
 20 41  1  0  0  0  0
 20 42  1  0  0  0  0
 21 43  1  0  0  0  0
 21 44  1  0  0  0  0
M  END
> <s_m_source_file>
AV-unprocessed.smi

> <i_m_source_file_index>
2898

> <i_lp_mmshare_version>
43012

> <i_f3d_flags>
0

> <s_epik_input>
W0NIM11jMW5vYyhbQ0gzXSljMVtDQEhdKFtDSDNdKVtDSDJdW05IXUMoPU8pQzIoQyNOKVtDSDJdW0NIMl1bQ0gyXVtDSDJdW0NIMl0y

> <s_epik_cmdline>
J2VwaWtfcHl0aG9uJywgJy1waCcsICc3LjAnLCAnLXRuJywgJzgnLCAnLW1hJywgJzIwMCcsICctbWV0YWxfYmluZGluZycsICctaW1hZScsICc8aW5maWxlLm1hZT4nLCAnLW9tYWUnLCAnPG91dGZpbGUubWFlPic=

> <r_lp_tautomer_probability>
1

> <r_epik_Ionization_Penalty>
4.33734e-07

> <r_epik_Ionization_Penalty_Charging>
0

> <r_epik_Ionization_Penalty_Neutral>
4.33734e-07

> <r_epik_State_Penalty>
-0

> <r_epik_Charging_Adjusted_Penalty>
0

> <i_epik_Tot_Q>
0

> <i_epik_Tot_abs_Q>
0

> <r_epik_Metal_State_Penalty>
-0

> <b_epik_Metal_Only>
0

> <s_lp_Force_Field>
OPLS_2005

> <r_lp_Energy>
8.6026

> <b_lp_Chiralities_Consistent>
1

> <s_lp_Variant>
AV-unprocessed.smi:2898-2

> <Gold.Version>
5.8.1

> <Gold.Id.Protein>
6NUR|6NUR_protein|mol2

> <Gold.PLP.Fitness>
41.9249

> <Gold.PLP.PLP>
-40.6955

> <Gold.PLP.part.hbond>
-3.0000

> <Gold.PLP.part.metal>
0.0000

> <Gold.PLP.part.buried>
0.3532

> <Gold.PLP.part.nonpolar>
-36.4738

> <Gold.PLP.part.repulsive>
0.3660

> <Gold.PLP.ligand.clash>
0.0000

> <Gold.PLP.ligand.torsion>
0.9134

> <Gold.PLP.Chemscore.Hbond>
1.0000

> <Gold.PLP.Chemscore.CHOScore>
0.0000

> <Gold.PLP.Chemscore.Metal>
0.0000

> <Gold.Chemscore.Hbonds>
donor molecule, donor type, donor heavy atom, donor atom, acceptor molecule, acceptor atom, score
      P1  H  7997  8008       L1    13  1.00

> <Gold.PLP.Chemscore.Internal.Correction>
0.0561

> <Gold.Rescore>
     Score         DG    S(hbond)    S(metal)    S(lipo)     H(rot)  DE(clash)    DE(int)     intcor
     14.14     -17.84       0.98        0.00     111.05       1.52       1.65       2.05       ----

> <Gold.Chemscore.Fitness>
14.1402

> <Gold.Chemscore.DG>
-17.8370

> <Gold.Chemscore.ZeroCoef>
-5.4800

> <Gold.Chemscore.Hbond>
0.9779

> <Gold.Chemscore.Metal>
0.0000

> <Gold.Chemscore.Lipo>
111.0507

> <Gold.Chemscore.Internal_Hbond>
0.0000

> <Gold.Chemscore.DEClash>
1.6496

> <Gold.Chemscore.DEInternal>
2.0472

> <Gold.Chemscore.Rot>
1.5243

> <Gold.Chemscore.Internal.Correction>
   9.000000E+99

> <Gold.Chemscore.Hbonds>
donor molecule, donor type, donor heavy atom, donor atom, acceptor molecule, acceptor atom, score
      P1  H  7997  8008       L1    13  0.98

> <Gold.Chemscore.Hbond.Weighted>
-3.2663

> <Gold.Chemscore.Metal.Weighted>
-0.0000

> <Gold.Chemscore.Lipo.Weighted>
-12.9929

> <Gold.Chemscore.Internal_Hbond.Weighted>
0.0000

> <Gold.Chemscore.DEClash.Weighted>
1.6496

> <Gold.Chemscore.DEInternal.Weighted>
2.0472

> <Gold.Chemscore.Rot.Weighted>
3.9022

> <Gold.Chemscore.Internal.Correction.Weighted>
   9.000000E+99

> <Gold.Protein.RotatedTorsions>
[ 6907 6896 6895 6894 ] final -137.74 input  -60.11 | X-H torsion
[ 7974 7965 7964 7962 ] final  117.82 input  175.53 | X-H torsion
[ 8008 7997 7996 7995 ] final  -58.64 input   59.86 | X-H torsion
[ 10167 10162 10161 10158 ] final -170.55 input  -65.29 | X-H torsion
[ 10718 10713 10712 10709 ] final -122.83 input   66.30 | X-H torsion
[ 10763 10752 10751 10750 ] final   46.33 input  -60.55 | X-H torsion
[ 11005 11000 10999 10996 ] final  -59.64 input  -57.11 | X-H torsion

> <Gold.Protein.ActiveResidues>
 VAL166  LYS551  ARG553  GLY616  TRP617  ASP618  TYR619  PRO620  LYS621  CYS622 
 ASP623  PHE694  ASN695  SER759  ASP760  ASP761  ALA762  ILE779  LEU786  VAL792 
 PHE793  MET794  SER795  GLU796  ALA797  LYS798  CYS799  TRP800  GLU811  SER814 

> <Gold.Protein.RotatedAtoms>
  151.0263  133.5831  159.2665 H   0  0  0  0  0  0  0  0  0  0  0  0  # atno 6907 bound_to 6896
  151.2929  135.0746  159.9220 H   0  0  0  0  0  0  0  0  0  0  0  0  # atno 6908 bound_to 6896
  152.5335  133.9958  159.7926 H   0  0  0  0  0  0  0  0  0  0  0  0  # atno 6909 bound_to 6896
  145.1627  139.3146  143.4509 H   0  0  0  0  0  0  0  0  0  0  0  0  # atno 7974 bound_to 7965
  154.4317  140.1079  156.5989 H   0  0  0  0  0  0  0  0  0  0  0  0  # atno 8008 bound_to 7997
  155.5932  140.3492  155.4554 H   0  0  0  0  0  0  0  0  0  0  0  0  # atno 8009 bound_to 7997
  156.0230  140.1244  157.0327 H   0  0  0  0  0  0  0  0  0  0  0  0  # atno 8010 bound_to 7997
  139.5855  144.1329  152.1569 H   0  0  0  0  0  0  0  0  0  0  0  0  # atno 10167 bound_to 10162
  156.1451  130.6494  150.9830 H   0  0  0  0  0  0  0  0  0  0  0  0  # atno 10718 bound_to 10713
  152.9812  135.6011  154.3581 H   0  0  0  0  0  0  0  0  0  0  0  0  # atno 10763 bound_to 10752
  154.3265  135.2769  155.2495 H   0  0  0  0  0  0  0  0  0  0  0  0  # atno 10764 bound_to 10752
  154.4638  135.5959  153.6329 H   0  0  0  0  0  0  0  0  0  0  0  0  # atno 10765 bound_to 10752
  141.1256  133.6617  156.5103 H   0  0  0  0  0  0  0  0  0  0  0  0  # atno 11005 bound_to 11000
  146.3480  140.1743  142.8589 LP  0  0  0  0  0  0  0  0  0  0  0  0  # atno 17320 bound_to 7965
  145.0314  140.8874  143.5107 LP  0  0  0  0  0  0  0  0  0  0  0  0  # atno 17321 bound_to 7965
  140.0891  144.5636  150.7067 LP  0  0  0  0  0  0  0  0  0  0  0  0  # atno 17342 bound_to 10162
  140.7127  143.2518  151.4531 LP  0  0  0  0  0  0  0  0  0  0  0  0  # atno 17343 bound_to 10162
  157.6610  131.0881  150.7839 LP  0  0  0  0  0  0  0  0  0  0  0  0  # atno 17370 bound_to 10713
  156.7911  130.4890  149.5384 LP  0  0  0  0  0  0  0  0  0  0  0  0  # atno 17371 bound_to 10713
  140.4374  134.7046  157.4974 LP  0  0  0  0  0  0  0  0  0  0  0  0  # atno 17394 bound_to 11000
  140.0252  134.6488  155.9183 LP  0  0  0  0  0  0  0  0  0  0  0  0  # atno 17395 bound_to 11000

$$$$
