AV-unprocessed.smi:2896|AV-procd|sdf|11136|dock9
  -GOLD-   2272016 13D 1   1.00000     0.00000
 Structure written by MMmdl.
 50 51  0  0  0  0  0  0  0  0  2 V2000
  144.5216  137.0296  152.8232 C   0  0  0  0  0  0  0  0  0  0  0  0
  145.8136  136.7709  152.0279 C   0  0  2  0  0  0  0  0  0  0  0  0
  146.3618  138.1079  151.4812 C   0  0  0  0  0  0  0  0  0  0  0  0
  146.4126  139.1544  152.4987 N   0  0  0  0  0  0  0  0  0  0  0  0
  147.0765  139.0857  153.6661 C   0  0  0  0  0  0  0  0  0  0  0  0
  147.7182  138.0871  153.9960 O   0  0  0  0  0  0  0  0  0  0  0  0
  147.0325  140.3180  154.6055 C   0  0  0  0  0  0  0  0  0  0  0  0
  146.4753  141.5790  153.8956 C   0  0  0  0  0  0  0  0  0  0  0  0
  146.0622  139.9984  155.7710 C   0  0  0  0  0  0  0  0  0  0  0  0
  148.4736  140.5861  155.0806 C   0  0  0  0  0  0  0  0  0  0  0  0
  148.7146  141.3950  156.2178 C   0  0  0  0  0  0  0  0  0  0  0  0
  150.0366  141.6305  156.6384 C   0  0  0  0  0  0  0  0  0  0  0  0
  151.0851  141.0473  155.9040 C   0  0  0  0  0  0  0  0  0  0  0  0
  150.8828  140.2746  154.8177 N   0  0  0  0  0  0  0  0  0  0  0  0
  149.6108  140.0544  154.4212 C   0  0  0  0  0  0  0  0  0  0  0  0
  145.5821  135.7289  150.9057 C   0  0  0  0  0  0  0  0  0  0  0  0
  145.2463  134.3745  151.4151 N   0  3  0  0  0  0  0  0  0  0  0  0
  144.6849  133.5003  150.3575 C   0  0  0  0  0  0  0  0  0  0  0  0
  144.3020  132.1283  150.9372 C   0  0  0  0  0  0  0  0  0  0  0  0
  145.4416  131.5334  151.5447 O   0  0  0  0  0  0  0  0  0  0  0  0
  145.9386  132.3171  152.6220 C   0  0  0  0  0  0  0  0  0  0  0  0
  146.3751  133.6972  152.1010 C   0  0  0  0  0  0  0  0  0  0  0  0
  143.7281  137.4079  152.1778 H   0  0  0  0  0  0  0  0  0  0  0  0
  144.6863  137.7653  153.6110 H   0  0  0  0  0  0  0  0  0  0  0  0
  144.1559  136.1226  153.3045 H   0  0  0  0  0  0  0  0  0  0  0  0
  146.5581  136.3852  152.7241 H   0  0  0  0  0  0  0  0  0  0  0  0
  147.3401  137.9598  151.0204 H   0  0  0  0  0  0  0  0  0  0  0  0
  145.7103  138.4725  150.6866 H   0  0  0  0  0  0  0  0  0  0  0  0
  145.9164  140.0098  152.2935 H   0  0  0  0  0  0  0  0  0  0  0  0
  147.0743  141.8846  153.0374 H   0  0  0  0  0  0  0  0  0  0  0  0
  146.4487  142.4282  154.5794 H   0  0  0  0  0  0  0  0  0  0  0  0
  145.4558  141.4207  153.5405 H   0  0  0  0  0  0  0  0  0  0  0  0
  146.3624  139.1158  156.3377 H   0  0  0  0  0  0  0  0  0  0  0  0
  145.0525  139.8099  155.4034 H   0  0  0  0  0  0  0  0  0  0  0  0
  145.9944  140.8310  156.4722 H   0  0  0  0  0  0  0  0  0  0  0  0
  147.8970  141.8385  156.7664 H   0  0  0  0  0  0  0  0  0  0  0  0
  150.2415  142.2446  157.5028 H   0  0  0  0  0  0  0  0  0  0  0  0
  152.1126  141.2054  156.1964 H   0  0  0  0  0  0  0  0  0  0  0  0
  149.5236  139.4286  153.5468 H   0  0  0  0  0  0  0  0  0  0  0  0
  144.7704  136.0871  150.2704 H   0  0  0  0  0  0  0  0  0  0  0  0
  146.4565  135.6416  150.2606 H   0  0  0  0  0  0  0  0  0  0  0  0
  143.8042  133.9693  149.9172 H   0  0  0  0  0  0  0  0  0  0  0  0
  145.4170  133.3768  149.5577 H   0  0  0  0  0  0  0  0  0  0  0  0
  143.4938  132.2231  151.6645 H   0  0  0  0  0  0  0  0  0  0  0  0
  143.9416  131.4727  150.1441 H   0  0  0  0  0  0  0  0  0  0  0  0
  145.1776  132.4163  153.3979 H   0  0  0  0  0  0  0  0  0  0  0  0
  146.7864  131.8005  153.0726 H   0  0  0  0  0  0  0  0  0  0  0  0
  147.2114  133.5857  151.4089 H   0  0  0  0  0  0  0  0  0  0  0  0
  146.7307  134.2969  152.9378 H   0  0  0  0  0  0  0  0  0  0  0  0
  144.5131  134.4965  152.0990 H   0  0  0  0  0  0  0  0  0  0  0  0
  1  2  1  0  0  0  0
  1 23  1  0  0  0  0
  1 24  1  0  0  0  0
  1 25  1  0  0  0  0
  2  3  1  0  0  0  0
  2 16  1  0  0  0  0
  2 26  1  0  0  0  0
  3  4  1  0  0  0  0
  3 27  1  0  0  0  0
  3 28  1  0  0  0  0
  4  5  1  0  0  0  0
  4 29  1  0  0  0  0
  5  6  2  0  0  0  0
  5  7  1  0  0  0  0
  7  8  1  0  0  0  0
  7  9  1  0  0  0  0
  7 10  1  0  0  0  0
  8 30  1  0  0  0  0
  8 31  1  0  0  0  0
  8 32  1  0  0  0  0
  9 33  1  0  0  0  0
  9 34  1  0  0  0  0
  9 35  1  0  0  0  0
 10 15  1  0  0  0  0
 10 11  2  0  0  0  0
 11 12  1  0  0  0  0
 11 36  1  0  0  0  0
 12 13  2  0  0  0  0
 12 37  1  0  0  0  0
 13 14  1  0  0  0  0
 13 38  1  0  0  0  0
 14 15  2  0  0  0  0
 15 39  1  0  0  0  0
 16 17  1  0  0  0  0
 16 40  1  0  0  0  0
 16 41  1  0  0  0  0
 17 22  1  0  0  0  0
 17 18  1  0  0  0  0
 17 50  1  0  0  0  0
 18 19  1  0  0  0  0
 18 42  1  0  0  0  0
 18 43  1  0  0  0  0
 19 20  1  0  0  0  0
 19 44  1  0  0  0  0
 19 45  1  0  0  0  0
 20 21  1  0  0  0  0
 21 22  1  0  0  0  0
 21 46  1  0  0  0  0
 21 47  1  0  0  0  0
 22 48  1  0  0  0  0
 22 49  1  0  0  0  0
M  CHG  1  17   1
M  END
> <s_m_source_file>
AV-unprocessed.smi

> <i_m_source_file_index>
2896

> <i_lp_mmshare_version>
43012

> <i_f3d_flags>
0

> <s_epik_input>
W0NIMl0xW0NIMl1PW0NIMl1bQ0gyXU4xW0NIMl1bQ0BIXShbQ0gzXSlbQ0gyXVtOSF1DKD1PKUMoW0NIM10pKFtDSDNdKWMyW2NIXVtjSF1bY0hdbltjSF0y

> <s_epik_cmdline>
J2VwaWtfcHl0aG9uJywgJy1waCcsICc3LjAnLCAnLXRuJywgJzgnLCAnLW1hJywgJzIwMCcsICctbWV0YWxfYmluZGluZycsICctaW1hZScsICc8aW5maWxlLm1hZT4nLCAnLW9tYWUnLCAnPG91dGZpbGUubWFlPic=

> <r_epik_Ionization_Penalty>
0.378644

> <r_epik_Ionization_Penalty_Charging>
0.372108

> <r_epik_Ionization_Penalty_Neutral>
0.0065361

> <r_epik_State_Penalty>
0.380038

> <r_epik_Charging_Adjusted_Penalty>
0.752147

> <i_epik_Tot_Q>
1

> <i_epik_Tot_abs_Q>
1

> <r_epik_Metal_State_Penalty>
0.375202

> <b_epik_Metal_Only>
0

> <s_lp_Force_Field>
OPLS_2005

> <r_lp_Energy>
28.248

> <b_lp_Chiralities_Consistent>
1

> <s_lp_Variant>
AV-unprocessed.smi:2896-1

> <Gold.Version>
5.8.1

> <Gold.Id.Protein>
6NUR|6NUR_protein|mol2

> <Gold.PLP.Fitness>
41.1275

> <Gold.PLP.PLP>
-36.7406

> <Gold.PLP.part.hbond>
-2.0000

> <Gold.PLP.part.metal>
0.0000

> <Gold.PLP.part.buried>
-4.1526

> <Gold.PLP.part.nonpolar>
-32.7164

> <Gold.PLP.part.repulsive>
0.4027

> <Gold.PLP.ligand.clash>
0.0000

> <Gold.PLP.ligand.torsion>
1.3346

> <Gold.PLP.Chemscore.Hbond>
1.2912

> <Gold.PLP.Chemscore.CHOScore>
0.9997

> <Gold.PLP.Chemscore.Metal>
0.0000

> <Gold.Chemscore.Hbonds>
donor molecule, donor type, donor heavy atom, donor atom, acceptor molecule, acceptor atom, score
      L1  H     4    29       P1 10175  0.23
      P1  H  7989  7998       L1    14  1.00
      L1  C    15    39       P1  7957  1.00

> <Gold.PLP.Chemscore.Internal.Correction>
0.1834

> <Gold.Rescore>
     Score         DG    S(hbond)    S(metal)    S(lipo)     H(rot)  DE(clash)    DE(int)     intcor
     11.89     -16.47       1.45        0.00      91.34       1.78       0.95       3.63       ----

> <Gold.Chemscore.Fitness>
11.8871

> <Gold.Chemscore.DG>
-16.4721

> <Gold.Chemscore.ZeroCoef>
-5.4800

> <Gold.Chemscore.Hbond>
1.4533

> <Gold.Chemscore.Metal>
0.0000

> <Gold.Chemscore.Lipo>
91.3446

> <Gold.Chemscore.Internal_Hbond>
0.0000

> <Gold.Chemscore.DEClash>
0.9525

> <Gold.Chemscore.DEInternal>
3.6326

> <Gold.Chemscore.Rot>
1.7771

> <Gold.Chemscore.Internal.Correction>
   9.000000E+99

> <Gold.Chemscore.Hbonds>
donor molecule, donor type, donor heavy atom, donor atom, acceptor molecule, acceptor atom, score
      L1  H     4    29       P1 10175  0.18
      P1  H  7989  7998       L1    14  0.41

> <Gold.Chemscore.Hbond.Weighted>
-4.8541

> <Gold.Chemscore.Metal.Weighted>
-0.0000

> <Gold.Chemscore.Lipo.Weighted>
-10.6873

> <Gold.Chemscore.Internal_Hbond.Weighted>
0.0000

> <Gold.Chemscore.DEClash.Weighted>
0.9525

> <Gold.Chemscore.DEInternal.Weighted>
3.6326

> <Gold.Chemscore.Rot.Weighted>
4.5494

> <Gold.Chemscore.Internal.Correction.Weighted>
   9.000000E+99

> <Gold.Protein.RotatedTorsions>
[ 6907 6896 6895 6894 ] final  -50.48 input  -60.11 | X-H torsion
[ 7974 7965 7964 7962 ] final -153.46 input  175.53 | X-H torsion
[ 8008 7997 7996 7995 ] final -168.33 input   59.86 | X-H torsion
[ 10167 10162 10161 10158 ] final -178.36 input  -65.29 | X-H torsion
[ 10718 10713 10712 10709 ] final  -47.37 input   66.30 | X-H torsion
[ 10763 10752 10751 10750 ] final   69.03 input  -60.55 | X-H torsion
[ 11005 11000 10999 10996 ] final  -35.33 input  -57.11 | X-H torsion

> <Gold.Protein.ActiveResidues>
 VAL166  LYS551  ARG553  GLY616  TRP617  ASP618  TYR619  PRO620  LYS621  CYS622 
 ASP623  PHE694  ASN695  SER759  ASP760  ASP761  ALA762  ILE779  LEU786  VAL792 
 PHE793  MET794  SER795  GLU796  ALA797  LYS798  CYS799  TRP800  GLU811  SER814 

> <Gold.Protein.RotatedAtoms>
  150.8703  134.8075  159.7149 H   0  0  0  0  0  0  0  0  0  0  0  0  # atno 6907 bound_to 6896
  152.4710  134.4958  159.9719 H   0  0  0  0  0  0  0  0  0  0  0  0  # atno 6908 bound_to 6896
  151.5047  133.3458  159.2910 H   0  0  0  0  0  0  0  0  0  0  0  0  # atno 6909 bound_to 6896
  144.7740  140.4523  143.5887 H   0  0  0  0  0  0  0  0  0  0  0  0  # atno 7974 bound_to 7965
  155.8899  140.1023  157.1426 H   0  0  0  0  0  0  0  0  0  0  0  0  # atno 8008 bound_to 7997
  154.4014  140.1313  156.4367 H   0  0  0  0  0  0  0  0  0  0  0  0  # atno 8009 bound_to 7997
  155.7545  140.3464  155.5169 H   0  0  0  0  0  0  0  0  0  0  0  0  # atno 8010 bound_to 7997
  139.5436  144.2296  152.0944 H   0  0  0  0  0  0  0  0  0  0  0  0  # atno 10167 bound_to 10162
  156.2091  130.4160  149.9139 H   0  0  0  0  0  0  0  0  0  0  0  0  # atno 10718 bound_to 10713
  153.0266  135.5225  154.7226 H   0  0  0  0  0  0  0  0  0  0  0  0  # atno 10763 bound_to 10752
  154.6277  135.2896  155.0255 H   0  0  0  0  0  0  0  0  0  0  0  0  # atno 10764 bound_to 10752
  154.1219  135.6606  153.4957 H   0  0  0  0  0  0  0  0  0  0  0  0  # atno 10765 bound_to 10752
  140.9788  133.7068  156.1648 H   0  0  0  0  0  0  0  0  0  0  0  0  # atno 11005 bound_to 11000
  145.6241  139.1528  143.3006 LP  0  0  0  0  0  0  0  0  0  0  0  0  # atno 17320 bound_to 7965
  146.1906  140.6349  142.9147 LP  0  0  0  0  0  0  0  0  0  0  0  0  # atno 17321 bound_to 7965
  140.1778  144.4873  150.6544 LP  0  0  0  0  0  0  0  0  0  0  0  0  # atno 17342 bound_to 10162
  140.6676  143.2273  151.5705 LP  0  0  0  0  0  0  0  0  0  0  0  0  # atno 17343 bound_to 10162
  156.6823  130.8863  151.3577 LP  0  0  0  0  0  0  0  0  0  0  0  0  # atno 17370 bound_to 10713
  157.7028  130.9352  150.0839 LP  0  0  0  0  0  0  0  0  0  0  0  0  # atno 17371 bound_to 10713
  140.7218  134.4350  157.5574 LP  0  0  0  0  0  0  0  0  0  0  0  0  # atno 17394 bound_to 11000
  139.8941  134.8714  156.2191 LP  0  0  0  0  0  0  0  0  0  0  0  0  # atno 17395 bound_to 11000

$$$$
