#       Name:                AV-unprocessed.smi:3019
#       Creating user name   scv26
#       Creation time:       Fri Mar 27 16:43:13 2020


#       File generated by GOLD software.
#

@<TRIPOS>MOLECULE
AV-unprocessed.smi:3019
    35    36     1
SMALL
NO_CHARGES


@<TRIPOS>ATOM
      1 ****        -3.8820  -1.3613   0.9917 C.3            1 S1                 0.0000
      2 ****        -3.3095  -0.7475  -0.2933 C.3            1 S1                 0.0000
      3 ****        -3.8741  -1.3864  -1.5692 C.3            1 S1                 0.0000
      4 ****        -1.7929  -0.7552  -0.2877 C.2            1 S1                 0.0000
      5 ****        -1.0066  -1.8467  -0.2593 N.pl3          1 S1                -1.0000
      6 ****         0.2600  -1.4847  -0.2540 N.2            1 S1                 0.0000
      7 ****         0.2487  -0.1430  -0.2931 C.2            1 S1                 0.0000
      8 ****         1.4836   0.7355  -0.2587 C.3            1 S1                 0.0000
      9 ****         1.8573   1.1042   1.1915 C.3            1 S1                 0.0000
     10 ****         3.0550   1.9435   1.2201 N.3            1 S1                 0.0000
     11 ****         4.1646   1.3052   0.5162 C.3            1 S1                 0.0000
     12 ****         3.7434   0.9338  -0.9159 C.3            1 S1                 0.0000
     13 ****         2.5988   0.0893  -0.8703 O.3            1 S1                 0.0000
     14 ****        -1.0101   0.3192  -0.3066 N.2            1 S1                 0.0000
     15 ****        -3.5103  -0.8388   1.8737 H              1 S1                 0.0000
     16 ****        -3.6038  -2.4114   1.0850 H              1 S1                 0.0000
     17 ****        -4.9703  -1.3021   1.0051 H              1 S1                 0.0000
     18 ****        -3.6107   0.3009  -0.3042 H              1 S1                 0.0000
     19 ****        -3.5005  -0.8785  -2.4586 H              1 S1                 0.0000
     20 ****        -4.9627  -1.3309  -1.5880 H              1 S1                 0.0000
     21 ****        -3.5920  -2.4373  -1.6421 H              1 S1                 0.0000
     22 ****         1.2504   1.6417  -0.8212 H              1 S1                 0.0000
     23 ****         1.0277   1.6256   1.6698 H              1 S1                 0.0000
     24 ****         2.0291   0.1943   1.7678 H              1 S1                 0.0000
     25 ****         5.0268   1.9719   0.4930 H              1 S1                 0.0000
     26 ****         4.4754   0.4070   1.0511 H              1 S1                 0.0000
     27 ****         3.5331   1.8266  -1.5072 H              1 S1                 0.0000
     28 ****         4.5524   0.4029  -1.4179 H              1 S1                 0.0000
     29 ****         3.3198   2.1214   2.1834 H              1 S1                 0.0000
     30 ****        -1.3346  -2.7912  -0.2445 LP             1 S1                 0.0000
     31 ****         1.0607  -2.0830  -0.2267 LP             1 S1                 0.0000
     32 ****         2.8468   2.8055   0.7579 LP             1 S1                 0.0000
     33 ****         2.3504  -0.1690  -1.8039 LP             1 S1                 0.0000
     34 ****         2.8238  -0.7319  -0.3460 LP             1 S1                 0.0000
     35 ****        -1.3005   1.2759  -0.3268 LP             1 S1                 0.0000
@<TRIPOS>BOND
    1    1    2 1     
    2    1   15 1     
    3    1   16 1     
    4    1   17 1     
    5    2    3 1     
    6    2    4 1     
    7    2   18 1     
    8    3   19 1     
    9    3   20 1     
   10    3   21 1     
   11    4   14 2     
   12    4    5 1     
   13    5    6 1     
   14    6    7 2     
   15    7    8 1     
   16    7   14 1     
   17    8   13 1     
   18    8    9 1     
   19    8   22 1     
   20    9   10 1     
   21    9   23 1     
   22    9   24 1     
   23   10   11 1     
   24   10   29 1     
   25   11   12 1     
   26   11   25 1     
   27   11   26 1     
   28   12   13 1     
   29   12   27 1     
   30   12   28 1     
   31    5   30 1     
   32    6   31 1     
   33   10   32 1     
   34   13   33 1     
   35   13   34 1     
   36   14   35 1     
@<TRIPOS>SUBSTRUCTURE
      1 S1             1
@<TRIPOS>SET
LONE_PAIRS      STATIC     ATOMS    <user>   **** ""
6 30 31 32 33 34 35
DONOR_HYDROGENS      STATIC     ATOMS    <user>   **** ""
1 29
ATOM$BLUE        STATIC     ATOMS    COLORGROUP SYSTEM
6 30 31 32 33 34 35
ATOM$RED        STATIC     ATOMS    COLORGROUP SYSTEM
1 29
