AV-unprocessed.smi:720|AV-procd|sdf|3499|dock2
  -GOLD-   22720 0493D 1   1.00000     0.00000
 Structure written by MMmdl.
 46 48  0  0  0  0  0  0  0  0  1 V2000
  145.6494  137.6738  152.9115 C   0  0  0  0  0  0  0  0  0  0  0  0
  144.8060  136.9582  153.8622 N   0  0  0  0  0  0  0  0  0  0  0  0
  143.5412  136.6574  153.2039 C   0  0  0  0  0  0  0  0  0  0  0  0
  144.5373  137.7503  155.0640 C   0  0  0  0  0  0  0  0  0  0  0  0
  145.8103  138.1609  155.8350 C   0  0  0  0  0  0  0  0  0  0  0  0
  146.3388  139.4543  155.4372 N   0  0  0  0  0  0  0  0  0  0  0  0
  145.9310  140.2659  154.3972 C   0  0  0  0  0  0  0  0  0  0  0  0
  146.7095  141.3879  154.4198 C   0  0  0  0  0  0  0  0  0  0  0  0
  147.5685  141.1651  155.5373 C   0  0  0  0  0  0  0  0  0  0  0  0
  148.5798  142.0430  156.0025 N   0  0  0  0  0  0  0  0  0  0  0  0
  149.4870  141.8386  156.9765 C   0  0  0  0  0  0  0  0  0  0  0  0
  149.6103  140.7946  157.6137 O   0  0  0  0  0  0  0  0  0  0  0  0
  150.2761  142.8999  157.2219 N   0  0  0  0  0  0  0  0  0  0  0  0
  151.3552  143.0122  158.2079 C   0  0  2  0  0  0  0  0  0  0  0  0
  150.8252  142.7809  159.6403 C   0  0  0  0  0  0  0  0  0  0  0  0
  151.2090  144.0813  160.3702 C   0  0  2  0  0  0  0  0  0  0  0  0
  150.3223  145.2374  159.8688 C   0  0  0  0  0  0  0  0  0  0  0  0
  150.8829  145.5117  158.4606 C   0  0  0  0  0  0  0  0  0  0  0  0
  151.9752  144.4305  158.3172 C   0  0  1  0  0  0  0  0  0  0  0  0
  152.5504  144.4098  159.7294 C   0  0  0  0  0  0  0  0  0  0  0  0
  147.3325  140.0213  156.1557 N   0  0  0  0  0  0  0  0  0  0  0  0
  146.6523  137.8228  153.3062 H   0  0  0  0  0  0  0  0  0  0  0  0
  145.2286  138.6480  152.6588 H   0  0  0  0  0  0  0  0  0  0  0  0
  145.7573  137.1010  151.9897 H   0  0  0  0  0  0  0  0  0  0  0  0
  142.8881  136.0868  153.8651 H   0  0  0  0  0  0  0  0  0  0  0  0
  143.7067  136.0556  152.3094 H   0  0  0  0  0  0  0  0  0  0  0  0
  143.0186  137.5694  152.9107 H   0  0  0  0  0  0  0  0  0  0  0  0
  143.9126  138.6141  154.8319 H   0  0  0  0  0  0  0  0  0  0  0  0
  143.9500  137.1283  155.7412 H   0  0  0  0  0  0  0  0  0  0  0  0
  145.5755  138.2281  156.8976 H   0  0  0  0  0  0  0  0  0  0  0  0
  146.5837  137.3965  155.7409 H   0  0  0  0  0  0  0  0  0  0  0  0
  145.1310  139.9787  153.7309 H   0  0  0  0  0  0  0  0  0  0  0  0
  146.6573  142.2250  153.7403 H   0  0  0  0  0  0  0  0  0  0  0  0
  148.5841  142.9587  155.5775 H   0  0  0  0  0  0  0  0  0  0  0  0
  150.1053  143.7246  156.6647 H   0  0  0  0  0  0  0  0  0  0  0  0
  152.1317  142.2757  157.9925 H   0  0  0  0  0  0  0  0  0  0  0  0
  149.7509  142.5945  159.6805 H   0  0  0  0  0  0  0  0  0  0  0  0
  151.3233  141.9235  160.0945 H   0  0  0  0  0  0  0  0  0  0  0  0
  151.2275  143.9830  161.4559 H   0  0  0  0  0  0  0  0  0  0  0  0
  149.2658  144.9673  159.8498 H   0  0  0  0  0  0  0  0  0  0  0  0
  150.4319  146.1181  160.5025 H   0  0  0  0  0  0  0  0  0  0  0  0
  150.1177  145.4669  157.6858 H   0  0  0  0  0  0  0  0  0  0  0  0
  151.3269  146.5072  158.4179 H   0  0  0  0  0  0  0  0  0  0  0  0
  152.7037  144.6517  157.5366 H   0  0  0  0  0  0  0  0  0  0  0  0
  152.9589  145.3711  160.0466 H   0  0  0  0  0  0  0  0  0  0  0  0
  153.3039  143.6342  159.8786 H   0  0  0  0  0  0  0  0  0  0  0  0
  1  2  1  0  0  0  0
  1 22  1  0  0  0  0
  1 23  1  0  0  0  0
  1 24  1  0  0  0  0
  2  3  1  0  0  0  0
  2  4  1  0  0  0  0
  3 25  1  0  0  0  0
  3 26  1  0  0  0  0
  3 27  1  0  0  0  0
  4  5  1  0  0  0  0
  4 28  1  0  0  0  0
  4 29  1  0  0  0  0
  5  6  1  0  0  0  0
  5 30  1  0  0  0  0
  5 31  1  0  0  0  0
  6 21  1  0  0  0  0
  6  7  1  0  0  0  0
  7  8  2  0  0  0  0
  7 32  1  0  0  0  0
  8  9  1  0  0  0  0
  8 33  1  0  0  0  0
  9 10  1  0  0  0  0
  9 21  2  0  0  0  0
 10 11  1  0  0  0  0
 10 34  1  0  0  0  0
 11 12  2  0  0  0  0
 11 13  1  0  0  0  0
 13 14  1  0  0  0  0
 13 35  1  0  0  0  0
 14 19  1  0  0  0  0
 14 15  1  0  0  0  0
 14 36  1  0  0  0  0
 15 16  1  0  0  0  0
 15 37  1  0  0  0  0
 15 38  1  0  0  0  0
 16 20  1  0  0  0  0
 16 17  1  0  0  0  0
 16 39  1  0  0  0  0
 17 18  1  0  0  0  0
 17 40  1  0  0  0  0
 17 41  1  0  0  0  0
 18 19  1  0  0  0  0
 18 42  1  0  0  0  0
 18 43  1  0  0  0  0
 19 20  1  0  0  0  0
 19 44  1  0  0  0  0
 20 45  1  0  0  0  0
 20 46  1  0  0  0  0
M  END
> <s_m_source_file>
AV-unprocessed.smi

> <i_m_source_file_index>
720

> <i_lp_mmshare_version>
43012

> <i_f3d_flags>
0

> <s_epik_input>
W0NIM11OKFtDSDNdKVtDSDJdW0NIMl1uMVtjSF1bY0hdYyhuMSlbTkhdQyg9TylbTkhdW0NASF0oW0NIMl1bQ0BIXTIzKVtDQEhdKFtDSDJdMylbQ0gyXVtDSDJdMg==

> <s_epik_cmdline>
J2VwaWtfcHl0aG9uJywgJy1waCcsICc3LjAnLCAnLXRuJywgJzgnLCAnLW1hJywgJzIwMCcsICctbWV0YWxfYmluZGluZycsICctaW1hZScsICc8aW5maWxlLm1hZT4nLCAnLW9tYWUnLCAnPG91dGZpbGUubWFlPic=

> <r_lp_tautomer_probability>
1

> <r_epik_Ionization_Penalty>
1.83819

> <r_epik_Ionization_Penalty_Charging>
0

> <r_epik_Ionization_Penalty_Neutral>
1.83819

> <r_epik_State_Penalty>
1.95467

> <r_epik_Charging_Adjusted_Penalty>
1.95467

> <i_epik_Tot_Q>
0

> <i_epik_Tot_abs_Q>
0

> <r_epik_Metal_State_Penalty>
1.95467

> <b_epik_Metal_Only>
0

> <s_lp_Force_Field>
OPLS_2005

> <r_lp_Energy>
64.6773

> <b_lp_Chiralities_Consistent>
1

> <s_lp_Variant>
AV-unprocessed.smi:720-5

> <Gold.Version>
5.8.1

> <Gold.Id.Protein>
6NUR|6NUR_protein|mol2

> <Gold.PLP.Fitness>
41.8403

> <Gold.PLP.PLP>
-33.3723

> <Gold.PLP.part.hbond>
-2.0000

> <Gold.PLP.part.metal>
0.0000

> <Gold.PLP.part.buried>
-4.1954

> <Gold.PLP.part.nonpolar>
-27.7615

> <Gold.PLP.part.repulsive>
0.3681

> <Gold.PLP.ligand.clash>
0.0000

> <Gold.PLP.ligand.torsion>
0.2975

> <Gold.PLP.Chemscore.Hbond>
2.0000

> <Gold.PLP.Chemscore.CHOScore>
1.0000

> <Gold.PLP.Chemscore.Metal>
0.0000

> <Gold.Chemscore.Hbonds>
donor molecule, donor type, donor heavy atom, donor atom, acceptor molecule, acceptor atom, score
      L1  H    10    34       P1  8028  1.00
      L1  H    13    35       P1  8028  0.96
      L1  C     7    32       P1 10175  0.87

> <Gold.PLP.Chemscore.Internal.Correction>
0.0630

> <Gold.Rescore>
     Score         DG    S(hbond)    S(metal)    S(lipo)     H(rot)  DE(clash)    DE(int)     intcor
     18.20     -20.20       1.96        0.00     103.47       1.53       0.35       1.65       ----

> <Gold.Chemscore.Fitness>
18.2012

> <Gold.Chemscore.DG>
-20.1968

> <Gold.Chemscore.ZeroCoef>
-5.4800

> <Gold.Chemscore.Hbond>
1.9554

> <Gold.Chemscore.Metal>
0.0000

> <Gold.Chemscore.Lipo>
103.4671

> <Gold.Chemscore.Internal_Hbond>
0.0000

> <Gold.Chemscore.DEClash>
0.3484

> <Gold.Chemscore.DEInternal>
1.6472

> <Gold.Chemscore.Rot>
1.5312

> <Gold.Chemscore.Internal.Correction>
   9.000000E+99

> <Gold.Chemscore.Hbonds>
donor molecule, donor type, donor heavy atom, donor atom, acceptor molecule, acceptor atom, score
      L1  H    10    34       P1  8028  0.96
      L1  H    13    35       P1  8028  0.92

> <Gold.Chemscore.Hbond.Weighted>
-6.5310

> <Gold.Chemscore.Metal.Weighted>
-0.0000

> <Gold.Chemscore.Lipo.Weighted>
-12.1057

> <Gold.Chemscore.Internal_Hbond.Weighted>
0.0000

> <Gold.Chemscore.DEClash.Weighted>
0.3484

> <Gold.Chemscore.DEInternal.Weighted>
1.6472

> <Gold.Chemscore.Rot.Weighted>
3.9199

> <Gold.Chemscore.Internal.Correction.Weighted>
   9.000000E+99

> <Gold.Protein.RotatedTorsions>
[ 6907 6896 6895 6894 ] final -166.16 input  -60.11 | X-H torsion
[ 7974 7965 7964 7962 ] final -121.79 input  175.53 | X-H torsion
[ 8008 7997 7996 7995 ] final -108.12 input   59.86 | X-H torsion
[ 10167 10162 10161 10158 ] final  163.00 input  -65.29 | X-H torsion
[ 10718 10713 10712 10709 ] final -151.19 input   66.30 | X-H torsion
[ 10763 10752 10751 10750 ] final  114.60 input  -60.55 | X-H torsion
[ 11005 11000 10999 10996 ] final   69.86 input  -57.11 | X-H torsion

> <Gold.Protein.ActiveResidues>
 VAL166  LYS551  ARG553  GLY616  TRP617  ASP618  TYR619  PRO620  LYS621  CYS622 
 ASP623  PHE694  ASN695  SER759  ASP760  ASP761  ALA762  ILE779  LEU786  VAL792 
 PHE793  MET794  SER795  GLU796  ALA797  LYS798  CYS799  TRP800  GLU811  SER814 

> <Gold.Protein.RotatedAtoms>
  151.4392  133.3648  159.2779 H   0  0  0  0  0  0  0  0  0  0  0  0  # atno 6907 bound_to 6896
  150.9170  134.8589  159.7474 H   0  0  0  0  0  0  0  0  0  0  0  0  # atno 6908 bound_to 6896
  152.4962  134.4326  159.9569 H   0  0  0  0  0  0  0  0  0  0  0  0  # atno 6909 bound_to 6896
  145.0365  140.8110  143.4292 H   0  0  0  0  0  0  0  0  0  0  0  0  # atno 7974 bound_to 7965
  154.9395  140.0403  157.2089 H   0  0  0  0  0  0  0  0  0  0  0  0  # atno 8008 bound_to 7997
  154.8083  140.2863  155.5850 H   0  0  0  0  0  0  0  0  0  0  0  0  # atno 8009 bound_to 7997
  156.2969  140.2542  156.2965 H   0  0  0  0  0  0  0  0  0  0  0  0  # atno 8010 bound_to 7997
  139.4868  144.4381  151.8986 H   0  0  0  0  0  0  0  0  0  0  0  0  # atno 10167 bound_to 10162
  156.4560  130.8191  151.2422 H   0  0  0  0  0  0  0  0  0  0  0  0  # atno 10718 bound_to 10713
  153.5098  135.3620  155.2581 H   0  0  0  0  0  0  0  0  0  0  0  0  # atno 10763 bound_to 10752
  154.8743  135.4020  154.3382 H   0  0  0  0  0  0  0  0  0  0  0  0  # atno 10764 bound_to 10752
  153.4033  135.7075  153.6477 H   0  0  0  0  0  0  0  0  0  0  0  0  # atno 10765 bound_to 10752
  139.9630  134.7029  156.0605 H   0  0  0  0  0  0  0  0  0  0  0  0  # atno 11005 bound_to 11000
  145.1702  139.2408  143.5346 LP  0  0  0  0  0  0  0  0  0  0  0  0  # atno 17320 bound_to 7965
  146.3505  140.1451  142.8593 LP  0  0  0  0  0  0  0  0  0  0  0  0  # atno 17321 bound_to 7965
  140.3832  144.2710  150.5906 LP  0  0  0  0  0  0  0  0  0  0  0  0  # atno 17342 bound_to 10162
  140.5214  143.2265  151.8382 LP  0  0  0  0  0  0  0  0  0  0  0  0  # atno 17343 bound_to 10162
  157.7500  131.0122  150.3376 LP  0  0  0  0  0  0  0  0  0  0  0  0  # atno 17370 bound_to 10713
  156.3766  130.3873  149.7134 LP  0  0  0  0  0  0  0  0  0  0  0  0  # atno 17371 bound_to 10713
  141.1308  133.6587  156.3460 LP  0  0  0  0  0  0  0  0  0  0  0  0  # atno 17394 bound_to 11000
  140.5458  134.6075  157.5393 LP  0  0  0  0  0  0  0  0  0  0  0  0  # atno 17395 bound_to 11000

$$$$
