AV-unprocessed.smi:1753|AV-procd|sdf|7062|dock6
  -GOLD-   22720 8283D 1   1.00000     0.00000
 Structure written by MMmdl.
 37 38  0  0  0  0  0  0  0  0  1 V2000
  143.1864  132.3284  150.7076 C   0  0  0  0  0  0  0  0  0  0  0  0
  144.3691  133.1646  151.0979 C   0  0  0  0  0  0  0  0  0  0  0  0
  144.5141  134.5793  151.0014 C   0  0  0  0  0  0  0  0  0  0  0  0
  145.7743  134.7866  151.4919 C   0  0  0  0  0  0  0  0  0  0  0  0
  146.4541  135.9550  151.6373 N   0  0  0  0  0  0  0  0  0  0  0  0
  145.9764  137.1718  151.9509 C   0  0  0  0  0  0  0  0  0  0  0  0
  144.7969  137.4401  152.1804 O   0  0  0  0  0  0  0  0  0  0  0  0
  146.9588  138.0834  151.9823 N   0  0  0  0  0  0  0  0  0  0  0  0
  146.7781  139.5010  152.2783 C   0  0  0  0  0  0  0  0  0  0  0  0
  147.2418  139.8705  153.7020 C   0  0  2  0  0  0  0  0  0  0  0  0
  147.5243  141.3762  153.8878 C   0  0  0  0  0  0  0  0  0  0  0  0
  148.2477  141.5757  155.2227 C   0  0  0  0  0  0  0  0  0  0  0  0
  149.3126  140.1011  155.4279 S   0  0  0  0  0  0  0  0  0  0  0  0
  150.6818  140.4231  154.9984 O   0  0  0  0  0  0  0  0  0  0  0  0
  149.0535  139.5012  156.7456 O   0  0  0  0  0  0  0  0  0  0  0  0
  148.5026  139.0985  154.1234 C   0  0  0  0  0  0  0  0  0  0  0  0
  146.3188  133.5729  151.8481 N   0  0  0  0  0  0  0  0  0  0  0  0
  147.6224  133.2779  152.4097 C   0  0  0  0  0  0  0  0  0  0  0  0
  145.4458  132.5722  151.6023 N   0  0  0  0  0  0  0  0  0  0  0  0
  142.3959  132.9418  150.2748 H   0  0  0  0  0  0  0  0  0  0  0  0
  142.7691  131.8116  151.5720 H   0  0  0  0  0  0  0  0  0  0  0  0
  143.4635  131.5757  149.9691 H   0  0  0  0  0  0  0  0  0  0  0  0
  143.8006  135.2998  150.6309 H   0  0  0  0  0  0  0  0  0  0  0  0
  147.4495  135.8941  151.4820 H   0  0  0  0  0  0  0  0  0  0  0  0
  147.9002  137.7769  151.7848 H   0  0  0  0  0  0  0  0  0  0  0  0
  147.3114  140.1014  151.5393 H   0  0  0  0  0  0  0  0  0  0  0  0
  145.7203  139.7356  152.1578 H   0  0  0  0  0  0  0  0  0  0  0  0
  146.4538  139.6019  154.4075 H   0  0  0  0  0  0  0  0  0  0  0  0
  148.1707  141.7224  153.0802 H   0  0  0  0  0  0  0  0  0  0  0  0
  146.6113  141.9710  153.8437 H   0  0  0  0  0  0  0  0  0  0  0  0
  148.8478  142.4851  155.2555 H   0  0  0  0  0  0  0  0  0  0  0  0
  147.5355  141.5949  156.0481 H   0  0  0  0  0  0  0  0  0  0  0  0
  148.2804  138.1004  154.5014 H   0  0  0  0  0  0  0  0  0  0  0  0
  149.2051  139.0055  153.2946 H   0  0  0  0  0  0  0  0  0  0  0  0
  147.7631  133.8477  153.3288 H   0  0  0  0  0  0  0  0  0  0  0  0
  148.3990  133.5540  151.6958 H   0  0  0  0  0  0  0  0  0  0  0  0
  147.7115  132.2143  152.6368 H   0  0  0  0  0  0  0  0  0  0  0  0
  1  2  1  0  0  0  0
  1 20  1  0  0  0  0
  1 21  1  0  0  0  0
  1 22  1  0  0  0  0
  2 19  2  0  0  0  0
  2  3  1  0  0  0  0
  3  4  2  0  0  0  0
  3 23  1  0  0  0  0
  4  5  1  0  0  0  0
  4 17  1  0  0  0  0
  5  6  1  0  0  0  0
  5 24  1  0  0  0  0
  6  7  2  0  0  0  0
  6  8  1  0  0  0  0
  8  9  1  0  0  0  0
  8 25  1  0  0  0  0
  9 10  1  0  0  0  0
  9 26  1  0  0  0  0
  9 27  1  0  0  0  0
 10 16  1  0  0  0  0
 10 11  1  0  0  0  0
 10 28  1  0  0  0  0
 11 12  1  0  0  0  0
 11 29  1  0  0  0  0
 11 30  1  0  0  0  0
 12 13  1  0  0  0  0
 12 31  1  0  0  0  0
 12 32  1  0  0  0  0
 13 14  2  0  0  0  0
 13 15  2  0  0  0  0
 13 16  1  0  0  0  0
 16 33  1  0  0  0  0
 16 34  1  0  0  0  0
 17 18  1  0  0  0  0
 17 19  1  0  0  0  0
 18 35  1  0  0  0  0
 18 36  1  0  0  0  0
 18 37  1  0  0  0  0
M  END
> <s_m_source_file>
AV-unprocessed.smi

> <i_m_source_file_index>
1753

> <i_lp_mmshare_version>
43012

> <i_f3d_flags>
0

> <s_epik_input>
W0NIM11jMVtjSF1jKG4objEpW0NIM10pW05IXUMoPU8pW05IXVtDSDJdW0NAQEhdKFtDSDJdMilbQ0gyXVtDSDJdUzIoPU8pPU8=

> <s_epik_cmdline>
J2VwaWtfcHl0aG9uJywgJy1waCcsICc3LjAnLCAnLXRuJywgJzgnLCAnLW1hJywgJzIwMCcsICctbWV0YWxfYmluZGluZycsICctaW1hZScsICc8aW5maWxlLm1hZT4nLCAnLW9tYWUnLCAnPG91dGZpbGUubWFlPic=

> <r_lp_tautomer_probability>
1

> <r_epik_Ionization_Penalty>
9.06651e-05

> <r_epik_Ionization_Penalty_Charging>
0

> <r_epik_Ionization_Penalty_Neutral>
9.06651e-05

> <r_epik_State_Penalty>
-0

> <r_epik_Charging_Adjusted_Penalty>
0

> <i_epik_Tot_Q>
0

> <i_epik_Tot_abs_Q>
0

> <r_epik_Metal_State_Penalty>
-0

> <b_epik_Metal_Only>
0

> <s_lp_Force_Field>
OPLS_2005

> <r_lp_Energy>
5.34898

> <b_lp_Chiralities_Consistent>
1

> <s_lp_Variant>
AV-unprocessed.smi:1753-1

> <Gold.Version>
5.8.1

> <Gold.Id.Protein>
6NUR|6NUR_protein|mol2

> <Gold.PLP.Fitness>
38.5101

> <Gold.PLP.PLP>
-31.2087

> <Gold.PLP.part.hbond>
-2.8186

> <Gold.PLP.part.metal>
0.0000

> <Gold.PLP.part.buried>
-1.5194

> <Gold.PLP.part.nonpolar>
-28.8727

> <Gold.PLP.part.repulsive>
2.4621

> <Gold.PLP.ligand.clash>
0.0000

> <Gold.PLP.ligand.torsion>
0.5517

> <Gold.PLP.Chemscore.Hbond>
2.8000

> <Gold.PLP.Chemscore.CHOScore>
0.0000

> <Gold.PLP.Chemscore.Metal>
0.0000

> <Gold.Chemscore.Hbonds>
donor molecule, donor type, donor heavy atom, donor atom, acceptor molecule, acceptor atom, score
      L1  H     5    24       P1  7948  1.00
      L1  H     8    25       P1  7948  0.83
      P1  H  7989  7998       L1    14  1.00

> <Gold.PLP.Chemscore.Internal.Correction>
0.0047

> <Gold.Rescore>
     Score         DG    S(hbond)    S(metal)    S(lipo)     H(rot)  DE(clash)    DE(int)     intcor
     17.89     -18.48       2.90        0.00      56.94       1.31       0.04       0.55       ----

> <Gold.Chemscore.Fitness>
17.8923

> <Gold.Chemscore.DG>
-18.4786

> <Gold.Chemscore.ZeroCoef>
-5.4800

> <Gold.Chemscore.Hbond>
2.8998

> <Gold.Chemscore.Metal>
0.0000

> <Gold.Chemscore.Lipo>
56.9391

> <Gold.Chemscore.Internal_Hbond>
0.0000

> <Gold.Chemscore.DEClash>
0.0405

> <Gold.Chemscore.DEInternal>
0.5457

> <Gold.Chemscore.Rot>
1.3080

> <Gold.Chemscore.Internal.Correction>
   9.000000E+99

> <Gold.Chemscore.Hbonds>
donor molecule, donor type, donor heavy atom, donor atom, acceptor molecule, acceptor atom, score
      L1  H     5    24       P1  7948  0.92
      L1  H     8    25       P1  7948  0.81
      P1  H  7989  7998       L1    14  0.97

> <Gold.Chemscore.Hbond.Weighted>
-9.6852

> <Gold.Chemscore.Metal.Weighted>
-0.0000

> <Gold.Chemscore.Lipo.Weighted>
-6.6619

> <Gold.Chemscore.Internal_Hbond.Weighted>
0.0000

> <Gold.Chemscore.DEClash.Weighted>
0.0405

> <Gold.Chemscore.DEInternal.Weighted>
0.5457

> <Gold.Chemscore.Rot.Weighted>
3.3485

> <Gold.Chemscore.Internal.Correction.Weighted>
   9.000000E+99

> <Gold.Protein.RotatedTorsions>
[ 6907 6896 6895 6894 ] final   -4.87 input  -60.11 | X-H torsion
[ 7974 7965 7964 7962 ] final   33.09 input  175.53 | X-H torsion
[ 8008 7997 7996 7995 ] final    1.91 input   59.86 | X-H torsion
[ 10167 10162 10161 10158 ] final   -2.96 input  -65.29 | X-H torsion
[ 10718 10713 10712 10709 ] final  -10.55 input   66.30 | X-H torsion
[ 10763 10752 10751 10750 ] final  -15.65 input  -60.55 | X-H torsion
[ 11005 11000 10999 10996 ] final   96.05 input  -57.11 | X-H torsion

> <Gold.Protein.ActiveResidues>
 VAL166  LYS551  ARG553  GLY616  TRP617  ASP618  TYR619  PRO620  LYS621  CYS622 
 ASP623  PHE694  ASN695  SER759  ASP760  ASP761  ALA762  ILE779  LEU786  VAL792 
 PHE793  MET794  SER795  GLU796  ALA797  LYS798  CYS799  TRP800  GLU811  SER814 

> <Gold.Protein.RotatedAtoms>
  151.4907  135.1057  159.9802 H   0  0  0  0  0  0  0  0  0  0  0  0  # atno 6907 bound_to 6896
  152.4742  133.8095  159.7006 H   0  0  0  0  0  0  0  0  0  0  0  0  # atno 6908 bound_to 6896
  150.8769  133.7364  159.2970 H   0  0  0  0  0  0  0  0  0  0  0  0  # atno 6909 bound_to 6896
  146.1443  139.6441  142.9141 H   0  0  0  0  0  0  0  0  0  0  0  0  # atno 7974 bound_to 7965
  154.6853  140.2641  155.6867 H   0  0  0  0  0  0  0  0  0  0  0  0  # atno 8008 bound_to 7997
  156.2712  140.2802  156.1335 H   0  0  0  0  0  0  0  0  0  0  0  0  # atno 8009 bound_to 7997
  155.0973  140.0374  157.2676 H   0  0  0  0  0  0  0  0  0  0  0  0  # atno 8010 bound_to 7997
  140.6871  143.6596  150.8278 H   0  0  0  0  0  0  0  0  0  0  0  0  # atno 10167 bound_to 10162
  156.6719  130.5012  149.5997 H   0  0  0  0  0  0  0  0  0  0  0  0  # atno 10718 bound_to 10713
  153.5465  135.7012  153.5611 H   0  0  0  0  0  0  0  0  0  0  0  0  # atno 10763 bound_to 10752
  153.3554  135.3984  155.1678 H   0  0  0  0  0  0  0  0  0  0  0  0  # atno 10764 bound_to 10752
  154.8667  135.3775  154.4973 H   0  0  0  0  0  0  0  0  0  0  0  0  # atno 10765 bound_to 10752
  139.8784  134.8931  156.4101 H   0  0  0  0  0  0  0  0  0  0  0  0  # atno 11005 bound_to 11000
  145.4973  141.0438  143.2560 LP  0  0  0  0  0  0  0  0  0  0  0  0  # atno 17320 bound_to 7965
  144.7829  139.6489  143.7147 LP  0  0  0  0  0  0  0  0  0  0  0  0  # atno 17321 bound_to 7965
  140.0304  143.5449  152.2762 LP  0  0  0  0  0  0  0  0  0  0  0  0  # atno 17342 bound_to 10162
  139.6240  144.7634  151.2678 LP  0  0  0  0  0  0  0  0  0  0  0  0  # atno 17343 bound_to 10162
  156.1932  130.6573  151.1085 LP  0  0  0  0  0  0  0  0  0  0  0  0  # atno 17370 bound_to 10713
  157.7074  131.0750  150.6619 LP  0  0  0  0  0  0  0  0  0  0  0  0  # atno 17371 bound_to 10713
  140.9206  133.7647  155.9902 LP  0  0  0  0  0  0  0  0  0  0  0  0  # atno 17394 bound_to 11000
  140.8444  134.3029  157.5301 LP  0  0  0  0  0  0  0  0  0  0  0  0  # atno 17395 bound_to 11000

$$$$
