AV-unprocessed.smi:2929|AV-procd|sdf|11239|dock3
  -GOLD-   2272016133D 1   1.00000     0.00000
 Structure written by MMmdl.
 33 34  0  0  0  0  0  0  0  0  1 V2000
  153.1882  130.5564  155.7125 C   0  0  0  0  0  0  0  0  0  0  0  0
  151.8913  131.2668  156.8055 S   0  0  0  0  0  0  0  0  0  0  0  0
  151.2439  130.1551  157.5194 O   0  0  0  0  0  0  0  0  0  0  0  0
  152.4876  132.3726  157.5713 O   0  0  0  0  0  0  0  0  0  0  0  0
  150.7072  131.9650  155.6603 C   0  0  0  0  0  0  0  0  0  0  0  0
  149.9006  131.1241  154.8677 C   0  0  0  0  0  0  0  0  0  0  0  0
  149.0166  131.7237  153.9505 C   0  0  0  0  0  0  0  0  0  0  0  0
  148.9774  133.1375  153.8599 C   0  0  0  0  0  0  0  0  0  0  0  0
  148.1441  133.8679  152.9687 N   0  0  0  0  0  0  0  0  0  0  0  0
  146.8699  133.6301  152.6123 C   0  0  0  0  0  0  0  0  0  0  0  0
  146.1696  132.7099  153.0331 O   0  0  0  0  0  0  0  0  0  0  0  0
  146.4368  134.5443  151.7330 N   0  0  0  0  0  0  0  0  0  0  0  0
  145.1058  134.5666  151.1401 C   0  0  0  0  0  0  0  0  0  0  0  0
  144.6021  133.2206  150.6561 C   0  0  0  0  0  0  0  0  0  0  0  0
  145.4243  132.4013  149.6890 C   0  0  0  0  0  0  0  0  0  0  0  0
  144.1283  133.0266  149.2339 C   0  0  0  0  0  0  0  0  0  0  0  0
  149.8514  133.8745  154.6880 C   0  0  0  0  0  0  0  0  0  0  0  0
  150.7047  133.3115  155.5688 N   0  0  0  0  0  0  0  0  0  0  0  0
  153.9670  130.0998  156.3227 H   0  0  0  0  0  0  0  0  0  0  0  0
  153.6223  131.3482  155.1020 H   0  0  0  0  0  0  0  0  0  0  0  0
  152.7436  129.8010  155.0650 H   0  0  0  0  0  0  0  0  0  0  0  0
  149.9560  130.0492  154.9529 H   0  0  0  0  0  0  0  0  0  0  0  0
  148.4049  131.0864  153.3322 H   0  0  0  0  0  0  0  0  0  0  0  0
  148.5598  134.7020  152.5805 H   0  0  0  0  0  0  0  0  0  0  0  0
  147.0761  135.2706  151.4452 H   0  0  0  0  0  0  0  0  0  0  0  0
  144.3890  134.9980  151.8414 H   0  0  0  0  0  0  0  0  0  0  0  0
  145.1384  135.2426  150.2855 H   0  0  0  0  0  0  0  0  0  0  0  0
  144.0793  132.6489  151.4208 H   0  0  0  0  0  0  0  0  0  0  0  0
  146.3489  132.8350  149.3135 H   0  0  0  0  0  0  0  0  0  0  0  0
  145.4393  131.3225  149.8317 H   0  0  0  0  0  0  0  0  0  0  0  0
  143.2779  132.3667  149.0752 H   0  0  0  0  0  0  0  0  0  0  0  0
  144.1911  133.8767  148.5573 H   0  0  0  0  0  0  0  0  0  0  0  0
  149.8685  134.9536  154.6422 H   0  0  0  0  0  0  0  0  0  0  0  0
  1  2  1  0  0  0  0
  1 19  1  0  0  0  0
  1 20  1  0  0  0  0
  1 21  1  0  0  0  0
  2  3  2  0  0  0  0
  2  4  2  0  0  0  0
  2  5  1  0  0  0  0
  5 18  1  0  0  0  0
  5  6  2  0  0  0  0
  6  7  1  0  0  0  0
  6 22  1  0  0  0  0
  7  8  2  0  0  0  0
  7 23  1  0  0  0  0
  8  9  1  0  0  0  0
  8 17  1  0  0  0  0
  9 10  1  0  0  0  0
  9 24  1  0  0  0  0
 10 11  2  0  0  0  0
 10 12  1  0  0  0  0
 12 13  1  0  0  0  0
 12 25  1  0  0  0  0
 13 14  1  0  0  0  0
 13 26  1  0  0  0  0
 13 27  1  0  0  0  0
 14 16  1  0  0  0  0
 14 15  1  0  0  0  0
 14 28  1  0  0  0  0
 15 16  1  0  0  0  0
 15 29  1  0  0  0  0
 15 30  1  0  0  0  0
 16 31  1  0  0  0  0
 16 32  1  0  0  0  0
 17 18  2  0  0  0  0
 17 33  1  0  0  0  0
M  END
> <s_m_source_file>
AV-unprocessed.smi

> <i_m_source_file_index>
2929

> <i_lp_mmshare_version>
43012

> <i_f3d_flags>
0

> <s_epik_input>
W0NIM11TKD1PKSg9TyljMVtjSF1bY0hdYyhbY0hdbjEpW05IXUMoPU8pW05IXVtDSDJdW0NIXTJbQ0gyXVtDSDJdMg==

> <s_epik_cmdline>
J2VwaWtfcHl0aG9uJywgJy1waCcsICc3LjAnLCAnLXRuJywgJzgnLCAnLW1hJywgJzIwMCcsICctbWV0YWxfYmluZGluZycsICctaW1hZScsICc8aW5maWxlLm1hZT4nLCAnLW9tYWUnLCAnPG91dGZpbGUubWFlPic=

> <r_lp_tautomer_probability>
1

> <r_epik_Ionization_Penalty>
4.04513e-05

> <r_epik_Ionization_Penalty_Charging>
0

> <r_epik_Ionization_Penalty_Neutral>
4.04513e-05

> <r_epik_State_Penalty>
-0

> <r_epik_Charging_Adjusted_Penalty>
0

> <i_epik_Tot_Q>
0

> <i_epik_Tot_abs_Q>
0

> <r_epik_Metal_State_Penalty>
-0

> <b_epik_Metal_Only>
0

> <s_lp_Force_Field>
OPLS_2005

> <r_lp_Energy>
13.7936

> <b_lp_Chiralities_Consistent>
1

> <s_lp_Variant>
AV-unprocessed.smi:2929-1

> <Gold.Version>
5.8.1

> <Gold.Id.Protein>
6NUR|6NUR_protein|mol2

> <Gold.PLP.Fitness>
38.8847

> <Gold.PLP.PLP>
-32.0821

> <Gold.PLP.part.hbond>
-3.0000

> <Gold.PLP.part.metal>
0.0000

> <Gold.PLP.part.buried>
-3.8145

> <Gold.PLP.part.nonpolar>
-25.3551

> <Gold.PLP.part.repulsive>
0.1577

> <Gold.PLP.ligand.clash>
0.0000

> <Gold.PLP.ligand.torsion>
1.7958

> <Gold.PLP.Chemscore.Hbond>
2.6114

> <Gold.PLP.Chemscore.CHOScore>
0.0000

> <Gold.PLP.Chemscore.Metal>
0.0000

> <Gold.Chemscore.Hbonds>
donor molecule, donor type, donor heavy atom, donor atom, acceptor molecule, acceptor atom, score
      L1  H     9    24       P1  7948  0.80
      L1  H    12    25       P1  7948  0.76
      P1  H  6896  6907       L1     4  0.91

> <Gold.PLP.Chemscore.Internal.Correction>
2.5601

> <Gold.Rescore>
     Score         DG    S(hbond)    S(metal)    S(lipo)     H(rot)  DE(clash)    DE(int)     intcor
     14.28     -17.20       2.44        0.00      57.56       1.23       0.01       2.91       ----

> <Gold.Chemscore.Fitness>
14.2766

> <Gold.Chemscore.DG>
-17.1993

> <Gold.Chemscore.ZeroCoef>
-5.4800

> <Gold.Chemscore.Hbond>
2.4391

> <Gold.Chemscore.Metal>
0.0000

> <Gold.Chemscore.Lipo>
57.5570

> <Gold.Chemscore.Internal_Hbond>
0.0000

> <Gold.Chemscore.DEClash>
0.0089

> <Gold.Chemscore.DEInternal>
2.9137

> <Gold.Chemscore.Rot>
1.2350

> <Gold.Chemscore.Internal.Correction>
   9.000000E+99

> <Gold.Chemscore.Hbonds>
donor molecule, donor type, donor heavy atom, donor atom, acceptor molecule, acceptor atom, score
      L1  H     9    24       P1  7948  0.12
      L1  H    12    25       P1  7948  0.67
      P1  H  6896  6907       L1     4  0.86

> <Gold.Chemscore.Hbond.Weighted>
-8.1467

> <Gold.Chemscore.Metal.Weighted>
-0.0000

> <Gold.Chemscore.Lipo.Weighted>
-6.7342

> <Gold.Chemscore.Internal_Hbond.Weighted>
0.0000

> <Gold.Chemscore.DEClash.Weighted>
0.0089

> <Gold.Chemscore.DEInternal.Weighted>
2.9137

> <Gold.Chemscore.Rot.Weighted>
3.1616

> <Gold.Chemscore.Internal.Correction.Weighted>
   9.000000E+99

> <Gold.Protein.RotatedTorsions>
[ 6907 6896 6895 6894 ] final  171.84 input  -60.11 | X-H torsion
[ 7974 7965 7964 7962 ] final -176.78 input  175.53 | X-H torsion
[ 8008 7997 7996 7995 ] final   77.11 input   59.86 | X-H torsion
[ 10167 10162 10161 10158 ] final  -72.99 input  -65.29 | X-H torsion
[ 10718 10713 10712 10709 ] final  170.37 input   66.30 | X-H torsion
[ 10763 10752 10751 10750 ] final   89.89 input  -60.55 | X-H torsion
[ 11005 11000 10999 10996 ] final  -70.41 input  -57.11 | X-H torsion

> <Gold.Protein.ActiveResidues>
 VAL166  LYS551  ARG553  GLY616  TRP617  ASP618  TYR619  PRO620  LYS621  CYS622 
 ASP623  PHE694  ASN695  SER759  ASP760  ASP761  ALA762  ILE779  LEU786  VAL792 
 PHE793  MET794  SER795  GLU796  ALA797  LYS798  CYS799  TRP800  GLU811  SER814 

> <Gold.Protein.RotatedAtoms>
  151.7938  133.3362  159.3506 H   0  0  0  0  0  0  0  0  0  0  0  0  # atno 6907 bound_to 6896
  150.7382  134.5817  159.5951 H   0  0  0  0  0  0  0  0  0  0  0  0  # atno 6908 bound_to 6896
  152.3191  134.7404  160.0369 H   0  0  0  0  0  0  0  0  0  0  0  0  # atno 6909 bound_to 6896
  144.7127  140.1119  143.6410 H   0  0  0  0  0  0  0  0  0  0  0  0  # atno 7974 bound_to 7965
  155.8369  140.3464  155.5607 H   0  0  0  0  0  0  0  0  0  0  0  0  # atno 8008 bound_to 7997
  155.8182  140.0909  157.1884 H   0  0  0  0  0  0  0  0  0  0  0  0  # atno 8009 bound_to 7997
  154.4004  140.1435  156.3456 H   0  0  0  0  0  0  0  0  0  0  0  0  # atno 8010 bound_to 7997
  140.5147  143.2340  151.7533 H   0  0  0  0  0  0  0  0  0  0  0  0  # atno 10167 bound_to 10162
  157.0091  131.0199  151.2808 H   0  0  0  0  0  0  0  0  0  0  0  0  # atno 10718 bound_to 10713
  153.1918  135.4454  155.0159 H   0  0  0  0  0  0  0  0  0  0  0  0  # atno 10763 bound_to 10752
  154.8095  135.3288  154.7345 H   0  0  0  0  0  0  0  0  0  0  0  0  # atno 10764 bound_to 10752
  153.7799  135.6978  153.4946 H   0  0  0  0  0  0  0  0  0  0  0  0  # atno 10765 bound_to 10752
  141.1573  133.6789  156.6748 H   0  0  0  0  0  0  0  0  0  0  0  0  # atno 11005 bound_to 11000
  145.9447  139.2693  143.1248 LP  0  0  0  0  0  0  0  0  0  0  0  0  # atno 17320 bound_to 7965
  145.9386  140.8996  143.0319 LP  0  0  0  0  0  0  0  0  0  0  0  0  # atno 17321 bound_to 7965
  139.4906  144.4341  151.9839 LP  0  0  0  0  0  0  0  0  0  0  0  0  # atno 17342 bound_to 10162
  140.3434  144.3176  150.5963 LP  0  0  0  0  0  0  0  0  0  0  0  0  # atno 17343 bound_to 10162
  157.5333  130.8073  149.7943 LP  0  0  0  0  0  0  0  0  0  0  0  0  # atno 17370 bound_to 10713
  156.0142  130.3820  150.2163 LP  0  0  0  0  0  0  0  0  0  0  0  0  # atno 17371 bound_to 10713
  140.3147  134.8057  157.4205 LP  0  0  0  0  0  0  0  0  0  0  0  0  # atno 17394 bound_to 11000
  140.1148  134.5298  155.8234 LP  0  0  0  0  0  0  0  0  0  0  0  0  # atno 17395 bound_to 11000

$$$$
