AV-unprocessed.smi:287|AV-procd|sdf|2197|dock3
  -GOLD-   2262022 03D 1   1.00000     0.00000
 Structure written by MMmdl.
 55 58  0  0  0  0  0  0  0  0  1 V2000
  152.0945  145.2660  158.7925 C   0  0  0  0  0  0  0  0  0  0  0  0
  152.1245  143.7788  158.7014 C   0  0  0  0  0  0  0  0  0  0  0  0
  151.4583  142.8666  157.9363 C   0  0  0  0  0  0  0  0  0  0  0  0
  151.9198  141.5714  158.3179 C   0  0  0  0  0  0  0  0  0  0  0  0
  151.4469  140.2480  157.7306 C   0  0  1  0  0  0  0  0  0  0  0  0
  151.7004  140.2275  156.2139 C   0  0  0  0  0  0  0  0  0  0  0  0
  152.1530  139.1339  158.2413 O   0  0  0  0  0  0  0  0  0  0  0  0
  149.9536  139.9782  158.0234 C   0  0  0  0  0  0  0  0  0  0  0  0
  149.4774  138.7330  157.4350 N   0  0  0  0  0  0  0  0  0  0  0  0
  148.1945  138.5956  157.0399 C   0  0  0  0  0  0  0  0  0  0  0  0
  147.2829  139.2720  157.7787 N   0  0  0  0  0  0  0  0  0  0  0  0
  145.9849  139.2065  157.4704 C   0  0  0  0  0  0  0  0  0  0  0  0
  145.3958  138.5326  156.4811 N   0  0  0  0  0  0  0  0  0  0  0  0
  146.3078  137.8462  155.7332 C   0  0  0  0  0  0  0  0  0  0  0  0
  147.7168  137.8227  155.9397 C   0  0  0  0  0  0  0  0  0  0  0  0
  148.3051  137.0136  154.9733 N   0  0  0  0  0  0  0  0  0  0  0  0
  147.3053  136.5934  154.2468 C   0  0  0  0  0  0  0  0  0  0  0  0
  146.0643  137.0514  154.6339 N   0  0  0  0  0  0  0  0  0  0  0  0
  144.7142  136.7747  154.0375 C   0  0  2  0  0  0  0  0  0  0  0  0
  144.5349  135.3928  154.0169 O   0  0  0  0  0  0  0  0  0  0  0  0
  144.7530  134.8485  152.7111 C   0  0  1  0  0  0  0  0  0  0  0  0
  143.4226  134.1881  152.2915 C   0  0  0  0  0  0  0  0  0  0  0  0
  143.4956  133.7830  150.9412 O   0  0  0  0  0  0  0  0  0  0  0  0
  145.2023  136.0463  151.8451 C   0  0  1  0  0  0  0  0  0  0  0  0
  144.7357  135.9952  150.5107 O   0  0  0  0  0  0  0  0  0  0  0  0
  144.6285  137.2459  152.5789 C   0  0  2  0  0  0  0  0  0  0  0  0
  145.3736  138.4188  152.3052 O   0  0  0  0  0  0  0  0  0  0  0  0
  152.8550  141.8071  159.2972 C   0  0  0  0  0  0  0  0  0  0  0  0
  153.7311  140.9300  160.1297 C   0  0  0  0  0  0  0  0  0  0  0  0
  152.9835  143.1423  159.5361 O   0  0  0  0  0  0  0  0  0  0  0  0
  144.0068  137.2614  154.7097 H   0  0  0  0  0  0  0  0  0  0  0  0
  145.5461  134.0999  152.7362 H   0  0  0  0  0  0  0  0  0  0  0  0
  146.2924  136.0959  151.8398 H   0  0  0  0  0  0  0  0  0  0  0  0
  143.5760  137.3916  152.3313 H   0  0  0  0  0  0  0  0  0  0  0  0
  151.1990  145.6661  158.3168 H   0  0  0  0  0  0  0  0  0  0  0  0
  152.9636  145.6999  158.2981 H   0  0  0  0  0  0  0  0  0  0  0  0
  152.0975  145.5920  159.8330 H   0  0  0  0  0  0  0  0  0  0  0  0
  150.7157  143.1010  157.1879 H   0  0  0  0  0  0  0  0  0  0  0  0
  151.1660  141.0348  155.7117 H   0  0  0  0  0  0  0  0  0  0  0  0
  151.3695  139.2896  155.7658 H   0  0  0  0  0  0  0  0  0  0  0  0
  152.7610  140.3462  155.9876 H   0  0  0  0  0  0  0  0  0  0  0  0
  153.0124  139.1185  157.8489 H   0  0  0  0  0  0  0  0  0  0  0  0
  149.8245  139.8924  159.1032 H   0  0  0  0  0  0  0  0  0  0  0  0
  149.3369  140.8160  157.6950 H   0  0  0  0  0  0  0  0  0  0  0  0
  150.1521  137.9822  157.3981 H   0  0  0  0  0  0  0  0  0  0  0  0
  145.3246  139.7762  158.1073 H   0  0  0  0  0  0  0  0  0  0  0  0
  147.4538  135.9332  153.4054 H   0  0  0  0  0  0  0  0  0  0  0  0
  143.1776  133.3391  152.9306 H   0  0  0  0  0  0  0  0  0  0  0  0
  142.5938  134.8930  152.3541 H   0  0  0  0  0  0  0  0  0  0  0  0
  142.7739  134.1723  150.4714 H   0  0  0  0  0  0  0  0  0  0  0  0
  144.6103  136.8815  150.2066 H   0  0  0  0  0  0  0  0  0  0  0  0
  144.7796  139.1542  152.2918 H   0  0  0  0  0  0  0  0  0  0  0  0
  154.3612  140.3027  159.4991 H   0  0  0  0  0  0  0  0  0  0  0  0
  153.1316  140.2787  160.7658 H   0  0  0  0  0  0  0  0  0  0  0  0
  154.3835  141.5198  160.7743 H   0  0  0  0  0  0  0  0  0  0  0  0
  1  2  1  0  0  0  0
  1 35  1  0  0  0  0
  1 36  1  0  0  0  0
  1 37  1  0  0  0  0
  2 30  1  0  0  0  0
  2  3  2  0  0  0  0
  3  4  1  0  0  0  0
  3 38  1  0  0  0  0
  4  5  1  0  0  0  0
  4 28  2  0  0  0  0
  5  6  1  0  0  0  0
  5  7  1  0  0  0  0
  5  8  1  0  0  0  0
  6 39  1  0  0  0  0
  6 40  1  0  0  0  0
  6 41  1  0  0  0  0
  7 42  1  0  0  0  0
  8  9  1  0  0  0  0
  8 43  1  0  0  0  0
  8 44  1  0  0  0  0
  9 10  1  0  0  0  0
  9 45  1  0  0  0  0
 10 15  1  0  0  0  0
 10 11  2  0  0  0  0
 11 12  1  0  0  0  0
 12 13  2  0  0  0  0
 12 46  1  0  0  0  0
 13 14  1  0  0  0  0
 14 18  1  0  0  0  0
 14 15  2  0  0  0  0
 15 16  1  0  0  0  0
 16 17  2  0  0  0  0
 17 18  1  0  0  0  0
 17 47  1  0  0  0  0
 18 19  1  0  0  0  0
 19 31  1  0  0  0  0
 19 26  1  0  0  0  0
 19 20  1  0  0  0  0
 20 21  1  0  0  0  0
 21 32  1  0  0  0  0
 21 22  1  0  0  0  0
 21 24  1  0  0  0  0
 22 23  1  0  0  0  0
 22 48  1  0  0  0  0
 22 49  1  0  0  0  0
 23 50  1  0  0  0  0
 24 33  1  0  0  0  0
 24 25  1  0  0  0  0
 24 26  1  0  0  0  0
 25 51  1  0  0  0  0
 26 34  1  0  0  0  0
 26 27  1  0  0  0  0
 27 52  1  0  0  0  0
 28 29  1  0  0  0  0
 28 30  1  0  0  0  0
 29 53  1  0  0  0  0
 29 54  1  0  0  0  0
 29 55  1  0  0  0  0
M  END
> <s_m_source_file>
AV-unprocessed.smi

> <i_m_source_file_index>
287

> <i_lp_mmshare_version>
43012

> <i_f3d_flags>
0

> <s_epik_input>
W0NIM11jMVtjSF1jKGMobzEpW0NIM10pW0NAQF0oW0NIM10pKFtPSF0pW0NIMl1bTkhdYyhuW2NIXW4yKWMoYzIzKW5bY0hdbjNbQ0BASF00T1tDQEhdKFtDSDJdW09IXSlbQ0BASF0oW09IXSlbQ0BIXTRbT0hd

> <s_epik_cmdline>
J2VwaWtfcHl0aG9uJywgJy1waCcsICc3LjAnLCAnLXRuJywgJzgnLCAnLW1hJywgJzIwMCcsICctbWV0YWxfYmluZGluZycsICctaW1hZScsICc8aW5maWxlLm1hZT4nLCAnLW9tYWUnLCAnPG91dGZpbGUubWFlPic=

> <r_lp_tautomer_probability>
1

> <r_epik_Ionization_Penalty>
0.000992612

> <r_epik_Ionization_Penalty_Charging>
0

> <r_epik_Ionization_Penalty_Neutral>
0.000992612

> <r_epik_State_Penalty>
-0

> <r_epik_Charging_Adjusted_Penalty>
0

> <i_epik_Tot_Q>
0

> <i_epik_Tot_abs_Q>
0

> <r_epik_Metal_State_Penalty>
-0

> <b_epik_Metal_Only>
0

> <s_epik_Chemistry_Notes>
This compound contains an acetal/aminal-like group ( X-CH(R)-Y where X, Y are N, S, or O) that may be acid/base labile, releasing an aldehyde.

> <s_lp_Force_Field>
OPLS_2005

> <r_lp_Energy>
44.9714

> <b_lp_Chiralities_Consistent>
1

> <s_lp_Variant>
AV-unprocessed.smi:287-21

> <Gold.Version>
5.8.1

> <Gold.Id.Protein>
6NUR|6NUR_protein|mol2

> <Gold.PLP.Fitness>
49.5026

> <Gold.PLP.PLP>
-38.6785

> <Gold.PLP.part.hbond>
-4.2199

> <Gold.PLP.part.metal>
0.0000

> <Gold.PLP.part.buried>
-5.6549

> <Gold.PLP.part.nonpolar>
-29.0369

> <Gold.PLP.part.repulsive>
0.2230

> <Gold.PLP.ligand.clash>
0.0000

> <Gold.PLP.ligand.torsion>
0.4884

> <Gold.PLP.Chemscore.Hbond>
3.0000

> <Gold.PLP.Chemscore.CHOScore>
0.9061

> <Gold.PLP.Chemscore.Metal>
0.0000

> <Gold.Chemscore.Hbonds>
donor molecule, donor type, donor heavy atom, donor atom, acceptor molecule, acceptor atom, score
      L1  H    23    50       P1 10186  1.00
      L1  H    25    51       P1 10171  1.00
      L1  H    27    52       P1 10175  1.00
      L1  C    17    47       P1  7948  0.90

> <Gold.PLP.Chemscore.Internal.Correction>
0.0827

> <Gold.Rescore>
     Score         DG    S(hbond)    S(metal)    S(lipo)     H(rot)  DE(clash)    DE(int)     intcor
     11.29     -12.79       2.87        0.00      95.68       5.27       0.16       1.34       ----

> <Gold.Chemscore.Fitness>
11.2935

> <Gold.Chemscore.DG>
-12.7915

> <Gold.Chemscore.ZeroCoef>
-5.4800

> <Gold.Chemscore.Hbond>
2.8745

> <Gold.Chemscore.Metal>
0.0000

> <Gold.Chemscore.Lipo>
95.6798

> <Gold.Chemscore.Internal_Hbond>
0.0000

> <Gold.Chemscore.DEClash>
0.1556

> <Gold.Chemscore.DEInternal>
1.3424

> <Gold.Chemscore.Rot>
5.2672

> <Gold.Chemscore.Internal.Correction>
   9.000000E+99

> <Gold.Chemscore.Hbonds>
donor molecule, donor type, donor heavy atom, donor atom, acceptor molecule, acceptor atom, score
      L1  H    23    50       P1 10186  0.79
      L1  H    25    51       P1 10171  1.00
      L1  H    27    52       P1 10175  1.00

> <Gold.Chemscore.Hbond.Weighted>
-9.6009

> <Gold.Chemscore.Metal.Weighted>
-0.0000

> <Gold.Chemscore.Lipo.Weighted>
-11.1945

> <Gold.Chemscore.Internal_Hbond.Weighted>
0.0000

> <Gold.Chemscore.DEClash.Weighted>
0.1556

> <Gold.Chemscore.DEInternal.Weighted>
1.3424

> <Gold.Chemscore.Rot.Weighted>
13.4839

> <Gold.Chemscore.Internal.Correction.Weighted>
   9.000000E+99

> <Gold.Protein.RotatedTorsions>
[ 6907 6896 6895 6894 ] final  -73.84 input  -60.11 | X-H torsion
[ 7974 7965 7964 7962 ] final  167.83 input  175.53 | X-H torsion
[ 8008 7997 7996 7995 ] final  167.72 input   59.86 | X-H torsion
[ 10167 10162 10161 10158 ] final  -60.38 input  -65.29 | X-H torsion
[ 10718 10713 10712 10709 ] final  -98.03 input   66.30 | X-H torsion
[ 10763 10752 10751 10750 ] final   57.86 input  -60.55 | X-H torsion
[ 11005 11000 10999 10996 ] final  125.62 input  -57.11 | X-H torsion

> <Gold.Protein.ActiveResidues>
 VAL166  LYS551  ARG553  GLY616  TRP617  ASP618  TYR619  PRO620  LYS621  CYS622 
 ASP623  PHE694  ASN695  SER759  ASP760  ASP761  ALA762  ILE779  LEU786  VAL792 
 PHE793  MET794  SER795  GLU796  ALA797  LYS798  CYS799  TRP800  GLU811  SER814 

> <Gold.Protein.RotatedAtoms>
  150.7115  134.4956  159.5536 H   0  0  0  0  0  0  0  0  0  0  0  0  # atno 6907 bound_to 6896
  152.2565  134.8076  160.0447 H   0  0  0  0  0  0  0  0  0  0  0  0  # atno 6908 bound_to 6896
  151.8805  133.3459  159.3801 H   0  0  0  0  0  0  0  0  0  0  0  0  # atno 6909 bound_to 6896
  144.7410  139.8818  143.6397 H   0  0  0  0  0  0  0  0  0  0  0  0  # atno 7974 bound_to 7965
  156.1609  140.1609  156.8613 H   0  0  0  0  0  0  0  0  0  0  0  0  # atno 8008 bound_to 7997
  154.5160  140.0789  156.8117 H   0  0  0  0  0  0  0  0  0  0  0  0  # atno 8009 bound_to 7997
  155.3709  140.3400  155.4245 H   0  0  0  0  0  0  0  0  0  0  0  0  # atno 8010 bound_to 7997
  140.6075  143.2377  151.5787 H   0  0  0  0  0  0  0  0  0  0  0  0  # atno 10167 bound_to 10162
  156.0097  130.5220  150.6463 H   0  0  0  0  0  0  0  0  0  0  0  0  # atno 10718 bound_to 10713
  152.9858  135.5627  154.5459 H   0  0  0  0  0  0  0  0  0  0  0  0  # atno 10763 bound_to 10752
  154.4905  135.2792  155.1502 H   0  0  0  0  0  0  0  0  0  0  0  0  # atno 10764 bound_to 10752
  154.2974  135.6314  153.5463 H   0  0  0  0  0  0  0  0  0  0  0  0  # atno 10765 bound_to 10752
  139.9415  134.9635  156.8586 H   0  0  0  0  0  0  0  0  0  0  0  0  # atno 11005 bound_to 11000
  146.1206  139.4223  143.0231 LP  0  0  0  0  0  0  0  0  0  0  0  0  # atno 17320 bound_to 7965
  145.7311  141.0042  143.1351 LP  0  0  0  0  0  0  0  0  0  0  0  0  # atno 17321 bound_to 7965
  139.5336  144.2845  152.1202 LP  0  0  0  0  0  0  0  0  0  0  0  0  # atno 17342 bound_to 10162
  140.2038  144.4631  150.6418 LP  0  0  0  0  0  0  0  0  0  0  0  0  # atno 17343 bound_to 10162
  157.4233  131.0839  151.1110 LP  0  0  0  0  0  0  0  0  0  0  0  0  # atno 17370 bound_to 10713
  157.1705  130.6265  149.5639 LP  0  0  0  0  0  0  0  0  0  0  0  0  # atno 17371 bound_to 10713
  140.5939  134.0236  155.7510 LP  0  0  0  0  0  0  0  0  0  0  0  0  # atno 17394 bound_to 11000
  141.1052  133.9705  157.3010 LP  0  0  0  0  0  0  0  0  0  0  0  0  # atno 17395 bound_to 11000

$$$$
