AV-unprocessed.smi:1718|AV-procd|sdf|6922|dock1
  -GOLD-   22720 8123D 1   1.00000     0.00000
 Structure written by MMmdl.
 40 41  0  0  0  0  0  0  0  0  1 V2000
  144.5892  140.3820  157.9781 C   0  0  0  0  0  0  0  0  0  0  0  0
  144.2420  140.7875  159.4184 C   0  0  2  0  0  0  0  0  0  0  0  0
  145.4012  141.3932  159.9828 O   0  0  0  0  0  0  0  0  0  0  0  0
  145.6855  142.7139  159.5322 C   0  0  0  0  0  0  0  0  0  0  0  0
  145.9349  143.6234  160.7432 C   0  0  2  0  0  0  0  0  0  0  0  0
  145.7495  145.1233  160.4665 C   0  0  0  0  0  0  0  0  0  0  0  0
  147.1496  145.6863  160.6135 C   0  0  0  0  0  0  0  0  0  0  0  0
  147.7834  144.7167  161.6015 C   0  0  0  0  0  0  0  0  0  0  0  0
  147.2775  143.4564  161.1911 O   0  0  0  0  0  0  0  0  0  0  0  0
  143.8139  139.5736  160.2593 C   0  0  0  0  0  0  0  0  0  0  0  0
  142.6469  139.4816  160.6393 O   0  0  0  0  0  0  0  0  0  0  0  0
  144.7886  138.6798  160.5200 N   0  0  0  0  0  0  0  0  0  0  0  0
  144.7195  137.4533  161.2021 C   0  0  0  0  0  0  0  0  0  0  0  0
  143.5809  136.7418  161.4112 C   0  0  0  0  0  0  0  0  0  0  0  0
  143.5840  135.4685  162.1110 C   0  0  0  0  0  0  0  0  0  0  0  0
  142.2904  134.7236  162.4018 C   0  0  0  0  0  0  0  0  0  0  0  0
  141.2286  135.3972  161.9573 F   0  0  0  0  0  0  0  0  0  0  0  0
  142.2961  133.5220  161.8246 F   0  0  0  0  0  0  0  0  0  0  0  0
  142.1536  134.5505  163.7156 F   0  0  0  0  0  0  0  0  0  0  0  0
  144.7773  135.0277  162.5508 C   0  0  0  0  0  0  0  0  0  0  0  0
  145.9553  135.7424  162.3216 N   0  0  0  0  0  0  0  0  0  0  0  0
  146.0115  136.9274  161.6734 C   0  0  0  0  0  0  0  0  0  0  0  0
  147.0910  137.4951  161.5101 O   0  0  0  0  0  0  0  0  0  0  0  0
  146.8126  135.3372  162.6690 H   0  0  0  0  0  0  0  0  0  0  0  0
  143.7460  139.8929  157.4890 H   0  0  0  0  0  0  0  0  0  0  0  0
  145.4390  139.6987  157.9460 H   0  0  0  0  0  0  0  0  0  0  0  0
  144.8512  141.2577  157.3841 H   0  0  0  0  0  0  0  0  0  0  0  0
  143.4322  141.5190  159.3802 H   0  0  0  0  0  0  0  0  0  0  0  0
  146.5719  142.6992  158.8964 H   0  0  0  0  0  0  0  0  0  0  0  0
  144.8652  143.1181  158.9381 H   0  0  0  0  0  0  0  0  0  0  0  0
  145.2713  143.3257  161.5563 H   0  0  0  0  0  0  0  0  0  0  0  0
  145.3171  145.3358  159.4880 H   0  0  0  0  0  0  0  0  0  0  0  0
  145.0929  145.5594  161.2202 H   0  0  0  0  0  0  0  0  0  0  0  0
  147.6733  145.6380  159.6579 H   0  0  0  0  0  0  0  0  0  0  0  0
  147.1622  146.7199  160.9603 H   0  0  0  0  0  0  0  0  0  0  0  0
  148.8730  144.7398  161.5777 H   0  0  0  0  0  0  0  0  0  0  0  0
  147.4542  144.9277  162.6201 H   0  0  0  0  0  0  0  0  0  0  0  0
  145.7137  138.9272  160.1987 H   0  0  0  0  0  0  0  0  0  0  0  0
  142.6300  137.0891  161.0422 H   0  0  0  0  0  0  0  0  0  0  0  0
  144.9223  134.1132  163.1067 H   0  0  0  0  0  0  0  0  0  0  0  0
  1  2  1  0  0  0  0
  1 25  1  0  0  0  0
  1 26  1  0  0  0  0
  1 27  1  0  0  0  0
  2  3  1  0  0  0  0
  2 10  1  0  0  0  0
  2 28  1  0  0  0  0
  3  4  1  0  0  0  0
  4  5  1  0  0  0  0
  4 29  1  0  0  0  0
  4 30  1  0  0  0  0
  5  9  1  0  0  0  0
  5  6  1  0  0  0  0
  5 31  1  0  0  0  0
  6  7  1  0  0  0  0
  6 32  1  0  0  0  0
  6 33  1  0  0  0  0
  7  8  1  0  0  0  0
  7 34  1  0  0  0  0
  7 35  1  0  0  0  0
  8  9  1  0  0  0  0
  8 36  1  0  0  0  0
  8 37  1  0  0  0  0
 10 11  2  0  0  0  0
 10 12  1  0  0  0  0
 12 13  1  0  0  0  0
 12 38  1  0  0  0  0
 13 22  1  0  0  0  0
 13 14  2  0  0  0  0
 14 15  1  0  0  0  0
 14 39  1  0  0  0  0
 15 16  1  0  0  0  0
 15 20  2  0  0  0  0
 16 17  1  0  0  0  0
 16 18  1  0  0  0  0
 16 19  1  0  0  0  0
 20 21  1  0  0  0  0
 20 40  1  0  0  0  0
 21 24  1  0  0  0  0
 21 22  1  0  0  0  0
 22 23  2  0  0  0  0
M  END
> <s_m_source_file>
AV-unprocessed.smi

> <i_m_source_file_index>
1718

> <i_lp_mmshare_version>
43012

> <i_f3d_flags>
0

> <s_epik_input>
TzFbQ0gyXVtDSDJdW0NIMl1bQ0BIXTFbQ0gyXU9bQ0BASF0oW0NIM10pQyg9TylbTkhdYzJbY0hdYyhDKEYpKEYpRilbY0hdW25IXWMyPU8=

> <s_epik_cmdline>
J2VwaWtfcHl0aG9uJywgJy1waCcsICc3LjAnLCAnLXRuJywgJzgnLCAnLW1hJywgJzIwMCcsICctbWV0YWxfYmluZGluZycsICctaW1hZScsICc8aW5maWxlLm1hZT4nLCAnLW9tYWUnLCAnPG91dGZpbGUubWFlPic=

> <r_lp_tautomer_probability>
0.999

> <r_epik_Ionization_Penalty>
0.00894336

> <r_epik_Ionization_Penalty_Charging>
0.00894326

> <r_epik_Ionization_Penalty_Neutral>
1.00145e-07

> <r_epik_State_Penalty>
0.00676626

> <r_epik_Charging_Adjusted_Penalty>
0.0157095

> <i_epik_Tot_Q>
0

> <i_epik_Tot_abs_Q>
0

> <r_epik_Metal_State_Penalty>
0.321145

> <b_epik_Metal_Only>
0

> <s_lp_Force_Field>
OPLS_2005

> <r_lp_Energy>
34.6519

> <b_lp_Chiralities_Consistent>
1

> <s_lp_Variant>
AV-unprocessed.smi:1718-1

> <Gold.Version>
5.8.1

> <Gold.Id.Protein>
6NUR|6NUR_protein|mol2

> <Gold.PLP.Fitness>
42.3583

> <Gold.PLP.PLP>
-33.1359

> <Gold.PLP.part.hbond>
-5.0000

> <Gold.PLP.part.metal>
0.0000

> <Gold.PLP.part.buried>
-6.1817

> <Gold.PLP.part.nonpolar>
-22.6138

> <Gold.PLP.part.repulsive>
1.0219

> <Gold.PLP.ligand.clash>
0.0000

> <Gold.PLP.ligand.torsion>
0.9214

> <Gold.PLP.Chemscore.Hbond>
3.5270

> <Gold.PLP.Chemscore.CHOScore>
0.0000

> <Gold.PLP.Chemscore.Metal>
0.0000

> <Gold.Chemscore.Hbonds>
donor molecule, donor type, donor heavy atom, donor atom, acceptor molecule, acceptor atom, score
      P1  H  6931  6943       L1    23  0.55
      P1  H  6933  6944       L1     9  1.00
      P1  H  6934  6946       L1     3  0.99
      P1  H  6934  6947       L1    23  0.96

> <Gold.PLP.Chemscore.Internal.Correction>
0.4843

> <Gold.Rescore>
     Score         DG    S(hbond)    S(metal)    S(lipo)     H(rot)  DE(clash)    DE(int)     intcor
     12.93     -15.57       2.88        0.00      45.12       1.88       0.64       1.99       ----

> <Gold.Chemscore.Fitness>
12.9312

> <Gold.Chemscore.DG>
-15.5689

> <Gold.Chemscore.ZeroCoef>
-5.4800

> <Gold.Chemscore.Hbond>
2.8801

> <Gold.Chemscore.Metal>
0.0000

> <Gold.Chemscore.Lipo>
45.1242

> <Gold.Chemscore.Internal_Hbond>
0.0000

> <Gold.Chemscore.DEClash>
0.6431

> <Gold.Chemscore.DEInternal>
1.9946

> <Gold.Chemscore.Rot>
1.8790

> <Gold.Chemscore.Internal.Correction>
   9.000000E+99

> <Gold.Chemscore.Hbonds>
donor molecule, donor type, donor heavy atom, donor atom, acceptor molecule, acceptor atom, score
      P1  H  6931  6943       L1    23  0.53
      P1  H  6933  6944       L1     9  0.55
      P1  H  6934  6946       L1     3  0.47
      P1  H  6934  6947       L1    23  0.91

> <Gold.Chemscore.Hbond.Weighted>
-9.6195

> <Gold.Chemscore.Metal.Weighted>
-0.0000

> <Gold.Chemscore.Lipo.Weighted>
-5.2795

> <Gold.Chemscore.Internal_Hbond.Weighted>
0.0000

> <Gold.Chemscore.DEClash.Weighted>
0.6431

> <Gold.Chemscore.DEInternal.Weighted>
1.9946

> <Gold.Chemscore.Rot.Weighted>
4.8102

> <Gold.Chemscore.Internal.Correction.Weighted>
   9.000000E+99

> <Gold.Protein.RotatedTorsions>
[ 6907 6896 6895 6894 ] final   96.27 input  -60.11 | X-H torsion
[ 7974 7965 7964 7962 ] final  -92.04 input  175.53 | X-H torsion
[ 8008 7997 7996 7995 ] final -172.08 input   59.86 | X-H torsion
[ 10167 10162 10161 10158 ] final -109.84 input  -65.29 | X-H torsion
[ 10718 10713 10712 10709 ] final  122.89 input   66.30 | X-H torsion
[ 10763 10752 10751 10750 ] final    7.13 input  -60.55 | X-H torsion
[ 11005 11000 10999 10996 ] final  140.01 input  -57.11 | X-H torsion

> <Gold.Protein.ActiveResidues>
 VAL166  LYS551  ARG553  GLY616  TRP617  ASP618  TYR619  PRO620  LYS621  CYS622 
 ASP623  PHE694  ASN695  SER759  ASP760  ASP761  ALA762  ILE779  LEU786  VAL792 
 PHE793  MET794  SER795  GLU796  ALA797  LYS798  CYS799  TRP800  GLU811  SER814 

> <Gold.Protein.RotatedAtoms>
  152.5436  134.0912  159.8277 H   0  0  0  0  0  0  0  0  0  0  0  0  # atno 6907 bound_to 6896
  151.1001  133.5242  159.2617 H   0  0  0  0  0  0  0  0  0  0  0  0  # atno 6908 bound_to 6896
  151.2000  135.0448  159.8922 H   0  0  0  0  0  0  0  0  0  0  0  0  # atno 6909 bound_to 6896
  145.4051  140.9540  143.2265 H   0  0  0  0  0  0  0  0  0  0  0  0  # atno 7974 bound_to 7965
  155.9399  140.1107  157.1064 H   0  0  0  0  0  0  0  0  0  0  0  0  # atno 8008 bound_to 7997
  154.4087  140.1221  156.4980 H   0  0  0  0  0  0  0  0  0  0  0  0  # atno 8009 bound_to 7997
  155.6974  140.3472  155.4921 H   0  0  0  0  0  0  0  0  0  0  0  0  # atno 8010 bound_to 7997
  140.1510  143.4199  152.1495 H   0  0  0  0  0  0  0  0  0  0  0  0  # atno 10167 bound_to 10162
  157.5707  131.1083  150.8372 H   0  0  0  0  0  0  0  0  0  0  0  0  # atno 10718 bound_to 10713
  153.2398  135.6902  153.7796 H   0  0  0  0  0  0  0  0  0  0  0  0  # atno 10763 bound_to 10752
  153.6930  135.3310  155.3207 H   0  0  0  0  0  0  0  0  0  0  0  0  # atno 10764 bound_to 10752
  154.8350  135.4549  154.1315 H   0  0  0  0  0  0  0  0  0  0  0  0  # atno 10765 bound_to 10752
  140.0296  134.9358  157.0636 H   0  0  0  0  0  0  0  0  0  0  0  0  # atno 11005 bound_to 11000
  144.8347  139.5570  143.6927 LP  0  0  0  0  0  0  0  0  0  0  0  0  # atno 17320 bound_to 7965
  146.2733  139.6688  142.9281 LP  0  0  0  0  0  0  0  0  0  0  0  0  # atno 17321 bound_to 7965
  139.5426  144.7270  151.4685 LP  0  0  0  0  0  0  0  0  0  0  0  0  # atno 17342 bound_to 10162
  140.6703  143.8309  150.6991 LP  0  0  0  0  0  0  0  0  0  0  0  0  # atno 17343 bound_to 10162
  156.8844  130.5190  149.5289 LP  0  0  0  0  0  0  0  0  0  0  0  0  # atno 17370 bound_to 10713
  156.0753  130.5776  150.9461 LP  0  0  0  0  0  0  0  0  0  0  0  0  # atno 17371 bound_to 10713
  140.4248  134.1842  155.7165 LP  0  0  0  0  0  0  0  0  0  0  0  0  # atno 17394 bound_to 11000
  141.1823  133.8387  157.1213 LP  0  0  0  0  0  0  0  0  0  0  0  0  # atno 17395 bound_to 11000

$$$$
