AV-unprocessed.smi:3000|AV-procd|sdf|11430|dock9
  -GOLD-   2272016353D 1   1.00000     0.00000
 Structure written by MMmdl.
 44 45  0  0  0  0  0  0  0  0  1 V2000
  152.3001  139.5490  157.1515 C   0  0  0  0  0  0  0  0  0  0  0  0
  151.5588  138.9100  156.0854 N   0  0  0  0  0  0  0  0  0  0  0  0
  151.0583  137.6240  156.0417 C   0  0  0  0  0  0  0  0  0  0  0  0
  150.4410  137.5099  154.8281 C   0  0  0  0  0  0  0  0  0  0  0  0
  149.7640  136.3989  154.2641 N   0  0  0  0  0  0  0  0  0  0  0  0
  149.5930  135.1848  154.8119 C   0  0  0  0  0  0  0  0  0  0  0  0
  149.9966  134.8562  155.9265 O   0  0  0  0  0  0  0  0  0  0  0  0
  148.9238  134.3712  153.9774 N   0  0  0  0  0  0  0  0  0  0  0  0
  148.5155  132.9720  154.1804 C   0  0  2  0  0  0  0  0  0  0  0  0
  147.6285  133.0158  155.4465 C   0  0  0  0  0  0  0  0  0  0  0  0
  149.7717  132.1231  154.5432 C   0  0  0  0  0  0  0  0  0  0  0  0
  149.4900  130.7707  154.8428 O   0  0  0  0  0  0  0  0  0  0  0  0
  147.7072  132.4091  152.9537 C   0  0  0  0  0  0  0  0  0  0  0  0
  146.7452  133.4325  152.2962 C   0  0  0  0  0  0  0  0  0  0  0  0
  146.0891  132.8593  151.0293 C   0  0  0  0  0  0  0  0  0  0  0  0
  145.3450  131.5499  151.3290 C   0  0  0  0  0  0  0  0  0  0  0  0
  146.2771  130.5245  151.9905 C   0  0  0  0  0  0  0  0  0  0  0  0
  146.9310  131.1022  153.2562 C   0  0  0  0  0  0  0  0  0  0  0  0
  150.6075  138.7665  154.1897 C   0  0  0  0  0  0  0  0  0  0  0  0
  151.2836  139.6083  154.9568 N   0  0  0  0  0  0  0  0  0  0  0  0
  152.5647  138.8157  157.9142 H   0  0  0  0  0  0  0  0  0  0  0  0
  151.6901  140.3302  157.6059 H   0  0  0  0  0  0  0  0  0  0  0  0
  153.2142  139.9924  156.7549 H   0  0  0  0  0  0  0  0  0  0  0  0
  151.1872  136.9294  156.8587 H   0  0  0  0  0  0  0  0  0  0  0  0
  149.3741  136.5426  153.3442 H   0  0  0  0  0  0  0  0  0  0  0  0
  148.6544  134.7686  153.0897 H   0  0  0  0  0  0  0  0  0  0  0  0
  147.2802  132.0263  155.7407 H   0  0  0  0  0  0  0  0  0  0  0  0
  146.7510  133.6486  155.3147 H   0  0  0  0  0  0  0  0  0  0  0  0
  148.1808  133.4165  156.2978 H   0  0  0  0  0  0  0  0  0  0  0  0
  150.5174  132.1656  153.7481 H   0  0  0  0  0  0  0  0  0  0  0  0
  150.2566  132.5336  155.4296 H   0  0  0  0  0  0  0  0  0  0  0  0
  148.8474  130.4530  154.2274 H   0  0  0  0  0  0  0  0  0  0  0  0
  148.4312  132.1516  152.1807 H   0  0  0  0  0  0  0  0  0  0  0  0
  145.9624  133.7218  152.9972 H   0  0  0  0  0  0  0  0  0  0  0  0
  147.2724  134.3477  152.0282 H   0  0  0  0  0  0  0  0  0  0  0  0
  145.3985  133.5894  150.6064 H   0  0  0  0  0  0  0  0  0  0  0  0
  146.8528  132.6823  150.2708 H   0  0  0  0  0  0  0  0  0  0  0  0
  144.4998  131.7529  151.9880 H   0  0  0  0  0  0  0  0  0  0  0  0
  144.9293  131.1380  150.4090 H   0  0  0  0  0  0  0  0  0  0  0  0
  145.7170  129.6231  152.2405 H   0  0  0  0  0  0  0  0  0  0  0  0
  147.0509  130.2212  151.2840 H   0  0  0  0  0  0  0  0  0  0  0  0
  147.5917  130.3492  153.6844 H   0  0  0  0  0  0  0  0  0  0  0  0
  146.1521  131.2855  153.9959 H   0  0  0  0  0  0  0  0  0  0  0  0
  150.2676  139.0900  153.2168 H   0  0  0  0  0  0  0  0  0  0  0  0
  1  2  1  0  0  0  0
  1 21  1  0  0  0  0
  1 22  1  0  0  0  0
  1 23  1  0  0  0  0
  2 20  1  0  0  0  0
  2  3  1  0  0  0  0
  3  4  2  0  0  0  0
  3 24  1  0  0  0  0
  4  5  1  0  0  0  0
  4 19  1  0  0  0  0
  5  6  1  0  0  0  0
  5 25  1  0  0  0  0
  6  7  2  0  0  0  0
  6  8  1  0  0  0  0
  8  9  1  0  0  0  0
  8 26  1  0  0  0  0
  9 10  1  0  0  0  0
  9 11  1  0  0  0  0
  9 13  1  0  0  0  0
 10 27  1  0  0  0  0
 10 28  1  0  0  0  0
 10 29  1  0  0  0  0
 11 12  1  0  0  0  0
 11 30  1  0  0  0  0
 11 31  1  0  0  0  0
 12 32  1  0  0  0  0
 13 18  1  0  0  0  0
 13 14  1  0  0  0  0
 13 33  1  0  0  0  0
 14 15  1  0  0  0  0
 14 34  1  0  0  0  0
 14 35  1  0  0  0  0
 15 16  1  0  0  0  0
 15 36  1  0  0  0  0
 15 37  1  0  0  0  0
 16 17  1  0  0  0  0
 16 38  1  0  0  0  0
 16 39  1  0  0  0  0
 17 18  1  0  0  0  0
 17 40  1  0  0  0  0
 17 41  1  0  0  0  0
 18 42  1  0  0  0  0
 18 43  1  0  0  0  0
 19 20  2  0  0  0  0
 19 44  1  0  0  0  0
M  END
> <s_m_source_file>
AV-unprocessed.smi

> <i_m_source_file_index>
3000

> <i_lp_mmshare_version>
43012

> <i_f3d_flags>
0

> <s_epik_input>
W0NIM11uMVtjSF1jKFtjSF1uMSlbTkhdQyg9TylbTkhdW0NAQF0oW0NIM10pKFtDSDJdW09IXSlbQ0hdMltDSDJdW0NIMl1bQ0gyXVtDSDJdW0NIMl0y

> <s_epik_cmdline>
J2VwaWtfcHl0aG9uJywgJy1waCcsICc3LjAnLCAnLXRuJywgJzgnLCAnLW1hJywgJzIwMCcsICctbWV0YWxfYmluZGluZycsICctaW1hZScsICc8aW5maWxlLm1hZT4nLCAnLW9tYWUnLCAnPG91dGZpbGUubWFlPic=

> <r_lp_tautomer_probability>
1

> <r_epik_Ionization_Penalty>
0.000189471

> <r_epik_Ionization_Penalty_Charging>
0

> <r_epik_Ionization_Penalty_Neutral>
0.000189471

> <r_epik_State_Penalty>
-0

> <r_epik_Charging_Adjusted_Penalty>
0

> <i_epik_Tot_Q>
0

> <i_epik_Tot_abs_Q>
0

> <r_epik_Metal_State_Penalty>
-0

> <b_epik_Metal_Only>
0

> <s_lp_Force_Field>
OPLS_2005

> <r_lp_Energy>
23.0127

> <b_lp_Chiralities_Consistent>
1

> <s_lp_Variant>
AV-unprocessed.smi:3000-2

> <Gold.Version>
5.8.1

> <Gold.Id.Protein>
6NUR|6NUR_protein|mol2

> <Gold.PLP.Fitness>
40.9960

> <Gold.PLP.PLP>
-30.7622

> <Gold.PLP.part.hbond>
-3.5515

> <Gold.PLP.part.metal>
0.0000

> <Gold.PLP.part.buried>
-3.2749

> <Gold.PLP.part.nonpolar>
-24.7468

> <Gold.PLP.part.repulsive>
0.1204

> <Gold.PLP.ligand.clash>
0.0000

> <Gold.PLP.ligand.torsion>
0.4228

> <Gold.PLP.Chemscore.Hbond>
2.6620

> <Gold.PLP.Chemscore.CHOScore>
1.0000

> <Gold.PLP.Chemscore.Metal>
0.0000

> <Gold.Chemscore.Hbonds>
donor molecule, donor type, donor heavy atom, donor atom, acceptor molecule, acceptor atom, score
      L1  H     5    25       P1  7948  1.00
      L1  H     8    26       P1  7948  0.90
      P1  H  7989  7998       L1    20  0.70
      L1  C    19    44       P1  7957  1.00

> <Gold.PLP.Chemscore.Internal.Correction>
0.0935

> <Gold.Rescore>
     Score         DG    S(hbond)    S(metal)    S(lipo)     H(rot)  DE(clash)    DE(int)     intcor
     10.94     -14.03       1.29        0.00      80.29       2.02       0.13       2.96       ----

> <Gold.Chemscore.Fitness>
10.9411

> <Gold.Chemscore.DG>
-14.0310

> <Gold.Chemscore.ZeroCoef>
-5.4800

> <Gold.Chemscore.Hbond>
1.2933

> <Gold.Chemscore.Metal>
0.0000

> <Gold.Chemscore.Lipo>
80.2867

> <Gold.Chemscore.Internal_Hbond>
0.0000

> <Gold.Chemscore.DEClash>
0.1269

> <Gold.Chemscore.DEInternal>
2.9629

> <Gold.Chemscore.Rot>
2.0165

> <Gold.Chemscore.Internal.Correction>
   9.000000E+99

> <Gold.Chemscore.Hbonds>
donor molecule, donor type, donor heavy atom, donor atom, acceptor molecule, acceptor atom, score
      L1  H     5    25       P1  7948  0.80
      L1  H     8    26       P1  7948  0.31
      P1  H  7989  7998       L1    20  0.07

> <Gold.Chemscore.Hbond.Weighted>
-4.3196

> <Gold.Chemscore.Metal.Weighted>
-0.0000

> <Gold.Chemscore.Lipo.Weighted>
-9.3935

> <Gold.Chemscore.Internal_Hbond.Weighted>
0.0000

> <Gold.Chemscore.DEClash.Weighted>
0.1269

> <Gold.Chemscore.DEInternal.Weighted>
2.9629

> <Gold.Chemscore.Rot.Weighted>
5.1622

> <Gold.Chemscore.Internal.Correction.Weighted>
   9.000000E+99

> <Gold.Protein.RotatedTorsions>
[ 6907 6896 6895 6894 ] final   61.77 input  -60.11 | X-H torsion
[ 7974 7965 7964 7962 ] final  151.34 input  175.53 | X-H torsion
[ 8008 7997 7996 7995 ] final -138.60 input   59.86 | X-H torsion
[ 10167 10162 10161 10158 ] final  -72.73 input  -65.29 | X-H torsion
[ 10718 10713 10712 10709 ] final  169.08 input   66.30 | X-H torsion
[ 10763 10752 10751 10750 ] final  134.87 input  -60.55 | X-H torsion
[ 11005 11000 10999 10996 ] final  116.01 input  -57.11 | X-H torsion

> <Gold.Protein.ActiveResidues>
 VAL166  LYS551  ARG553  GLY616  TRP617  ASP618  TYR619  PRO620  LYS621  CYS622 
 ASP623  PHE694  ASN695  SER759  ASP760  ASP761  ALA762  ILE779  LEU786  VAL792 
 PHE793  MET794  SER795  GLU796  ALA797  LYS798  CYS799  TRP800  GLU811  SER814 

> <Gold.Protein.RotatedAtoms>
  152.4116  134.6113  160.0026 H   0  0  0  0  0  0  0  0  0  0  0  0  # atno 6907 bound_to 6896
  151.6289  133.3328  159.3112 H   0  0  0  0  0  0  0  0  0  0  0  0  # atno 6908 bound_to 6896
  150.8007  134.7139  159.6664 H   0  0  0  0  0  0  0  0  0  0  0  0  # atno 6909 bound_to 6896
  144.8299  139.6525  143.6063 H   0  0  0  0  0  0  0  0  0  0  0  0  # atno 7974 bound_to 7965
  155.4310  140.0525  157.3018 H   0  0  0  0  0  0  0  0  0  0  0  0  # atno 8008 bound_to 7997
  154.4860  140.2101  155.9613 H   0  0  0  0  0  0  0  0  0  0  0  0  # atno 8009 bound_to 7997
  156.1275  140.3177  155.8304 H   0  0  0  0  0  0  0  0  0  0  0  0  # atno 8010 bound_to 7997
  140.5168  143.2337  151.7499 H   0  0  0  0  0  0  0  0  0  0  0  0  # atno 10167 bound_to 10162
  157.0278  131.0251  151.2754 H   0  0  0  0  0  0  0  0  0  0  0  0  # atno 10718 bound_to 10713
  153.8307  135.3104  155.3418 H   0  0  0  0  0  0  0  0  0  0  0  0  # atno 10763 bound_to 10752
  154.7974  135.4747  154.0197 H   0  0  0  0  0  0  0  0  0  0  0  0  # atno 10764 bound_to 10752
  153.1636  135.6865  153.8798 H   0  0  0  0  0  0  0  0  0  0  0  0  # atno 10765 bound_to 10752
  139.9028  134.9592  156.7133 H   0  0  0  0  0  0  0  0  0  0  0  0  # atno 11005 bound_to 11000
  146.2603  139.6395  142.9366 LP  0  0  0  0  0  0  0  0  0  0  0  0  # atno 17320 bound_to 7965
  145.4918  141.0438  143.2589 LP  0  0  0  0  0  0  0  0  0  0  0  0  # atno 17321 bound_to 7965
  139.4911  144.4312  151.9870 LP  0  0  0  0  0  0  0  0  0  0  0  0  # atno 17342 bound_to 10162
  140.3407  144.3207  150.5968 LP  0  0  0  0  0  0  0  0  0  0  0  0  # atno 17343 bound_to 10162
  157.5200  130.7992  149.7799 LP  0  0  0  0  0  0  0  0  0  0  0  0  # atno 17370 bound_to 10713
  156.0080  130.3846  150.2364 LP  0  0  0  0  0  0  0  0  0  0  0  0  # atno 17371 bound_to 10713
  140.7058  133.9266  155.8053 LP  0  0  0  0  0  0  0  0  0  0  0  0  # atno 17394 bound_to 11000
  141.0337  134.0720  157.3984 LP  0  0  0  0  0  0  0  0  0  0  0  0  # atno 17395 bound_to 11000

$$$$
