AV-unprocessed.smi:1784|AV-procd|sdf|7196|dock3
  -GOLD-   22720 8433D 1   1.00000     0.00000
 Structure written by MMmdl.
 43 45  0  0  0  0  0  0  0  0  1 V2000
  145.0918  138.0684  153.0038 O   0  0  0  0  0  0  0  0  0  0  0  0
  146.1719  137.5997  152.6443 C   0  0  0  0  0  0  0  0  0  0  0  0
  146.2949  136.4164  152.0307 N   0  0  0  0  0  0  0  0  0  0  0  0
  145.1833  135.5260  151.7293 C   0  0  0  0  0  0  0  0  0  0  0  0
  145.6761  134.2884  150.9676 C   0  0  2  0  0  0  0  0  0  0  0  0
  144.5506  133.4243  150.4035 C   0  0  0  0  0  0  0  0  0  0  0  0
  145.2370  132.0842  150.2713 C   0  0  0  0  0  0  0  0  0  0  0  0
  146.1140  132.0561  151.5202 C   0  0  0  0  0  0  0  0  0  0  0  0
  146.4020  133.4174  151.8322 O   0  0  0  0  0  0  0  0  0  0  0  0
  147.3674  138.1951  152.7903 N   0  0  0  0  0  0  0  0  0  0  0  0
  147.6677  139.4518  153.3895 C   0  0  0  0  0  0  0  0  0  0  0  0
  146.7843  140.5580  153.3426 C   0  0  0  0  0  0  0  0  0  0  0  0
  147.1516  141.7566  153.9809 C   0  0  0  0  0  0  0  0  0  0  0  0
  148.3865  141.8058  154.6517 C   0  0  0  0  0  0  0  0  0  0  0  0
  149.2318  140.7574  154.7195 N   0  0  0  0  0  0  0  0  0  0  0  0
  148.8830  139.5999  154.1065 C   0  0  0  0  0  0  0  0  0  0  0  0
  149.7768  138.5178  154.1997 N   0  0  0  0  0  0  0  0  0  0  0  0
  151.1134  138.8398  154.6709 C   0  0  0  0  0  0  0  0  0  0  0  0
  151.7481  137.4958  155.0355 C   0  0  0  0  0  0  0  0  0  0  0  0
  150.5625  136.5572  155.2911 C   0  0  0  0  0  0  0  0  0  0  0  0
  149.3181  137.4067  155.0166 C   0  0  0  0  0  0  0  0  0  0  0  0
  147.2176  136.1041  151.7654 H   0  0  0  0  0  0  0  0  0  0  0  0
  144.6866  135.2291  152.6545 H   0  0  0  0  0  0  0  0  0  0  0  0
  144.4497  136.0638  151.1265 H   0  0  0  0  0  0  0  0  0  0  0  0
  146.3387  134.5843  150.1525 H   0  0  0  0  0  0  0  0  0  0  0  0
  143.7260  133.3519  151.1143 H   0  0  0  0  0  0  0  0  0  0  0  0
  144.1579  133.8003  149.4585 H   0  0  0  0  0  0  0  0  0  0  0  0
  144.5412  131.2463  150.2189 H   0  0  0  0  0  0  0  0  0  0  0  0
  145.8585  132.0710  149.3750 H   0  0  0  0  0  0  0  0  0  0  0  0
  145.5714  131.6174  152.3582 H   0  0  0  0  0  0  0  0  0  0  0  0
  147.0276  131.4804  151.3704 H   0  0  0  0  0  0  0  0  0  0  0  0
  148.1507  137.7280  152.3576 H   0  0  0  0  0  0  0  0  0  0  0  0
  145.8286  140.5060  152.8445 H   0  0  0  0  0  0  0  0  0  0  0  0
  146.4990  142.6168  153.9605 H   0  0  0  0  0  0  0  0  0  0  0  0
  148.7015  142.7090  155.1528 H   0  0  0  0  0  0  0  0  0  0  0  0
  151.6864  139.3602  153.9029 H   0  0  0  0  0  0  0  0  0  0  0  0
  151.0684  139.4822  155.5513 H   0  0  0  0  0  0  0  0  0  0  0  0
  152.3430  137.1209  154.2018 H   0  0  0  0  0  0  0  0  0  0  0  0
  152.4056  137.5823  155.9009 H   0  0  0  0  0  0  0  0  0  0  0  0
  150.6047  135.7092  154.6064 H   0  0  0  0  0  0  0  0  0  0  0  0
  150.5593  136.1634  156.3079 H   0  0  0  0  0  0  0  0  0  0  0  0
  148.8969  137.7699  155.9552 H   0  0  0  0  0  0  0  0  0  0  0  0
  148.5468  136.8334  154.5013 H   0  0  0  0  0  0  0  0  0  0  0  0
  1  2  2  0  0  0  0
  2  3  1  0  0  0  0
  2 10  1  0  0  0  0
  3  4  1  0  0  0  0
  3 22  1  0  0  0  0
  4  5  1  0  0  0  0
  4 23  1  0  0  0  0
  4 24  1  0  0  0  0
  5  9  1  0  0  0  0
  5  6  1  0  0  0  0
  5 25  1  0  0  0  0
  6  7  1  0  0  0  0
  6 26  1  0  0  0  0
  6 27  1  0  0  0  0
  7  8  1  0  0  0  0
  7 28  1  0  0  0  0
  7 29  1  0  0  0  0
  8  9  1  0  0  0  0
  8 30  1  0  0  0  0
  8 31  1  0  0  0  0
 10 11  1  0  0  0  0
 10 32  1  0  0  0  0
 11 16  1  0  0  0  0
 11 12  2  0  0  0  0
 12 13  1  0  0  0  0
 12 33  1  0  0  0  0
 13 14  2  0  0  0  0
 13 34  1  0  0  0  0
 14 15  1  0  0  0  0
 14 35  1  0  0  0  0
 15 16  2  0  0  0  0
 16 17  1  0  0  0  0
 17 21  1  0  0  0  0
 17 18  1  0  0  0  0
 18 19  1  0  0  0  0
 18 36  1  0  0  0  0
 18 37  1  0  0  0  0
 19 20  1  0  0  0  0
 19 38  1  0  0  0  0
 19 39  1  0  0  0  0
 20 21  1  0  0  0  0
 20 40  1  0  0  0  0
 20 41  1  0  0  0  0
 21 42  1  0  0  0  0
 21 43  1  0  0  0  0
M  END
> <s_m_source_file>
AV-unprocessed.smi

> <i_m_source_file_index>
1784

> <i_lp_mmshare_version>
43012

> <i_f3d_flags>
0

> <s_epik_input>
TzFbQ0gyXVtDSDJdW0NIMl1bQ0BIXTFbQ0gyXVtOSF1DKD1PKVtOSF1jMltjSF1bY0hdW2NIXW5jMk4zW0NIMl1bQ0gyXVtDSDJdW0NIMl0z

> <s_epik_cmdline>
J2VwaWtfcHl0aG9uJywgJy1waCcsICc3LjAnLCAnLXRuJywgJzgnLCAnLW1hJywgJzIwMCcsICctbWV0YWxfYmluZGluZycsICctaW1hZScsICc8aW5maWxlLm1hZT4nLCAnLW9tYWUnLCAnPG91dGZpbGUubWFlPic=

> <r_lp_tautomer_probability>
1

> <r_epik_Ionization_Penalty>
0.0982482

> <r_epik_Ionization_Penalty_Charging>
0

> <r_epik_Ionization_Penalty_Neutral>
0.0982482

> <r_epik_State_Penalty>
0.0877864

> <r_epik_Charging_Adjusted_Penalty>
0.0877864

> <i_epik_Tot_Q>
0

> <i_epik_Tot_abs_Q>
0

> <r_epik_Metal_State_Penalty>
0.0752567

> <b_epik_Metal_Only>
0

> <s_lp_Force_Field>
OPLS_2005

> <r_lp_Energy>
47.4963

> <b_lp_Chiralities_Consistent>
1

> <s_lp_Variant>
AV-unprocessed.smi:1784-1

> <Gold.Version>
5.8.1

> <Gold.Id.Protein>
6NUR|6NUR_protein|mol2

> <Gold.PLP.Fitness>
41.0884

> <Gold.PLP.PLP>
-33.1370

> <Gold.PLP.part.hbond>
-2.1507

> <Gold.PLP.part.metal>
0.0000

> <Gold.PLP.part.buried>
-2.3546

> <Gold.PLP.part.nonpolar>
-32.2228

> <Gold.PLP.part.repulsive>
2.9307

> <Gold.PLP.ligand.clash>
0.0000

> <Gold.PLP.ligand.torsion>
0.5467

> <Gold.PLP.Chemscore.Hbond>
2.0000

> <Gold.PLP.Chemscore.CHOScore>
1.0000

> <Gold.PLP.Chemscore.Metal>
0.0000

> <Gold.Chemscore.Hbonds>
donor molecule, donor type, donor heavy atom, donor atom, acceptor molecule, acceptor atom, score
      L1  H     3    22       P1  7948  1.00
      L1  H    10    32       P1  7948  1.00
      L1  C    14    35       P1  8028  1.00

> <Gold.PLP.Chemscore.Internal.Correction>
0.0448

> <Gold.Rescore>
     Score         DG    S(hbond)    S(metal)    S(lipo)     H(rot)  DE(clash)    DE(int)     intcor
     15.80     -18.26       1.92        0.00      84.58       1.38       0.27       2.19       ----

> <Gold.Chemscore.Fitness>
15.8032

> <Gold.Chemscore.DG>
-18.2616

> <Gold.Chemscore.ZeroCoef>
-5.4800

> <Gold.Chemscore.Hbond>
1.9213

> <Gold.Chemscore.Metal>
0.0000

> <Gold.Chemscore.Lipo>
84.5823

> <Gold.Chemscore.Internal_Hbond>
0.0000

> <Gold.Chemscore.DEClash>
0.2660

> <Gold.Chemscore.DEInternal>
2.1924

> <Gold.Chemscore.Rot>
1.3796

> <Gold.Chemscore.Internal.Correction>
   9.000000E+99

> <Gold.Chemscore.Hbonds>
donor molecule, donor type, donor heavy atom, donor atom, acceptor molecule, acceptor atom, score
      L1  H     3    22       P1  7948  0.96
      L1  H    10    32       P1  7948  0.95

> <Gold.Chemscore.Hbond.Weighted>
-6.4171

> <Gold.Chemscore.Metal.Weighted>
-0.0000

> <Gold.Chemscore.Lipo.Weighted>
-9.8961

> <Gold.Chemscore.Internal_Hbond.Weighted>
0.0000

> <Gold.Chemscore.DEClash.Weighted>
0.2660

> <Gold.Chemscore.DEInternal.Weighted>
2.1924

> <Gold.Chemscore.Rot.Weighted>
3.5317

> <Gold.Chemscore.Internal.Correction.Weighted>
   9.000000E+99

> <Gold.Protein.RotatedTorsions>
[ 6907 6896 6895 6894 ] final  -81.69 input  -60.11 | X-H torsion
[ 7974 7965 7964 7962 ] final  -58.19 input  175.53 | X-H torsion
[ 8008 7997 7996 7995 ] final   15.34 input   59.86 | X-H torsion
[ 10167 10162 10161 10158 ] final -109.27 input  -65.29 | X-H torsion
[ 10718 10713 10712 10709 ] final  127.54 input   66.30 | X-H torsion
[ 10763 10752 10751 10750 ] final    5.42 input  -60.55 | X-H torsion
[ 11005 11000 10999 10996 ] final   57.66 input  -57.11 | X-H torsion

> <Gold.Protein.ActiveResidues>
 VAL166  LYS551  ARG553  GLY616  TRP617  ASP618  TYR619  PRO620  LYS621  CYS622 
 ASP623  PHE694  ASN695  SER759  ASP760  ASP761  ALA762  ILE779  LEU786  VAL792 
 PHE793  MET794  SER795  GLU796  ALA797  LYS798  CYS799  TRP800  GLU811  SER814 

> <Gold.Protein.RotatedAtoms>
  150.6908  134.3779  159.5020 H   0  0  0  0  0  0  0  0  0  0  0  0  # atno 6907 bound_to 6896
  152.1585  134.8928  160.0552 H   0  0  0  0  0  0  0  0  0  0  0  0  # atno 6908 bound_to 6896
  151.9999  133.3787  159.4214 H   0  0  0  0  0  0  0  0  0  0  0  0  # atno 6909 bound_to 6896
  145.8422  140.8409  143.0029 H   0  0  0  0  0  0  0  0  0  0  0  0  # atno 7974 bound_to 7965
  154.8612  140.2944  155.5538 H   0  0  0  0  0  0  0  0  0  0  0  0  # atno 8008 bound_to 7997
  156.3020  140.2477  156.3519 H   0  0  0  0  0  0  0  0  0  0  0  0  # atno 8009 bound_to 7997
  154.8916  140.0394  157.1831 H   0  0  0  0  0  0  0  0  0  0  0  0  # atno 8010 bound_to 7997
  140.1572  143.4150  152.1452 H   0  0  0  0  0  0  0  0  0  0  0  0  # atno 10167 bound_to 10162
  157.5324  131.1098  150.8989 H   0  0  0  0  0  0  0  0  0  0  0  0  # atno 10718 bound_to 10713
  153.2596  135.6922  153.7593 H   0  0  0  0  0  0  0  0  0  0  0  0  # atno 10763 bound_to 10752
  153.6657  135.3353  155.3140 H   0  0  0  0  0  0  0  0  0  0  0  0  # atno 10764 bound_to 10752
  154.8425  135.4488  154.1581 H   0  0  0  0  0  0  0  0  0  0  0  0  # atno 10765 bound_to 10752
  140.0435  134.5838  155.9351 H   0  0  0  0  0  0  0  0  0  0  0  0  # atno 11005 bound_to 11000
  144.6733  140.0828  143.7468 LP  0  0  0  0  0  0  0  0  0  0  0  0  # atno 17320 bound_to 7965
  145.9453  139.2696  143.1245 LP  0  0  0  0  0  0  0  0  0  0  0  0  # atno 17321 bound_to 7965
  139.5398  144.7245  151.4771 LP  0  0  0  0  0  0  0  0  0  0  0  0  # atno 17342 bound_to 10162
  140.6666  143.8385  150.6949 LP  0  0  0  0  0  0  0  0  0  0  0  0  # atno 17343 bound_to 10162
  156.9566  130.5439  149.5284 LP  0  0  0  0  0  0  0  0  0  0  0  0  # atno 17370 bound_to 10713
  156.0432  130.5512  150.8820 LP  0  0  0  0  0  0  0  0  0  0  0  0  # atno 17371 bound_to 10713
  141.1895  133.6565  156.5372 LP  0  0  0  0  0  0  0  0  0  0  0  0  # atno 17394 bound_to 11000
  140.4030  134.7340  157.4791 LP  0  0  0  0  0  0  0  0  0  0  0  0  # atno 17395 bound_to 11000

$$$$
