#       Name:                AV-unprocessed.smi:47
#       Creating user name   scv26
#       Creation time:       Thu Mar 26 16:30:16 2020


#       File generated by GOLD software.
#

@<TRIPOS>MOLECULE
AV-unprocessed.smi:47
    36    38     1
SMALL
NO_CHARGES


@<TRIPOS>ATOM
      1 ****        -4.7410  -0.8967  -1.3194 O.3            1 S1                 0.0000
      2 ****        -4.1138  -0.5465  -0.1040 C.3            1 S1                 0.0000
      3 ****        -3.7294   0.9364  -0.0555 C.3            1 S1                 0.0000
      4 ****        -2.5034   1.0184   0.7640 N.4            1 S1                 1.0000
      5 ****        -2.0558  -0.3540   1.0789 C.3            1 S1                 0.0000
      6 ****        -0.5668  -0.4938   1.0402 C.2            1 S1                 0.0000
      7 ****         0.0560  -1.3764   1.8134 N.2            1 S1                 0.0000
      8 ****         1.3424  -1.2092   1.4437 N.pl3          1 S1                 0.0000
      9 ****         1.4345  -0.2780   0.4856 C.2            1 S1                 0.0000
     10 ****         2.6848   0.1472  -0.1477 C.ar           1 S1                 0.0000
     11 ****         3.9237  -0.3797   0.2865 C.ar           1 S1                 0.0000
     12 ****         5.1264   0.0281  -0.3224 C.ar           1 S1                 0.0000
     13 ****         5.1034   0.9653  -1.3721 C.ar           1 S1                 0.0000
     14 ****         3.8762   1.4950  -1.8123 C.ar           1 S1                 0.0000
     15 ****         2.6728   1.0885  -1.2035 C.ar           1 S1                 0.0000
     16 ****         0.2309   0.2105   0.1821 N.2            1 S1                 0.0000
     17 ****        -2.7793  -1.2614   0.0807 C.3            1 S1                 0.0000
     18 ****        -4.7760  -0.7848   0.7297 H              1 S1                 0.0000
     19 ****        -2.4119  -0.5823   2.0851 H              1 S1                 0.0000
     20 ****         2.1016  -1.7380   1.8495 H              1 S1                 0.0000
     21 ****        -4.9478  -1.8190  -1.3001 H              1 S1                 0.0000
     22 ****        -3.4885   1.3091  -1.0521 H              1 S1                 0.0000
     23 ****        -4.5272   1.5580   0.3519 H              1 S1                 0.0000
     24 ****        -1.7847   1.4805   0.2245 H              1 S1                 0.0000
     25 ****         3.9662  -1.0995   1.0907 H              1 S1                 0.0000
     26 ****         6.0679  -0.3786   0.0167 H              1 S1                 0.0000
     27 ****         6.0262   1.2772  -1.8391 H              1 S1                 0.0000
     28 ****         3.8572   2.2139  -2.6182 H              1 S1                 0.0000
     29 ****         1.7425   1.5076  -1.5580 H              1 S1                 0.0000
     30 ****        -2.8784  -2.2898   0.4297 H              1 S1                 0.0000
     31 ****        -2.2377  -1.2780  -0.8673 H              1 S1                 0.0000
     32 ****        -2.6703   1.5313   1.6176 H              1 S1                 0.0000
     33 ****        -4.1242  -0.7063  -2.0831 LP             1 S1                 0.0000
     34 ****        -5.5814  -0.3659  -1.4293 LP             1 S1                 0.0000
     35 ****        -0.3286  -2.0017   2.4925 LP             1 S1                 0.0000
     36 ****        -0.0203   0.9051  -0.4919 LP             1 S1                 0.0000
@<TRIPOS>BOND
    1    1    2 1     
    2    1   21 1     
    3    2   18 1     
    4    2   17 1     
    5    2    3 1     
    6    3    4 1     
    7    3   22 1     
    8    3   23 1     
    9    4    5 1     
   10    4   24 1     
   11    4   32 1     
   12    5   19 1     
   13    5    6 1     
   14    5   17 1     
   15    6   16 1     
   16    6    7 2     
   17    7    8 1     
   18    8   20 1     
   19    8    9 1     
   20    9   10 1     
   21    9   16 2     
   22   10   15 ar    
   23   10   11 ar    
   24   11   12 ar    
   25   11   25 1     
   26   12   13 ar    
   27   12   26 1     
   28   13   14 ar    
   29   13   27 1     
   30   14   15 ar    
   31   14   28 1     
   32   15   29 1     
   33   17   30 1     
   34   17   31 1     
   35    1   33 1     
   36    1   34 1     
   37    7   35 1     
   38   16   36 1     
@<TRIPOS>SUBSTRUCTURE
      1 S1             1
@<TRIPOS>SET
LONE_PAIRS      STATIC     ATOMS    <user>   **** ""
4 33 34 35 36
DONOR_HYDROGENS      STATIC     ATOMS    <user>   **** ""
4 21 24 32 20
ATOM$BLUE        STATIC     ATOMS    COLORGROUP SYSTEM
4 33 34 35 36
ATOM$RED        STATIC     ATOMS    COLORGROUP SYSTEM
4 21 24 32 20
