AV-unprocessed.smi:2157|AV-procd|sdf|8783|dock7
  -GOLD-   2272011563D 1   1.00000     0.00000
 Structure written by MMmdl.
 41 42  0  0  0  0  0  0  0  0  1 V2000
  148.3903  141.6113  155.9993 C   0  0  0  0  0  0  0  0  0  0  0  0
  149.3850  140.4428  155.9555 C   0  0  2  0  0  0  0  0  0  0  0  0
  150.7962  140.8904  156.3816 C   0  0  0  0  0  0  0  0  0  0  0  0
  151.7965  139.7251  156.3343 C   0  0  0  0  0  0  0  0  0  0  0  0
  151.8341  139.0784  154.9397 C   0  0  0  0  0  0  0  0  0  0  0  0
  150.4344  138.6278  154.4703 C   0  0  1  0  0  0  0  0  0  0  0  0
  149.9560  137.4788  155.2374 N   0  0  0  0  0  0  0  0  0  0  0  0
  150.4803  136.2446  155.2015 C   0  0  0  0  0  0  0  0  0  0  0  0
  151.4549  135.9447  154.5103 O   0  0  0  0  0  0  0  0  0  0  0  0
  149.8076  135.2028  156.1058 C   0  0  0  0  0  0  0  0  0  0  0  0
  149.7678  133.8619  155.5086 N   0  0  0  0  0  0  0  0  0  0  0  0
  149.1062  133.6641  154.3106 C   0  0  0  0  0  0  0  0  0  0  0  0
  149.0078  132.4610  153.7041 C   0  0  0  0  0  0  0  0  0  0  0  0
  149.6110  131.2720  154.2943 C   0  0  0  0  0  0  0  0  0  0  0  0
  149.5360  130.1569  153.7776 O   0  0  0  0  0  0  0  0  0  0  0  0
  150.2877  131.5044  155.5161 N   0  0  0  0  0  0  0  0  0  0  0  0
  150.9164  130.3922  156.1977 C   0  0  0  0  0  0  0  0  0  0  0  0
  150.3809  132.7636  156.1483 C   0  0  0  0  0  0  0  0  0  0  0  0
  150.9702  132.9088  157.2224 O   0  0  0  0  0  0  0  0  0  0  0  0
  149.4226  139.7881  154.5582 C   0  0  0  0  0  0  0  0  0  0  0  0
  148.6763  142.4019  155.3050 H   0  0  0  0  0  0  0  0  0  0  0  0
  148.3400  142.0472  156.9973 H   0  0  0  0  0  0  0  0  0  0  0  0
  147.3855  141.2821  155.7333 H   0  0  0  0  0  0  0  0  0  0  0  0
  149.0393  139.6964  156.6719 H   0  0  0  0  0  0  0  0  0  0  0  0
  151.1422  141.6921  155.7274 H   0  0  0  0  0  0  0  0  0  0  0  0
  150.7681  141.3058  157.3894 H   0  0  0  0  0  0  0  0  0  0  0  0
  152.7918  140.0801  156.6026 H   0  0  0  0  0  0  0  0  0  0  0  0
  151.5253  138.9778  157.0806 H   0  0  0  0  0  0  0  0  0  0  0  0
  152.2322  139.8009  154.2262 H   0  0  0  0  0  0  0  0  0  0  0  0
  152.5298  138.2387  154.9353 H   0  0  0  0  0  0  0  0  0  0  0  0
  150.5008  138.3270  153.4233 H   0  0  0  0  0  0  0  0  0  0  0  0
  149.1601  137.6357  155.8387 H   0  0  0  0  0  0  0  0  0  0  0  0
  150.3510  135.1725  157.0509 H   0  0  0  0  0  0  0  0  0  0  0  0
  148.7973  135.5304  156.3576 H   0  0  0  0  0  0  0  0  0  0  0  0
  148.6377  134.5133  153.8350 H   0  0  0  0  0  0  0  0  0  0  0  0
  148.4725  132.3762  152.7699 H   0  0  0  0  0  0  0  0  0  0  0  0
  151.9531  130.6703  156.3961 H   0  0  0  0  0  0  0  0  0  0  0  0
  150.8999  129.4913  155.5854 H   0  0  0  0  0  0  0  0  0  0  0  0
  150.3623  130.2318  157.1239 H   0  0  0  0  0  0  0  0  0  0  0  0
  148.4280  139.4343  154.2824 H   0  0  0  0  0  0  0  0  0  0  0  0
  149.6888  140.5433  153.8174 H   0  0  0  0  0  0  0  0  0  0  0  0
  1  2  1  0  0  0  0
  1 21  1  0  0  0  0
  1 22  1  0  0  0  0
  1 23  1  0  0  0  0
  2 20  1  0  0  0  0
  2  3  1  0  0  0  0
  2 24  1  0  0  0  0
  3  4  1  0  0  0  0
  3 25  1  0  0  0  0
  3 26  1  0  0  0  0
  4  5  1  0  0  0  0
  4 27  1  0  0  0  0
  4 28  1  0  0  0  0
  5  6  1  0  0  0  0
  5 29  1  0  0  0  0
  5 30  1  0  0  0  0
  6  7  1  0  0  0  0
  6 20  1  0  0  0  0
  6 31  1  0  0  0  0
  7  8  1  0  0  0  0
  7 32  1  0  0  0  0
  8  9  2  0  0  0  0
  8 10  1  0  0  0  0
 10 11  1  0  0  0  0
 10 33  1  0  0  0  0
 10 34  1  0  0  0  0
 11 18  1  0  0  0  0
 11 12  1  0  0  0  0
 12 13  2  0  0  0  0
 12 35  1  0  0  0  0
 13 14  1  0  0  0  0
 13 36  1  0  0  0  0
 14 15  2  0  0  0  0
 14 16  1  0  0  0  0
 16 17  1  0  0  0  0
 16 18  1  0  0  0  0
 17 37  1  0  0  0  0
 17 38  1  0  0  0  0
 17 39  1  0  0  0  0
 18 19  2  0  0  0  0
 20 40  1  0  0  0  0
 20 41  1  0  0  0  0
M  END
> <s_m_source_file>
AV-unprocessed.smi

> <i_m_source_file_index>
2157

> <i_lp_mmshare_version>
43012

> <i_f3d_flags>
0

> <s_epik_input>
W0NIM11bQ0BASF0xW0NIMl1bQ0gyXVtDSDJdW0NASF0oW0NIMl0xKVtOSF1DKD1PKVtDSDJdbjJbY0hdW2NIXWMoPU8pbihbQ0gzXSljMj1P

> <s_epik_cmdline>
J2VwaWtfcHl0aG9uJywgJy1waCcsICc3LjAnLCAnLXRuJywgJzgnLCAnLW1hJywgJzIwMCcsICctbWV0YWxfYmluZGluZycsICctaW1hZScsICc8aW5maWxlLm1hZT4nLCAnLW9tYWUnLCAnPG91dGZpbGUubWFlPic=

> <r_lp_tautomer_probability>
1

> <r_epik_Ionization_Penalty>
3.1838e-08

> <r_epik_Ionization_Penalty_Charging>
1.27911e-08

> <r_epik_Ionization_Penalty_Neutral>
1.90469e-08

> <r_epik_State_Penalty>
-0

> <r_epik_Charging_Adjusted_Penalty>
1.27911e-08

> <i_epik_Tot_Q>
0

> <i_epik_Tot_abs_Q>
0

> <r_epik_Metal_State_Penalty>
-0

> <b_epik_Metal_Only>
0

> <s_lp_Force_Field>
OPLS_2005

> <r_lp_Energy>
16.0352

> <b_lp_Chiralities_Consistent>
1

> <s_lp_Variant>
AV-unprocessed.smi:2157-1

> <Gold.Version>
5.8.1

> <Gold.Id.Protein>
6NUR|6NUR_protein|mol2

> <Gold.PLP.Fitness>
41.2959

> <Gold.PLP.PLP>
-33.1408

> <Gold.PLP.part.hbond>
-2.0000

> <Gold.PLP.part.metal>
0.0000

> <Gold.PLP.part.buried>
-2.0445

> <Gold.PLP.part.nonpolar>
-30.2982

> <Gold.PLP.part.repulsive>
0.2759

> <Gold.PLP.ligand.clash>
0.0000

> <Gold.PLP.ligand.torsion>
0.4149

> <Gold.PLP.Chemscore.Hbond>
1.9920

> <Gold.PLP.Chemscore.CHOScore>
1.0000

> <Gold.PLP.Chemscore.Metal>
0.0000

> <Gold.Chemscore.Hbonds>
donor molecule, donor type, donor heavy atom, donor atom, acceptor molecule, acceptor atom, score
      P1  H  6896  6908       L1    19  0.86
      P1  H 10752 10763       L1     9  1.00
      L1  C    12    35       P1  7948  0.82

> <Gold.PLP.Chemscore.Internal.Correction>
0.0089

> <Gold.Rescore>
     Score         DG    S(hbond)    S(metal)    S(lipo)     H(rot)  DE(clash)    DE(int)     intcor
     15.16     -15.72       2.00        0.00      63.87       1.52       0.12       0.44       ----

> <Gold.Chemscore.Fitness>
15.1553

> <Gold.Chemscore.DG>
-15.7214

> <Gold.Chemscore.ZeroCoef>
-5.4800

> <Gold.Chemscore.Hbond>
1.9971

> <Gold.Chemscore.Metal>
0.0000

> <Gold.Chemscore.Lipo>
63.8707

> <Gold.Chemscore.Internal_Hbond>
0.0000

> <Gold.Chemscore.DEClash>
0.1219

> <Gold.Chemscore.DEInternal>
0.4442

> <Gold.Chemscore.Rot>
1.5242

> <Gold.Chemscore.Internal.Correction>
   9.000000E+99

> <Gold.Chemscore.Hbonds>
donor molecule, donor type, donor heavy atom, donor atom, acceptor molecule, acceptor atom, score
      P1  H  6896  6908       L1    19  0.80
      P1  H 10752 10763       L1     9  0.92

> <Gold.Chemscore.Hbond.Weighted>
-6.6704

> <Gold.Chemscore.Metal.Weighted>
-0.0000

> <Gold.Chemscore.Lipo.Weighted>
-7.4729

> <Gold.Chemscore.Internal_Hbond.Weighted>
0.0000

> <Gold.Chemscore.DEClash.Weighted>
0.1219

> <Gold.Chemscore.DEInternal.Weighted>
0.4442

> <Gold.Chemscore.Rot.Weighted>
3.9019

> <Gold.Chemscore.Internal.Correction.Weighted>
   9.000000E+99

> <Gold.Protein.RotatedTorsions>
[ 6907 6896 6895 6894 ] final   99.12 input  -60.11 | X-H torsion
[ 7974 7965 7964 7962 ] final -132.39 input  175.53 | X-H torsion
[ 8008 7997 7996 7995 ] final   16.37 input   59.86 | X-H torsion
[ 10167 10162 10161 10158 ] final   -1.60 input  -65.29 | X-H torsion
[ 10718 10713 10712 10709 ] final   22.97 input   66.30 | X-H torsion
[ 10763 10752 10751 10750 ] final   38.23 input  -60.55 | X-H torsion
[ 11005 11000 10999 10996 ] final    8.84 input  -57.11 | X-H torsion

> <Gold.Protein.ActiveResidues>
 VAL166  LYS551  ARG553  GLY616  TRP617  ASP618  TYR619  PRO620  LYS621  CYS622 
 ASP623  PHE694  ASN695  SER759  ASP760  ASP761  ALA762  ILE779  LEU786  VAL792 
 PHE793  MET794  SER795  GLU796  ALA797  LYS798  CYS799  TRP800  GLU811  SER814 

> <Gold.Protein.RotatedAtoms>
  152.5397  134.0477  159.8095 H   0  0  0  0  0  0  0  0  0  0  0  0  # atno 6907 bound_to 6896
  151.0623  133.5526  159.2640 H   0  0  0  0  0  0  0  0  0  0  0  0  # atno 6908 bound_to 6896
  151.2420  135.0600  159.9082 H   0  0  0  0  0  0  0  0  0  0  0  0  # atno 6909 bound_to 6896
  144.9290  140.7106  143.4918 H   0  0  0  0  0  0  0  0  0  0  0  0  # atno 7974 bound_to 7965
  154.8760  140.2966  155.5453 H   0  0  0  0  0  0  0  0  0  0  0  0  # atno 8008 bound_to 7997
  156.3022  140.2451  156.3690 H   0  0  0  0  0  0  0  0  0  0  0  0  # atno 8009 bound_to 7997
  154.8766  140.0399  157.1746 H   0  0  0  0  0  0  0  0  0  0  0  0  # atno 8010 bound_to 7997
  140.6817  143.6756  150.8148 H   0  0  0  0  0  0  0  0  0  0  0  0  # atno 10167 bound_to 10162
  157.1596  130.6711  149.6039 H   0  0  0  0  0  0  0  0  0  0  0  0  # atno 10718 bound_to 10713
  153.0008  135.6255  154.2271 H   0  0  0  0  0  0  0  0  0  0  0  0  # atno 10763 bound_to 10752
  154.2013  135.2804  155.2991 H   0  0  0  0  0  0  0  0  0  0  0  0  # atno 10764 bound_to 10752
  154.5681  135.5685  153.7128 H   0  0  0  0  0  0  0  0  0  0  0  0  # atno 10765 bound_to 10752
  140.5325  134.0453  155.7878 H   0  0  0  0  0  0  0  0  0  0  0  0  # atno 11005 bound_to 11000
  145.3172  139.1799  143.4607 LP  0  0  0  0  0  0  0  0  0  0  0  0  # atno 17320 bound_to 7965
  146.3239  140.3185  142.8631 LP  0  0  0  0  0  0  0  0  0  0  0  0  # atno 17321 bound_to 7965
  140.0457  143.5300  152.2697 LP  0  0  0  0  0  0  0  0  0  0  0  0  # atno 17342 bound_to 10162
  139.6144  144.7616  151.2880 LP  0  0  0  0  0  0  0  0  0  0  0  0  # atno 17343 bound_to 10162
  155.9756  130.4716  150.6470 LP  0  0  0  0  0  0  0  0  0  0  0  0  # atno 17370 bound_to 10713
  157.4144  131.0828  151.1190 LP  0  0  0  0  0  0  0  0  0  0  0  0  # atno 17371 bound_to 10713
  141.1273  133.9361  157.2608 LP  0  0  0  0  0  0  0  0  0  0  0  0  # atno 17394 bound_to 11000
  139.9547  135.0168  156.9093 LP  0  0  0  0  0  0  0  0  0  0  0  0  # atno 17395 bound_to 11000

$$$$
