AV-unprocessed.smi:2679|AV-procd|sdf|10370|dock1
  -GOLD-   2272014393D 1   1.00000     0.00000
 Structure written by MMmdl.
 39 40  0  0  0  0  0  0  0  0  1 V2000
  147.1990  139.2051  153.2317 C   0  0  0  0  0  0  0  0  0  0  0  0
  148.3703  139.8473  153.9024 C   0  0  0  0  0  0  0  0  0  0  0  0
  149.5539  139.2482  154.0505 N   0  0  0  0  0  0  0  0  0  0  0  0
  150.3452  140.1610  154.7121 N   0  0  0  0  0  0  0  0  0  0  0  0
  149.5708  141.2310  154.9053 C   0  0  0  0  0  0  0  0  0  0  0  0
  150.1164  142.6919  155.7221 S   0  0  0  0  0  0  0  0  0  0  0  0
  151.0290  141.8924  157.0752 C   0  0  2  0  0  0  0  0  0  0  0  0
  150.1026  140.9986  157.7907 C   0  0  0  0  0  0  0  0  0  0  0  0
  149.3744  140.2966  158.3526 N   0  0  0  0  0  0  0  0  0  0  0  0
  151.7049  142.9311  157.9990 C   0  0  0  0  0  0  0  0  0  0  0  0
  152.3342  142.2625  159.2435 C   0  0  0  0  0  0  0  0  0  0  0  0
  153.0065  143.2877  160.1706 C   0  0  0  0  0  0  0  0  0  0  0  0
  152.0202  144.3834  160.5980 C   0  0  0  0  0  0  0  0  0  0  0  0
  151.3942  145.0643  159.3732 C   0  0  0  0  0  0  0  0  0  0  0  0
  150.7231  144.0389  158.4448 C   0  0  0  0  0  0  0  0  0  0  0  0
  148.3219  141.0947  154.4144 N   0  0  0  0  0  0  0  0  0  0  0  0
  147.2155  142.0428  154.4371 C   0  0  0  0  0  0  0  0  0  0  0  0
  146.1501  141.6256  155.4527 C   0  0  0  0  0  0  0  0  0  0  0  0
  144.9550  141.2719  154.9729 N   0  0  0  0  0  0  0  0  0  0  0  0
  146.4011  141.6265  156.6558 O   0  0  0  0  0  0  0  0  0  0  0  0
  147.4408  138.1829  152.9388 H   0  0  0  0  0  0  0  0  0  0  0  0
  146.9231  139.7643  152.3376 H   0  0  0  0  0  0  0  0  0  0  0  0
  146.3449  139.1759  153.9083 H   0  0  0  0  0  0  0  0  0  0  0  0
  151.8006  141.2553  156.6416 H   0  0  0  0  0  0  0  0  0  0  0  0
  152.5029  143.4117  157.4309 H   0  0  0  0  0  0  0  0  0  0  0  0
  151.5646  141.7223  159.7967 H   0  0  0  0  0  0  0  0  0  0  0  0
  153.0749  141.5196  158.9485 H   0  0  0  0  0  0  0  0  0  0  0  0
  153.4071  142.7850  161.0515 H   0  0  0  0  0  0  0  0  0  0  0  0
  153.8572  143.7398  159.6591 H   0  0  0  0  0  0  0  0  0  0  0  0
  151.2342  143.9489  161.2172 H   0  0  0  0  0  0  0  0  0  0  0  0
  152.5292  145.1233  161.2165 H   0  0  0  0  0  0  0  0  0  0  0  0
  150.6640  145.8075  159.6946 H   0  0  0  0  0  0  0  0  0  0  0  0
  152.1641  145.6061  158.8225 H   0  0  0  0  0  0  0  0  0  0  0  0
  150.3210  144.5650  157.5791 H   0  0  0  0  0  0  0  0  0  0  0  0
  149.8702  143.5884  158.9543 H   0  0  0  0  0  0  0  0  0  0  0  0
  147.6008  143.0382  154.6623 H   0  0  0  0  0  0  0  0  0  0  0  0
  146.7666  142.1031  153.4456 H   0  0  0  0  0  0  0  0  0  0  0  0
  144.2205  140.9847  155.6032 H   0  0  0  0  0  0  0  0  0  0  0  0
  144.7912  141.2891  153.9765 H   0  0  0  0  0  0  0  0  0  0  0  0
  1  2  1  0  0  0  0
  1 21  1  0  0  0  0
  1 22  1  0  0  0  0
  1 23  1  0  0  0  0
  2 16  1  0  0  0  0
  2  3  2  0  0  0  0
  3  4  1  0  0  0  0
  4  5  2  0  0  0  0
  5  6  1  0  0  0  0
  5 16  1  0  0  0  0
  6  7  1  0  0  0  0
  7  8  1  0  0  0  0
  7 10  1  0  0  0  0
  7 24  1  0  0  0  0
  8  9  3  0  0  0  0
 10 15  1  0  0  0  0
 10 11  1  0  0  0  0
 10 25  1  0  0  0  0
 11 12  1  0  0  0  0
 11 26  1  0  0  0  0
 11 27  1  0  0  0  0
 12 13  1  0  0  0  0
 12 28  1  0  0  0  0
 12 29  1  0  0  0  0
 13 14  1  0  0  0  0
 13 30  1  0  0  0  0
 13 31  1  0  0  0  0
 14 15  1  0  0  0  0
 14 32  1  0  0  0  0
 14 33  1  0  0  0  0
 15 34  1  0  0  0  0
 15 35  1  0  0  0  0
 16 17  1  0  0  0  0
 17 18  1  0  0  0  0
 17 36  1  0  0  0  0
 17 37  1  0  0  0  0
 18 19  1  0  0  0  0
 18 20  2  0  0  0  0
 19 38  1  0  0  0  0
 19 39  1  0  0  0  0
M  END
> <s_m_source_file>
AV-unprocessed.smi

> <i_m_source_file_index>
2679

> <i_lp_mmshare_version>
43012

> <i_f3d_flags>
0

> <s_epik_input>
W0NIM11jMW5uYyhuMVtDSDJdQyg9TylbTkgyXSlTW0NASF0oQyNOKVtDSF0yW0NIMl1bQ0gyXVtDSDJdW0NIMl1bQ0gyXTI=

> <s_epik_cmdline>
J2VwaWtfcHl0aG9uJywgJy1waCcsICc3LjAnLCAnLXRuJywgJzgnLCAnLW1hJywgJzIwMCcsICctbWV0YWxfYmluZGluZycsICctaW1hZScsICc8aW5maWxlLm1hZT4nLCAnLW9tYWUnLCAnPG91dGZpbGUubWFlPic=

> <r_lp_tautomer_probability>
1

> <r_epik_Ionization_Penalty>
1.94949e-07

> <r_epik_Ionization_Penalty_Charging>
0

> <r_epik_Ionization_Penalty_Neutral>
1.94949e-07

> <r_epik_State_Penalty>
-0

> <r_epik_Charging_Adjusted_Penalty>
0

> <i_epik_Tot_Q>
0

> <i_epik_Tot_abs_Q>
0

> <r_epik_Metal_State_Penalty>
-0

> <b_epik_Metal_Only>
0

> <s_lp_Force_Field>
OPLS_2005

> <r_lp_Energy>
7.74931

> <b_lp_Chiralities_Consistent>
1

> <s_lp_Variant>
AV-unprocessed.smi:2679-1

> <Gold.Version>
5.8.1

> <Gold.Id.Protein>
6NUR|6NUR_protein|mol2

> <Gold.PLP.Fitness>
40.9048

> <Gold.PLP.PLP>
-36.2266

> <Gold.PLP.part.hbond>
-2.2813

> <Gold.PLP.part.metal>
0.0000

> <Gold.PLP.part.buried>
0.3569

> <Gold.PLP.part.nonpolar>
-35.9373

> <Gold.PLP.part.repulsive>
1.2058

> <Gold.PLP.ligand.clash>
0.0000

> <Gold.PLP.ligand.torsion>
0.5452

> <Gold.PLP.Chemscore.Hbond>
1.8960

> <Gold.PLP.Chemscore.CHOScore>
0.0000

> <Gold.PLP.Chemscore.Metal>
0.0000

> <Gold.Chemscore.Hbonds>
donor molecule, donor type, donor heavy atom, donor atom, acceptor molecule, acceptor atom, score
      L1  H    19    39       P1 10175  0.88
      P1  H  7989  7998       L1     4  1.00

> <Gold.PLP.Chemscore.Internal.Correction>
0.0807

> <Gold.Rescore>
     Score         DG    S(hbond)    S(metal)    S(lipo)     H(rot)  DE(clash)    DE(int)     intcor
     11.95     -14.39       1.25        0.00      96.82       2.57       2.03       0.41       ----

> <Gold.Chemscore.Fitness>
11.9514

> <Gold.Chemscore.DG>
-14.3895

> <Gold.Chemscore.ZeroCoef>
-5.4800

> <Gold.Chemscore.Hbond>
1.2480

> <Gold.Chemscore.Metal>
0.0000

> <Gold.Chemscore.Lipo>
96.8158

> <Gold.Chemscore.Internal_Hbond>
0.0000

> <Gold.Chemscore.DEClash>
2.0253

> <Gold.Chemscore.DEInternal>
0.4128

> <Gold.Chemscore.Rot>
2.5728

> <Gold.Chemscore.Internal.Correction>
   9.000000E+99

> <Gold.Chemscore.Hbonds>
donor molecule, donor type, donor heavy atom, donor atom, acceptor molecule, acceptor atom, score
      L1  H    19    39       P1 10175  0.41
      P1  H  7989  7998       L1     4  0.18

> <Gold.Chemscore.Hbond.Weighted>
-4.1685

> <Gold.Chemscore.Metal.Weighted>
-0.0000

> <Gold.Chemscore.Lipo.Weighted>
-11.3275

> <Gold.Chemscore.Internal_Hbond.Weighted>
0.0000

> <Gold.Chemscore.DEClash.Weighted>
2.0253

> <Gold.Chemscore.DEInternal.Weighted>
0.4128

> <Gold.Chemscore.Rot.Weighted>
6.5865

> <Gold.Chemscore.Internal.Correction.Weighted>
   9.000000E+99

> <Gold.Protein.RotatedTorsions>
[ 6907 6896 6895 6894 ] final -153.77 input  -60.11 | X-H torsion
[ 7974 7965 7964 7962 ] final  139.36 input  175.53 | X-H torsion
[ 8008 7997 7996 7995 ] final   89.31 input   59.86 | X-H torsion
[ 10167 10162 10161 10158 ] final   96.28 input  -65.29 | X-H torsion
[ 10718 10713 10712 10709 ] final   29.41 input   66.30 | X-H torsion
[ 10763 10752 10751 10750 ] final   98.13 input  -60.55 | X-H torsion
[ 11005 11000 10999 10996 ] final   55.12 input  -57.11 | X-H torsion

> <Gold.Protein.ActiveResidues>
 VAL166  LYS551  ARG553  GLY616  TRP617  ASP618  TYR619  PRO620  LYS621  CYS622 
 ASP623  PHE694  ASN695  SER759  ASP760  ASP761  ALA762  ILE779  LEU786  VAL792 
 PHE793  MET794  SER795  GLU796  ALA797  LYS798  CYS799  TRP800  GLU811  SER814 

> <Gold.Protein.RotatedAtoms>
  151.2475  133.4367  159.2609 H   0  0  0  0  0  0  0  0  0  0  0  0  # atno 6907 bound_to 6896
  151.0648  134.9760  159.8289 H   0  0  0  0  0  0  0  0  0  0  0  0  # atno 6908 bound_to 6896
  152.5403  134.2424  159.8920 H   0  0  0  0  0  0  0  0  0  0  0  0  # atno 6909 bound_to 6896
  144.9286  139.5076  143.5629 H   0  0  0  0  0  0  0  0  0  0  0  0  # atno 7974 bound_to 7965
  155.9984  140.3362  155.6822 H   0  0  0  0  0  0  0  0  0  0  0  0  # atno 8008 bound_to 7997
  155.6324  140.0686  157.2662 H   0  0  0  0  0  0  0  0  0  0  0  0  # atno 8009 bound_to 7997
  154.4241  140.1757  156.1473 H   0  0  0  0  0  0  0  0  0  0  0  0  # atno 8010 bound_to 7997
  139.7909  144.6852  150.9893 H   0  0  0  0  0  0  0  0  0  0  0  0  # atno 10167 bound_to 10162
  157.2463  130.7093  149.6383 H   0  0  0  0  0  0  0  0  0  0  0  0  # atno 10718 bound_to 10713
  153.2853  135.4159  155.1116 H   0  0  0  0  0  0  0  0  0  0  0  0  # atno 10763 bound_to 10752
  154.8503  135.3505  154.6056 H   0  0  0  0  0  0  0  0  0  0  0  0  # atno 10764 bound_to 10752
  153.6477  135.7054  153.5277 H   0  0  0  0  0  0  0  0  0  0  0  0  # atno 10765 bound_to 10752
  140.0632  134.5573  155.9128 H   0  0  0  0  0  0  0  0  0  0  0  0  # atno 11005 bound_to 11000
  146.3237  139.8219  142.8925 LP  0  0  0  0  0  0  0  0  0  0  0  0  # atno 17320 bound_to 7965
  145.3179  141.0236  143.3517 LP  0  0  0  0  0  0  0  0  0  0  0  0  # atno 17321 bound_to 7965
  140.7820  143.4382  151.0592 LP  0  0  0  0  0  0  0  0  0  0  0  0  # atno 17342 bound_to 10162
  139.8058  143.8020  152.3167 LP  0  0  0  0  0  0  0  0  0  0  0  0  # atno 17343 bound_to 10162
  155.9668  130.4442  150.5452 LP  0  0  0  0  0  0  0  0  0  0  0  0  # atno 17370 bound_to 10713
  157.3326  131.0702  151.1849 LP  0  0  0  0  0  0  0  0  0  0  0  0  # atno 17371 bound_to 10713
  141.1982  133.6600  156.5780 LP  0  0  0  0  0  0  0  0  0  0  0  0  # atno 17394 bound_to 11000
  140.3738  134.7583  157.4616 LP  0  0  0  0  0  0  0  0  0  0  0  0  # atno 17395 bound_to 11000

$$$$
