AV-unprocessed.smi:3298|AV-procd|sdf|12647|dock4
  -GOLD-   2272018583D 1   1.00000     0.00000
 Structure written by MMmdl.
 36 37  0  0  0  0  0  0  0  0  2 V2000
  150.5670  141.5644  156.4384 C   0  0  0  0  0  0  0  0  0  0  0  0
  151.3085  142.4316  157.4336 C   0  0  0  0  0  0  0  0  0  0  0  0
  152.1805  141.8904  158.4024 C   0  0  0  0  0  0  0  0  0  0  0  0
  152.8358  142.7502  159.3113 C   0  0  0  0  0  0  0  0  0  0  0  0
  153.7161  142.1594  160.2579 N   0  0  0  0  0  0  0  0  0  0  0  0
  154.3610  140.9827  160.1785 C   0  0  0  0  0  0  0  0  0  0  0  0
  154.3139  140.2089  159.2223 O   0  0  0  0  0  0  0  0  0  0  0  0
  155.0909  140.7537  161.2791 N   0  0  0  0  0  0  0  0  0  0  0  0
  155.9033  139.5643  161.5085 C   0  0  1  0  0  0  0  0  0  0  0  0
  156.4557  139.5695  162.9087 C   0  0  0  0  0  0  0  0  0  0  0  0
  156.0932  138.4980  163.6100 C   0  0  0  0  0  0  0  0  0  0  0  0
  155.2124  137.5615  162.8243 C   0  0  1  0  0  0  0  0  0  0  0  0
  153.8716  137.2639  163.5221 C   0  0  0  0  0  0  0  0  0  0  0  0
  154.0620  136.6843  164.7980 O   0  0  0  0  0  0  0  0  0  0  0  0
  155.0750  138.2532  161.4436 C   0  0  0  0  0  0  0  0  0  0  0  0
  152.6140  144.1466  159.2039 C   0  0  0  0  0  0  0  0  0  0  0  0
  151.7324  144.6306  158.2163 C   0  0  0  0  0  0  0  0  0  0  0  0
  151.1171  143.7680  157.3795 N   0  3  0  0  0  0  0  0  0  0  0  0
  156.7378  139.5341  160.8059 H   0  0  0  0  0  0  0  0  0  0  0  0
  155.7587  136.6254  162.7026 H   0  0  0  0  0  0  0  0  0  0  0  0
  150.9093  140.5301  156.4874 H   0  0  0  0  0  0  0  0  0  0  0  0
  150.7260  141.9265  155.4223 H   0  0  0  0  0  0  0  0  0  0  0  0
  149.4969  141.5800  156.6467 H   0  0  0  0  0  0  0  0  0  0  0  0
  152.3397  140.8227  158.4516 H   0  0  0  0  0  0  0  0  0  0  0  0
  153.9237  142.7232  161.0692 H   0  0  0  0  0  0  0  0  0  0  0  0
  155.0752  141.4412  162.0183 H   0  0  0  0  0  0  0  0  0  0  0  0
  157.0875  140.3655  163.2747 H   0  0  0  0  0  0  0  0  0  0  0  0
  156.3833  138.2949  164.6303 H   0  0  0  0  0  0  0  0  0  0  0  0
  153.2930  138.1811  163.6342 H   0  0  0  0  0  0  0  0  0  0  0  0
  153.2742  136.5827  162.9157 H   0  0  0  0  0  0  0  0  0  0  0  0
  153.6639  135.8273  164.8004 H   0  0  0  0  0  0  0  0  0  0  0  0
  154.0297  138.4480  161.1995 H   0  0  0  0  0  0  0  0  0  0  0  0
  155.4580  137.6042  160.6552 H   0  0  0  0  0  0  0  0  0  0  0  0
  153.1105  144.8549  159.8494 H   0  0  0  0  0  0  0  0  0  0  0  0
  151.5080  145.6768  158.0683 H   0  0  0  0  0  0  0  0  0  0  0  0
  150.4839  144.1422  156.6723 H   0  0  0  0  0  0  0  0  0  0  0  0
  1  2  1  0  0  0  0
  1 21  1  0  0  0  0
  1 22  1  0  0  0  0
  1 23  1  0  0  0  0
  2 18  1  0  0  0  0
  2  3  2  0  0  0  0
  3  4  1  0  0  0  0
  3 24  1  0  0  0  0
  4  5  1  0  0  0  0
  4 16  2  0  0  0  0
  5  6  1  0  0  0  0
  5 25  1  0  0  0  0
  6  7  2  0  0  0  0
  6  8  1  0  0  0  0
  8  9  1  0  0  0  0
  8 26  1  0  0  0  0
  9 19  1  0  0  0  0
  9 15  1  0  0  0  0
  9 10  1  0  0  0  0
 10 11  2  0  0  0  0
 10 27  1  0  0  0  0
 11 12  1  0  0  0  0
 11 28  1  0  0  0  0
 12 20  1  0  0  0  0
 12 13  1  0  0  0  0
 12 15  1  0  0  0  0
 13 14  1  0  0  0  0
 13 29  1  0  0  0  0
 13 30  1  0  0  0  0
 14 31  1  0  0  0  0
 15 32  1  0  0  0  0
 15 33  1  0  0  0  0
 16 17  1  0  0  0  0
 16 34  1  0  0  0  0
 17 18  2  0  0  0  0
 17 35  1  0  0  0  0
 18 36  1  0  0  0  0
M  CHG  1  18   1
M  END
> <s_m_source_file>
AV-unprocessed.smi

> <i_m_source_file_index>
3298

> <i_lp_mmshare_version>
43012

> <i_f3d_flags>
0

> <s_epik_input>
W0NIM11jMVtjSF1jKFtjSF1bY0hdbjEpW05IXUMoPU8pW05IXVtDQEBIXTJbQ0hdPVtDSF1bQ0BASF0oW0NIMl0yKVtDSDJdW09IXQ==

> <s_epik_cmdline>
J2VwaWtfcHl0aG9uJywgJy1waCcsICc3LjAnLCAnLXRuJywgJzgnLCAnLW1hJywgJzIwMCcsICctbWV0YWxfYmluZGluZycsICctaW1hZScsICc8aW5maWxlLm1hZT4nLCAnLW9tYWUnLCAnPG91dGZpbGUubWFlPic=

> <r_epik_Ionization_Penalty>
0.443901

> <r_epik_Ionization_Penalty_Charging>
0.443881

> <r_epik_Ionization_Penalty_Neutral>
1.94967e-05

> <r_epik_State_Penalty>
0.446172

> <r_epik_Charging_Adjusted_Penalty>
0.890053

> <i_epik_Tot_Q>
1

> <i_epik_Tot_abs_Q>
1

> <r_epik_Metal_State_Penalty>
0.675842

> <b_epik_Metal_Only>
0

> <s_lp_Force_Field>
OPLS_2005

> <r_lp_Energy>
27.9023

> <b_lp_Chiralities_Consistent>
1

> <s_lp_Variant>
AV-unprocessed.smi:3298-8

> <Gold.Version>
5.8.1

> <Gold.Id.Protein>
6NUR|6NUR_protein|mol2

> <Gold.PLP.Fitness>
46.2822

> <Gold.PLP.PLP>
-37.7480

> <Gold.PLP.part.hbond>
-3.6262

> <Gold.PLP.part.metal>
0.0000

> <Gold.PLP.part.buried>
-5.9330

> <Gold.PLP.part.nonpolar>
-27.2245

> <Gold.PLP.part.repulsive>
0.0493

> <Gold.PLP.ligand.clash>
0.0000

> <Gold.PLP.ligand.torsion>
0.1554

> <Gold.PLP.Chemscore.Hbond>
2.9440

> <Gold.PLP.Chemscore.CHOScore>
0.0000

> <Gold.PLP.Chemscore.Metal>
0.0000

> <Gold.Chemscore.Hbonds>
donor molecule, donor type, donor heavy atom, donor atom, acceptor molecule, acceptor atom, score
      L1  H    18    36       P1  8028  2.00
      P1  H  7997  8008       L1     7  0.90

> <Gold.PLP.Chemscore.Internal.Correction>
0.0130

> <Gold.Rescore>
     Score         DG    S(hbond)    S(metal)    S(lipo)     H(rot)  DE(clash)    DE(int)     intcor
     17.16     -18.66       1.94        0.00      96.84       1.81       0.02       1.48       ----

> <Gold.Chemscore.Fitness>
17.1597

> <Gold.Chemscore.DG>
-18.6559

> <Gold.Chemscore.ZeroCoef>
-5.4800

> <Gold.Chemscore.Hbond>
1.9370

> <Gold.Chemscore.Metal>
0.0000

> <Gold.Chemscore.Lipo>
96.8385

> <Gold.Chemscore.Internal_Hbond>
0.0000

> <Gold.Chemscore.DEClash>
0.0186

> <Gold.Chemscore.DEInternal>
1.4776

> <Gold.Chemscore.Rot>
1.8061

> <Gold.Chemscore.Internal.Correction>
   9.000000E+99

> <Gold.Chemscore.Hbonds>
donor molecule, donor type, donor heavy atom, donor atom, acceptor molecule, acceptor atom, score
      L1  H    18    36       P1  8028  0.98
      P1  H  7997  8008       L1     7  0.83

> <Gold.Chemscore.Hbond.Weighted>
-6.4695

> <Gold.Chemscore.Metal.Weighted>
-0.0000

> <Gold.Chemscore.Lipo.Weighted>
-11.3301

> <Gold.Chemscore.Internal_Hbond.Weighted>
0.0000

> <Gold.Chemscore.DEClash.Weighted>
0.0186

> <Gold.Chemscore.DEInternal.Weighted>
1.4776

> <Gold.Chemscore.Rot.Weighted>
4.6237

> <Gold.Chemscore.Internal.Correction.Weighted>
   9.000000E+99

> <Gold.Protein.RotatedTorsions>
[ 6907 6896 6895 6894 ] final -172.84 input  -60.11 | X-H torsion
[ 7974 7965 7964 7962 ] final -127.71 input  175.53 | X-H torsion
[ 8008 7997 7996 7995 ] final -111.83 input   59.86 | X-H torsion
[ 10167 10162 10161 10158 ] final    4.69 input  -65.29 | X-H torsion
[ 10718 10713 10712 10709 ] final  130.52 input   66.30 | X-H torsion
[ 10763 10752 10751 10750 ] final  109.66 input  -60.55 | X-H torsion
[ 11005 11000 10999 10996 ] final   55.99 input  -57.11 | X-H torsion

> <Gold.Protein.ActiveResidues>
 VAL166  LYS551  ARG553  GLY616  TRP617  ASP618  TYR619  PRO620  LYS621  CYS622 
 ASP623  PHE694  ASN695  SER759  ASP760  ASP761  ALA762  ILE779  LEU786  VAL792 
 PHE793  MET794  SER795  GLU796  ALA797  LYS798  CYS799  TRP800  GLU811  SER814 

> <Gold.Protein.RotatedAtoms>
  151.5465  133.3424  159.2944 H   0  0  0  0  0  0  0  0  0  0  0  0  # atno 6907 bound_to 6896
  150.8504  134.7829  159.7015 H   0  0  0  0  0  0  0  0  0  0  0  0  # atno 6908 bound_to 6896
  152.4551  134.5316  159.9864 H   0  0  0  0  0  0  0  0  0  0  0  0  # atno 6909 bound_to 6896
  144.9743  140.7577  143.4651 H   0  0  0  0  0  0  0  0  0  0  0  0  # atno 7974 bound_to 7965
  154.9958  140.0394  157.2339 H   0  0  0  0  0  0  0  0  0  0  0  0  # atno 8008 bound_to 7997
  154.7587  140.2780  155.6209 H   0  0  0  0  0  0  0  0  0  0  0  0  # atno 8009 bound_to 7997
  156.2900  140.2632  156.2360 H   0  0  0  0  0  0  0  0  0  0  0  0  # atno 8010 bound_to 7997
  140.6521  143.7518  150.7593 H   0  0  0  0  0  0  0  0  0  0  0  0  # atno 10167 bound_to 10162
  157.5054  131.1095  150.9369 H   0  0  0  0  0  0  0  0  0  0  0  0  # atno 10718 bound_to 10713
  153.4379  135.3773  155.2210 H   0  0  0  0  0  0  0  0  0  0  0  0  # atno 10763 bound_to 10752
  154.8753  135.3856  154.4188 H   0  0  0  0  0  0  0  0  0  0  0  0  # atno 10764 bound_to 10752
  153.4730  135.7087  153.6046 H   0  0  0  0  0  0  0  0  0  0  0  0  # atno 10765 bound_to 10752
  140.0564  134.5665  155.9203 H   0  0  0  0  0  0  0  0  0  0  0  0  # atno 11005 bound_to 11000
  145.2513  139.2030  143.4941 LP  0  0  0  0  0  0  0  0  0  0  0  0  # atno 17320 bound_to 7965
  146.3391  140.2427  142.8596 LP  0  0  0  0  0  0  0  0  0  0  0  0  # atno 17321 bound_to 7965
  140.1171  143.4646  152.2335 LP  0  0  0  0  0  0  0  0  0  0  0  0  # atno 17342 bound_to 10162
  139.5738  144.7477  151.3819 LP  0  0  0  0  0  0  0  0  0  0  0  0  # atno 17343 bound_to 10162
  157.0026  130.5606  149.5313 LP  0  0  0  0  0  0  0  0  0  0  0  0  # atno 17370 bound_to 10713
  156.0255  130.5349  150.8394 LP  0  0  0  0  0  0  0  0  0  0  0  0  # atno 17371 bound_to 10713
  141.1953  133.6587  156.5639 LP  0  0  0  0  0  0  0  0  0  0  0  0  # atno 17394 bound_to 11000
  140.3838  134.7500  157.4678 LP  0  0  0  0  0  0  0  0  0  0  0  0  # atno 17395 bound_to 11000

$$$$
