#       Name:                AV-unprocessed.smi:1537
#       Creating user name   scv26
#       Creation time:       Fri Mar 27 06:35:33 2020


#       File generated by GOLD software.
#

@<TRIPOS>MOLECULE
AV-unprocessed.smi:1537
    48    48     1
SMALL
NO_CHARGES


@<TRIPOS>ATOM
      1 ****        -1.9749   4.6832   3.1513 C.3            1 S1                 0.0000
      2 ****        -3.3375   3.9825   3.1799 C.3            1 S1                 0.0000
      3 ****        -3.4603   2.9274   2.1324 C.2            1 S1                 0.0000
      4 ****        -3.0736   1.6617   2.3123 N.2            1 S1                 0.0000
      5 ****        -3.2508   0.8754   1.1686 C.2            1 S1                 0.0000
      6 ****        -2.8642  -0.5784   1.1823 C.3            1 S1                 0.0000
      7 ****        -1.3462  -0.7748   1.0728 C.2            1 S1                 0.0000
      8 ****        -0.8046  -1.6853   1.6996 O.2            1 S1                 0.0000
      9 ****        -0.6702   0.0597   0.2644 N.am           1 S1                 0.0000
     10 ****         0.7672   0.0151   0.0067 C.3            1 S1                 0.0000
     11 ****         1.2083   1.4163  -0.4480 C.3            1 S1                 0.0000
     12 ****         1.0781  -0.9698  -1.1315 C.2            1 S1                 0.0000
     13 ****         0.3211  -1.0626  -2.0991 O.2            1 S1                 0.0000
     14 ****         2.2124  -1.6802  -0.9975 N.am           1 S1                 0.0000
     15 ****         2.7777  -2.6785  -1.9129 C.3            1 S1                 0.0000
     16 ****         4.0870  -3.1784  -1.2780 C.3            1 S1                 0.0000
     17 ****         3.0974  -2.0431  -3.2826 C.3            1 S1                 0.0000
     18 ****         1.8134  -3.8721  -2.0784 C.3            1 S1                 0.0000
     19 ****        -3.7832   1.5727   0.1119 C.2            1 S1                 0.0000
     20 ****        -4.0633   3.2450   0.5101 S.3            1 S1                 0.0000
     21 ****        -1.9158   5.4499   3.9240 H              1 S1                 0.0000
     22 ****        -1.8006   5.1653   2.1890 H              1 S1                 0.0000
     23 ****        -1.1646   3.9738   3.3227 H              1 S1                 0.0000
     24 ****        -3.5035   3.5294   4.1580 H              1 S1                 0.0000
     25 ****        -4.1341   4.7126   3.0346 H              1 S1                 0.0000
     26 ****        -3.2205  -1.0552   2.0964 H              1 S1                 0.0000
     27 ****        -3.3379  -1.1086   0.3556 H              1 S1                 0.0000
     28 ****        -1.1951   0.7740  -0.2191 H              1 S1                 0.0000
     29 ****         1.3073  -0.2654   0.9134 H              1 S1                 0.0000
     30 ****         2.2783   1.4473  -0.6576 H              1 S1                 0.0000
     31 ****         1.0093   2.1564   0.3279 H              1 S1                 0.0000
     32 ****         0.6827   1.7361  -1.3492 H              1 S1                 0.0000
     33 ****         2.7471  -1.5129  -0.1575 H              1 S1                 0.0000
     34 ****         4.5686  -3.9319  -1.9025 H              1 S1                 0.0000
     35 ****         3.9097  -3.6288  -0.3004 H              1 S1                 0.0000
     36 ****         4.7993  -2.3640  -1.1406 H              1 S1                 0.0000
     37 ****         3.7491  -1.1752  -3.1752 H              1 S1                 0.0000
     38 ****         2.1978  -1.7174  -3.8049 H              1 S1                 0.0000
     39 ****         3.6046  -2.7540  -3.9358 H              1 S1                 0.0000
     40 ****         2.2648  -4.6592  -2.6832 H              1 S1                 0.0000
     41 ****         0.8846  -3.5851  -2.5715 H              1 S1                 0.0000
     42 ****         1.5533  -4.3088  -1.1134 H              1 S1                 0.0000
     43 ****        -4.0172   1.2069  -0.8769 H              1 S1                 0.0000
     44 ****        -2.6981   1.3137   3.1714 LP             1 S1                 0.0000
     45 ****        -1.3534  -2.2913   2.2756 LP             1 S1                 0.0000
     46 ****         0.1841  -1.8191   1.6329 LP             1 S1                 0.0000
     47 ****        -0.5010  -0.4953  -2.1470 LP             1 S1                 0.0000
     48 ****         0.5287  -1.7053  -2.8365 LP             1 S1                 0.0000
@<TRIPOS>BOND
    1    1    2 1     
    2    1   21 1     
    3    1   22 1     
    4    1   23 1     
    5    2    3 1     
    6    2   24 1     
    7    2   25 1     
    8    3   20 1     
    9    3    4 2     
   10    4    5 1     
   11    5    6 1     
   12    5   19 2     
   13    6    7 1     
   14    6   26 1     
   15    6   27 1     
   16    7    8 2     
   17    7    9 am    
   18    9   10 1     
   19    9   28 1     
   20   10   11 1     
   21   10   12 1     
   22   10   29 1     
   23   11   30 1     
   24   11   31 1     
   25   11   32 1     
   26   12   13 2     
   27   12   14 am    
   28   14   15 1     
   29   14   33 1     
   30   15   16 1     
   31   15   17 1     
   32   15   18 1     
   33   16   34 1     
   34   16   35 1     
   35   16   36 1     
   36   17   37 1     
   37   17   38 1     
   38   17   39 1     
   39   18   40 1     
   40   18   41 1     
   41   18   42 1     
   42   19   20 1     
   43   19   43 1     
   44    4   44 1     
   45    8   45 1     
   46    8   46 1     
   47   13   47 1     
   48   13   48 1     
@<TRIPOS>SUBSTRUCTURE
      1 S1             1
@<TRIPOS>SET
LONE_PAIRS      STATIC     ATOMS    <user>   **** ""
5 44 45 46 47 48
DONOR_HYDROGENS      STATIC     ATOMS    <user>   **** ""
2 28 33
ATOM$BLUE        STATIC     ATOMS    COLORGROUP SYSTEM
5 44 45 46 47 48
ATOM$RED        STATIC     ATOMS    COLORGROUP SYSTEM
2 28 33
