AV-unprocessed.smi:165|AV-procd|sdf|1386|dock5
  -GOLD-   2262019123D 1   1.00000     0.00000
 Structure written by MMmdl.
 55 59  0  0  0  0  0  0  0  0  1 V2000
  146.5934  132.5100  150.4176 O   0  0  0  0  0  0  0  0  0  0  0  0
  145.6235  132.2360  149.4257 C   0  0  0  0  0  0  0  0  0  0  0  0
  144.2743  132.9252  149.7030 C   0  0  0  0  0  0  0  0  0  0  0  0
  143.4489  132.7267  148.4142 C   0  0  0  0  0  0  0  0  0  0  0  0
  143.4379  133.8625  147.5730 O   0  0  0  0  0  0  0  0  0  0  0  0
  143.5731  132.5483  151.0281 C   0  0  0  0  0  0  0  0  0  0  0  0
  143.2681  134.0263  151.2987 C   0  0  0  0  0  0  0  0  0  0  0  0
  143.3304  134.5603  152.6284 N   0  0  0  0  0  0  0  0  0  0  0  0
  142.2764  134.7361  153.4963 C   0  0  0  0  0  0  0  0  0  0  0  0
  142.5946  135.2054  154.6717 N   0  0  0  0  0  0  0  0  0  0  0  0
  143.9790  135.3212  154.6278 C   0  0  0  0  0  0  0  0  0  0  0  0
  144.9671  135.7563  155.5557 C   0  0  0  0  0  0  0  0  0  0  0  0
  144.6596  136.1784  156.8081 N   0  0  0  0  0  0  0  0  0  0  0  0
  145.7972  136.3333  157.7052 C   0  0  0  0  0  0  0  0  0  0  0  0
  145.3064  136.4435  159.1551 C   0  0  0  0  0  0  0  0  0  0  0  0
  144.3463  137.4926  159.2678 O   0  0  0  0  0  0  0  0  0  0  0  0
  143.1957  137.3641  158.4242 C   0  0  2  0  0  0  0  0  0  0  0  0
  142.4009  138.6668  158.6433 C   0  0  0  0  0  0  0  0  0  0  0  0
  141.0066  138.5894  158.0108 C   0  0  0  0  0  0  0  0  0  0  0  0
  140.2738  137.3335  158.5004 C   0  0  0  0  0  0  0  0  0  0  0  0
  141.0524  136.1812  158.2048 O   0  0  0  0  0  0  0  0  0  0  0  0
  142.3144  136.1657  158.8664 C   0  0  0  0  0  0  0  0  0  0  0  0
  143.6666  137.2394  156.9543 C   0  0  0  0  0  0  0  0  0  0  0  0
  146.2631  135.7371  155.1434 N   0  0  0  0  0  0  0  0  0  0  0  0
  146.5747  135.3119  153.9156 C   0  0  0  0  0  0  0  0  0  0  0  0
  145.7615  134.8771  152.9517 N   0  0  0  0  0  0  0  0  0  0  0  0
  144.4583  134.9072  153.3525 C   0  0  0  0  0  0  0  0  0  0  0  0
  144.3408  134.3672  150.2568 C   0  0  0  0  0  0  0  0  0  0  0  0
  147.3068  131.8981  150.3191 H   0  0  0  0  0  0  0  0  0  0  0  0
  146.0320  132.5537  148.4658 H   0  0  0  0  0  0  0  0  0  0  0  0
  145.5013  131.1536  149.3721 H   0  0  0  0  0  0  0  0  0  0  0  0
  143.8375  131.8899  147.8325 H   0  0  0  0  0  0  0  0  0  0  0  0
  142.4127  132.4853  148.6535 H   0  0  0  0  0  0  0  0  0  0  0  0
  144.3169  134.2049  147.5179 H   0  0  0  0  0  0  0  0  0  0  0  0
  142.6860  131.9242  150.9147 H   0  0  0  0  0  0  0  0  0  0  0  0
  144.2459  132.1240  151.7745 H   0  0  0  0  0  0  0  0  0  0  0  0
  142.2773  134.2852  150.9243 H   0  0  0  0  0  0  0  0  0  0  0  0
  141.2541  134.5134  153.2274 H   0  0  0  0  0  0  0  0  0  0  0  0
  146.4960  135.5020  157.6193 H   0  0  0  0  0  0  0  0  0  0  0  0
  146.3435  137.2358  157.4281 H   0  0  0  0  0  0  0  0  0  0  0  0
  144.8882  135.4971  159.4978 H   0  0  0  0  0  0  0  0  0  0  0  0
  146.1447  136.6666  159.8150 H   0  0  0  0  0  0  0  0  0  0  0  0
  142.2873  138.8436  159.7139 H   0  0  0  0  0  0  0  0  0  0  0  0
  142.9480  139.5247  158.2510 H   0  0  0  0  0  0  0  0  0  0  0  0
  140.4319  139.4813  158.2608 H   0  0  0  0  0  0  0  0  0  0  0  0
  141.0887  138.5676  156.9238 H   0  0  0  0  0  0  0  0  0  0  0  0
  140.0772  137.3883  159.5723 H   0  0  0  0  0  0  0  0  0  0  0  0
  139.3081  137.2444  158.0027 H   0  0  0  0  0  0  0  0  0  0  0  0
  142.7958  135.2143  158.6417 H   0  0  0  0  0  0  0  0  0  0  0  0
  142.1544  136.1867  159.9455 H   0  0  0  0  0  0  0  0  0  0  0  0
  144.1109  138.1799  156.6251 H   0  0  0  0  0  0  0  0  0  0  0  0
  142.8136  137.0425  156.3033 H   0  0  0  0  0  0  0  0  0  0  0  0
  147.6262  135.3238  153.6694 H   0  0  0  0  0  0  0  0  0  0  0  0
  145.2997  134.6133  150.7144 H   0  0  0  0  0  0  0  0  0  0  0  0
  144.0440  135.1423  149.5497 H   0  0  0  0  0  0  0  0  0  0  0  0
  1  2  1  0  0  0  0
  1 29  1  0  0  0  0
  2  3  1  0  0  0  0
  2 30  1  0  0  0  0
  2 31  1  0  0  0  0
  3 28  1  0  0  0  0
  3  4  1  0  0  0  0
  3  6  1  0  0  0  0
  4  5  1  0  0  0  0
  4 32  1  0  0  0  0
  4 33  1  0  0  0  0
  5 34  1  0  0  0  0
  6  7  1  0  0  0  0
  6 35  1  0  0  0  0
  6 36  1  0  0  0  0
  7  8  1  0  0  0  0
  7 28  1  0  0  0  0
  7 37  1  0  0  0  0
  8 27  1  0  0  0  0
  8  9  1  0  0  0  0
  9 10  2  0  0  0  0
  9 38  1  0  0  0  0
 10 11  1  0  0  0  0
 11 27  2  0  0  0  0
 11 12  1  0  0  0  0
 12 13  1  0  0  0  0
 12 24  2  0  0  0  0
 13 23  1  0  0  0  0
 13 14  1  0  0  0  0
 14 15  1  0  0  0  0
 14 39  1  0  0  0  0
 14 40  1  0  0  0  0
 15 16  1  0  0  0  0
 15 41  1  0  0  0  0
 15 42  1  0  0  0  0
 16 17  1  0  0  0  0
 17 22  1  0  0  0  0
 17 18  1  0  0  0  0
 17 23  1  0  0  0  0
 18 19  1  0  0  0  0
 18 43  1  0  0  0  0
 18 44  1  0  0  0  0
 19 20  1  0  0  0  0
 19 45  1  0  0  0  0
 19 46  1  0  0  0  0
 20 21  1  0  0  0  0
 20 47  1  0  0  0  0
 20 48  1  0  0  0  0
 21 22  1  0  0  0  0
 22 49  1  0  0  0  0
 22 50  1  0  0  0  0
 23 51  1  0  0  0  0
 23 52  1  0  0  0  0
 24 25  1  0  0  0  0
 25 26  2  0  0  0  0
 25 53  1  0  0  0  0
 26 27  1  0  0  0  0
 28 54  1  0  0  0  0
 28 55  1  0  0  0  0
M  END
> <s_m_source_file>
AV-unprocessed.smi

> <i_m_source_file_index>
165

> <i_lp_mmshare_version>
43012

> <i_f3d_flags>
0

> <s_epik_input>
W09IXVtDSDJdQzEoW0NIMl1bT0hdKVtDSDJdW0NIXShbQ0gyXTEpbihbY0hdbjIpYyhjMjMpbltjSF1uYzNOKFtDSDJdNClbQ0gyXVtDSDJdT1tDQEBdNDVbQ0gyXVtDSDJdW0NIMl1PW0NIMl01

> <s_epik_cmdline>
J2VwaWtfcHl0aG9uJywgJy1waCcsICc3LjAnLCAnLXRuJywgJzgnLCAnLW1hJywgJzIwMCcsICctbWV0YWxfYmluZGluZycsICctaW1hZScsICc8aW5maWxlLm1hZT4nLCAnLW9tYWUnLCAnPG91dGZpbGUubWFlPic=

> <r_lp_tautomer_probability>
1

> <r_epik_Ionization_Penalty>
0.00466923

> <r_epik_Ionization_Penalty_Charging>
0

> <r_epik_Ionization_Penalty_Neutral>
0.00466923

> <r_epik_State_Penalty>
0.0032353

> <r_epik_Charging_Adjusted_Penalty>
0.0032353

> <i_epik_Tot_Q>
0

> <i_epik_Tot_abs_Q>
0

> <r_epik_Metal_State_Penalty>
-0

> <b_epik_Metal_Only>
0

> <s_lp_Force_Field>
OPLS_2005

> <r_lp_Energy>
54.9184

> <b_lp_Chiralities_Consistent>
1

> <s_lp_Variant>
AV-unprocessed.smi:165-1

> <Gold.Version>
5.8.1

> <Gold.Id.Protein>
6NUR|6NUR_protein|mol2

> <Gold.PLP.Fitness>
45.1095

> <Gold.PLP.PLP>
-33.0126

> <Gold.PLP.part.hbond>
-6.0826

> <Gold.PLP.part.metal>
0.0000

> <Gold.PLP.part.buried>
-3.0716

> <Gold.PLP.part.nonpolar>
-23.7919

> <Gold.PLP.part.repulsive>
0.2017

> <Gold.PLP.ligand.clash>
0.0000

> <Gold.PLP.ligand.torsion>
1.7471

> <Gold.PLP.Chemscore.Hbond>
3.9673

> <Gold.PLP.Chemscore.CHOScore>
0.9976

> <Gold.PLP.Chemscore.Metal>
0.0000

> <Gold.Chemscore.Hbonds>
donor molecule, donor type, donor heavy atom, donor atom, acceptor molecule, acceptor atom, score
      L1  H     1    29       P1 10747  1.00
      L1  H     5    34       P1  7921  1.00
      P1  H 10192 10197       L1     5  1.00
      P1  H 11000 11005       L1    21  1.00
      L1  C    25    53       P1  7948  1.00

> <Gold.PLP.Chemscore.Internal.Correction>
0.6965

> <Gold.Rescore>
     Score         DG    S(hbond)    S(metal)    S(lipo)     H(rot)  DE(clash)    DE(int)     intcor
     15.71     -17.88       3.86        0.00      64.29       3.14       0.57       1.60       ----

> <Gold.Chemscore.Fitness>
15.7069

> <Gold.Chemscore.DG>
-17.8819

> <Gold.Chemscore.ZeroCoef>
-5.4800

> <Gold.Chemscore.Hbond>
3.8640

> <Gold.Chemscore.Metal>
0.0000

> <Gold.Chemscore.Lipo>
64.2919

> <Gold.Chemscore.Internal_Hbond>
0.0000

> <Gold.Chemscore.DEClash>
0.5736

> <Gold.Chemscore.DEInternal>
1.6014

> <Gold.Chemscore.Rot>
3.1351

> <Gold.Chemscore.Internal.Correction>
   9.000000E+99

> <Gold.Chemscore.Hbonds>
donor molecule, donor type, donor heavy atom, donor atom, acceptor molecule, acceptor atom, score
      L1  H     1    29       P1 10747  0.99
      L1  H     5    34       P1  7921  1.00
      P1  H 10192 10197       L1     5  0.89
      P1  H 11000 11005       L1    21  0.94

> <Gold.Chemscore.Hbond.Weighted>
-12.9057

> <Gold.Chemscore.Metal.Weighted>
-0.0000

> <Gold.Chemscore.Lipo.Weighted>
-7.5221

> <Gold.Chemscore.Internal_Hbond.Weighted>
0.0000

> <Gold.Chemscore.DEClash.Weighted>
0.5736

> <Gold.Chemscore.DEInternal.Weighted>
1.6014

> <Gold.Chemscore.Rot.Weighted>
8.0260

> <Gold.Chemscore.Internal.Correction.Weighted>
   9.000000E+99

> <Gold.Protein.RotatedTorsions>
[ 6907 6896 6895 6894 ] final  149.87 input  -60.11 | X-H torsion
[ 7974 7965 7964 7962 ] final -151.94 input  175.53 | X-H torsion
[ 8008 7997 7996 7995 ] final  110.66 input   59.86 | X-H torsion
[ 10167 10162 10161 10158 ] final  130.89 input  -65.29 | X-H torsion
[ 10718 10713 10712 10709 ] final -141.31 input   66.30 | X-H torsion
[ 10763 10752 10751 10750 ] final  143.13 input  -60.55 | X-H torsion
[ 11005 11000 10999 10996 ] final  173.47 input  -57.11 | X-H torsion

> <Gold.Protein.ActiveResidues>
 VAL166  LYS551  ARG553  GLY616  TRP617  ASP618  TYR619  PRO620  LYS621  CYS622 
 ASP623  PHE694  ASN695  SER759  ASP760  ASP761  ALA762  ILE779  LEU786  VAL792 
 PHE793  MET794  SER795  GLU796  ALA797  LYS798  CYS799  TRP800  GLU811  SER814 

> <Gold.Protein.RotatedAtoms>
  152.1222  133.4360  159.4680 H   0  0  0  0  0  0  0  0  0  0  0  0  # atno 6907 bound_to 6896
  150.6872  134.2521  159.4524 H   0  0  0  0  0  0  0  0  0  0  0  0  # atno 6908 bound_to 6896
  152.0398  134.9717  160.0624 H   0  0  0  0  0  0  0  0  0  0  0  0  # atno 6909 bound_to 6896
  144.7822  140.4729  143.5831 H   0  0  0  0  0  0  0  0  0  0  0  0  # atno 7974 bound_to 7965
  156.2069  140.3034  155.9647 H   0  0  0  0  0  0  0  0  0  0  0  0  # atno 8008 bound_to 7997
  155.2819  140.0438  157.3033 H   0  0  0  0  0  0  0  0  0  0  0  0  # atno 8009 bound_to 7997
  154.5645  140.2330  155.8293 H   0  0  0  0  0  0  0  0  0  0  0  0  # atno 8010 bound_to 7997
  139.5409  144.6729  151.4628 H   0  0  0  0  0  0  0  0  0  0  0  0  # atno 10167 bound_to 10162
  156.3325  130.7594  151.1714 H   0  0  0  0  0  0  0  0  0  0  0  0  # atno 10718 bound_to 10713
  153.9672  135.2954  155.3430 H   0  0  0  0  0  0  0  0  0  0  0  0  # atno 10763 bound_to 10752
  154.7342  135.5054  153.9017 H   0  0  0  0  0  0  0  0  0  0  0  0  # atno 10764 bound_to 10752
  153.0918  135.6710  153.9951 H   0  0  0  0  0  0  0  0  0  0  0  0  # atno 10765 bound_to 10752
  140.3408  134.7278  157.4201 H   0  0  0  0  0  0  0  0  0  0  0  0  # atno 11005 bound_to 11000
  145.6020  139.1504  143.3123 LP  0  0  0  0  0  0  0  0  0  0  0  0  # atno 17320 bound_to 7965
  146.2035  140.6141  142.9091 LP  0  0  0  0  0  0  0  0  0  0  0  0  # atno 17321 bound_to 7965
  140.6638  143.8441  150.6918 LP  0  0  0  0  0  0  0  0  0  0  0  0  # atno 17342 bound_to 10162
  140.1844  143.4088  152.1909 LP  0  0  0  0  0  0  0  0  0  0  0  0  # atno 17343 bound_to 10162
  157.7433  131.0477  150.4958 LP  0  0  0  0  0  0  0  0  0  0  0  0  # atno 17370 bound_to 10713
  156.5126  130.4143  149.6293 LP  0  0  0  0  0  0  0  0  0  0  0  0  # atno 17371 bound_to 10713
  140.0782  134.5767  155.8568 LP  0  0  0  0  0  0  0  0  0  0  0  0  # atno 17394 bound_to 11000
  141.2039  133.6635  156.6088 LP  0  0  0  0  0  0  0  0  0  0  0  0  # atno 17395 bound_to 11000

$$$$
