AV-unprocessed.smi:2919|AV-procd|sdf|11194|dock2
  -GOLD-   2272016 83D 1   1.00000     0.00000
 Structure written by MMmdl.
 34 36  0  0  0  0  0  0  0  0  1 V2000
  147.8435  140.3915  153.3692 C   0  0  0  0  0  0  0  0  0  0  0  0
  148.9086  140.6868  154.4104 C   0  0  0  0  0  0  0  0  0  0  0  0
  148.6795  141.7838  155.1651 N   0  0  0  0  0  0  0  0  0  0  0  0
  149.5458  142.1461  156.1121 N   0  0  0  0  0  0  0  0  0  0  0  0
  150.6698  141.4251  156.3409 C   0  0  0  0  0  0  0  0  0  0  0  0
  151.5355  141.8714  157.3562 N   0  0  0  0  0  0  0  0  0  0  0  0
  151.0109  142.3367  158.6368 C   0  0  2  0  0  0  0  0  0  0  0  0
  150.3002  143.6882  158.5340 C   0  0  0  0  0  0  0  0  0  0  0  0
  151.0289  144.5108  159.6060 C   0  0  2  0  0  0  0  0  0  0  0  0
  152.4314  144.9247  159.1420 C   0  0  0  0  0  0  0  0  0  0  0  0
  153.1864  143.5991  159.2168 C   0  0  0  0  0  0  0  0  0  0  0  0
  152.0891  142.6344  159.6987 C   0  0  1  0  0  0  0  0  0  0  0  0
  151.3551  143.5013  160.5468 O   0  0  0  0  0  0  0  0  0  0  0  0
  150.9749  140.2635  155.5849 C   0  0  0  0  0  0  0  0  0  0  0  0
  152.1889  139.4897  155.8372 C   0  0  0  0  0  0  0  0  0  0  0  0
  153.1502  138.8771  156.0365 N   0  0  0  0  0  0  0  0  0  0  0  0
  150.0563  139.8744  154.5778 C   0  0  0  0  0  0  0  0  0  0  0  0
  150.3004  138.6368  153.7177 C   0  0  0  0  0  0  0  0  0  0  0  0
  148.2771  140.3933  152.3689 H   0  0  0  0  0  0  0  0  0  0  0  0
  147.0473  141.1370  153.3883 H   0  0  0  0  0  0  0  0  0  0  0  0
  147.3908  139.4169  153.5529 H   0  0  0  0  0  0  0  0  0  0  0  0
  152.4944  141.5554  157.3354 H   0  0  0  0  0  0  0  0  0  0  0  0
  150.3036  141.6040  159.0283 H   0  0  0  0  0  0  0  0  0  0  0  0
  150.3705  144.1501  157.5482 H   0  0  0  0  0  0  0  0  0  0  0  0
  149.2434  143.5779  158.7796 H   0  0  0  0  0  0  0  0  0  0  0  0
  150.4376  145.3318  160.0122 H   0  0  0  0  0  0  0  0  0  0  0  0
  152.4278  145.3549  158.1399 H   0  0  0  0  0  0  0  0  0  0  0  0
  152.8690  145.6531  159.8256 H   0  0  0  0  0  0  0  0  0  0  0  0
  153.6290  143.3059  158.2647 H   0  0  0  0  0  0  0  0  0  0  0  0
  153.9886  143.6628  159.9529 H   0  0  0  0  0  0  0  0  0  0  0  0
  152.4745  141.7460  160.1999 H   0  0  0  0  0  0  0  0  0  0  0  0
  150.4025  137.7531  154.3484 H   0  0  0  0  0  0  0  0  0  0  0  0
  151.2196  138.7542  153.1430 H   0  0  0  0  0  0  0  0  0  0  0  0
  149.4975  138.4364  153.0107 H   0  0  0  0  0  0  0  0  0  0  0  0
  1  2  1  0  0  0  0
  1 19  1  0  0  0  0
  1 20  1  0  0  0  0
  1 21  1  0  0  0  0
  2 17  1  0  0  0  0
  2  3  2  0  0  0  0
  3  4  1  0  0  0  0
  4  5  2  0  0  0  0
  5  6  1  0  0  0  0
  5 14  1  0  0  0  0
  6  7  1  0  0  0  0
  6 22  1  0  0  0  0
  7 12  1  0  0  0  0
  7  8  1  0  0  0  0
  7 23  1  0  0  0  0
  8  9  1  0  0  0  0
  8 24  1  0  0  0  0
  8 25  1  0  0  0  0
  9 13  1  0  0  0  0
  9 10  1  0  0  0  0
  9 26  1  0  0  0  0
 10 11  1  0  0  0  0
 10 27  1  0  0  0  0
 10 28  1  0  0  0  0
 11 12  1  0  0  0  0
 11 29  1  0  0  0  0
 11 30  1  0  0  0  0
 12 13  1  0  0  0  0
 12 31  1  0  0  0  0
 14 15  1  0  0  0  0
 14 17  2  0  0  0  0
 15 16  3  0  0  0  0
 17 18  1  0  0  0  0
 18 32  1  0  0  0  0
 18 33  1  0  0  0  0
 18 34  1  0  0  0  0
M  END
> <s_m_source_file>
AV-unprocessed.smi

> <i_m_source_file_index>
2919

> <i_lp_mmshare_version>
43012

> <i_f3d_flags>
0

> <s_epik_input>
W0NIM11jMW5uYyhjKEMjTiljMVtDSDNdKVtOSF1bQ0BIXShbQ0gyXVtDQEBIXTIzKVtDQEBIXShPMylbQ0gyXVtDSDJdMg==

> <s_epik_cmdline>
J2VwaWtfcHl0aG9uJywgJy1waCcsICc3LjAnLCAnLXRuJywgJzgnLCAnLW1hJywgJzIwMCcsICctbWV0YWxfYmluZGluZycsICctaW1hZScsICc8aW5maWxlLm1hZT4nLCAnLW9tYWUnLCAnPG91dGZpbGUubWFlPic=

> <r_lp_tautomer_probability>
1

> <r_epik_Ionization_Penalty>
0.00143865

> <r_epik_Ionization_Penalty_Charging>
0

> <r_epik_Ionization_Penalty_Neutral>
0.00143865

> <r_epik_State_Penalty>
-0

> <r_epik_Charging_Adjusted_Penalty>
0

> <i_epik_Tot_Q>
0

> <i_epik_Tot_abs_Q>
0

> <r_epik_Metal_State_Penalty>
-0

> <b_epik_Metal_Only>
0

> <s_lp_Force_Field>
OPLS_2005

> <r_lp_Energy>
49.1594

> <b_lp_Chiralities_Consistent>
1

> <s_lp_Variant>
AV-unprocessed.smi:2919-3

> <Gold.Version>
5.8.1

> <Gold.Id.Protein>
6NUR|6NUR_protein|mol2

> <Gold.PLP.Fitness>
39.1265

> <Gold.PLP.PLP>
-36.9694

> <Gold.PLP.part.hbond>
-1.2180

> <Gold.PLP.part.metal>
0.0000

> <Gold.PLP.part.buried>
-2.0640

> <Gold.PLP.part.nonpolar>
-33.8317

> <Gold.PLP.part.repulsive>
1.3938

> <Gold.PLP.ligand.clash>
0.0000

> <Gold.PLP.ligand.torsion>
0.4277

> <Gold.PLP.Chemscore.Hbond>
1.0000

> <Gold.PLP.Chemscore.CHOScore>
0.0000

> <Gold.PLP.Chemscore.Metal>
0.0000

> <Gold.Chemscore.Hbonds>
donor molecule, donor type, donor heavy atom, donor atom, acceptor molecule, acceptor atom, score
      P1  H  7997  8009       L1    16  0.99

> <Gold.PLP.Chemscore.Internal.Correction>
0.0125

> <Gold.Rescore>
     Score         DG    S(hbond)    S(metal)    S(lipo)     H(rot)  DE(clash)    DE(int)     intcor
     16.54     -17.07       0.99        0.00      92.56       1.00       0.01       0.51       ----

> <Gold.Chemscore.Fitness>
16.5405

> <Gold.Chemscore.DG>
-17.0678

> <Gold.Chemscore.ZeroCoef>
-5.4800

> <Gold.Chemscore.Hbond>
0.9936

> <Gold.Chemscore.Metal>
0.0000

> <Gold.Chemscore.Lipo>
92.5568

> <Gold.Chemscore.Internal_Hbond>
0.0000

> <Gold.Chemscore.DEClash>
0.0126

> <Gold.Chemscore.DEInternal>
0.5147

> <Gold.Chemscore.Rot>
1.0000

> <Gold.Chemscore.Internal.Correction>
   9.000000E+99

> <Gold.Chemscore.Hbonds>
donor molecule, donor type, donor heavy atom, donor atom, acceptor molecule, acceptor atom, score
      P1  H  7997  8009       L1    16  0.33

> <Gold.Chemscore.Hbond.Weighted>
-3.3186

> <Gold.Chemscore.Metal.Weighted>
-0.0000

> <Gold.Chemscore.Lipo.Weighted>
-10.8291

> <Gold.Chemscore.Internal_Hbond.Weighted>
0.0000

> <Gold.Chemscore.DEClash.Weighted>
0.0126

> <Gold.Chemscore.DEInternal.Weighted>
0.5147

> <Gold.Chemscore.Rot.Weighted>
2.5600

> <Gold.Chemscore.Internal.Correction.Weighted>
   9.000000E+99

> <Gold.Protein.RotatedTorsions>
[ 6907 6896 6895 6894 ] final -118.26 input  -60.11 | X-H torsion
[ 7974 7965 7964 7962 ] final  167.93 input  175.53 | X-H torsion
[ 8008 7997 7996 7995 ] final -146.53 input   59.86 | X-H torsion
[ 10167 10162 10161 10158 ] final   83.58 input  -65.29 | X-H torsion
[ 10718 10713 10712 10709 ] final   42.30 input   66.30 | X-H torsion
[ 10763 10752 10751 10750 ] final  161.21 input  -60.55 | X-H torsion
[ 11005 11000 10999 10996 ] final  -10.16 input  -57.11 | X-H torsion

> <Gold.Protein.ActiveResidues>
 VAL166  LYS551  ARG553  GLY616  TRP617  ASP618  TYR619  PRO620  LYS621  CYS622 
 ASP623  PHE694  ASN695  SER759  ASP760  ASP761  ALA762  ILE779  LEU786  VAL792 
 PHE793  MET794  SER795  GLU796  ALA797  LYS798  CYS799  TRP800  GLU811  SER814 

> <Gold.Protein.RotatedAtoms>
  150.8204  133.8262  159.3141 H   0  0  0  0  0  0  0  0  0  0  0  0  # atno 6907 bound_to 6896
  151.6022  135.1045  160.0072 H   0  0  0  0  0  0  0  0  0  0  0  0  # atno 6908 bound_to 6896
  152.4294  133.7210  159.6590 H   0  0  0  0  0  0  0  0  0  0  0  0  # atno 6909 bound_to 6896
  144.7406  139.8833  143.6398 H   0  0  0  0  0  0  0  0  0  0  0  0  # atno 7974 bound_to 7965
  155.5608  140.0625  157.2829 H   0  0  0  0  0  0  0  0  0  0  0  0  # atno 8008 bound_to 7997
  154.4391  140.1886  156.0826 H   0  0  0  0  0  0  0  0  0  0  0  0  # atno 8009 bound_to 7997
  156.0448  140.3291  155.7288 H   0  0  0  0  0  0  0  0  0  0  0  0  # atno 8010 bound_to 7997
  139.9169  144.6237  150.8480 H   0  0  0  0  0  0  0  0  0  0  0  0  # atno 10167 bound_to 10162
  157.4033  130.7872  149.7367 H   0  0  0  0  0  0  0  0  0  0  0  0  # atno 10718 bound_to 10713
  154.2594  135.2769  155.2784 H   0  0  0  0  0  0  0  0  0  0  0  0  # atno 10763 bound_to 10752
  154.5397  135.5706  153.6832 H   0  0  0  0  0  0  0  0  0  0  0  0  # atno 10764 bound_to 10752
  152.9965  135.6248  154.2744 H   0  0  0  0  0  0  0  0  0  0  0  0  # atno 10765 bound_to 10752
  140.7418  133.8664  155.8974 H   0  0  0  0  0  0  0  0  0  0  0  0  # atno 11005 bound_to 11000
  146.1195  139.4211  143.0237 LP  0  0  0  0  0  0  0  0  0  0  0  0  # atno 17320 bound_to 7965
  145.7325  141.0037  143.1344 LP  0  0  0  0  0  0  0  0  0  0  0  0  # atno 17321 bound_to 7965
  140.7672  143.3325  151.2380 LP  0  0  0  0  0  0  0  0  0  0  0  0  # atno 17342 bound_to 10162
  139.6895  143.9717  152.2851 LP  0  0  0  0  0  0  0  0  0  0  0  0  # atno 17343 bound_to 10162
  155.9829  130.4005  150.3390 LP  0  0  0  0  0  0  0  0  0  0  0  0  # atno 17370 bound_to 10713
  157.1520  131.0323  151.2881 LP  0  0  0  0  0  0  0  0  0  0  0  0  # atno 17371 bound_to 10713
  140.9829  134.1381  157.4478 LP  0  0  0  0  0  0  0  0  0  0  0  0  # atno 17394 bound_to 11000
  139.8804  135.0016  156.6079 LP  0  0  0  0  0  0  0  0  0  0  0  0  # atno 17395 bound_to 11000

$$$$
