#       Name:                AV-unprocessed.smi:1459
#       Creating user name   scv26
#       Creation time:       Fri Mar 27 06:00:48 2020


#       File generated by GOLD software.
#

@<TRIPOS>MOLECULE
AV-unprocessed.smi:1459
    41    42     1
SMALL
NO_CHARGES


@<TRIPOS>ATOM
      1 ****        -6.0683   2.3753  -0.8423 C.3            1 S1                 0.0000
      2 ****        -4.6165   2.0425  -0.7947 C.2            1 S1                 0.0000
      3 ****        -3.9238   0.8755  -0.9547 C.2            1 S1                 0.0000
      4 ****        -2.5731   1.2784  -0.7799 C.2            1 S1                 0.0000
      5 ****        -1.5151   0.3380  -0.8713 N.am           1 S1                 0.0000
      6 ****        -0.1993   0.5673  -0.7224 C.2            1 S1                 0.0000
      7 ****         0.3048   1.6626  -0.4734 O.2            1 S1                 0.0000
      8 ****         0.5093  -0.5618  -0.8739 N.am           1 S1                 0.0000
      9 ****         1.9636  -0.6820  -0.7776 C.3            1 S1                 0.0000
     10 ****         2.4720  -1.4966  -1.9761 C.3            1 S1                 0.0000
     11 ****         2.3644  -1.3262   0.5660 C.3            1 S1                 0.0000
     12 ****         1.8952  -0.5710   1.8119 C.3            1 S1                 0.0000
     13 ****         2.8861  -1.0458   2.8492 C.3            1 S1                 0.0000
     14 ****         4.1760  -1.1078   2.0376 C.3            1 S1                 0.0000
     15 ****         3.7840  -1.3789   0.6941 O.3            1 S1                 0.0000
     16 ****        -2.4523   2.5743  -0.5352 N.2            1 S1                 0.0000
     17 ****        -3.7612   3.0706  -0.5439 O.3            1 S1                 0.0000
     18 ****        -6.6591   1.5040  -1.1255 H              1 S1                 0.0000
     19 ****        -6.2609   3.1640  -1.5696 H              1 S1                 0.0000
     20 ****        -6.4177   2.7191   0.1314 H              1 S1                 0.0000
     21 ****        -4.3224  -0.1062  -1.1632 H              1 S1                 0.0000
     22 ****        -1.7898  -0.6122  -1.0708 H              1 S1                 0.0000
     23 ****         0.0026  -1.4120  -1.0722 H              1 S1                 0.0000
     24 ****         2.4222   0.3066  -0.8354 H              1 S1                 0.0000
     25 ****         3.5591  -1.5798  -1.9645 H              1 S1                 0.0000
     26 ****         2.1916  -1.0245  -2.9184 H              1 S1                 0.0000
     27 ****         2.0620  -2.5070  -1.9740 H              1 S1                 0.0000
     28 ****         1.9920  -2.3509   0.6157 H              1 S1                 0.0000
     29 ****         1.9941   0.5063   1.6697 H              1 S1                 0.0000
     30 ****         0.8604  -0.7873   2.0789 H              1 S1                 0.0000
     31 ****         2.9565  -0.3838   3.7125 H              1 S1                 0.0000
     32 ****         2.6128  -2.0416   3.2008 H              1 S1                 0.0000
     33 ****         4.6860  -0.1442   2.0596 H              1 S1                 0.0000
     34 ****         4.8656  -1.8648   2.4120 H              1 S1                 0.0000
     35 ****        -0.2777   2.4684  -0.3665 LP             1 S1                 0.0000
     36 ****         1.2967   1.7464  -0.3781 LP             1 S1                 0.0000
     37 ****         4.1943  -0.6976   0.0880 LP             1 S1                 0.0000
     38 ****         4.1038  -2.2905   0.4358 LP             1 S1                 0.0000
     39 ****        -1.6085   3.0874  -0.3782 LP             1 S1                 0.0000
     40 ****        -3.9734   3.4754   0.3455 LP             1 S1                 0.0000
     41 ****        -3.8527   3.7658  -1.2569 LP             1 S1                 0.0000
@<TRIPOS>BOND
    1    1    2 1     
    2    1   18 1     
    3    1   19 1     
    4    1   20 1     
    5    2   17 1     
    6    2    3 2     
    7    3    4 1     
    8    3   21 1     
    9    4    5 1     
   10    4   16 2     
   11    5    6 am    
   12    5   22 1     
   13    6    7 2     
   14    6    8 am    
   15    8    9 1     
   16    8   23 1     
   17    9   10 1     
   18    9   11 1     
   19    9   24 1     
   20   10   25 1     
   21   10   26 1     
   22   10   27 1     
   23   11   15 1     
   24   11   12 1     
   25   11   28 1     
   26   12   13 1     
   27   12   29 1     
   28   12   30 1     
   29   13   14 1     
   30   13   31 1     
   31   13   32 1     
   32   14   15 1     
   33   14   33 1     
   34   14   34 1     
   35   16   17 1     
   36    7   35 1     
   37    7   36 1     
   38   15   37 1     
   39   15   38 1     
   40   16   39 1     
   41   17   40 1     
   42   17   41 1     
@<TRIPOS>SUBSTRUCTURE
      1 S1             1
@<TRIPOS>SET
LONE_PAIRS      STATIC     ATOMS    <user>   **** ""
7 35 36 37 38 39 40 41
DONOR_HYDROGENS      STATIC     ATOMS    <user>   **** ""
2 22 23
ATOM$BLUE        STATIC     ATOMS    COLORGROUP SYSTEM
7 35 36 37 38 39 40 41
ATOM$RED        STATIC     ATOMS    COLORGROUP SYSTEM
2 22 23
