AV-unprocessed.smi:564|AV-procd|sdf|2950|dock2
  -GOLD-   2262023453D 1   1.00000     0.00000
 Structure written by MMmdl.
 50 51  0  0  0  0  0  0  0  0  2 V2000
  146.3305  123.0308  148.1452 C   0  0  0  0  0  0  0  0  0  0  0  0
  147.7893  123.3744  148.0405 C   0  0  0  0  0  0  0  0  0  0  0  0
  148.3619  123.4084  146.8493 N   0  0  0  0  0  0  0  0  0  0  0  0
  149.6455  123.7402  147.0926 N   0  0  0  0  0  0  0  0  0  0  0  0
  150.5713  123.8624  145.9833 C   0  0  0  0  0  0  0  0  0  0  0  0
  149.8824  123.9263  148.4402 C   0  0  0  0  0  0  0  0  0  0  0  0
  151.2277  124.3066  148.9692 C   0  0  0  0  0  0  0  0  0  0  0  0
  148.6975  123.7032  149.0898 C   0  0  0  0  0  0  0  0  0  0  0  0
  148.4029  123.7961  150.5663 C   0  0  0  0  0  0  0  0  0  0  0  0
  148.8885  125.1502  151.0793 C   0  0  0  0  0  0  0  0  0  0  0  0
  149.9582  125.2372  151.6808 O   0  0  0  0  0  0  0  0  0  0  0  0
  148.1140  126.2068  150.7888 N   0  0  0  0  0  0  0  0  0  0  0  0
  148.4732  127.6018  151.0214 C   0  0  0  0  0  0  0  0  0  0  0  0
  147.7381  128.2073  152.2393 C   0  0  0  0  0  0  0  0  0  0  0  0
  147.2979  129.6182  152.0266 N   0  3  1  0  0  0  0  0  0  0  0  0
  145.9421  129.6670  151.4087 C   0  0  0  0  0  0  0  0  0  0  0  0
  145.5116  131.0985  151.0639 C   0  0  0  0  0  0  0  0  0  0  0  0
  145.5409  131.9783  152.3124 C   0  0  0  0  0  0  0  0  0  0  0  0
  146.9407  131.9317  152.9276 C   0  0  0  0  0  0  0  0  0  0  0  0
  147.3981  130.4896  153.2427 C   0  0  2  0  0  0  0  0  0  0  0  0
  148.8275  130.5529  153.8207 C   0  0  0  0  0  0  0  0  0  0  0  0
  145.7429  123.9062  148.4207 H   0  0  0  0  0  0  0  0  0  0  0  0
  146.1627  122.2650  148.9026 H   0  0  0  0  0  0  0  0  0  0  0  0
  145.9358  122.6520  147.2015 H   0  0  0  0  0  0  0  0  0  0  0  0
  151.4086  123.1793  146.1274 H   0  0  0  0  0  0  0  0  0  0  0  0
  150.9486  124.8838  145.9317 H   0  0  0  0  0  0  0  0  0  0  0  0
  150.0779  123.6218  145.0406 H   0  0  0  0  0  0  0  0  0  0  0  0
  151.1662  124.6291  150.0086 H   0  0  0  0  0  0  0  0  0  0  0  0
  151.6580  125.1268  148.3943 H   0  0  0  0  0  0  0  0  0  0  0  0
  151.9143  123.4615  148.9197 H   0  0  0  0  0  0  0  0  0  0  0  0
  147.3371  123.6936  150.7728 H   0  0  0  0  0  0  0  0  0  0  0  0
  148.8976  123.0000  151.1240 H   0  0  0  0  0  0  0  0  0  0  0  0
  147.2413  126.0337  150.3105 H   0  0  0  0  0  0  0  0  0  0  0  0
  149.5517  127.6469  151.1713 H   0  0  0  0  0  0  0  0  0  0  0  0
  148.2714  128.1923  150.1265 H   0  0  0  0  0  0  0  0  0  0  0  0
  146.8864  127.5862  152.5199 H   0  0  0  0  0  0  0  0  0  0  0  0
  148.4341  128.1422  153.0710 H   0  0  0  0  0  0  0  0  0  0  0  0
  145.9225  129.0759  150.4939 H   0  0  0  0  0  0  0  0  0  0  0  0
  145.2176  129.2166  152.0892 H   0  0  0  0  0  0  0  0  0  0  0  0
  146.1726  131.5129  150.3026 H   0  0  0  0  0  0  0  0  0  0  0  0
  144.5092  131.0941  150.6350 H   0  0  0  0  0  0  0  0  0  0  0  0
  145.2744  133.0046  152.0578 H   0  0  0  0  0  0  0  0  0  0  0  0
  144.8023  131.6294  153.0351 H   0  0  0  0  0  0  0  0  0  0  0  0
  147.6475  132.3984  152.2418 H   0  0  0  0  0  0  0  0  0  0  0  0
  146.9537  132.5360  153.8354 H   0  0  0  0  0  0  0  0  0  0  0  0
  146.7354  130.0799  154.0067 H   0  0  0  0  0  0  0  0  0  0  0  0
  148.9096  131.3382  154.5727 H   0  0  0  0  0  0  0  0  0  0  0  0
  149.5609  130.7669  153.0432 H   0  0  0  0  0  0  0  0  0  0  0  0
  149.1191  129.6300  154.3205 H   0  0  0  0  0  0  0  0  0  0  0  0
  147.9385  130.0146  151.3534 H   0  0  0  0  0  0  0  0  0  0  0  0
  1  2  1  0  0  0  0
  1 22  1  0  0  0  0
  1 23  1  0  0  0  0
  1 24  1  0  0  0  0
  2  8  1  0  0  0  0
  2  3  2  0  0  0  0
  3  4  1  0  0  0  0
  4  5  1  0  0  0  0
  4  6  1  0  0  0  0
  5 25  1  0  0  0  0
  5 26  1  0  0  0  0
  5 27  1  0  0  0  0
  6  7  1  0  0  0  0
  6  8  2  0  0  0  0
  7 28  1  0  0  0  0
  7 29  1  0  0  0  0
  7 30  1  0  0  0  0
  8  9  1  0  0  0  0
  9 10  1  0  0  0  0
  9 31  1  0  0  0  0
  9 32  1  0  0  0  0
 10 11  2  0  0  0  0
 10 12  1  0  0  0  0
 12 13  1  0  0  0  0
 12 33  1  0  0  0  0
 13 14  1  0  0  0  0
 13 34  1  0  0  0  0
 13 35  1  0  0  0  0
 14 15  1  0  0  0  0
 14 36  1  0  0  0  0
 14 37  1  0  0  0  0
 15 20  1  0  0  0  0
 15 16  1  0  0  0  0
 15 50  1  0  0  0  0
 16 17  1  0  0  0  0
 16 38  1  0  0  0  0
 16 39  1  0  0  0  0
 17 18  1  0  0  0  0
 17 40  1  0  0  0  0
 17 41  1  0  0  0  0
 18 19  1  0  0  0  0
 18 42  1  0  0  0  0
 18 43  1  0  0  0  0
 19 20  1  0  0  0  0
 19 44  1  0  0  0  0
 19 45  1  0  0  0  0
 20 21  1  0  0  0  0
 20 46  1  0  0  0  0
 21 47  1  0  0  0  0
 21 48  1  0  0  0  0
 21 49  1  0  0  0  0
M  CHG  1  15   1
M  END
> <s_m_source_file>
AV-unprocessed.smi

> <i_m_source_file_index>
564

> <i_lp_mmshare_version>
43012

> <i_f3d_flags>
0

> <s_epik_input>
W0NIM11jMW5uKFtDSDNdKWMoW0NIM10pYzFbQ0gyXUMoPU8pW05IXVtDSDJdW0NIMl1OMltDSDJdW0NIMl1bQ0gyXVtDSDJdW0NASF0yW0NIM10=

> <s_epik_cmdline>
J2VwaWtfcHl0aG9uJywgJy1waCcsICc3LjAnLCAnLXRuJywgJzgnLCAnLW1hJywgJzIwMCcsICctbWV0YWxfYmluZGluZycsICctaW1hZScsICc8aW5maWxlLm1hZT4nLCAnLW9tYWUnLCAnPG91dGZpbGUubWFlPic=

> <r_lp_tautomer_probability>
1

> <r_epik_Ionization_Penalty>
0.00456826

> <r_epik_Ionization_Penalty_Charging>
0.00240401

> <r_epik_Ionization_Penalty_Neutral>
0.00216425

> <r_epik_State_Penalty>
-0

> <r_epik_Charging_Adjusted_Penalty>
0.00240401

> <i_epik_Tot_Q>
1

> <i_epik_Tot_abs_Q>
1

> <r_epik_Metal_State_Penalty>
-0

> <b_epik_Metal_Only>
0

> <s_lp_Force_Field>
OPLS_2005

> <r_lp_Energy>
16.3925

> <b_lp_Chiralities_Consistent>
1

> <s_lp_Variant>
AV-unprocessed.smi:564-4

> <Gold.Version>
5.8.1

> <Gold.Id.Protein>
6NUR|6NUR_protein|mol2

> <Gold.PLP.Fitness>
43.7139

> <Gold.PLP.PLP>
-42.8831

> <Gold.PLP.part.hbond>
-2.0000

> <Gold.PLP.part.metal>
0.0000

> <Gold.PLP.part.buried>
-8.1667

> <Gold.PLP.part.nonpolar>
-35.9598

> <Gold.PLP.part.repulsive>
2.1870

> <Gold.PLP.ligand.clash>
0.0000

> <Gold.PLP.ligand.torsion>
1.1036

> <Gold.PLP.Chemscore.Hbond>
1.0000

> <Gold.PLP.Chemscore.CHOScore>
0.0000

> <Gold.PLP.Chemscore.Metal>
0.0000

> <Gold.Chemscore.Hbonds>
donor molecule, donor type, donor heavy atom, donor atom, acceptor molecule, acceptor atom, score
      L1  H    15    50       P1 10747  1.00

> <Gold.PLP.Chemscore.Internal.Correction>
0.0381

> <Gold.Rescore>
     Score         DG    S(hbond)    S(metal)    S(lipo)     H(rot)  DE(clash)    DE(int)     intcor
     15.09     -16.35       1.00        0.00      99.83       1.61       0.18       1.08       ----

> <Gold.Chemscore.Fitness>
15.0883

> <Gold.Chemscore.DG>
-16.3523

> <Gold.Chemscore.ZeroCoef>
-5.4800

> <Gold.Chemscore.Hbond>
0.9954

> <Gold.Chemscore.Metal>
0.0000

> <Gold.Chemscore.Lipo>
99.8311

> <Gold.Chemscore.Internal_Hbond>
0.0000

> <Gold.Chemscore.DEClash>
0.1842

> <Gold.Chemscore.DEInternal>
1.0798

> <Gold.Chemscore.Rot>
1.6142

> <Gold.Chemscore.Internal.Correction>
   9.000000E+99

> <Gold.Chemscore.Hbonds>
donor molecule, donor type, donor heavy atom, donor atom, acceptor molecule, acceptor atom, score
      L1  H    15    50       P1 10747  0.98

> <Gold.Chemscore.Hbond.Weighted>
-3.3245

> <Gold.Chemscore.Metal.Weighted>
-0.0000

> <Gold.Chemscore.Lipo.Weighted>
-11.6802

> <Gold.Chemscore.Internal_Hbond.Weighted>
0.0000

> <Gold.Chemscore.DEClash.Weighted>
0.1842

> <Gold.Chemscore.DEInternal.Weighted>
1.0798

> <Gold.Chemscore.Rot.Weighted>
4.1324

> <Gold.Chemscore.Internal.Correction.Weighted>
   9.000000E+99

> <Gold.Protein.RotatedTorsions>
[ 6907 6896 6895 6894 ] final -162.56 input  -60.11 | X-H torsion
[ 7974 7965 7964 7962 ] final   74.19 input  175.53 | X-H torsion
[ 8008 7997 7996 7995 ] final   23.93 input   59.86 | X-H torsion
[ 10167 10162 10161 10158 ] final  -23.81 input  -65.29 | X-H torsion
[ 10718 10713 10712 10709 ] final  -83.59 input   66.30 | X-H torsion
[ 10763 10752 10751 10750 ] final   20.18 input  -60.55 | X-H torsion
[ 11005 11000 10999 10996 ] final -118.51 input  -57.11 | X-H torsion

> <Gold.Protein.ActiveResidues>
 VAL166  LYS551  ARG553  GLY616  TRP617  ASP618  TYR619  PRO620  LYS621  CYS622 
 ASP623  PHE694  ASN695  SER759  ASP760  ASP761  ALA762  ILE779  LEU786  VAL792 
 PHE793  MET794  SER795  GLU796  ALA797  LYS798  CYS799  TRP800  GLU811  SER814 

> <Gold.Protein.RotatedAtoms>
  151.3822  133.3817  159.2711 H   0  0  0  0  0  0  0  0  0  0  0  0  # atno 6907 bound_to 6896
  150.9569  134.8963  159.7717 H   0  0  0  0  0  0  0  0  0  0  0  0  # atno 6908 bound_to 6896
  152.5134  134.3779  159.9393 H   0  0  0  0  0  0  0  0  0  0  0  0  # atno 6909 bound_to 6896
  145.7313  139.2685  143.1539 H   0  0  0  0  0  0  0  0  0  0  0  0  # atno 7974 bound_to 7965
  154.9885  140.3111  155.4916 H   0  0  0  0  0  0  0  0  0  0  0  0  # atno 8008 bound_to 7997
  156.2943  140.2253  156.4928 H   0  0  0  0  0  0  0  0  0  0  0  0  # atno 8009 bound_to 7997
  154.7725  140.0451  157.1051 H   0  0  0  0  0  0  0  0  0  0  0  0  # atno 8010 bound_to 7997
  140.7288  143.4409  151.0658 H   0  0  0  0  0  0  0  0  0  0  0  0  # atno 10167 bound_to 10162
  156.0016  130.4670  150.4281 H   0  0  0  0  0  0  0  0  0  0  0  0  # atno 10718 bound_to 10713
  153.1099  135.6694  153.9519 H   0  0  0  0  0  0  0  0  0  0  0  0  # atno 10763 bound_to 10752
  153.9065  135.3030  155.3450 H   0  0  0  0  0  0  0  0  0  0  0  0  # atno 10764 bound_to 10752
  154.7519  135.5030  153.9381 H   0  0  0  0  0  0  0  0  0  0  0  0  # atno 10765 bound_to 10752
  141.0281  134.0023  157.3184 H   0  0  0  0  0  0  0  0  0  0  0  0  # atno 11005 bound_to 11000
  146.0534  140.8045  142.9770 LP  0  0  0  0  0  0  0  0  0  0  0  0  # atno 17320 bound_to 7965
  144.6892  140.3088  143.7251 LP  0  0  0  0  0  0  0  0  0  0  0  0  # atno 17321 bound_to 7965
  139.8076  143.7996  152.3168 LP  0  0  0  0  0  0  0  0  0  0  0  0  # atno 17342 bound_to 10162
  139.8034  144.7365  150.9794 LP  0  0  0  0  0  0  0  0  0  0  0  0  # atno 17343 bound_to 10162
  157.2332  131.0509  151.2480 LP  0  0  0  0  0  0  0  0  0  0  0  0  # atno 17370 bound_to 10713
  157.3691  130.7171  149.6553 LP  0  0  0  0  0  0  0  0  0  0  0  0  # atno 17371 bound_to 10713
  139.9189  135.0199  156.7989 LP  0  0  0  0  0  0  0  0  0  0  0  0  # atno 17394 bound_to 11000
  140.6456  133.9779  155.7729 LP  0  0  0  0  0  0  0  0  0  0  0  0  # atno 17395 bound_to 11000

$$$$
