AV-unprocessed.smi:2784|AV-procd|sdf|10730|dock9
  -GOLD-   2272015163D 1   1.00000     0.00000
 Structure written by MMmdl.
 32 33  0  0  0  0  0  0  0  0  2 V2000
  152.9474  142.2432  160.7276 C   0  0  0  0  0  0  0  0  0  0  0  0
  153.1139  142.4588  159.3353 O   0  0  0  0  0  0  0  0  0  0  0  0
  152.3127  143.5137  158.8213 C   0  0  2  0  0  0  0  0  0  0  0  0
  152.4809  144.7558  159.7010 C   0  0  0  0  0  0  0  0  0  0  0  0
  151.1584  145.5018  159.5624 C   0  0  0  0  0  0  0  0  0  0  0  0
  150.1126  144.3882  159.5245 C   0  0  0  0  0  0  0  0  0  0  0  0
  150.8009  143.1883  158.8462 C   0  0  1  0  0  0  0  0  0  0  0  0
  150.2944  143.0022  157.4881 N   0  0  0  0  0  0  0  0  0  0  0  0
  150.1114  141.8180  156.8864 C   0  0  0  0  0  0  0  0  0  0  0  0
  150.3411  140.7340  157.4229 O   0  0  0  0  0  0  0  0  0  0  0  0
  149.6493  141.9667  155.6357 N   0  0  0  0  0  0  0  0  0  0  0  0
  149.3875  140.9194  154.7226 C   0  0  0  0  0  0  0  0  0  0  0  0
  148.2251  140.7518  154.0941 N   0  3  0  0  0  0  0  0  0  0  0  0
  148.3185  139.6491  153.2815 C   0  0  0  0  0  0  0  0  0  0  0  0
  149.5929  139.1648  153.4543 C   0  0  0  0  0  0  0  0  0  0  0  0
  150.2773  139.9529  154.3578 O   0  0  0  0  0  0  0  0  0  0  0  0
  153.5754  141.4108  161.0448 H   0  0  0  0  0  0  0  0  0  0  0  0
  151.9131  141.9932  160.9667 H   0  0  0  0  0  0  0  0  0  0  0  0
  153.2381  143.1187  161.3089 H   0  0  0  0  0  0  0  0  0  0  0  0
  152.6377  143.7743  157.8114 H   0  0  0  0  0  0  0  0  0  0  0  0
  152.6185  144.4601  160.7421 H   0  0  0  0  0  0  0  0  0  0  0  0
  153.3405  145.3614  159.4119 H   0  0  0  0  0  0  0  0  0  0  0  0
  150.9880  146.2112  160.3727 H   0  0  0  0  0  0  0  0  0  0  0  0
  151.1438  146.0557  158.6228 H   0  0  0  0  0  0  0  0  0  0  0  0
  149.8435  144.1158  160.5460 H   0  0  0  0  0  0  0  0  0  0  0  0
  149.1946  144.7037  159.0265 H   0  0  0  0  0  0  0  0  0  0  0  0
  150.6237  142.2946  159.4476 H   0  0  0  0  0  0  0  0  0  0  0  0
  150.0743  143.8415  156.9721 H   0  0  0  0  0  0  0  0  0  0  0  0
  147.3901  141.3189  154.1727 H   0  0  0  0  0  0  0  0  0  0  0  0
  147.4863  139.3253  152.6728 H   0  0  0  0  0  0  0  0  0  0  0  0
  150.1356  138.3278  153.0394 H   0  0  0  0  0  0  0  0  0  0  0  0
  149.4855  142.9059  155.3046 H   0  0  0  0  0  0  0  0  0  0  0  0
  1  2  1  0  0  0  0
  1 17  1  0  0  0  0
  1 18  1  0  0  0  0
  1 19  1  0  0  0  0
  2  3  1  0  0  0  0
  3  7  1  0  0  0  0
  3  4  1  0  0  0  0
  3 20  1  0  0  0  0
  4  5  1  0  0  0  0
  4 21  1  0  0  0  0
  4 22  1  0  0  0  0
  5  6  1  0  0  0  0
  5 23  1  0  0  0  0
  5 24  1  0  0  0  0
  6  7  1  0  0  0  0
  6 25  1  0  0  0  0
  6 26  1  0  0  0  0
  7  8  1  0  0  0  0
  7 27  1  0  0  0  0
  8 28  1  0  0  0  0
  8  9  1  0  0  0  0
  9 11  1  0  0  0  0
  9 10  2  0  0  0  0
 11 12  1  0  0  0  0
 11 32  1  0  0  0  0
 12 16  1  0  0  0  0
 12 13  2  0  0  0  0
 13 29  1  0  0  0  0
 13 14  1  0  0  0  0
 14 30  1  0  0  0  0
 14 15  2  0  0  0  0
 15 31  1  0  0  0  0
 15 16  1  0  0  0  0
M  CHG  1  13   1
M  END
> <s_m_source_file>
AV-unprocessed.smi

> <i_m_source_file_index>
2784

> <i_lp_mmshare_version>
43012

> <i_f3d_flags>
0

> <s_epik_input>
W0NIM11PW0NAQEhdMVtDSDJdW0NIMl1bQ0gyXVtDQEhdMVtOSF1DKD1PKVtOSF1jMm5bY0hdW2NIXW8y

> <s_epik_cmdline>
J2VwaWtfcHl0aG9uJywgJy1waCcsICc3LjAnLCAnLXRuJywgJzgnLCAnLW1hJywgJzIwMCcsICctbWV0YWxfYmluZGluZycsICctaW1hZScsICc8aW5maWxlLm1hZT4nLCAnLW9tYWUnLCAnPG91dGZpbGUubWFlPic=

> <r_epik_Ionization_Penalty>
6.73843

> <r_epik_Ionization_Penalty_Charging>
6.66704

> <r_epik_Ionization_Penalty_Neutral>
0.0713889

> <r_epik_State_Penalty>
1.94951

> <r_epik_Charging_Adjusted_Penalty>
8.61656

> <i_epik_Tot_Q>
1

> <i_epik_Tot_abs_Q>
1

> <r_epik_Metal_State_Penalty>
1.97013

> <b_epik_Metal_Only>
0

> <s_lp_Force_Field>
OPLS_2005

> <r_lp_Energy>
26.9129

> <b_lp_Chiralities_Consistent>
1

> <s_lp_Variant>
AV-unprocessed.smi:2784-5

> <Gold.Version>
5.8.1

> <Gold.Id.Protein>
6NUR|6NUR_protein|mol2

> <Gold.PLP.Fitness>
37.8587

> <Gold.PLP.PLP>
-27.5777

> <Gold.PLP.part.hbond>
-3.0000

> <Gold.PLP.part.metal>
0.0000

> <Gold.PLP.part.buried>
1.0613

> <Gold.PLP.part.nonpolar>
-26.0783

> <Gold.PLP.part.repulsive>
0.3797

> <Gold.PLP.ligand.clash>
0.0000

> <Gold.PLP.ligand.torsion>
0.8572

> <Gold.PLP.Chemscore.Hbond>
3.0000

> <Gold.PLP.Chemscore.CHOScore>
0.9967

> <Gold.PLP.Chemscore.Metal>
0.0000

> <Gold.Chemscore.Hbonds>
donor molecule, donor type, donor heavy atom, donor atom, acceptor molecule, acceptor atom, score
      L1  H     8    28       P1  8028  0.96
      L1  H    11    32       P1  8028  0.99
      P1  H  7989  7998       L1    16  1.00
      L1  C    15    31       P1  7948  0.68

> <Gold.PLP.Chemscore.Internal.Correction>
0.0053

> <Gold.Rescore>
     Score         DG    S(hbond)    S(metal)    S(lipo)     H(rot)  DE(clash)    DE(int)     intcor
     16.76     -19.60       2.47        0.00      79.55       1.34       1.88       0.96       ----

> <Gold.Chemscore.Fitness>
16.7636

> <Gold.Chemscore.DG>
-19.6035

> <Gold.Chemscore.ZeroCoef>
-5.4800

> <Gold.Chemscore.Hbond>
2.4651

> <Gold.Chemscore.Metal>
0.0000

> <Gold.Chemscore.Lipo>
79.5534

> <Gold.Chemscore.Internal_Hbond>
0.0000

> <Gold.Chemscore.DEClash>
1.8802

> <Gold.Chemscore.DEInternal>
0.9597

> <Gold.Chemscore.Rot>
1.3351

> <Gold.Chemscore.Internal.Correction>
   9.000000E+99

> <Gold.Chemscore.Hbonds>
donor molecule, donor type, donor heavy atom, donor atom, acceptor molecule, acceptor atom, score
      L1  H     8    28       P1  8028  0.89
      L1  H    11    32       P1  8028  0.94
      P1  H  7989  7998       L1    16  0.31

> <Gold.Chemscore.Hbond.Weighted>
-8.2335

> <Gold.Chemscore.Metal.Weighted>
-0.0000

> <Gold.Chemscore.Lipo.Weighted>
-9.3077

> <Gold.Chemscore.Internal_Hbond.Weighted>
0.0000

> <Gold.Chemscore.DEClash.Weighted>
1.8802

> <Gold.Chemscore.DEInternal.Weighted>
0.9597

> <Gold.Chemscore.Rot.Weighted>
3.4177

> <Gold.Chemscore.Internal.Correction.Weighted>
   9.000000E+99

> <Gold.Protein.RotatedTorsions>
[ 6907 6896 6895 6894 ] final -137.64 input  -60.11 | X-H torsion
[ 7974 7965 7964 7962 ] final -132.12 input  175.53 | X-H torsion
[ 8008 7997 7996 7995 ] final  -75.41 input   59.86 | X-H torsion
[ 10167 10162 10161 10158 ] final   48.62 input  -65.29 | X-H torsion
[ 10718 10713 10712 10709 ] final  -98.14 input   66.30 | X-H torsion
[ 10763 10752 10751 10750 ] final  177.84 input  -60.55 | X-H torsion
[ 11005 11000 10999 10996 ] final   21.99 input  -57.11 | X-H torsion

> <Gold.Protein.ActiveResidues>
 VAL166  LYS551  ARG553  GLY616  TRP617  ASP618  TYR619  PRO620  LYS621  CYS622 
 ASP623  PHE694  ASN695  SER759  ASP760  ASP761  ALA762  ILE779  LEU786  VAL792 
 PHE793  MET794  SER795  GLU796  ALA797  LYS798  CYS799  TRP800  GLU811  SER814 

> <Gold.Protein.RotatedAtoms>
  151.0249  133.5842  159.2666 H   0  0  0  0  0  0  0  0  0  0  0  0  # atno 6907 bound_to 6896
  151.2945  135.0750  159.9226 H   0  0  0  0  0  0  0  0  0  0  0  0  # atno 6908 bound_to 6896
  152.5332  133.9942  159.7919 H   0  0  0  0  0  0  0  0  0  0  0  0  # atno 6909 bound_to 6896
  144.9315  140.7134  143.4903 H   0  0  0  0  0  0  0  0  0  0  0  0  # atno 7974 bound_to 7965
  154.5415  140.0744  156.8517 H   0  0  0  0  0  0  0  0  0  0  0  0  # atno 8008 bound_to 7997
  155.3172  140.3394  155.4224 H   0  0  0  0  0  0  0  0  0  0  0  0  # atno 8009 bound_to 7997
  156.1878  140.1675  156.8137 H   0  0  0  0  0  0  0  0  0  0  0  0  # atno 8010 bound_to 7997
  140.2914  144.3042  150.6240 H   0  0  0  0  0  0  0  0  0  0  0  0  # atno 10167 bound_to 10162
  156.0100  130.5225  150.6479 H   0  0  0  0  0  0  0  0  0  0  0  0  # atno 10718 bound_to 10713
  154.4997  135.2783  155.1430 H   0  0  0  0  0  0  0  0  0  0  0  0  # atno 10763 bound_to 10752
  154.3068  135.6237  153.5452 H   0  0  0  0  0  0  0  0  0  0  0  0  # atno 10764 bound_to 10752
  152.9900  135.5710  154.5438 H   0  0  0  0  0  0  0  0  0  0  0  0  # atno 10765 bound_to 10752
  140.3855  134.1875  155.7663 H   0  0  0  0  0  0  0  0  0  0  0  0  # atno 11005 bound_to 11000
  145.3134  139.1811  143.4626 LP  0  0  0  0  0  0  0  0  0  0  0  0  # atno 17320 bound_to 7965
  146.3249  140.3142  142.8629 LP  0  0  0  0  0  0  0  0  0  0  0  0  # atno 17321 bound_to 7965
  140.5729  143.2179  151.7567 LP  0  0  0  0  0  0  0  0  0  0  0  0  # atno 17342 bound_to 10162
  139.4937  144.4191  151.9998 LP  0  0  0  0  0  0  0  0  0  0  0  0  # atno 17343 bound_to 10162
  157.4246  131.0841  151.1098 LP  0  0  0  0  0  0  0  0  0  0  0  0  # atno 17370 bound_to 10713
  157.1689  130.6258  149.5634 LP  0  0  0  0  0  0  0  0  0  0  0  0  # atno 17371 bound_to 10713
  141.1909  133.8207  157.0901 LP  0  0  0  0  0  0  0  0  0  0  0  0  # atno 17394 bound_to 11000
  140.0446  134.9837  157.1025 LP  0  0  0  0  0  0  0  0  0  0  0  0  # atno 17395 bound_to 11000

$$$$
