AV-unprocessed.smi:3266|AV-procd|sdf|12501|dock7
  -GOLD-   2272018403D 1   1.00000     0.00000
 Structure written by MMmdl.
 38 39  0  0  0  0  0  0  0  0  1 V2000
  150.2518  140.0875  154.4345 O   0  0  0  0  0  0  0  0  0  0  0  0
  149.5003  141.0425  154.6331 C   0  0  0  0  0  0  0  0  0  0  0  0
  148.2470  141.2292  153.7747 C   0  0  0  0  0  0  0  0  0  0  0  0
  146.9529  140.9731  154.5668 C   0  0  0  0  0  0  0  0  0  0  0  0
  146.4084  142.2418  155.2386 C   0  0  1  0  0  0  0  0  0  0  0  0
  145.8085  143.2482  154.2617 C   0  0  0  0  0  0  0  0  0  0  0  0
  144.8924  144.0733  155.1479 C   0  0  0  0  0  0  0  0  0  0  0  0
  144.6020  143.1524  156.3382 C   0  0  0  0  0  0  0  0  0  0  0  0
  145.3027  141.9419  156.0757 O   0  0  0  0  0  0  0  0  0  0  0  0
  149.7133  141.9593  155.5893 N   0  0  0  0  0  0  0  0  0  0  0  0
  150.8411  141.9545  156.5161 C   0  0  0  0  0  0  0  0  0  0  0  0
  150.4098  142.1089  157.9879 C   0  0  0  0  0  0  0  0  0  0  0  0
  151.5461  141.9277  158.9813 C   0  0  0  0  0  0  0  0  0  0  0  0
  151.8976  142.9725  159.8626 C   0  0  0  0  0  0  0  0  0  0  0  0
  152.9514  142.7592  160.7721 C   0  0  0  0  0  0  0  0  0  0  0  0
  153.6096  141.5145  160.7672 C   0  0  0  0  0  0  0  0  0  0  0  0
  153.1837  140.5351  159.8477 C   0  0  0  0  0  0  0  0  0  0  0  0
  152.1750  140.7301  158.9714 N   0  0  0  0  0  0  0  0  0  0  0  0
  148.2497  142.2467  153.3819 H   0  0  0  0  0  0  0  0  0  0  0  0
  148.2890  140.5623  152.9121 H   0  0  0  0  0  0  0  0  0  0  0  0
  146.1923  140.5772  153.8921 H   0  0  0  0  0  0  0  0  0  0  0  0
  147.1214  140.2061  155.3245 H   0  0  0  0  0  0  0  0  0  0  0  0
  147.1859  142.7245  155.8336 H   0  0  0  0  0  0  0  0  0  0  0  0
  146.5638  143.8483  153.7533 H   0  0  0  0  0  0  0  0  0  0  0  0
  145.2183  142.7320  153.5031 H   0  0  0  0  0  0  0  0  0  0  0  0
  145.3979  144.9781  155.4871 H   0  0  0  0  0  0  0  0  0  0  0  0
  143.9848  144.3721  154.6227 H   0  0  0  0  0  0  0  0  0  0  0  0
  144.9709  143.5939  157.2649 H   0  0  0  0  0  0  0  0  0  0  0  0
  143.5365  142.9547  156.4569 H   0  0  0  0  0  0  0  0  0  0  0  0
  149.0424  142.7073  155.6888 H   0  0  0  0  0  0  0  0  0  0  0  0
  151.4206  141.0384  156.3906 H   0  0  0  0  0  0  0  0  0  0  0  0
  151.5049  142.7746  156.2411 H   0  0  0  0  0  0  0  0  0  0  0  0
  149.9559  143.0889  158.1413 H   0  0  0  0  0  0  0  0  0  0  0  0
  149.6286  141.3818  158.2126 H   0  0  0  0  0  0  0  0  0  0  0  0
  151.3719  143.9160  159.8441 H   0  0  0  0  0  0  0  0  0  0  0  0
  153.2483  143.5358  161.4614 H   0  0  0  0  0  0  0  0  0  0  0  0
  154.4211  141.3149  161.4510 H   0  0  0  0  0  0  0  0  0  0  0  0
  153.6661  139.5694  159.8156 H   0  0  0  0  0  0  0  0  0  0  0  0
  1  2  2  0  0  0  0
  2  3  1  0  0  0  0
  2 10  1  0  0  0  0
  3  4  1  0  0  0  0
  3 19  1  0  0  0  0
  3 20  1  0  0  0  0
  4  5  1  0  0  0  0
  4 21  1  0  0  0  0
  4 22  1  0  0  0  0
  5  9  1  0  0  0  0
  5  6  1  0  0  0  0
  5 23  1  0  0  0  0
  6  7  1  0  0  0  0
  6 24  1  0  0  0  0
  6 25  1  0  0  0  0
  7  8  1  0  0  0  0
  7 26  1  0  0  0  0
  7 27  1  0  0  0  0
  8  9  1  0  0  0  0
  8 28  1  0  0  0  0
  8 29  1  0  0  0  0
 10 11  1  0  0  0  0
 10 30  1  0  0  0  0
 11 12  1  0  0  0  0
 11 31  1  0  0  0  0
 11 32  1  0  0  0  0
 12 13  1  0  0  0  0
 12 33  1  0  0  0  0
 12 34  1  0  0  0  0
 13 18  1  0  0  0  0
 13 14  2  0  0  0  0
 14 15  1  0  0  0  0
 14 35  1  0  0  0  0
 15 16  2  0  0  0  0
 15 36  1  0  0  0  0
 16 17  1  0  0  0  0
 16 37  1  0  0  0  0
 17 18  2  0  0  0  0
 17 38  1  0  0  0  0
M  END
> <s_m_source_file>
AV-unprocessed.smi

> <i_m_source_file_index>
3266

> <i_lp_mmshare_version>
43012

> <i_f3d_flags>
0

> <s_epik_input>
TzFbQ0gyXVtDSDJdW0NIMl1bQ0BIXTFbQ0gyXVtDSDJdQyg9TylbTkhdW0NIMl1bQ0gyXWMyW2NIXVtjSF1bY0hdW2NIXW4y

> <s_epik_cmdline>
J2VwaWtfcHl0aG9uJywgJy1waCcsICc3LjAnLCAnLXRuJywgJzgnLCAnLW1hJywgJzIwMCcsICctbWV0YWxfYmluZGluZycsICctaW1hZScsICc8aW5maWxlLm1hZT4nLCAnLW9tYWUnLCAnPG91dGZpbGUubWFlPic=

> <r_epik_Ionization_Penalty>
0.0267142

> <r_epik_Ionization_Penalty_Charging>
0

> <r_epik_Ionization_Penalty_Neutral>
0.0267142

> <r_epik_State_Penalty>
0.0218233

> <r_epik_Charging_Adjusted_Penalty>
0.0218233

> <i_epik_Tot_Q>
0

> <i_epik_Tot_abs_Q>
0

> <r_epik_Metal_State_Penalty>
0.0208786

> <b_epik_Metal_Only>
0

> <s_lp_Force_Field>
OPLS_2005

> <r_lp_Energy>
16.882

> <b_lp_Chiralities_Consistent>
1

> <s_lp_Variant>
AV-unprocessed.smi:3266-2

> <Gold.Version>
5.8.1

> <Gold.Id.Protein>
6NUR|6NUR_protein|mol2

> <Gold.PLP.Fitness>
44.6661

> <Gold.PLP.PLP>
-39.8241

> <Gold.PLP.part.hbond>
-2.0000

> <Gold.PLP.part.metal>
0.0000

> <Gold.PLP.part.buried>
-5.0886

> <Gold.PLP.part.nonpolar>
-32.3843

> <Gold.PLP.part.repulsive>
0.3429

> <Gold.PLP.ligand.clash>
0.0000

> <Gold.PLP.ligand.torsion>
0.3774

> <Gold.PLP.Chemscore.Hbond>
1.8480

> <Gold.PLP.Chemscore.CHOScore>
0.0000

> <Gold.PLP.Chemscore.Metal>
0.0000

> <Gold.Chemscore.Hbonds>
donor molecule, donor type, donor heavy atom, donor atom, acceptor molecule, acceptor atom, score
      L1  H    10    30       P1  8028  0.85
      P1  H  7989  7998       L1     1  1.00

> <Gold.PLP.Chemscore.Internal.Correction>
0.0529

> <Gold.Rescore>
     Score         DG    S(hbond)    S(metal)    S(lipo)     H(rot)  DE(clash)    DE(int)     intcor
     16.98     -17.40       1.59        0.00      93.94       1.71       0.04       0.37       ----

> <Gold.Chemscore.Fitness>
16.9836

> <Gold.Chemscore.DG>
-17.3991

> <Gold.Chemscore.ZeroCoef>
-5.4800

> <Gold.Chemscore.Hbond>
1.5905

> <Gold.Chemscore.Metal>
0.0000

> <Gold.Chemscore.Lipo>
93.9425

> <Gold.Chemscore.Internal_Hbond>
0.0000

> <Gold.Chemscore.DEClash>
0.0441

> <Gold.Chemscore.DEInternal>
0.3714

> <Gold.Chemscore.Rot>
1.7127

> <Gold.Chemscore.Internal.Correction>
   9.000000E+99

> <Gold.Chemscore.Hbonds>
donor molecule, donor type, donor heavy atom, donor atom, acceptor molecule, acceptor atom, score
      L1  H    10    30       P1  8028  0.79
      P1  H  7989  7998       L1     1  0.34

> <Gold.Chemscore.Hbond.Weighted>
-5.3124

> <Gold.Chemscore.Metal.Weighted>
-0.0000

> <Gold.Chemscore.Lipo.Weighted>
-10.9913

> <Gold.Chemscore.Internal_Hbond.Weighted>
0.0000

> <Gold.Chemscore.DEClash.Weighted>
0.0441

> <Gold.Chemscore.DEInternal.Weighted>
0.3714

> <Gold.Chemscore.Rot.Weighted>
4.3846

> <Gold.Chemscore.Internal.Correction.Weighted>
   9.000000E+99

> <Gold.Protein.RotatedTorsions>
[ 6907 6896 6895 6894 ] final  176.60 input  -60.11 | X-H torsion
[ 7974 7965 7964 7962 ] final -176.19 input  175.53 | X-H torsion
[ 8008 7997 7996 7995 ] final  -27.40 input   59.86 | X-H torsion
[ 10167 10162 10161 10158 ] final  130.56 input  -65.29 | X-H torsion
[ 10718 10713 10712 10709 ] final   41.84 input   66.30 | X-H torsion
[ 10763 10752 10751 10750 ] final    6.29 input  -60.55 | X-H torsion
[ 11005 11000 10999 10996 ] final   42.46 input  -57.11 | X-H torsion

> <Gold.Protein.ActiveResidues>
 VAL166  LYS551  ARG553  GLY616  TRP617  ASP618  TYR619  PRO620  LYS621  CYS622 
 ASP623  PHE694  ASN695  SER759  ASP760  ASP761  ALA762  ILE779  LEU786  VAL792 
 PHE793  MET794  SER795  GLU796  ALA797  LYS798  CYS799  TRP800  GLU811  SER814 

> <Gold.Protein.RotatedAtoms>
  151.7174  133.3313  159.3306 H   0  0  0  0  0  0  0  0  0  0  0  0  # atno 6907 bound_to 6896
  150.7667  134.6478  159.6281 H   0  0  0  0  0  0  0  0  0  0  0  0  # atno 6908 bound_to 6896
  152.3673  134.6788  160.0239 H   0  0  0  0  0  0  0  0  0  0  0  0  # atno 6909 bound_to 6896
  144.7127  140.1207  143.6405 H   0  0  0  0  0  0  0  0  0  0  0  0  # atno 7974 bound_to 7965
  154.4379  140.1873  156.0927 H   0  0  0  0  0  0  0  0  0  0  0  0  # atno 8008 bound_to 7997
  156.0353  140.3326  155.7158 H   0  0  0  0  0  0  0  0  0  0  0  0  # atno 8009 bound_to 7997
  155.5779  140.0619  157.2781 H   0  0  0  0  0  0  0  0  0  0  0  0  # atno 8010 bound_to 7997
  139.5424  144.6743  151.4581 H   0  0  0  0  0  0  0  0  0  0  0  0  # atno 10167 bound_to 10162
  157.3981  130.7844  149.7325 H   0  0  0  0  0  0  0  0  0  0  0  0  # atno 10718 bound_to 10713
  153.2494  135.6912  153.7695 H   0  0  0  0  0  0  0  0  0  0  0  0  # atno 10763 bound_to 10752
  153.6795  135.3331  155.3175 H   0  0  0  0  0  0  0  0  0  0  0  0  # atno 10764 bound_to 10752
  154.8388  135.4519  154.1446 H   0  0  0  0  0  0  0  0  0  0  0  0  # atno 10765 bound_to 10752
  140.1737  134.4190  155.8242 H   0  0  0  0  0  0  0  0  0  0  0  0  # atno 11005 bound_to 11000
  145.9373  139.2645  143.1289 LP  0  0  0  0  0  0  0  0  0  0  0  0  # atno 17320 bound_to 7965
  145.9460  140.8944  143.0283 LP  0  0  0  0  0  0  0  0  0  0  0  0  # atno 17321 bound_to 7965
  140.6659  143.8398  150.6942 LP  0  0  0  0  0  0  0  0  0  0  0  0  # atno 17342 bound_to 10162
  140.1807  143.4117  152.1935 LP  0  0  0  0  0  0  0  0  0  0  0  0  # atno 17343 bound_to 10162
  155.9816  130.4018  150.3465 LP  0  0  0  0  0  0  0  0  0  0  0  0  # atno 17370 bound_to 10713
  157.1589  131.0340  151.2850 LP  0  0  0  0  0  0  0  0  0  0  0  0  # atno 17371 bound_to 10713
  141.2219  133.6968  156.7808 LP  0  0  0  0  0  0  0  0  0  0  0  0  # atno 17394 bound_to 11000
  140.2348  134.8658  157.3513 LP  0  0  0  0  0  0  0  0  0  0  0  0  # atno 17395 bound_to 11000

$$$$
