AV-unprocessed.smi:3211|AV-procd|sdf|12277|dock8
  -GOLD-   2272018113D 1   1.00000     0.00000
 Structure written by MMmdl.
 34 35  0  0  0  0  0  0  0  0  1 V2000
  153.2098  142.5628  162.3711 C   0  0  0  0  0  0  0  0  0  0  0  0
  153.1890  141.9369  160.9727 C   0  0  0  0  0  0  0  0  0  0  0  0
  152.5100  142.8052  159.9671 C   0  0  0  0  0  0  0  0  0  0  0  0
  152.1623  142.3870  158.7470 N   0  0  0  0  0  0  0  0  0  0  0  0
  151.5086  143.3757  158.0047 C   0  0  0  0  0  0  0  0  0  0  0  0
  151.0493  143.0842  156.6085 C   0  0  0  0  0  0  0  0  0  0  0  0
  150.2980  141.7460  156.5112 C   0  0  0  0  0  0  0  0  0  0  0  0
  149.0390  141.8872  155.7884 N   0  0  0  0  0  0  0  0  0  0  0  0
  148.8390  141.5247  154.5120 C   0  0  0  0  0  0  0  0  0  0  0  0
  149.7215  141.0284  153.8098 O   0  0  0  0  0  0  0  0  0  0  0  0
  147.4502  141.7728  154.0206 C   0  0  1  0  0  0  0  0  0  0  0  0
  146.3156  141.0785  154.7467 C   0  0  0  0  0  0  0  0  0  0  0  0
  146.5159  142.5651  154.9161 C   0  0  2  0  0  0  0  0  0  0  0  0
  145.5389  143.5541  154.3179 C   0  0  0  0  0  0  0  0  0  0  0  0
  151.3551  144.5547  158.6908 C   0  0  0  0  0  0  0  0  0  0  0  0
  152.0245  144.4645  160.2964 S   0  0  0  0  0  0  0  0  0  0  0  0
  153.7126  141.9079  163.0826 H   0  0  0  0  0  0  0  0  0  0  0  0
  152.1982  142.7397  162.7378 H   0  0  0  0  0  0  0  0  0  0  0  0
  153.7366  143.5178  162.3663 H   0  0  0  0  0  0  0  0  0  0  0  0
  154.2083  141.7454  160.6364 H   0  0  0  0  0  0  0  0  0  0  0  0
  152.6836  140.9709  161.0043 H   0  0  0  0  0  0  0  0  0  0  0  0
  150.4060  143.8927  156.2589 H   0  0  0  0  0  0  0  0  0  0  0  0
  151.9045  143.0712  155.9317 H   0  0  0  0  0  0  0  0  0  0  0  0
  150.9098  141.0130  155.9844 H   0  0  0  0  0  0  0  0  0  0  0  0
  150.1138  141.3376  157.5065 H   0  0  0  0  0  0  0  0  0  0  0  0
  148.2632  142.2876  156.2960 H   0  0  0  0  0  0  0  0  0  0  0  0
  147.3323  141.9044  152.9456 H   0  0  0  0  0  0  0  0  0  0  0  0
  145.4800  140.7363  154.1394 H   0  0  0  0  0  0  0  0  0  0  0  0
  146.5535  140.4423  155.5975 H   0  0  0  0  0  0  0  0  0  0  0  0
  146.9064  142.8821  155.8821 H   0  0  0  0  0  0  0  0  0  0  0  0
  145.1569  143.1925  153.3627 H   0  0  0  0  0  0  0  0  0  0  0  0
  146.0304  144.5135  154.1556 H   0  0  0  0  0  0  0  0  0  0  0  0
  144.6976  143.7044  154.9945 H   0  0  0  0  0  0  0  0  0  0  0  0
  150.8859  145.4664  158.3511 H   0  0  0  0  0  0  0  0  0  0  0  0
  1  2  1  0  0  0  0
  1 17  1  0  0  0  0
  1 18  1  0  0  0  0
  1 19  1  0  0  0  0
  2  3  1  0  0  0  0
  2 20  1  0  0  0  0
  2 21  1  0  0  0  0
  3 16  1  0  0  0  0
  3  4  2  0  0  0  0
  4  5  1  0  0  0  0
  5  6  1  0  0  0  0
  5 15  2  0  0  0  0
  6  7  1  0  0  0  0
  6 22  1  0  0  0  0
  6 23  1  0  0  0  0
  7  8  1  0  0  0  0
  7 24  1  0  0  0  0
  7 25  1  0  0  0  0
  8  9  1  0  0  0  0
  8 26  1  0  0  0  0
  9 10  2  0  0  0  0
  9 11  1  0  0  0  0
 11 13  1  0  0  0  0
 11 12  1  0  0  0  0
 11 27  1  0  0  0  0
 12 13  1  0  0  0  0
 12 28  1  0  0  0  0
 12 29  1  0  0  0  0
 13 14  1  0  0  0  0
 13 30  1  0  0  0  0
 14 31  1  0  0  0  0
 14 32  1  0  0  0  0
 14 33  1  0  0  0  0
 15 16  1  0  0  0  0
 15 34  1  0  0  0  0
M  END
> <s_m_source_file>
AV-unprocessed.smi

> <i_m_source_file_index>
3211

> <i_lp_mmshare_version>
43012

> <i_f3d_flags>
0

> <s_epik_input>
W0NIM11bQ0gyXWMxbmMoW2NIXXMxKVtDSDJdW0NIMl1bTkhdQyg9TylbQ0BASF0yW0NIMl1bQ0BIXTJbQ0gzXQ==

> <s_epik_cmdline>
J2VwaWtfcHl0aG9uJywgJy1waCcsICc3LjAnLCAnLXRuJywgJzgnLCAnLW1hJywgJzIwMCcsICctbWV0YWxfYmluZGluZycsICctaW1hZScsICc8aW5maWxlLm1hZT4nLCAnLW9tYWUnLCAnPG91dGZpbGUubWFlPic=

> <r_epik_Ionization_Penalty>
0.00109667

> <r_epik_Ionization_Penalty_Charging>
0

> <r_epik_Ionization_Penalty_Neutral>
0.00109667

> <r_epik_State_Penalty>
0.000719322

> <r_epik_Charging_Adjusted_Penalty>
0.000719322

> <i_epik_Tot_Q>
0

> <i_epik_Tot_abs_Q>
0

> <r_epik_Metal_State_Penalty>
-0

> <b_epik_Metal_Only>
0

> <s_lp_Force_Field>
OPLS_2005

> <r_lp_Energy>
-0.564993

> <b_lp_Chiralities_Consistent>
1

> <s_lp_Variant>
AV-unprocessed.smi:3211-4

> <Gold.Version>
5.8.1

> <Gold.Id.Protein>
6NUR|6NUR_protein|mol2

> <Gold.PLP.Fitness>
44.3063

> <Gold.PLP.PLP>
-41.9668

> <Gold.PLP.part.hbond>
-3.0000

> <Gold.PLP.part.metal>
0.0000

> <Gold.PLP.part.buried>
-2.4614

> <Gold.PLP.part.nonpolar>
-38.9765

> <Gold.PLP.part.repulsive>
2.0917

> <Gold.PLP.ligand.clash>
0.0000

> <Gold.PLP.ligand.torsion>
0.7800

> <Gold.PLP.Chemscore.Hbond>
1.2720

> <Gold.PLP.Chemscore.CHOScore>
0.0000

> <Gold.PLP.Chemscore.Metal>
0.0000

> <Gold.Chemscore.Hbonds>
donor molecule, donor type, donor heavy atom, donor atom, acceptor molecule, acceptor atom, score
      P1  H  7989  7998       L1    10  0.37
      P1  H  8011  8017       L1    10  0.91

> <Gold.PLP.Chemscore.Internal.Correction>
0.0835

> <Gold.Rescore>
     Score         DG    S(hbond)    S(metal)    S(lipo)     H(rot)  DE(clash)    DE(int)     intcor
     16.65     -17.49       0.94        0.00     108.71       1.51       0.09       0.75       ----

> <Gold.Chemscore.Fitness>
16.6471

> <Gold.Chemscore.DG>
-17.4868

> <Gold.Chemscore.ZeroCoef>
-5.4800

> <Gold.Chemscore.Hbond>
0.9439

> <Gold.Chemscore.Metal>
0.0000

> <Gold.Chemscore.Lipo>
108.7076

> <Gold.Chemscore.Internal_Hbond>
0.0000

> <Gold.Chemscore.DEClash>
0.0867

> <Gold.Chemscore.DEInternal>
0.7530

> <Gold.Chemscore.Rot>
1.5096

> <Gold.Chemscore.Internal.Correction>
   9.000000E+99

> <Gold.Chemscore.Hbonds>
donor molecule, donor type, donor heavy atom, donor atom, acceptor molecule, acceptor atom, score
      P1  H  7989  7998       L1    10  0.36
      P1  H  8011  8017       L1    10  0.21

> <Gold.Chemscore.Hbond.Weighted>
-3.1526

> <Gold.Chemscore.Metal.Weighted>
-0.0000

> <Gold.Chemscore.Lipo.Weighted>
-12.7188

> <Gold.Chemscore.Internal_Hbond.Weighted>
0.0000

> <Gold.Chemscore.DEClash.Weighted>
0.0867

> <Gold.Chemscore.DEInternal.Weighted>
0.7530

> <Gold.Chemscore.Rot.Weighted>
3.8646

> <Gold.Chemscore.Internal.Correction.Weighted>
   9.000000E+99

> <Gold.Protein.RotatedTorsions>
[ 6907 6896 6895 6894 ] final  -42.98 input  -60.11 | X-H torsion
[ 7974 7965 7964 7962 ] final    7.52 input  175.53 | X-H torsion
[ 8008 7997 7996 7995 ] final  169.59 input   59.86 | X-H torsion
[ 10167 10162 10161 10158 ] final  -64.16 input  -65.29 | X-H torsion
[ 10718 10713 10712 10709 ] final   89.01 input   66.30 | X-H torsion
[ 10763 10752 10751 10750 ] final   58.38 input  -60.55 | X-H torsion
[ 11005 11000 10999 10996 ] final   72.95 input  -57.11 | X-H torsion

> <Gold.Protein.ActiveResidues>
 VAL166  LYS551  ARG553  GLY616  TRP617  ASP618  TYR619  PRO620  LYS621  CYS622 
 ASP623  PHE694  ASN695  SER759  ASP760  ASP761  ALA762  ILE779  LEU786  VAL792 
 PHE793  MET794  SER795  GLU796  ALA797  LYS798  CYS799  TRP800  GLU811  SER814 

> <Gold.Protein.RotatedAtoms>
  150.9491  134.8893  159.7660 H   0  0  0  0  0  0  0  0  0  0  0  0  # atno 6907 bound_to 6896
  152.5112  134.3832  159.9368 H   0  0  0  0  0  0  0  0  0  0  0  0  # atno 6908 bound_to 6896
  151.3849  133.3768  159.2749 H   0  0  0  0  0  0  0  0  0  0  0  0  # atno 6909 bound_to 6896
  146.2426  140.0071  142.8410 H   0  0  0  0  0  0  0  0  0  0  0  0  # atno 7974 bound_to 7965
  156.1443  140.1560  156.8871 H   0  0  0  0  0  0  0  0  0  0  0  0  # atno 8008 bound_to 7997
  154.5015  140.0824  156.7845 H   0  0  0  0  0  0  0  0  0  0  0  0  # atno 8009 bound_to 7997
  155.4018  140.3415  155.4260 H   0  0  0  0  0  0  0  0  0  0  0  0  # atno 8010 bound_to 7997
  140.5820  143.2328  151.6321 H   0  0  0  0  0  0  0  0  0  0  0  0  # atno 10167 bound_to 10162
  157.6953  131.0316  150.3361 H   0  0  0  0  0  0  0  0  0  0  0  0  # atno 10718 bound_to 10713
  152.9869  135.5609  154.5542 H   0  0  0  0  0  0  0  0  0  0  0  0  # atno 10763 bound_to 10752
  154.4974  135.2795  155.1450 H   0  0  0  0  0  0  0  0  0  0  0  0  # atno 10764 bound_to 10752
  154.2895  135.6329  153.5432 H   0  0  0  0  0  0  0  0  0  0  0  0  # atno 10765 bound_to 10752
  139.9465  134.7304  156.0968 H   0  0  0  0  0  0  0  0  0  0  0  0  # atno 11005 bound_to 11000
  145.1362  140.9546  143.4515 LP  0  0  0  0  0  0  0  0  0  0  0  0  # atno 17320 bound_to 7965
  145.0340  139.3316  143.6010 LP  0  0  0  0  0  0  0  0  0  0  0  0  # atno 17321 bound_to 7965
  139.5175  144.3312  152.0825 LP  0  0  0  0  0  0  0  0  0  0  0  0  # atno 17342 bound_to 10162
  140.2463  144.4216  150.6239 LP  0  0  0  0  0  0  0  0  0  0  0  0  # atno 17343 bound_to 10162
  156.3828  130.3883  149.7089 LP  0  0  0  0  0  0  0  0  0  0  0  0  # atno 17370 bound_to 10713
  156.4465  130.7886  151.2907 LP  0  0  0  0  0  0  0  0  0  0  0  0  # atno 17371 bound_to 10713
  141.1116  133.6641  156.2993 LP  0  0  0  0  0  0  0  0  0  0  0  0  # atno 17394 bound_to 11000
  140.5823  134.5733  157.5482 LP  0  0  0  0  0  0  0  0  0  0  0  0  # atno 17395 bound_to 11000

$$$$
