AV-unprocessed.smi:2683|AV-procd|sdf|10376|dock4
  -GOLD-   2272014403D 1   1.00000     0.00000
 Structure written by MMmdl.
 37 38  0  0  0  0  0  0  0  0  2 V2000
  149.4071  142.3137  158.2835 C   0  0  0  0  0  0  0  0  0  0  0  0
  150.6998  142.3128  157.4563 C   0  0  2  0  0  0  0  0  0  0  0  0
  151.6585  143.4207  157.9407 C   0  0  0  0  0  0  0  0  0  0  0  0
  152.1940  143.1649  159.2654 N   0  0  0  0  0  0  0  0  0  0  0  0
  152.9994  142.1246  159.6788 C   0  0  0  0  0  0  0  0  0  0  0  0
  153.2534  142.3120  161.0073 C   0  0  0  0  0  0  0  0  0  0  0  0
  152.5482  143.5073  161.3219 C   0  0  0  0  0  0  0  0  0  0  0  0
  151.9161  144.0164  160.2765 N   0  0  0  0  0  0  0  0  0  0  0  0
  150.3646  142.4829  156.0242 N   0  3  0  0  0  0  0  0  0  0  0  0
  149.5928  141.3735  155.4260 C   0  0  0  0  0  0  0  0  0  0  0  0
  150.3130  140.0301  155.6196 C   0  0  0  0  0  0  0  0  0  0  0  0
  151.8391  140.1417  155.7167 C   0  0  0  0  0  0  0  0  0  0  0  0
  152.3809  138.7611  155.3227 C   0  0  0  0  0  0  0  0  0  0  0  0
  151.2287  138.0262  154.6215 C   0  0  0  0  0  0  0  0  0  0  0  0
  150.1103  139.0576  154.4566 C   0  0  0  0  0  0  0  0  0  0  0  0
  149.6185  142.1586  159.3419 H   0  0  0  0  0  0  0  0  0  0  0  0
  148.7349  141.5165  157.9640 H   0  0  0  0  0  0  0  0  0  0  0  0
  148.8727  143.2596  158.1868 H   0  0  0  0  0  0  0  0  0  0  0  0
  151.1772  141.3422  157.6032 H   0  0  0  0  0  0  0  0  0  0  0  0
  152.4862  143.5468  157.2403 H   0  0  0  0  0  0  0  0  0  0  0  0
  151.1355  144.3774  157.9740 H   0  0  0  0  0  0  0  0  0  0  0  0
  153.3224  141.3476  159.0012 H   0  0  0  0  0  0  0  0  0  0  0  0
  153.8501  141.6888  161.6570 H   0  0  0  0  0  0  0  0  0  0  0  0
  152.4782  144.0169  162.2716 H   0  0  0  0  0  0  0  0  0  0  0  0
  149.8122  143.3228  155.9280 H   0  0  0  0  0  0  0  0  0  0  0  0
  148.6085  141.3263  155.8914 H   0  0  0  0  0  0  0  0  0  0  0  0
  149.4325  141.5715  154.3653 H   0  0  0  0  0  0  0  0  0  0  0  0
  149.9391  139.5496  156.5258 H   0  0  0  0  0  0  0  0  0  0  0  0
  152.2045  140.8856  155.0070 H   0  0  0  0  0  0  0  0  0  0  0  0
  152.1703  140.4468  156.7099 H   0  0  0  0  0  0  0  0  0  0  0  0
  153.2485  138.8585  154.6691 H   0  0  0  0  0  0  0  0  0  0  0  0
  152.6999  138.2045  156.2047 H   0  0  0  0  0  0  0  0  0  0  0  0
  151.5311  137.5978  153.6655 H   0  0  0  0  0  0  0  0  0  0  0  0
  150.8828  137.2062  155.2520 H   0  0  0  0  0  0  0  0  0  0  0  0
  149.1199  138.6016  154.4583 H   0  0  0  0  0  0  0  0  0  0  0  0
  150.2336  139.5796  153.5064 H   0  0  0  0  0  0  0  0  0  0  0  0
  151.2235  142.6035  155.5060 H   0  0  0  0  0  0  0  0  0  0  0  0
  1  2  1  0  0  0  0
  1 16  1  0  0  0  0
  1 17  1  0  0  0  0
  1 18  1  0  0  0  0
  2  3  1  0  0  0  0
  2  9  1  0  0  0  0
  2 19  1  0  0  0  0
  3  4  1  0  0  0  0
  3 20  1  0  0  0  0
  3 21  1  0  0  0  0
  4  8  1  0  0  0  0
  4  5  1  0  0  0  0
  5  6  2  0  0  0  0
  5 22  1  0  0  0  0
  6  7  1  0  0  0  0
  6 23  1  0  0  0  0
  7  8  2  0  0  0  0
  7 24  1  0  0  0  0
  9 10  1  0  0  0  0
  9 25  1  0  0  0  0
  9 37  1  0  0  0  0
 10 11  1  0  0  0  0
 10 26  1  0  0  0  0
 10 27  1  0  0  0  0
 11 15  1  0  0  0  0
 11 12  1  0  0  0  0
 11 28  1  0  0  0  0
 12 13  1  0  0  0  0
 12 29  1  0  0  0  0
 12 30  1  0  0  0  0
 13 14  1  0  0  0  0
 13 31  1  0  0  0  0
 13 32  1  0  0  0  0
 14 15  1  0  0  0  0
 14 33  1  0  0  0  0
 14 34  1  0  0  0  0
 15 35  1  0  0  0  0
 15 36  1  0  0  0  0
M  CHG  1   9   1
M  END
> <s_m_source_file>
AV-unprocessed.smi

> <i_m_source_file_index>
2683

> <i_lp_mmshare_version>
43012

> <i_f3d_flags>
0

> <s_epik_input>
bjFbY0hdW2NIXVtjSF1uMVtDSDJdW0NAQEhdKFtDSDNdKVtOSF1bQ0gyXVtDSF0yW0NIMl1bQ0gyXVtDSDJdW0NIMl0y

> <s_epik_cmdline>
J2VwaWtfcHl0aG9uJywgJy1waCcsICc3LjAnLCAnLXRuJywgJzgnLCAnLW1hJywgJzIwMCcsICctbWV0YWxfYmluZGluZycsICctaW1hZScsICc8aW5maWxlLm1hZT4nLCAnLW9tYWUnLCAnPG91dGZpbGUubWFlPic=

> <r_lp_tautomer_probability>
1

> <r_epik_Ionization_Penalty>
0.00170049

> <r_epik_Ionization_Penalty_Charging>
0.00169627

> <r_epik_Ionization_Penalty_Neutral>
4.21324e-06

> <r_epik_State_Penalty>
0.00114589

> <r_epik_Charging_Adjusted_Penalty>
0.00284216

> <i_epik_Tot_Q>
1

> <i_epik_Tot_abs_Q>
1

> <r_epik_Metal_State_Penalty>
-0

> <b_epik_Metal_Only>
0

> <s_lp_Force_Field>
OPLS_2005

> <r_lp_Energy>
26.6693

> <b_lp_Chiralities_Consistent>
1

> <s_lp_Variant>
AV-unprocessed.smi:2683-1

> <Gold.Version>
5.8.1

> <Gold.Id.Protein>
6NUR|6NUR_protein|mol2

> <Gold.PLP.Fitness>
45.4589

> <Gold.PLP.PLP>
-40.3980

> <Gold.PLP.part.hbond>
-1.0000

> <Gold.PLP.part.metal>
0.0000

> <Gold.PLP.part.buried>
-4.2401

> <Gold.PLP.part.nonpolar>
-35.8720

> <Gold.PLP.part.repulsive>
0.2090

> <Gold.PLP.ligand.clash>
0.0000

> <Gold.PLP.ligand.torsion>
0.5043

> <Gold.PLP.Chemscore.Hbond>
2.0000

> <Gold.PLP.Chemscore.CHOScore>
0.0000

> <Gold.PLP.Chemscore.Metal>
0.0000

> <Gold.Chemscore.Hbonds>
donor molecule, donor type, donor heavy atom, donor atom, acceptor molecule, acceptor atom, score
      L1  H     9    25       P1  8028  2.00

> <Gold.PLP.Chemscore.Internal.Correction>
0.0695

> <Gold.Rescore>
     Score         DG    S(hbond)    S(metal)    S(lipo)     H(rot)  DE(clash)    DE(int)     intcor
     16.29     -16.78       0.99        0.00     102.23       1.55       0.08       0.42       ----

> <Gold.Chemscore.Fitness>
16.2858

> <Gold.Chemscore.DG>
-16.7812

> <Gold.Chemscore.ZeroCoef>
-5.4800

> <Gold.Chemscore.Hbond>
0.9937

> <Gold.Chemscore.Metal>
0.0000

> <Gold.Chemscore.Lipo>
102.2338

> <Gold.Chemscore.Internal_Hbond>
0.0000

> <Gold.Chemscore.DEClash>
0.0781

> <Gold.Chemscore.DEInternal>
0.4173

> <Gold.Chemscore.Rot>
1.5543

> <Gold.Chemscore.Internal.Correction>
   9.000000E+99

> <Gold.Chemscore.Hbonds>
donor molecule, donor type, donor heavy atom, donor atom, acceptor molecule, acceptor atom, score
      L1  H     9    25       P1  8028  1.00

> <Gold.Chemscore.Hbond.Weighted>
-3.3188

> <Gold.Chemscore.Metal.Weighted>
-0.0000

> <Gold.Chemscore.Lipo.Weighted>
-11.9614

> <Gold.Chemscore.Internal_Hbond.Weighted>
0.0000

> <Gold.Chemscore.DEClash.Weighted>
0.0781

> <Gold.Chemscore.DEInternal.Weighted>
0.4173

> <Gold.Chemscore.Rot.Weighted>
3.9789

> <Gold.Chemscore.Internal.Correction.Weighted>
   9.000000E+99

> <Gold.Protein.RotatedTorsions>
[ 6907 6896 6895 6894 ] final -141.77 input  -60.11 | X-H torsion
[ 7974 7965 7964 7962 ] final -152.55 input  175.53 | X-H torsion
[ 8008 7997 7996 7995 ] final  115.51 input   59.86 | X-H torsion
[ 10167 10162 10161 10158 ] final   16.50 input  -65.29 | X-H torsion
[ 10718 10713 10712 10709 ] final  102.41 input   66.30 | X-H torsion
[ 10763 10752 10751 10750 ] final  -67.31 input  -60.55 | X-H torsion
[ 11005 11000 10999 10996 ] final   49.50 input  -57.11 | X-H torsion

> <Gold.Protein.ActiveResidues>
 VAL166  LYS551  ARG553  GLY616  TRP617  ASP618  TYR619  PRO620  LYS621  CYS622 
 ASP623  PHE694  ASN695  SER759  ASP760  ASP761  ALA762  ILE779  LEU786  VAL792 
 PHE793  MET794  SER795  GLU796  ALA797  LYS798  CYS799  TRP800  GLU811  SER814 

> <Gold.Protein.RotatedAtoms>
  151.0782  133.5411  159.2622 H   0  0  0  0  0  0  0  0  0  0  0  0  # atno 6907 bound_to 6896
  151.2325  135.0559  159.9003 H   0  0  0  0  0  0  0  0  0  0  0  0  # atno 6908 bound_to 6896
  152.5420  134.0568  159.8188 H   0  0  0  0  0  0  0  0  0  0  0  0  # atno 6909 bound_to 6896
  144.7788  140.4647  143.5854 H   0  0  0  0  0  0  0  0  0  0  0  0  # atno 7974 bound_to 7965
  156.2386  140.2937  156.0381 H   0  0  0  0  0  0  0  0  0  0  0  0  # atno 8008 bound_to 7997
  155.2019  140.0410  157.2936 H   0  0  0  0  0  0  0  0  0  0  0  0  # atno 8009 bound_to 7997
  154.6125  140.2455  155.7658 H   0  0  0  0  0  0  0  0  0  0  0  0  # atno 8010 bound_to 7997
  140.5793  143.9012  150.6776 H   0  0  0  0  0  0  0  0  0  0  0  0  # atno 10167 bound_to 10162
  157.6803  131.0752  150.5400 H   0  0  0  0  0  0  0  0  0  0  0  0  # atno 10718 bound_to 10713
  154.3727  135.6091  153.5748 H   0  0  0  0  0  0  0  0  0  0  0  0  # atno 10763 bound_to 10752
  152.9790  135.5842  154.4503 H   0  0  0  0  0  0  0  0  0  0  0  0  # atno 10764 bound_to 10752
  154.4259  135.2847  155.1922 H   0  0  0  0  0  0  0  0  0  0  0  0  # atno 10765 bound_to 10752
  140.1098  134.4970  155.8688 H   0  0  0  0  0  0  0  0  0  0  0  0  # atno 11005 bound_to 11000
  145.6108  139.1513  143.3077 LP  0  0  0  0  0  0  0  0  0  0  0  0  # atno 17320 bound_to 7965
  146.1984  140.6224  142.9113 LP  0  0  0  0  0  0  0  0  0  0  0  0  # atno 17321 bound_to 7965
  140.2507  143.3595  152.1408 LP  0  0  0  0  0  0  0  0  0  0  0  0  # atno 17342 bound_to 10162
  139.5160  144.6972  151.5597 LP  0  0  0  0  0  0  0  0  0  0  0  0  # atno 17343 bound_to 10162
  156.5707  130.4279  149.6020 LP  0  0  0  0  0  0  0  0  0  0  0  0  # atno 17370 bound_to 10713
  156.2743  130.7034  151.1841 LP  0  0  0  0  0  0  0  0  0  0  0  0  # atno 17371 bound_to 10713
  141.2127  133.6723  156.6681 LP  0  0  0  0  0  0  0  0  0  0  0  0  # atno 17394 bound_to 11000
  140.3107  134.8088  157.4174 LP  0  0  0  0  0  0  0  0  0  0  0  0  # atno 17395 bound_to 11000

$$$$
