#       Name:                AV-unprocessed.smi:2822
#       Creating user name   scv26
#       Creation time:       Fri Mar 27 15:32:18 2020


#       File generated by GOLD software.
#

@<TRIPOS>MOLECULE
AV-unprocessed.smi:2822
    43    45     1
SMALL
NO_CHARGES


@<TRIPOS>ATOM
      1 ****        -5.3385  -0.1239  -1.1048 Cl             1 S1                 0.0000
      2 ****        -4.4778   1.3752  -1.1578 C.ar           1 S1                 0.0000
      3 ****        -5.1887   2.5912  -1.0963 C.ar           1 S1                 0.0000
      4 ****        -4.5953   3.8030  -1.1302 N.ar           1 S1                 0.0000
      5 ****        -3.2503   3.8404  -1.2295 C.ar           1 S1                 0.0000
      6 ****        -2.4447   2.6864  -1.2989 C.ar           1 S1                 0.0000
      7 ****        -3.0680   1.4168  -1.2609 C.ar           1 S1                 0.0000
      8 ****        -2.3426   0.2174  -1.3239 N.pl3          1 S1                 0.0000
      9 ****        -0.8908   0.2148  -1.2297 C.3            1 S1                 0.0000
     10 ****        -0.3358  -1.2188  -1.1323 C.3            1 S1                 0.0000
     11 ****         1.2025  -1.2731  -1.2002 C.3            1 S1                 0.0000
     12 ****         1.8404  -0.7679   0.0098 N.3            1 S1                 0.0000
     13 ****         3.2967  -0.8608  -0.0869 C.3            1 S1                 0.0000
     14 ****         4.0069  -0.3098   1.1595 C.3            1 S1                 0.0000
     15 ****         3.5096  -1.0324   2.4191 C.3            1 S1                 0.0000
     16 ****         1.9761  -0.9733   2.4885 C.3            1 S1                 0.0000
     17 ****         1.3424  -1.4940   1.1815 C.3            1 S1                 0.0000
     18 ****        -0.1952  -1.4228   1.2642 C.3            1 S1                 0.0000
     19 ****        -0.7812  -1.8863   0.0502 O.3            1 S1                 0.0000
     20 ****        -6.2659   2.5914  -1.0171 H              1 S1                 0.0000
     21 ****        -2.7999   4.8218  -1.2546 H              1 S1                 0.0000
     22 ****        -1.3736   2.7946  -1.3803 H              1 S1                 0.0000
     23 ****        -2.8318  -0.6593  -1.2103 H              1 S1                 0.0000
     24 ****        -0.4898   0.6951  -2.1228 H              1 S1                 0.0000
     25 ****        -0.5703   0.8156  -0.3787 H              1 S1                 0.0000
     26 ****        -0.7238  -1.7833  -1.9811 H              1 S1                 0.0000
     27 ****         1.5083  -2.3077  -1.3639 H              1 S1                 0.0000
     28 ****         1.5509  -0.7106  -2.0673 H              1 S1                 0.0000
     29 ****         3.5920  -1.9000  -0.2409 H              1 S1                 0.0000
     30 ****         3.6408  -0.3104  -0.9632 H              1 S1                 0.0000
     31 ****         5.0863  -0.4274   1.0603 H              1 S1                 0.0000
     32 ****         3.8156   0.7604   1.2476 H              1 S1                 0.0000
     33 ****         3.8348  -2.0733   2.3974 H              1 S1                 0.0000
     34 ****         3.9478  -0.5852   3.3117 H              1 S1                 0.0000
     35 ****         1.6229  -1.5577   3.3387 H              1 S1                 0.0000
     36 ****         1.6607   0.0558   2.6668 H              1 S1                 0.0000
     37 ****         1.6153  -2.5456   1.0764 H              1 S1                 0.0000
     38 ****        -0.5577  -2.0480   2.0804 H              1 S1                 0.0000
     39 ****        -0.5300  -0.4079   1.4804 H              1 S1                 0.0000
     40 ****        -5.1340   4.6442  -1.0834 LP             1 S1                 0.0000
     41 ****         1.6071   0.1990   0.1128 LP             1 S1                 0.0000
     42 ****        -0.5688  -2.8589  -0.0446 LP             1 S1                 0.0000
     43 ****        -1.7716  -1.7666   0.1189 LP             1 S1                 0.0000
@<TRIPOS>BOND
    1    1    2 1     
    2    2    7 ar    
    3    2    3 ar    
    4    3    4 ar    
    5    3   20 1     
    6    4    5 ar    
    7    5    6 ar    
    8    5   21 1     
    9    6    7 ar    
   10    6   22 1     
   11    7    8 1     
   12    8    9 1     
   13    8   23 1     
   14    9   10 1     
   15    9   24 1     
   16    9   25 1     
   17   10   19 1     
   18   10   11 1     
   19   10   26 1     
   20   11   12 1     
   21   11   27 1     
   22   11   28 1     
   23   12   17 1     
   24   12   13 1     
   25   13   14 1     
   26   13   29 1     
   27   13   30 1     
   28   14   15 1     
   29   14   31 1     
   30   14   32 1     
   31   15   16 1     
   32   15   33 1     
   33   15   34 1     
   34   16   17 1     
   35   16   35 1     
   36   16   36 1     
   37   17   18 1     
   38   17   37 1     
   39   18   19 1     
   40   18   38 1     
   41   18   39 1     
   42    4   40 1     
   43   12   41 1     
   44   19   42 1     
   45   19   43 1     
@<TRIPOS>SUBSTRUCTURE
      1 S1             1
@<TRIPOS>SET
LONE_PAIRS      STATIC     ATOMS    <user>   **** ""
4 40 41 42 43
DONOR_HYDROGENS      STATIC     ATOMS    <user>   **** ""
1 23
ATOM$BLUE        STATIC     ATOMS    COLORGROUP SYSTEM
4 40 41 42 43
ATOM$RED        STATIC     ATOMS    COLORGROUP SYSTEM
1 23
