#       Name:                AV-unprocessed.smi:909
#       Creating user name   scv26
#       Creation time:       Fri Mar 27 02:01:23 2020


#       File generated by GOLD software.
#

@<TRIPOS>MOLECULE
AV-unprocessed.smi:909
    48    49     1
SMALL
NO_CHARGES


@<TRIPOS>ATOM
      1 ****        -4.1833   0.9026   1.8826 C.3            1 S1                 0.0000
      2 ****        -3.6879  -0.4116   1.3516 C.2            1 S1                 0.0000
      3 ****        -4.5473  -1.2660   0.8219 N.2            1 S1                 0.0000
      4 ****        -3.7900  -2.3696   0.4180 O.3            1 S1                 0.0000
      5 ****        -2.4894  -2.1354   0.7285 C.2            1 S1                 0.0000
      6 ****        -1.5111  -3.2004   0.3636 C.3            1 S1                 0.0000
      7 ****        -2.3554  -0.9141   1.3304 C.2            1 S1                 0.0000
      8 ****        -1.1045  -0.2457   1.8406 C.3            1 S1                 0.0000
      9 ****        -0.4429   0.5342   0.7054 C.2            1 S1                 0.0000
     10 ****        -0.6780   1.7349   0.5846 O.2            1 S1                 0.0000
     11 ****         0.3492  -0.1917  -0.1053 N.am           1 S1                 0.0000
     12 ****         1.1481   0.1558  -1.2926 C.3            1 S1                 0.0000
     13 ****         0.4480  -0.5695  -2.4690 C.2            1 S1                 0.0000
     14 ****        -0.3381   0.0922  -3.1834 O.co2          1 S1                 0.0000
     15 ****         0.6696  -1.7931  -2.6161 O.co2          1 S1                -1.0000
     16 ****         1.2871   1.6807  -1.6148 C.3            1 S1                 0.0000
     17 ****         2.2091   2.4510  -0.6479 C.3            1 S1                 0.0000
     18 ****         3.5864   1.7898  -0.5346 C.3            1 S1                 0.0000
     19 ****         3.4442   0.3236  -0.1133 C.3            1 S1                 0.0000
     20 ****         2.5673  -0.4562  -1.1069 C.3            1 S1                 0.0000
     21 ****        -4.3927   0.8370   2.9501 H              1 S1                 0.0000
     22 ****        -5.0990   1.2176   1.3811 H              1 S1                 0.0000
     23 ****        -3.4433   1.6896   1.7359 H              1 S1                 0.0000
     24 ****        -0.9748  -2.9332  -0.5469 H              1 S1                 0.0000
     25 ****        -2.0130  -4.1531   0.1922 H              1 S1                 0.0000
     26 ****        -0.7783  -3.3434   1.1578 H              1 S1                 0.0000
     27 ****        -1.3251   0.4384   2.6609 H              1 S1                 0.0000
     28 ****        -0.3967  -0.9737   2.2391 H              1 S1                 0.0000
     29 ****         0.4003  -1.1718   0.1302 H              1 S1                 0.0000
     30 ****         1.7119   1.7885  -2.6143 H              1 S1                 0.0000
     31 ****         0.3148   2.1703  -1.6727 H              1 S1                 0.0000
     32 ****         2.3218   3.4796  -0.9914 H              1 S1                 0.0000
     33 ****         1.7613   2.5113   0.3429 H              1 S1                 0.0000
     34 ****         4.1056   1.8505  -1.4918 H              1 S1                 0.0000
     35 ****         4.2001   2.3284   0.1877 H              1 S1                 0.0000
     36 ****         4.4296  -0.1387  -0.0501 H              1 S1                 0.0000
     37 ****         3.0121   0.2668   0.8865 H              1 S1                 0.0000
     38 ****         2.5000  -1.4936  -0.7745 H              1 S1                 0.0000
     39 ****         3.0844  -0.4837  -2.0679 H              1 S1                 0.0000
     40 ****        -5.5359  -1.1470   0.7293 LP             1 S1                 0.0000
     41 ****        -3.8831  -2.4997  -0.5691 LP             1 S1                 0.0000
     42 ****        -4.1082  -3.1895   0.8939 LP             1 S1                 0.0000
     43 ****        -1.2962   2.1903   1.2253 LP             1 S1                 0.0000
     44 ****        -0.2511   2.2562  -0.1543 LP             1 S1                 0.0000
     45 ****        -0.8355  -0.3553  -3.9265 LP             1 S1                 0.0000
     46 ****        -0.4688   1.0686  -3.0111 LP             1 S1                 0.0000
     47 ****         0.2049  -2.3018  -3.3408 LP             1 S1                 0.0000
     48 ****         1.3113  -2.2615  -2.0088 LP             1 S1                 0.0000
@<TRIPOS>BOND
    1    1    2 1     
    2    1   21 1     
    3    1   22 1     
    4    1   23 1     
    5    2    7 1     
    6    2    3 2     
    7    3    4 1     
    8    4    5 1     
    9    5    6 1     
   10    5    7 2     
   11    6   24 1     
   12    6   25 1     
   13    6   26 1     
   14    7    8 1     
   15    8    9 1     
   16    8   27 1     
   17    8   28 1     
   18    9   10 2     
   19    9   11 am    
   20   11   12 1     
   21   11   29 1     
   22   12   20 1     
   23   12   13 1     
   24   12   16 1     
   25   13   14 ar    
   26   13   15 ar    
   27   16   17 1     
   28   16   30 1     
   29   16   31 1     
   30   17   18 1     
   31   17   32 1     
   32   17   33 1     
   33   18   19 1     
   34   18   34 1     
   35   18   35 1     
   36   19   20 1     
   37   19   36 1     
   38   19   37 1     
   39   20   38 1     
   40   20   39 1     
   41    3   40 1     
   42    4   41 1     
   43    4   42 1     
   44   10   43 1     
   45   10   44 1     
   46   14   45 1     
   47   14   46 1     
   48   15   47 1     
   49   15   48 1     
@<TRIPOS>SUBSTRUCTURE
      1 S1             1
@<TRIPOS>SET
LONE_PAIRS      STATIC     ATOMS    <user>   **** ""
9 40 41 42 43 44 45 46 47 48
DONOR_HYDROGENS      STATIC     ATOMS    <user>   **** ""
1 29
ATOM$BLUE        STATIC     ATOMS    COLORGROUP SYSTEM
9 40 41 42 43 44 45 46 47 48
ATOM$RED        STATIC     ATOMS    COLORGROUP SYSTEM
1 29
