AV-unprocessed.smi:2668|AV-procd|sdf|10342|dock3
  -GOLD-   2272014363D 1   1.00000     0.00000
 Structure written by MMmdl.
 53 54  0  0  0  0  0  0  0  0  2 V2000
  142.7153  137.0464  157.5039 C   0  0  0  0  0  0  0  0  0  0  0  0
  143.7059  137.0024  156.4306 N   0  0  0  0  0  0  0  0  0  0  0  0
  143.9569  135.5891  156.1548 C   0  0  0  0  0  0  0  0  0  0  0  0
  143.2575  137.7287  155.2256 C   0  0  2  0  0  0  0  0  0  0  0  0
  144.3182  137.7500  154.1017 C   0  0  0  0  0  0  0  0  0  0  0  0
  145.5226  138.6398  154.4564 C   0  0  0  0  0  0  0  0  0  0  0  0
  145.1035  140.0440  154.7462 N   0  3  2  0  0  0  0  0  0  0  0  0
  146.2279  141.0422  154.8802 C   0  0  0  0  0  0  0  0  0  0  0  0
  147.2230  140.8796  153.7028 C   0  0  0  0  0  0  0  0  0  0  0  0
  145.6642  142.4815  154.7627 C   0  0  0  0  0  0  0  0  0  0  0  0
  146.9835  140.8610  156.2315 C   0  0  0  0  0  0  0  0  0  0  0  0
  147.9818  141.8991  156.4864 N   0  0  0  0  0  0  0  0  0  0  0  0
  148.9192  141.8621  157.4444 C   0  0  0  0  0  0  0  0  0  0  0  0
  149.0343  140.9348  158.2453 O   0  0  0  0  0  0  0  0  0  0  0  0
  149.7046  142.9517  157.3957 N   0  0  0  0  0  0  0  0  0  0  0  0
  150.8024  143.2903  158.2326 C   0  0  0  0  0  0  0  0  0  0  0  0
  151.3669  144.5858  158.3244 C   0  0  0  0  0  0  0  0  0  0  0  0
  152.4676  144.7885  159.1789 C   0  0  0  0  0  0  0  0  0  0  0  0
  152.9676  143.6901  159.9046 C   0  0  0  0  0  0  0  0  0  0  0  0
  152.4484  142.4475  159.8169 N   0  0  0  0  0  0  0  0  0  0  0  0
  151.3939  142.2605  158.9949 C   0  0  0  0  0  0  0  0  0  0  0  0
  144.0856  140.0731  155.8395 C   0  0  0  0  0  0  0  0  0  0  0  0
  142.8655  139.1985  155.5003 C   0  0  0  0  0  0  0  0  0  0  0  0
  142.6024  138.0525  157.9047 H   0  0  0  0  0  0  0  0  0  0  0  0
  143.0241  136.4213  158.3430 H   0  0  0  0  0  0  0  0  0  0  0  0
  141.7408  136.6948  157.1617 H   0  0  0  0  0  0  0  0  0  0  0  0
  144.8086  135.4506  155.4912 H   0  0  0  0  0  0  0  0  0  0  0  0
  143.0851  135.1096  155.7073 H   0  0  0  0  0  0  0  0  0  0  0  0
  144.2013  135.0531  157.0730 H   0  0  0  0  0  0  0  0  0  0  0  0
  142.3738  137.2106  154.8496 H   0  0  0  0  0  0  0  0  0  0  0  0
  144.6508  136.7519  153.8223 H   0  0  0  0  0  0  0  0  0  0  0  0
  143.8556  138.1461  153.1966 H   0  0  0  0  0  0  0  0  0  0  0  0
  146.0463  138.2169  155.3139 H   0  0  0  0  0  0  0  0  0  0  0  0
  146.2092  138.5954  153.6142 H   0  0  0  0  0  0  0  0  0  0  0  0
  147.9289  141.7097  153.6536 H   0  0  0  0  0  0  0  0  0  0  0  0
  146.7039  140.8456  152.7440 H   0  0  0  0  0  0  0  0  0  0  0  0
  147.8296  139.9786  153.7909 H   0  0  0  0  0  0  0  0  0  0  0  0
  146.4573  143.2185  154.6320 H   0  0  0  0  0  0  0  0  0  0  0  0
  145.1162  142.7876  155.6534 H   0  0  0  0  0  0  0  0  0  0  0  0
  144.9967  142.5796  153.9056 H   0  0  0  0  0  0  0  0  0  0  0  0
  146.2856  140.8109  157.0677 H   0  0  0  0  0  0  0  0  0  0  0  0
  147.5239  139.9150  156.2408 H   0  0  0  0  0  0  0  0  0  0  0  0
  147.9661  142.7016  155.8739 H   0  0  0  0  0  0  0  0  0  0  0  0
  149.5348  143.5873  156.6298 H   0  0  0  0  0  0  0  0  0  0  0  0
  150.9917  145.4191  157.7510 H   0  0  0  0  0  0  0  0  0  0  0  0
  152.9214  145.7639  159.2720 H   0  0  0  0  0  0  0  0  0  0  0  0
  153.8111  143.8115  160.5681 H   0  0  0  0  0  0  0  0  0  0  0  0
  151.0064  141.2531  158.9477 H   0  0  0  0  0  0  0  0  0  0  0  0
  144.5267  139.7329  156.7765 H   0  0  0  0  0  0  0  0  0  0  0  0
  143.7157  141.0812  156.0136 H   0  0  0  0  0  0  0  0  0  0  0  0
  142.3936  139.6034  154.6038 H   0  0  0  0  0  0  0  0  0  0  0  0
  142.1023  139.2890  156.2716 H   0  0  0  0  0  0  0  0  0  0  0  0
  144.6040  140.3409  153.9201 H   0  0  0  0  0  0  0  0  0  0  0  0
  1  2  1  0  0  0  0
  1 24  1  0  0  0  0
  1 25  1  0  0  0  0
  1 26  1  0  0  0  0
  2  3  1  0  0  0  0
  2  4  1  0  0  0  0
  3 27  1  0  0  0  0
  3 28  1  0  0  0  0
  3 29  1  0  0  0  0
  4 23  1  0  0  0  0
  4  5  1  0  0  0  0
  4 30  1  0  0  0  0
  5  6  1  0  0  0  0
  5 31  1  0  0  0  0
  5 32  1  0  0  0  0
  6  7  1  0  0  0  0
  6 33  1  0  0  0  0
  6 34  1  0  0  0  0
  7  8  1  0  0  0  0
  7 22  1  0  0  0  0
  7 53  1  0  0  0  0
  8  9  1  0  0  0  0
  8 10  1  0  0  0  0
  8 11  1  0  0  0  0
  9 35  1  0  0  0  0
  9 36  1  0  0  0  0
  9 37  1  0  0  0  0
 10 38  1  0  0  0  0
 10 39  1  0  0  0  0
 10 40  1  0  0  0  0
 11 12  1  0  0  0  0
 11 41  1  0  0  0  0
 11 42  1  0  0  0  0
 12 13  1  0  0  0  0
 12 43  1  0  0  0  0
 13 14  2  0  0  0  0
 13 15  1  0  0  0  0
 15 16  1  0  0  0  0
 15 44  1  0  0  0  0
 16 21  1  0  0  0  0
 16 17  2  0  0  0  0
 17 18  1  0  0  0  0
 17 45  1  0  0  0  0
 18 19  2  0  0  0  0
 18 46  1  0  0  0  0
 19 20  1  0  0  0  0
 19 47  1  0  0  0  0
 20 21  2  0  0  0  0
 21 48  1  0  0  0  0
 22 23  1  0  0  0  0
 22 49  1  0  0  0  0
 22 50  1  0  0  0  0
 23 51  1  0  0  0  0
 23 52  1  0  0  0  0
M  CHG  1   7   1
M  END
> <s_m_source_file>
AV-unprocessed.smi

> <i_m_source_file_index>
2668

> <i_lp_mmshare_version>
43012

> <i_f3d_flags>
0

> <s_epik_input>
W0NIM11OKFtDSDNdKVtDSF0xW0NIMl1bQ0gyXU4oW0NIMl1bQ0gyXTEpQyhbQ0gzXSkoW0NIM10pW0NIMl1bTkhdQyg9TylbTkhdYzJbY0hdW2NIXVtjSF1uW2NIXTI=

> <s_epik_cmdline>
J2VwaWtfcHl0aG9uJywgJy1waCcsICc3LjAnLCAnLXRuJywgJzgnLCAnLW1hJywgJzIwMCcsICctbWV0YWxfYmluZGluZycsICctaW1hZScsICc8aW5maWxlLm1hZT4nLCAnLW9tYWUnLCAnPG91dGZpbGUubWFlPic=

> <r_epik_Ionization_Penalty>
1.32573

> <r_epik_Ionization_Penalty_Charging>
0.00219175

> <r_epik_Ionization_Penalty_Neutral>
1.32353

> <r_epik_State_Penalty>
1.51166

> <r_epik_Charging_Adjusted_Penalty>
1.51385

> <i_epik_Tot_Q>
1

> <i_epik_Tot_abs_Q>
1

> <r_epik_Metal_State_Penalty>
1.51178

> <b_epik_Metal_Only>
0

> <s_lp_Force_Field>
OPLS_2005

> <r_lp_Energy>
39.6139

> <b_lp_Chiralities_Consistent>
1

> <s_lp_Variant>
AV-unprocessed.smi:2668-5

> <Gold.Version>
5.8.1

> <Gold.Id.Protein>
6NUR|6NUR_protein|mol2

> <Gold.PLP.Fitness>
39.9742

> <Gold.PLP.PLP>
-30.1544

> <Gold.PLP.part.hbond>
-2.8711

> <Gold.PLP.part.metal>
0.0000

> <Gold.PLP.part.buried>
-4.8531

> <Gold.PLP.part.nonpolar>
-22.2535

> <Gold.PLP.part.repulsive>
0.0353

> <Gold.PLP.ligand.clash>
0.0000

> <Gold.PLP.ligand.torsion>
0.3397

> <Gold.PLP.Chemscore.Hbond>
3.4597

> <Gold.PLP.Chemscore.CHOScore>
0.0000

> <Gold.PLP.Chemscore.Metal>
0.0000

> <Gold.Chemscore.Hbonds>
donor molecule, donor type, donor heavy atom, donor atom, acceptor molecule, acceptor atom, score
      L1  H     7    53       P1 10175  2.00
      L1  H    12    43       P1  8028  0.46
      L1  H    15    44       P1  8028  1.00

> <Gold.PLP.Chemscore.Internal.Correction>
0.1203

> <Gold.Rescore>
     Score         DG    S(hbond)    S(metal)    S(lipo)     H(rot)  DE(clash)    DE(int)     intcor
     18.47     -20.41       2.57        0.00      89.87       1.62       0.06       1.87       ----

> <Gold.Chemscore.Fitness>
18.4728

> <Gold.Chemscore.DG>
-20.4111

> <Gold.Chemscore.ZeroCoef>
-5.4800

> <Gold.Chemscore.Hbond>
2.5663

> <Gold.Chemscore.Metal>
0.0000

> <Gold.Chemscore.Lipo>
89.8653

> <Gold.Chemscore.Internal_Hbond>
0.0000

> <Gold.Chemscore.DEClash>
0.0634

> <Gold.Chemscore.DEInternal>
1.8749

> <Gold.Chemscore.Rot>
1.6228

> <Gold.Chemscore.Internal.Correction>
   9.000000E+99

> <Gold.Chemscore.Hbonds>
donor molecule, donor type, donor heavy atom, donor atom, acceptor molecule, acceptor atom, score
      L1  H     7    53       P1 10175  1.00
      L1  H    12    43       P1  8028  0.36
      L1  H    15    44       P1  8028  0.99

> <Gold.Chemscore.Hbond.Weighted>
-8.5713

> <Gold.Chemscore.Metal.Weighted>
-0.0000

> <Gold.Chemscore.Lipo.Weighted>
-10.5142

> <Gold.Chemscore.Internal_Hbond.Weighted>
0.0000

> <Gold.Chemscore.DEClash.Weighted>
0.0634

> <Gold.Chemscore.DEInternal.Weighted>
1.8749

> <Gold.Chemscore.Rot.Weighted>
4.1545

> <Gold.Chemscore.Internal.Correction.Weighted>
   9.000000E+99

> <Gold.Protein.RotatedTorsions>
[ 6907 6896 6895 6894 ] final  162.81 input  -60.11 | X-H torsion
[ 7974 7965 7964 7962 ] final -135.88 input  175.53 | X-H torsion
[ 8008 7997 7996 7995 ] final  164.20 input   59.86 | X-H torsion
[ 10167 10162 10161 10158 ] final -120.97 input  -65.29 | X-H torsion
[ 10718 10713 10712 10709 ] final -159.80 input   66.30 | X-H torsion
[ 10763 10752 10751 10750 ] final  -44.29 input  -60.55 | X-H torsion
[ 11005 11000 10999 10996 ] final  -66.22 input  -57.11 | X-H torsion

> <Gold.Protein.ActiveResidues>
 VAL166  LYS551  ARG553  GLY616  TRP617  ASP618  TYR619  PRO620  LYS621  CYS622 
 ASP623  PHE694  ASN695  SER759  ASP760  ASP761  ALA762  ILE779  LEU786  VAL792 
 PHE793  MET794  SER795  GLU796  ALA797  LYS798  CYS799  TRP800  GLU811  SER814 

> <Gold.Protein.RotatedAtoms>
  151.9347  133.3621  159.3943 H   0  0  0  0  0  0  0  0  0  0  0  0  # atno 6907 bound_to 6896
  150.7010  134.4501  159.5341 H   0  0  0  0  0  0  0  0  0  0  0  0  # atno 6908 bound_to 6896
  152.2148  134.8468  160.0544 H   0  0  0  0  0  0  0  0  0  0  0  0  # atno 6909 bound_to 6896
  144.8975  140.6727  143.5106 H   0  0  0  0  0  0  0  0  0  0  0  0  # atno 7974 bound_to 7965
  156.1898  140.1703  156.8114 H   0  0  0  0  0  0  0  0  0  0  0  0  # atno 8008 bound_to 7997
  154.5458  140.0727  156.8618 H   0  0  0  0  0  0  0  0  0  0  0  0  # atno 8009 bound_to 7997
  155.3125  140.3368  155.4246 H   0  0  0  0  0  0  0  0  0  0  0  0  # atno 8010 bound_to 7997
  140.0301  143.5257  152.2180 H   0  0  0  0  0  0  0  0  0  0  0  0  # atno 10167 bound_to 10162
  156.5731  130.8697  151.2843 H   0  0  0  0  0  0  0  0  0  0  0  0  # atno 10718 bound_to 10713
  154.0096  135.6683  153.4764 H   0  0  0  0  0  0  0  0  0  0  0  0  # atno 10763 bound_to 10752
  153.0627  135.5019  154.8125 H   0  0  0  0  0  0  0  0  0  0  0  0  # atno 10764 bound_to 10752
  154.7004  135.3077  154.9313 H   0  0  0  0  0  0  0  0  0  0  0  0  # atno 10765 bound_to 10752
  141.1476  133.6695  156.6106 H   0  0  0  0  0  0  0  0  0  0  0  0  # atno 11005 bound_to 11000
  145.3674  139.1667  143.4351 LP  0  0  0  0  0  0  0  0  0  0  0  0  # atno 17320 bound_to 7965
  146.3090  140.3742  142.8677 LP  0  0  0  0  0  0  0  0  0  0  0  0  # atno 17321 bound_to 7965
  139.6082  144.7602  151.3013 LP  0  0  0  0  0  0  0  0  0  0  0  0  # atno 17342 bound_to 10162
  140.7306  143.6876  150.7948 LP  0  0  0  0  0  0  0  0  0  0  0  0  # atno 17343 bound_to 10162
  157.7343  130.9745  150.2025 LP  0  0  0  0  0  0  0  0  0  0  0  0  # atno 17370 bound_to 10713
  156.2697  130.3720  149.8045 LP  0  0  0  0  0  0  0  0  0  0  0  0  # atno 17371 bound_to 10713
  140.3617  134.7681  157.4539 LP  0  0  0  0  0  0  0  0  0  0  0  0  # atno 17394 bound_to 11000
  140.0779  134.5771  155.8571 LP  0  0  0  0  0  0  0  0  0  0  0  0  # atno 17395 bound_to 11000

$$$$
