AV-unprocessed.smi:3237|AV-procd|sdf|12374|dock10
  -GOLD-   2272018233D 1   1.00000     0.00000
 Structure written by MMmdl.
 36 38  0  0  0  0  0  0  0  0  3 V2000
  152.9209  142.6719  159.7804 C   0  0  0  0  0  0  0  0  0  0  0  0
  152.1312  142.2486  158.5898 C   0  0  0  0  0  0  0  0  0  0  0  0
  151.1109  142.8338  157.8946 C   0  0  0  0  0  0  0  0  0  0  0  0
  150.8292  141.8842  156.8765 C   0  0  0  0  0  0  0  0  0  0  0  0
  149.8051  142.1276  155.9232 N   0  0  0  0  0  0  0  0  0  0  0  0
  149.4668  141.3984  154.8441 C   0  0  0  0  0  0  0  0  0  0  0  0
  150.0759  140.3553  154.5796 O   0  0  0  0  0  0  0  0  0  0  0  0
  148.4330  141.9525  154.1521 N   0  5  0  0  0  0  0  0  0  0  0  0
  147.3791  141.1991  153.4702 C   0  0  1  0  0  0  0  0  0  0  0  0
  147.9567  140.1022  152.5748 C   0  0  0  0  0  0  0  0  0  0  0  0
  146.8544  139.0345  152.5230 C   0  0  0  0  0  0  0  0  0  0  0  0
  145.9219  139.3305  153.6363 N   0  3  1  0  0  0  0  0  0  0  0  0
  145.4936  138.1424  154.4054 C   0  0  0  0  0  0  0  0  0  0  0  0
  144.3250  137.4142  153.7857 C   0  0  0  0  0  0  0  0  0  0  0  0
  144.1173  138.2772  155.0115 C   0  0  0  0  0  0  0  0  0  0  0  0
  146.5324  140.3960  154.4556 C   0  0  0  0  0  0  0  0  0  0  0  0
  151.6092  140.8154  156.9452 N   0  0  0  0  0  0  0  0  0  0  0  0
  152.4467  141.0433  158.0435 O   0  0  0  0  0  0  0  0  0  0  0  0
  152.6503  143.6820  160.0885 H   0  0  0  0  0  0  0  0  0  0  0  0
  153.9885  142.6607  159.5604 H   0  0  0  0  0  0  0  0  0  0  0  0
  152.7408  142.0022  160.6213 H   0  0  0  0  0  0  0  0  0  0  0  0
  150.6427  143.7881  158.0848 H   0  0  0  0  0  0  0  0  0  0  0  0
  149.2603  142.9634  156.0742 H   0  0  0  0  0  0  0  0  0  0  0  0
  146.7123  141.8211  152.8706 H   0  0  0  0  0  0  0  0  0  0  0  0
  148.2284  140.4717  151.5854 H   0  0  0  0  0  0  0  0  0  0  0  0
  148.8529  139.6707  153.0245 H   0  0  0  0  0  0  0  0  0  0  0  0
  146.3033  139.0733  151.5821 H   0  0  0  0  0  0  0  0  0  0  0  0
  147.2852  138.0355  152.6079 H   0  0  0  0  0  0  0  0  0  0  0  0
  146.2764  137.5919  154.9245 H   0  0  0  0  0  0  0  0  0  0  0  0
  143.9320  137.7816  152.8393 H   0  0  0  0  0  0  0  0  0  0  0  0
  144.2774  136.3355  153.9212 H   0  0  0  0  0  0  0  0  0  0  0  0
  143.9302  137.7661  155.9538 H   0  0  0  0  0  0  0  0  0  0  0  0
  143.5874  139.2190  154.8803 H   0  0  0  0  0  0  0  0  0  0  0  0
  147.1625  139.9465  155.2261 H   0  0  0  0  0  0  0  0  0  0  0  0
  145.7746  141.0043  154.9502 H   0  0  0  0  0  0  0  0  0  0  0  0
  145.1003  139.7384  153.2139 H   0  0  0  0  0  0  0  0  0  0  0  0
  1  2  1  0  0  0  0
  1 19  1  0  0  0  0
  1 20  1  0  0  0  0
  1 21  1  0  0  0  0
  2 18  1  0  0  0  0
  2  3  2  0  0  0  0
  3  4  1  0  0  0  0
  3 22  1  0  0  0  0
  4  5  1  0  0  0  0
  4 17  2  0  0  0  0
  5  6  1  0  0  0  0
  5 23  1  0  0  0  0
  6  7  2  0  0  0  0
  6  8  1  0  0  0  0
  8  9  1  0  0  0  0
  9 16  1  0  0  0  0
  9 10  1  0  0  0  0
  9 24  1  0  0  0  0
 10 11  1  0  0  0  0
 10 25  1  0  0  0  0
 10 26  1  0  0  0  0
 11 12  1  0  0  0  0
 11 27  1  0  0  0  0
 11 28  1  0  0  0  0
 12 13  1  0  0  0  0
 12 16  1  0  0  0  0
 12 36  1  0  0  0  0
 13 15  1  0  0  0  0
 13 14  1  0  0  0  0
 13 29  1  0  0  0  0
 14 15  1  0  0  0  0
 14 30  1  0  0  0  0
 14 31  1  0  0  0  0
 15 32  1  0  0  0  0
 15 33  1  0  0  0  0
 16 34  1  0  0  0  0
 16 35  1  0  0  0  0
 17 18  1  0  0  0  0
M  CHG  1   8  -1
M  CHG  1  12   1
M  END
> <s_m_source_file>
AV-unprocessed.smi

> <i_m_source_file_index>
3237

> <i_lp_mmshare_version>
43012

> <i_f3d_flags>
0

> <s_epik_input>
W0NIM11jMVtjSF1jKG5vMSlbTkhdQyg9TylbTkhdW0NAQEhdMltDSDJdW0NIMl1OKFtDSDJdMilbQ0hdM1tDSDJdW0NIMl0z

> <s_epik_cmdline>
J2VwaWtfcHl0aG9uJywgJy1waCcsICc3LjAnLCAnLXRuJywgJzgnLCAnLW1hJywgJzIwMCcsICctbWV0YWxfYmluZGluZycsICctaW1hZScsICc8aW5maWxlLm1hZT4nLCAnLW9tYWUnLCAnPG91dGZpbGUubWFlPic=

> <r_epik_Ionization_Penalty>
6.76456

> <r_epik_Ionization_Penalty_Charging>
6.76456

> <r_epik_Ionization_Penalty_Neutral>
5.76722e-06

> <r_epik_State_Penalty>
6.78919

> <r_epik_Charging_Adjusted_Penalty>
13.5538

> <i_epik_Tot_Q>
0

> <i_epik_Tot_abs_Q>
2

> <r_epik_Metal_State_Penalty>
2.728

> <b_epik_Metal_Only>
1

> <s_lp_Force_Field>
OPLS_2005

> <r_lp_Energy>
31.1689

> <b_lp_Chiralities_Consistent>
1

> <s_lp_Variant>
AV-unprocessed.smi:3237-12

> <Gold.Version>
5.8.1

> <Gold.Id.Protein>
6NUR|6NUR_protein|mol2

> <Gold.PLP.Fitness>
38.7729

> <Gold.PLP.PLP>
-26.9547

> <Gold.PLP.part.hbond>
-4.0565

> <Gold.PLP.part.metal>
0.0000

> <Gold.PLP.part.buried>
2.2395

> <Gold.PLP.part.nonpolar>
-24.3119

> <Gold.PLP.part.repulsive>
0.4001

> <Gold.PLP.ligand.clash>
0.0000

> <Gold.PLP.ligand.torsion>
0.9472

> <Gold.PLP.Chemscore.Hbond>
4.1422

> <Gold.PLP.Chemscore.CHOScore>
0.0000

> <Gold.PLP.Chemscore.Metal>
0.0000

> <Gold.Chemscore.Hbonds>
donor molecule, donor type, donor heavy atom, donor atom, acceptor molecule, acceptor atom, score
      L1  H     5    23       P1  8028  1.00
      L1  H    12    36       P1 10175  2.00
      P1  H  7989  7998       L1     7  0.96
      P1  H  8011  8017       L1     8  0.08

> <Gold.PLP.Chemscore.Internal.Correction>
1.2861

> <Gold.Rescore>
     Score         DG    S(hbond)    S(metal)    S(lipo)     H(rot)  DE(clash)    DE(int)     intcor
     12.78     -18.33       2.51        0.00      65.49       1.25       2.15       3.40       ----

> <Gold.Chemscore.Fitness>
12.7789

> <Gold.Chemscore.DG>
-18.3276

> <Gold.Chemscore.ZeroCoef>
-5.4800

> <Gold.Chemscore.Hbond>
2.5079

> <Gold.Chemscore.Metal>
0.0000

> <Gold.Chemscore.Lipo>
65.4886

> <Gold.Chemscore.Internal_Hbond>
0.0000

> <Gold.Chemscore.DEClash>
2.1486

> <Gold.Chemscore.DEInternal>
3.4001

> <Gold.Chemscore.Rot>
1.2464

> <Gold.Chemscore.Internal.Correction>
   9.000000E+99

> <Gold.Chemscore.Hbonds>
donor molecule, donor type, donor heavy atom, donor atom, acceptor molecule, acceptor atom, score
      L1  H     5    23       P1  8028  0.94
      L1  H    12    36       P1 10175  1.00
      P1  H  7989  7998       L1     7  0.50

> <Gold.Chemscore.Hbond.Weighted>
-8.3762

> <Gold.Chemscore.Metal.Weighted>
-0.0000

> <Gold.Chemscore.Lipo.Weighted>
-7.6622

> <Gold.Chemscore.Internal_Hbond.Weighted>
0.0000

> <Gold.Chemscore.DEClash.Weighted>
2.1486

> <Gold.Chemscore.DEInternal.Weighted>
3.4001

> <Gold.Chemscore.Rot.Weighted>
3.1909

> <Gold.Chemscore.Internal.Correction.Weighted>
   9.000000E+99

> <Gold.Protein.RotatedTorsions>
[ 6907 6896 6895 6894 ] final   10.51 input  -60.11 | X-H torsion
[ 7974 7965 7964 7962 ] final  -86.38 input  175.53 | X-H torsion
[ 8008 7997 7996 7995 ] final  -19.78 input   59.86 | X-H torsion
[ 10167 10162 10161 10158 ] final -127.33 input  -65.29 | X-H torsion
[ 10718 10713 10712 10709 ] final  -85.32 input   66.30 | X-H torsion
[ 10763 10752 10751 10750 ] final -118.36 input  -60.55 | X-H torsion
[ 11005 11000 10999 10996 ] final   -2.57 input  -57.11 | X-H torsion

> <Gold.Protein.ActiveResidues>
 VAL166  LYS551  ARG553  GLY616  TRP617  ASP618  TYR619  PRO620  LYS621  CYS622 
 ASP623  PHE694  ASN695  SER759  ASP760  ASP761  ALA762  ILE779  LEU786  VAL792 
 PHE793  MET794  SER795  GLU796  ALA797  LYS798  CYS799  TRP800  GLU811  SER814 

> <Gold.Protein.RotatedAtoms>
  151.7394  135.0857  160.0312 H   0  0  0  0  0  0  0  0  0  0  0  0  # atno 6907 bound_to 6896
  152.3489  133.6152  159.5939 H   0  0  0  0  0  0  0  0  0  0  0  0  # atno 6908 bound_to 6896
  150.7527  133.9521  159.3530 H   0  0  0  0  0  0  0  0  0  0  0  0  # atno 6909 bound_to 6896
  145.4806  140.9557  143.1866 H   0  0  0  0  0  0  0  0  0  0  0  0  # atno 7974 bound_to 7965
  154.4813  140.2079  155.9756 H   0  0  0  0  0  0  0  0  0  0  0  0  # atno 8008 bound_to 7997
  156.1170  140.3220  155.8122 H   0  0  0  0  0  0  0  0  0  0  0  0  # atno 8009 bound_to 7997
  155.4536  140.0519  157.2989 H   0  0  0  0  0  0  0  0  0  0  0  0  # atno 8010 bound_to 7997
  139.9620  143.5939  152.2442 H   0  0  0  0  0  0  0  0  0  0  0  0  # atno 10167 bound_to 10162
  155.9998  130.4727  150.4545 H   0  0  0  0  0  0  0  0  0  0  0  0  # atno 10718 bound_to 10713
  154.8585  135.4277  154.2126 H   0  0  0  0  0  0  0  0  0  0  0  0  # atno 10763 bound_to 10752
  153.3149  135.6978  153.7088 H   0  0  0  0  0  0  0  0  0  0  0  0  # atno 10764 bound_to 10752
  153.6166  135.3509  155.2971 H   0  0  0  0  0  0  0  0  0  0  0  0  # atno 10765 bound_to 10752
  140.6598  133.9330  155.8429 H   0  0  0  0  0  0  0  0  0  0  0  0  # atno 11005 bound_to 11000
  144.7891  139.6365  143.7121 LP  0  0  0  0  0  0  0  0  0  0  0  0  # atno 17320 bound_to 7965
  146.2343  139.5874  142.9534 LP  0  0  0  0  0  0  0  0  0  0  0  0  # atno 17321 bound_to 7965
  139.6546  144.7662  151.2080 LP  0  0  0  0  0  0  0  0  0  0  0  0  # atno 17342 bound_to 10162
  140.7550  143.6106  150.8609 LP  0  0  0  0  0  0  0  0  0  0  0  0  # atno 17343 bound_to 10162
  157.2575  131.0559  151.2341 LP  0  0  0  0  0  0  0  0  0  0  0  0  # atno 17370 bound_to 10713
  157.3468  130.7061  149.6415 LP  0  0  0  0  0  0  0  0  0  0  0  0  # atno 17371 bound_to 10713
  141.0474  134.0534  157.3827 LP  0  0  0  0  0  0  0  0  0  0  0  0  # atno 17394 bound_to 11000
  139.9017  135.0167  156.7299 LP  0  0  0  0  0  0  0  0  0  0  0  0  # atno 17395 bound_to 11000

$$$$
