AV-unprocessed.smi:594|AV-procd|sdf|3014|dock10
  -GOLD-   2262023523D 1   1.00000     0.00000
 Structure written by MMmdl.
 40 41  0  0  0  0  0  0  0  0  3 V2000
  145.9324  136.1001  151.6952 C   0  0  0  0  0  0  0  0  0  0  0  0
  145.8005  134.7079  151.0519 C   0  0  2  0  0  0  0  0  0  0  0  0
  144.4078  134.5378  150.4112 C   0  0  0  0  0  0  0  0  0  0  0  0
  144.2444  133.1598  149.7527 C   0  0  0  0  0  0  0  0  0  0  0  0
  144.5112  132.0331  150.7596 C   0  0  0  0  0  0  0  0  0  0  0  0
  145.9017  132.1795  151.3937 C   0  0  0  0  0  0  0  0  0  0  0  0
  146.0837  133.5619  152.0553 C   0  0  1  0  0  0  0  0  0  0  0  0
  147.4382  133.6782  152.5912 N   0  0  0  0  0  0  0  0  0  0  0  0
  148.0677  132.7488  153.3257 C   0  0  0  0  0  0  0  0  0  0  0  0
  147.5669  131.6606  153.6125 O   0  0  0  0  0  0  0  0  0  0  0  0
  149.4886  133.1061  153.7841 C   0  0  0  0  0  0  0  0  0  0  0  0
  149.5155  134.1158  154.8557 N   0  0  0  0  0  0  0  0  0  0  0  0
  150.3546  135.2314  154.6646 C   0  0  0  0  0  0  0  0  0  0  0  0
  150.4620  136.2120  155.5824 C   0  0  0  0  0  0  0  0  0  0  0  0
  151.3324  137.3480  155.3716 N   0  3  0  0  0  0  0  0  0  0  0  0
  151.4077  138.2025  156.2487 O   0  0  0  0  0  0  0  0  0  0  0  0
  151.9681  137.4252  154.3245 O   0  5  0  0  0  0  0  0  0  0  0  0
  149.6763  136.0896  156.7951 C   0  0  0  0  0  0  0  0  0  0  0  0
  148.8746  135.0233  156.9855 C   0  0  0  0  0  0  0  0  0  0  0  0
  148.7622  133.9553  155.9868 C   0  0  0  0  0  0  0  0  0  0  0  0
  148.0352  132.9763  156.1566 O   0  0  0  0  0  0  0  0  0  0  0  0
  145.2403  136.2164  152.5298 H   0  0  0  0  0  0  0  0  0  0  0  0
  145.7153  136.8872  150.9727 H   0  0  0  0  0  0  0  0  0  0  0  0
  146.9399  136.2780  152.0717 H   0  0  0  0  0  0  0  0  0  0  0  0
  146.5396  134.6466  150.2514 H   0  0  0  0  0  0  0  0  0  0  0  0
  143.6348  134.6704  151.1698 H   0  0  0  0  0  0  0  0  0  0  0  0
  144.2428  135.3165  149.6657 H   0  0  0  0  0  0  0  0  0  0  0  0
  143.2390  133.0608  149.3424 H   0  0  0  0  0  0  0  0  0  0  0  0
  144.9328  133.0708  148.9114 H   0  0  0  0  0  0  0  0  0  0  0  0
  143.7492  132.0495  151.5399 H   0  0  0  0  0  0  0  0  0  0  0  0
  144.4281  131.0648  150.2653 H   0  0  0  0  0  0  0  0  0  0  0  0
  146.0495  131.3876  152.1292 H   0  0  0  0  0  0  0  0  0  0  0  0
  146.6643  132.0336  150.6274 H   0  0  0  0  0  0  0  0  0  0  0  0
  145.3680  133.6502  152.8753 H   0  0  0  0  0  0  0  0  0  0  0  0
  147.9287  134.5396  152.3980 H   0  0  0  0  0  0  0  0  0  0  0  0
  149.9806  132.1884  154.1093 H   0  0  0  0  0  0  0  0  0  0  0  0
  150.0705  133.4525  152.9278 H   0  0  0  0  0  0  0  0  0  0  0  0
  150.9023  135.2256  153.7332 H   0  0  0  0  0  0  0  0  0  0  0  0
  149.7260  136.8509  157.5598 H   0  0  0  0  0  0  0  0  0  0  0  0
  148.2987  134.9515  157.8965 H   0  0  0  0  0  0  0  0  0  0  0  0
  1  2  1  0  0  0  0
  1 22  1  0  0  0  0
  1 23  1  0  0  0  0
  1 24  1  0  0  0  0
  2  7  1  0  0  0  0
  2  3  1  0  0  0  0
  2 25  1  0  0  0  0
  3  4  1  0  0  0  0
  3 26  1  0  0  0  0
  3 27  1  0  0  0  0
  4  5  1  0  0  0  0
  4 28  1  0  0  0  0
  4 29  1  0  0  0  0
  5  6  1  0  0  0  0
  5 30  1  0  0  0  0
  5 31  1  0  0  0  0
  6  7  1  0  0  0  0
  6 32  1  0  0  0  0
  6 33  1  0  0  0  0
  7  8  1  0  0  0  0
  7 34  1  0  0  0  0
  8  9  1  0  0  0  0
  8 35  1  0  0  0  0
  9 10  2  0  0  0  0
  9 11  1  0  0  0  0
 11 12  1  0  0  0  0
 11 36  1  0  0  0  0
 11 37  1  0  0  0  0
 12 20  1  0  0  0  0
 12 13  1  0  0  0  0
 13 14  2  0  0  0  0
 13 38  1  0  0  0  0
 14 15  1  0  0  0  0
 14 18  1  0  0  0  0
 15 16  2  0  0  0  0
 15 17  1  0  0  0  0
 18 19  2  0  0  0  0
 18 39  1  0  0  0  0
 19 20  1  0  0  0  0
 19 40  1  0  0  0  0
 20 21  2  0  0  0  0
M  CHG  1  15   1
M  CHG  1  17  -1
M  END
> <s_m_source_file>
AV-unprocessed.smi

> <i_m_source_file_index>
594

> <i_lp_mmshare_version>
43012

> <i_f3d_flags>
0

> <s_epik_input>
W0NIM11bQ0BASF0xW0NIMl1bQ0gyXVtDSDJdW0NIMl1bQ0BIXTFbTkhdQyg9TylbQ0gyXW4yW2NIXWMoW04rXSg9TylbTy1dKVtjSF1bY0hdYzI9Tw==

> <s_epik_cmdline>
J2VwaWtfcHl0aG9uJywgJy1waCcsICc3LjAnLCAnLXRuJywgJzgnLCAnLW1hJywgJzIwMCcsICctbWV0YWxfYmluZGluZycsICctaW1hZScsICc8aW5maWxlLm1hZT4nLCAnLW9tYWUnLCAnPG91dGZpbGUubWFlPic=

> <r_lp_tautomer_probability>
1

> <r_epik_Ionization_Penalty>
1.91305e-08

> <r_epik_Ionization_Penalty_Charging>
8.35811e-11

> <r_epik_Ionization_Penalty_Neutral>
1.90469e-08

> <r_epik_State_Penalty>
-0

> <r_epik_Charging_Adjusted_Penalty>
8.35811e-11

> <i_epik_Tot_Q>
0

> <i_epik_Tot_abs_Q>
2

> <r_epik_Metal_State_Penalty>
-0

> <b_epik_Metal_Only>
0

> <s_lp_Force_Field>
OPLS_2005

> <r_lp_Energy>
21.501

> <b_lp_Chiralities_Consistent>
1

> <s_lp_Variant>
AV-unprocessed.smi:594-1

> <Gold.Version>
5.8.1

> <Gold.Id.Protein>
6NUR|6NUR_protein|mol2

> <Gold.PLP.Fitness>
40.2546

> <Gold.PLP.PLP>
-33.2262

> <Gold.PLP.part.hbond>
-2.0000

> <Gold.PLP.part.metal>
0.0000

> <Gold.PLP.part.buried>
-4.6728

> <Gold.PLP.part.nonpolar>
-26.8934

> <Gold.PLP.part.repulsive>
0.2258

> <Gold.PLP.ligand.clash>
0.0000

> <Gold.PLP.ligand.torsion>
0.3438

> <Gold.PLP.Chemscore.Hbond>
1.9280

> <Gold.PLP.Chemscore.CHOScore>
0.6401

> <Gold.PLP.Chemscore.Metal>
0.0000

> <Gold.Chemscore.Hbonds>
donor molecule, donor type, donor heavy atom, donor atom, acceptor molecule, acceptor atom, score
      L1  H     8    35       P1  7948  1.00
      P1  H 10752 10764       L1    17  0.91
      L1  C    13    38       P1  7949  0.65

> <Gold.PLP.Chemscore.Internal.Correction>
0.0116

> <Gold.Rescore>
     Score         DG    S(hbond)    S(metal)    S(lipo)     H(rot)  DE(clash)    DE(int)     intcor
     10.08     -14.64       1.56        0.00      67.55       1.55       0.12       4.43       ----

> <Gold.Chemscore.Fitness>
10.0840

> <Gold.Chemscore.DG>
-14.6372

> <Gold.Chemscore.ZeroCoef>
-5.4800

> <Gold.Chemscore.Hbond>
1.5637

> <Gold.Chemscore.Metal>
0.0000

> <Gold.Chemscore.Lipo>
67.5526

> <Gold.Chemscore.Internal_Hbond>
0.0000

> <Gold.Chemscore.DEClash>
0.1214

> <Gold.Chemscore.DEInternal>
4.4317

> <Gold.Chemscore.Rot>
1.5505

> <Gold.Chemscore.Internal.Correction>
   9.000000E+99

> <Gold.Chemscore.Hbonds>
donor molecule, donor type, donor heavy atom, donor atom, acceptor molecule, acceptor atom, score
      L1  H     8    35       P1  7948  0.48
      P1  H 10752 10764       L1    17  0.34

> <Gold.Chemscore.Hbond.Weighted>
-5.2227

> <Gold.Chemscore.Metal.Weighted>
-0.0000

> <Gold.Chemscore.Lipo.Weighted>
-7.9037

> <Gold.Chemscore.Internal_Hbond.Weighted>
0.0000

> <Gold.Chemscore.DEClash.Weighted>
0.1214

> <Gold.Chemscore.DEInternal.Weighted>
4.4317

> <Gold.Chemscore.Rot.Weighted>
3.9692

> <Gold.Chemscore.Internal.Correction.Weighted>
   9.000000E+99

> <Gold.Protein.RotatedTorsions>
[ 6907 6896 6895 6894 ] final   81.12 input  -60.11 | X-H torsion
[ 7974 7965 7964 7962 ] final   -8.98 input  175.53 | X-H torsion
[ 8008 7997 7996 7995 ] final  -68.57 input   59.86 | X-H torsion
[ 10167 10162 10161 10158 ] final   65.14 input  -65.29 | X-H torsion
[ 10718 10713 10712 10709 ] final   47.79 input   66.30 | X-H torsion
[ 10763 10752 10751 10750 ] final  -77.98 input  -60.55 | X-H torsion
[ 11005 11000 10999 10996 ] final -105.38 input  -57.11 | X-H torsion

> <Gold.Protein.ActiveResidues>
 VAL166  LYS551  ARG553  GLY616  TRP617  ASP618  TYR619  PRO620  LYS621  CYS622 
 ASP623  PHE694  ASN695  SER759  ASP760  ASP761  ALA762  ILE779  LEU786  VAL792 
 PHE793  MET794  SER795  GLU796  ALA797  LYS798  CYS799  TRP800  GLU811  SER814 

> <Gold.Protein.RotatedAtoms>
  152.5258  134.3253  159.9162 H   0  0  0  0  0  0  0  0  0  0  0  0  # atno 6907 bound_to 6896
  151.3202  133.4037  159.2661 H   0  0  0  0  0  0  0  0  0  0  0  0  # atno 6908 bound_to 6896
  150.9965  134.9305  159.7987 H   0  0  0  0  0  0  0  0  0  0  0  0  # atno 6909 bound_to 6896
  146.2265  140.2548  142.8349 H   0  0  0  0  0  0  0  0  0  0  0  0  # atno 7974 bound_to 7965
  154.4877  140.0870  156.7524 H   0  0  0  0  0  0  0  0  0  0  0  0  # atno 8008 bound_to 7997
  155.4308  140.3449  155.4262 H   0  0  0  0  0  0  0  0  0  0  0  0  # atno 8009 bound_to 7997
  156.1285  140.1494  156.9088 H   0  0  0  0  0  0  0  0  0  0  0  0  # atno 8010 bound_to 7997
  140.1146  144.4787  150.6957 H   0  0  0  0  0  0  0  0  0  0  0  0  # atno 10167 bound_to 10162
  157.4621  130.8203  149.7897 H   0  0  0  0  0  0  0  0  0  0  0  0  # atno 10718 bound_to 10713
  154.5200  135.5745  153.6673 H   0  0  0  0  0  0  0  0  0  0  0  0  # atno 10763 bound_to 10752
  152.9915  135.6179  154.2767 H   0  0  0  0  0  0  0  0  0  0  0  0  # atno 10764 bound_to 10752
  154.2687  135.2854  155.2727 H   0  0  0  0  0  0  0  0  0  0  0  0  # atno 10765 bound_to 10752
  141.1056  133.8803  157.1727 H   0  0  0  0  0  0  0  0  0  0  0  0  # atno 11005 bound_to 11000
  144.9384  140.8052  143.5646 LP  0  0  0  0  0  0  0  0  0  0  0  0  # atno 17320 bound_to 7965
  145.2497  139.2037  143.4949 LP  0  0  0  0  0  0  0  0  0  0  0  0  # atno 17321 bound_to 7965
  140.6907  143.2374  151.5140 LP  0  0  0  0  0  0  0  0  0  0  0  0  # atno 17342 bound_to 10162
  139.5601  144.2178  152.1677 LP  0  0  0  0  0  0  0  0  0  0  0  0  # atno 17343 bound_to 10162
  156.0033  130.3868  150.2522 LP  0  0  0  0  0  0  0  0  0  0  0  0  # atno 17370 bound_to 10713
  157.0701  131.0114  151.3193 LP  0  0  0  0  0  0  0  0  0  0  0  0  # atno 17371 bound_to 10713
  139.9925  135.0059  157.0007 LP  0  0  0  0  0  0  0  0  0  0  0  0  # atno 17394 bound_to 11000
  140.4911  134.1192  155.7233 LP  0  0  0  0  0  0  0  0  0  0  0  0  # atno 17395 bound_to 11000

$$$$
