AV-unprocessed.smi:3132|AV-procd|sdf|11929|dock1
  -GOLD-   2272017313D 1   1.00000     0.00000
 Structure written by MMmdl.
 34 35  0  0  0  0  0  0  0  0  2 V2000
  149.3232  140.4759  156.9503 C   0  0  0  0  0  0  0  0  0  0  0  0
  150.1716  141.2418  155.9265 C   0  0  2  0  0  0  0  0  0  0  0  0
  151.4255  140.4362  155.5218 C   0  0  0  0  0  0  0  0  0  0  0  0
  151.1059  139.1056  154.9936 N   0  0  0  0  0  0  0  0  0  0  0  0
  151.6066  137.9002  155.4156 C   0  0  0  0  0  0  0  0  0  0  0  0
  151.0385  136.9406  154.6181 C   0  0  0  0  0  0  0  0  0  0  0  0
  150.2108  137.5995  153.7487 N   0  3  0  0  0  0  0  0  0  0  0  0
  150.2511  138.9156  153.9805 C   0  0  0  0  0  0  0  0  0  0  0  0
  150.5455  142.5369  156.4932 N   0  0  0  0  0  0  0  0  0  0  0  0
  151.4014  142.7299  157.5094 C   0  0  0  0  0  0  0  0  0  0  0  0
  151.9996  141.8130  158.0734 O   0  0  0  0  0  0  0  0  0  0  0  0
  151.5698  144.1757  157.9870 C   0  0  2  0  0  0  0  0  0  0  0  0
  152.7329  144.3800  158.9751 C   0  0  0  0  0  0  0  0  0  0  0  0
  152.0379  144.6193  160.3007 C   0  0  0  0  0  0  0  0  0  0  0  0
  150.7408  145.2778  159.8545 C   0  0  0  0  0  0  0  0  0  0  0  0
  150.3856  144.5410  158.6945 O   0  0  0  0  0  0  0  0  0  0  0  0
  149.0037  139.5123  156.5521 H   0  0  0  0  0  0  0  0  0  0  0  0
  148.4248  141.0353  157.2143 H   0  0  0  0  0  0  0  0  0  0  0  0
  149.8805  140.2875  157.8687 H   0  0  0  0  0  0  0  0  0  0  0  0
  149.5488  141.3919  155.0427 H   0  0  0  0  0  0  0  0  0  0  0  0
  152.0030  140.9710  154.7664 H   0  0  0  0  0  0  0  0  0  0  0  0
  152.0829  140.2970  156.3815 H   0  0  0  0  0  0  0  0  0  0  0  0
  152.3197  137.8179  156.2232 H   0  0  0  0  0  0  0  0  0  0  0  0
  151.1593  135.8672  154.6033 H   0  0  0  0  0  0  0  0  0  0  0  0
  149.7084  139.6756  153.4468 H   0  0  0  0  0  0  0  0  0  0  0  0
  150.0994  143.3513  156.0959 H   0  0  0  0  0  0  0  0  0  0  0  0
  151.6936  144.8414  157.1310 H   0  0  0  0  0  0  0  0  0  0  0  0
  153.4333  143.5448  159.0229 H   0  0  0  0  0  0  0  0  0  0  0  0
  153.3033  145.2651  158.6900 H   0  0  0  0  0  0  0  0  0  0  0  0
  151.8259  143.6684  160.7916 H   0  0  0  0  0  0  0  0  0  0  0  0
  152.6192  145.2381  160.9849 H   0  0  0  0  0  0  0  0  0  0  0  0
  149.9605  145.2330  160.6142 H   0  0  0  0  0  0  0  0  0  0  0  0
  150.9065  146.3227  159.5872 H   0  0  0  0  0  0  0  0  0  0  0  0
  149.6512  137.1570  153.0306 H   0  0  0  0  0  0  0  0  0  0  0  0
  1  2  1  0  0  0  0
  1 17  1  0  0  0  0
  1 18  1  0  0  0  0
  1 19  1  0  0  0  0
  2  3  1  0  0  0  0
  2  9  1  0  0  0  0
  2 20  1  0  0  0  0
  3  4  1  0  0  0  0
  3 21  1  0  0  0  0
  3 22  1  0  0  0  0
  4  8  1  0  0  0  0
  4  5  1  0  0  0  0
  5  6  2  0  0  0  0
  5 23  1  0  0  0  0
  6  7  1  0  0  0  0
  6 24  1  0  0  0  0
  7  8  2  0  0  0  0
  7 34  1  0  0  0  0
  8 25  1  0  0  0  0
  9 10  1  0  0  0  0
  9 26  1  0  0  0  0
 10 11  2  0  0  0  0
 10 12  1  0  0  0  0
 12 16  1  0  0  0  0
 12 13  1  0  0  0  0
 12 27  1  0  0  0  0
 13 14  1  0  0  0  0
 13 28  1  0  0  0  0
 13 29  1  0  0  0  0
 14 15  1  0  0  0  0
 14 30  1  0  0  0  0
 14 31  1  0  0  0  0
 15 16  1  0  0  0  0
 15 32  1  0  0  0  0
 15 33  1  0  0  0  0
M  CHG  1   7   1
M  END
> <s_m_source_file>
AV-unprocessed.smi

> <i_m_source_file_index>
3132

> <i_lp_mmshare_version>
43012

> <i_f3d_flags>
0

> <s_epik_input>
W2NIXTFuW2NIXVtjSF1uMVtDSDJdW0NAQEhdKFtDSDNdKVtOSF1DKD1PKVtDQEBIXTJbQ0gyXVtDSDJdW0NIMl1PMg==

> <s_epik_cmdline>
J2VwaWtfcHl0aG9uJywgJy1waCcsICc3LjAnLCAnLXRuJywgJzgnLCAnLW1hJywgJzIwMCcsICctbWV0YWxfYmluZGluZycsICctaW1hZScsICc8aW5maWxlLm1hZT4nLCAnLW9tYWUnLCAnPG91dGZpbGUubWFlPic=

> <r_lp_tautomer_probability>
1

> <r_epik_Ionization_Penalty>
0.250802

> <r_epik_Ionization_Penalty_Charging>
0

> <r_epik_Ionization_Penalty_Neutral>
0.250802

> <r_epik_State_Penalty>
0.242139

> <r_epik_Charging_Adjusted_Penalty>
0.242139

> <i_epik_Tot_Q>
1

> <i_epik_Tot_abs_Q>
1

> <r_epik_Metal_State_Penalty>
0.533361

> <b_epik_Metal_Only>
0

> <s_lp_Force_Field>
OPLS_2005

> <r_lp_Energy>
20.2127

> <b_lp_Chiralities_Consistent>
1

> <s_lp_Variant>
AV-unprocessed.smi:3132-1

> <Gold.Version>
5.8.1

> <Gold.Id.Protein>
6NUR|6NUR_protein|mol2

> <Gold.PLP.Fitness>
47.0102

> <Gold.PLP.PLP>
-35.7977

> <Gold.PLP.part.hbond>
-3.0000

> <Gold.PLP.part.metal>
0.0000

> <Gold.PLP.part.buried>
-3.3773

> <Gold.PLP.part.nonpolar>
-30.5237

> <Gold.PLP.part.repulsive>
0.3119

> <Gold.PLP.ligand.clash>
0.0000

> <Gold.PLP.ligand.torsion>
0.3938

> <Gold.PLP.Chemscore.Hbond>
3.0000

> <Gold.PLP.Chemscore.CHOScore>
0.9919

> <Gold.PLP.Chemscore.Metal>
0.0000

> <Gold.Chemscore.Hbonds>
donor molecule, donor type, donor heavy atom, donor atom, acceptor molecule, acceptor atom, score
      L1  H     7    34       P1  7948  2.00
      L1  H     9    26       P1  8028  1.00
      L1  C     8    25       P1  7957  0.96

> <Gold.PLP.Chemscore.Internal.Correction>
0.0244

> <Gold.Rescore>
     Score         DG    S(hbond)    S(metal)    S(lipo)     H(rot)  DE(clash)    DE(int)     intcor
     14.81     -16.18       1.93        0.00      78.51       1.93       0.22       1.15       ----

> <Gold.Chemscore.Fitness>
14.8083

> <Gold.Chemscore.DG>
-16.1795

> <Gold.Chemscore.ZeroCoef>
-5.4800

> <Gold.Chemscore.Hbond>
1.9331

> <Gold.Chemscore.Metal>
0.0000

> <Gold.Chemscore.Lipo>
78.5101

> <Gold.Chemscore.Internal_Hbond>
0.0000

> <Gold.Chemscore.DEClash>
0.2213

> <Gold.Chemscore.DEInternal>
1.1498

> <Gold.Chemscore.Rot>
1.9308

> <Gold.Chemscore.Internal.Correction>
   9.000000E+99

> <Gold.Chemscore.Hbonds>
donor molecule, donor type, donor heavy atom, donor atom, acceptor molecule, acceptor atom, score
      L1  H     7    34       P1  7948  0.54
      L1  H     9    26       P1  8028  1.00

> <Gold.Chemscore.Hbond.Weighted>
-6.4567

> <Gold.Chemscore.Metal.Weighted>
-0.0000

> <Gold.Chemscore.Lipo.Weighted>
-9.1857

> <Gold.Chemscore.Internal_Hbond.Weighted>
0.0000

> <Gold.Chemscore.DEClash.Weighted>
0.2213

> <Gold.Chemscore.DEInternal.Weighted>
1.1498

> <Gold.Chemscore.Rot.Weighted>
4.9429

> <Gold.Chemscore.Internal.Correction.Weighted>
   9.000000E+99

> <Gold.Protein.RotatedTorsions>
[ 6907 6896 6895 6894 ] final   94.15 input  -60.11 | X-H torsion
[ 7974 7965 7964 7962 ] final   18.75 input  175.53 | X-H torsion
[ 8008 7997 7996 7995 ] final  112.15 input   59.86 | X-H torsion
[ 10167 10162 10161 10158 ] final -105.57 input  -65.29 | X-H torsion
[ 10718 10713 10712 10709 ] final  -87.33 input   66.30 | X-H torsion
[ 10763 10752 10751 10750 ] final  -75.09 input  -60.55 | X-H torsion
[ 11005 11000 10999 10996 ] final -151.82 input  -57.11 | X-H torsion

> <Gold.Protein.ActiveResidues>
 VAL166  LYS551  ARG553  GLY616  TRP617  ASP618  TYR619  PRO620  LYS621  CYS622 
 ASP623  PHE694  ASN695  SER759  ASP760  ASP761  ALA762  ILE779  LEU786  VAL792 
 PHE793  MET794  SER795  GLU796  ALA797  LYS798  CYS799  TRP800  GLU811  SER814 

> <Gold.Protein.RotatedAtoms>
  152.5450  134.1237  159.8409 H   0  0  0  0  0  0  0  0  0  0  0  0  # atno 6907 bound_to 6896
  151.1290  133.5043  159.2607 H   0  0  0  0  0  0  0  0  0  0  0  0  # atno 6908 bound_to 6896
  151.1695  135.0321  159.8800 H   0  0  0  0  0  0  0  0  0  0  0  0  # atno 6909 bound_to 6896
  146.2174  139.8412  142.8640 H   0  0  0  0  0  0  0  0  0  0  0  0  # atno 7974 bound_to 7965
  156.2173  140.3005  155.9869 H   0  0  0  0  0  0  0  0  0  0  0  0  # atno 8008 bound_to 7997
  155.2573  140.0428  157.3010 H   0  0  0  0  0  0  0  0  0  0  0  0  # atno 8009 bound_to 7997
  154.5787  140.2369  155.8093 H   0  0  0  0  0  0  0  0  0  0  0  0  # atno 8010 bound_to 7997
  140.1971  143.3847  152.1160 H   0  0  0  0  0  0  0  0  0  0  0  0  # atno 10167 bound_to 10162
  155.9986  130.4796  150.4851 H   0  0  0  0  0  0  0  0  0  0  0  0  # atno 10718 bound_to 10713
  154.4818  135.5843  153.6395 H   0  0  0  0  0  0  0  0  0  0  0  0  # atno 10763 bound_to 10752
  152.9849  135.6091  154.3236 H   0  0  0  0  0  0  0  0  0  0  0  0  # atno 10764 bound_to 10752
  154.3128  135.2845  155.2537 H   0  0  0  0  0  0  0  0  0  0  0  0  # atno 10765 bound_to 10752
  140.7254  134.3680  157.5176 H   0  0  0  0  0  0  0  0  0  0  0  0  # atno 11005 bound_to 11000
  145.2897  141.0163  143.3670 LP  0  0  0  0  0  0  0  0  0  0  0  0  # atno 17320 bound_to 7965
  144.9087  139.4557  143.6597 LP  0  0  0  0  0  0  0  0  0  0  0  0  # atno 17321 bound_to 7965
  139.5232  144.7069  151.5328 LP  0  0  0  0  0  0  0  0  0  0  0  0  # atno 17342 bound_to 10162
  140.6416  143.8877  150.6697 LP  0  0  0  0  0  0  0  0  0  0  0  0  # atno 17343 bound_to 10162
  157.2852  131.0615  151.2171 LP  0  0  0  0  0  0  0  0  0  0  0  0  # atno 17370 bound_to 10713
  157.3203  130.6934  149.6265 LP  0  0  0  0  0  0  0  0  0  0  0  0  # atno 17371 bound_to 10713
  139.8838  134.8983  156.2742 LP  0  0  0  0  0  0  0  0  0  0  0  0  # atno 17394 bound_to 11000
  140.9967  133.7176  156.0896 LP  0  0  0  0  0  0  0  0  0  0  0  0  # atno 17395 bound_to 11000

$$$$
