#       Name:                AV-unprocessed.smi:3303
#       Creating user name   scv26
#       Creation time:       Fri Mar 27 18:59:40 2020


#       File generated by GOLD software.
#

@<TRIPOS>MOLECULE
AV-unprocessed.smi:3303
    46    47     1
SMALL
NO_CHARGES


@<TRIPOS>ATOM
      1 ****        -1.9007  -0.8869  -2.8424 C.3            1 S1                 0.0000
      2 ****        -2.1371  -1.1746  -1.3501 C.3            1 S1                 0.0000
      3 ****        -1.6780  -2.5913  -0.9497 C.3            1 S1                 0.0000
      4 ****        -2.0154  -2.8824   0.4669 N.4            1 S1                 1.0000
      5 ****        -1.8020  -4.3023   0.8293 C.3            1 S1                 0.0000
      6 ****        -1.4268  -1.9088   1.4312 C.3            1 S1                 0.0000
      7 ****         0.0925  -2.0885   1.6437 C.3            1 S1                 0.0000
      8 ****        -1.8238  -0.4633   1.0503 C.3            1 S1                 0.0000
      9 ****        -1.5315  -0.0957  -0.4236 C.3            1 S1                 0.0000
     10 ****        -0.0861   0.1073  -0.6901 N.4            1 S1                 1.0000
     11 ****         0.4940   1.3518  -0.1442 C.3            1 S1                 0.0000
     12 ****         1.9742   1.4790  -0.5274 C.3            1 S1                 0.0000
     13 ****         2.6016   2.7406   0.0334 C.ar           1 S1                 0.0000
     14 ****         2.8091   3.8706  -0.7860 C.ar           1 S1                 0.0000
     15 ****         3.3893   5.0179  -0.2105 C.ar           1 S1                 0.0000
     16 ****         3.7358   4.9908   1.1542 C.ar           1 S1                 0.0000
     17 ****         3.4863   3.8130   1.8865 C.ar           1 S1                 0.0000
     18 ****         2.9297   2.7077   1.3446 N.ar           1 S1                 0.0000
     19 ****        -0.8453  -0.9553  -3.1074 H              1 S1                 0.0000
     20 ****        -2.2493   0.1110  -3.1106 H              1 S1                 0.0000
     21 ****        -2.4406  -1.5997  -3.4666 H              1 S1                 0.0000
     22 ****        -3.2183  -1.1425  -1.2038 H              1 S1                 0.0000
     23 ****        -2.1781  -3.3225  -1.5866 H              1 S1                 0.0000
     24 ****        -0.6079  -2.7170  -1.1180 H              1 S1                 0.0000
     25 ****        -0.7602  -4.5973   0.6997 H              1 S1                 0.0000
     26 ****        -2.4132  -4.9495   0.1997 H              1 S1                 0.0000
     27 ****        -2.0875  -4.4851   1.8658 H              1 S1                 0.0000
     28 ****        -1.8944  -2.1094   2.3964 H              1 S1                 0.0000
     29 ****         0.4854  -1.3121   2.3009 H              1 S1                 0.0000
     30 ****         0.6571  -2.0463   0.7136 H              1 S1                 0.0000
     31 ****         0.3187  -3.0436   2.1179 H              1 S1                 0.0000
     32 ****        -2.8983  -0.3615   1.2089 H              1 S1                 0.0000
     33 ****        -1.3719   0.2500   1.7390 H              1 S1                 0.0000
     34 ****        -2.0301   0.8489  -0.6469 H              1 S1                 0.0000
     35 ****         0.4305  -0.6817  -0.3289 H              1 S1                 0.0000
     36 ****        -0.0623   2.2088  -0.5262 H              1 S1                 0.0000
     37 ****         0.3975   1.3606   0.9412 H              1 S1                 0.0000
     38 ****         2.5320   0.6160  -0.1599 H              1 S1                 0.0000
     39 ****         2.0824   1.4751  -1.6129 H              1 S1                 0.0000
     40 ****         2.5323   3.8626  -1.8303 H              1 S1                 0.0000
     41 ****         3.5644   5.9025  -0.8052 H              1 S1                 0.0000
     42 ****         4.1828   5.8521   1.6288 H              1 S1                 0.0000
     43 ****         3.7393   3.7568   2.9348 H              1 S1                 0.0000
     44 ****         0.0380   0.1382  -1.6924 H              1 S1                 0.0000
     45 ****        -3.0142  -2.7450   0.5340 H              1 S1                 0.0000
     46 ****         2.7654   1.8901   1.8965 LP             1 S1                 0.0000
@<TRIPOS>BOND
    1    1    2 1     
    2    1   19 1     
    3    1   20 1     
    4    1   21 1     
    5    2    9 1     
    6    2    3 1     
    7    2   22 1     
    8    3    4 1     
    9    3   23 1     
   10    3   24 1     
   11    4    5 1     
   12    4    6 1     
   13    4   45 1     
   14    5   25 1     
   15    5   26 1     
   16    5   27 1     
   17    6    7 1     
   18    6    8 1     
   19    6   28 1     
   20    7   29 1     
   21    7   30 1     
   22    7   31 1     
   23    8    9 1     
   24    8   32 1     
   25    8   33 1     
   26    9   10 1     
   27    9   34 1     
   28   10   11 1     
   29   10   35 1     
   30   10   44 1     
   31   11   12 1     
   32   11   36 1     
   33   11   37 1     
   34   12   13 1     
   35   12   38 1     
   36   12   39 1     
   37   13   18 ar    
   38   13   14 ar    
   39   14   15 ar    
   40   14   40 1     
   41   15   16 ar    
   42   15   41 1     
   43   16   17 ar    
   44   16   42 1     
   45   17   18 ar    
   46   17   43 1     
   47   18   46 1     
@<TRIPOS>SUBSTRUCTURE
      1 S1             1
@<TRIPOS>SET
LONE_PAIRS      STATIC     ATOMS    <user>   **** ""
1 46
DONOR_HYDROGENS      STATIC     ATOMS    <user>   **** ""
3 45 35 44
ATOM$BLUE        STATIC     ATOMS    COLORGROUP SYSTEM
1 46
ATOM$RED        STATIC     ATOMS    COLORGROUP SYSTEM
3 45 35 44
