AV-unprocessed.smi:3189|AV-procd|sdf|12188|dock7
  -GOLD-   2272018 33D 1   1.00000     0.00000
 Structure written by MMmdl.
 30 31  0  0  0  0  0  0  0  0  1 V2000
  147.0528  139.2460  153.2823 C   0  0  0  0  0  0  0  0  0  0  0  0
  148.3282  139.5128  154.0599 C   0  0  0  0  0  0  0  0  0  0  0  0
  149.1875  138.4739  154.1482 N   0  0  0  0  0  0  0  0  0  0  0  0
  150.3343  138.6554  154.8346 C   0  0  0  0  0  0  0  0  0  0  0  0
  150.6816  139.8704  155.4555 C   0  0  0  0  0  0  0  0  0  0  0  0
  149.7909  140.9653  155.3513 C   0  0  0  0  0  0  0  0  0  0  0  0
  150.0313  142.2292  155.9570 N   0  0  0  0  0  0  0  0  0  0  0  0
  151.0432  142.6024  156.7649 C   0  0  0  0  0  0  0  0  0  0  0  0
  151.9853  141.8813  157.0869 O   0  0  0  0  0  0  0  0  0  0  0  0
  150.9894  143.8894  157.1501 N   0  0  0  0  0  0  0  0  0  0  0  0
  151.9103  144.5825  158.0010 C   0  0  1  0  0  0  0  0  0  0  0  0
  151.3661  145.1301  159.3022 C   0  0  0  0  0  0  0  0  0  0  0  0
  152.3155  143.9603  159.3239 C   0  0  1  0  0  0  0  0  0  0  0  0
  151.8408  142.5825  159.7421 C   0  0  0  0  0  0  0  0  0  0  0  0
  148.5791  140.7753  154.6468 C   0  0  0  0  0  0  0  0  0  0  0  0
  147.4301  142.0633  154.4989 Cl  0  0  0  0  0  0  0  0  0  0  0  0
  146.9799  139.9234  152.4311 H   0  0  0  0  0  0  0  0  0  0  0  0
  146.1810  139.3972  153.9197 H   0  0  0  0  0  0  0  0  0  0  0  0
  147.0198  138.2235  152.9034 H   0  0  0  0  0  0  0  0  0  0  0  0
  150.9939  137.8026  154.8973 H   0  0  0  0  0  0  0  0  0  0  0  0
  151.6082  139.9337  156.0045 H   0  0  0  0  0  0  0  0  0  0  0  0
  149.3909  142.9622  155.6887 H   0  0  0  0  0  0  0  0  0  0  0  0
  150.2761  144.4595  156.7189 H   0  0  0  0  0  0  0  0  0  0  0  0
  152.6492  145.2177  157.5146 H   0  0  0  0  0  0  0  0  0  0  0  0
  151.7479  146.0910  159.6415 H   0  0  0  0  0  0  0  0  0  0  0  0
  150.3206  144.9384  159.5373 H   0  0  0  0  0  0  0  0  0  0  0  0
  153.3326  144.1773  159.6443 H   0  0  0  0  0  0  0  0  0  0  0  0
  150.7918  142.4320  159.4850 H   0  0  0  0  0  0  0  0  0  0  0  0
  151.9504  142.4618  160.8198 H   0  0  0  0  0  0  0  0  0  0  0  0
  152.4352  141.8161  159.2442 H   0  0  0  0  0  0  0  0  0  0  0  0
  1  2  1  0  0  0  0
  1 17  1  0  0  0  0
  1 18  1  0  0  0  0
  1 19  1  0  0  0  0
  2 15  1  0  0  0  0
  2  3  2  0  0  0  0
  3  4  1  0  0  0  0
  4  5  2  0  0  0  0
  4 20  1  0  0  0  0
  5  6  1  0  0  0  0
  5 21  1  0  0  0  0
  6  7  1  0  0  0  0
  6 15  2  0  0  0  0
  7  8  1  0  0  0  0
  7 22  1  0  0  0  0
  8  9  2  0  0  0  0
  8 10  1  0  0  0  0
 10 11  1  0  0  0  0
 10 23  1  0  0  0  0
 11 13  1  0  0  0  0
 11 12  1  0  0  0  0
 11 24  1  0  0  0  0
 12 13  1  0  0  0  0
 12 25  1  0  0  0  0
 12 26  1  0  0  0  0
 13 14  1  0  0  0  0
 13 27  1  0  0  0  0
 14 28  1  0  0  0  0
 14 29  1  0  0  0  0
 14 30  1  0  0  0  0
 15 16  1  0  0  0  0
M  END
> <s_m_source_file>
AV-unprocessed.smi

> <i_m_source_file_index>
3189

> <i_lp_mmshare_version>
43012

> <i_f3d_flags>
0

> <s_epik_input>
W0NIM11jMW5bY0hdW2NIXWMoYzFDbClbTkhdQyg9TylbTkhdW0NAQEhdMltDSDJdW0NASF0yW0NIM10=

> <s_epik_cmdline>
J2VwaWtfcHl0aG9uJywgJy1waCcsICc3LjAnLCAnLXRuJywgJzgnLCAnLW1hJywgJzIwMCcsICctbWV0YWxfYmluZGluZycsICctaW1hZScsICc8aW5maWxlLm1hZT4nLCAnLW9tYWUnLCAnPG91dGZpbGUubWFlPic=

> <r_epik_Ionization_Penalty>
0.00994309

> <r_epik_Ionization_Penalty_Charging>
0

> <r_epik_Ionization_Penalty_Neutral>
0.00994309

> <r_epik_State_Penalty>
0.00754503

> <r_epik_Charging_Adjusted_Penalty>
0.00754503

> <i_epik_Tot_Q>
0

> <i_epik_Tot_abs_Q>
0

> <r_epik_Metal_State_Penalty>
0.00742071

> <b_epik_Metal_Only>
0

> <s_lp_Force_Field>
OPLS_2005

> <r_lp_Energy>
34.6575

> <b_lp_Chiralities_Consistent>
1

> <s_lp_Variant>
AV-unprocessed.smi:3189-2

> <Gold.Version>
5.8.1

> <Gold.Id.Protein>
6NUR|6NUR_protein|mol2

> <Gold.PLP.Fitness>
39.9092

> <Gold.PLP.PLP>
-33.9941

> <Gold.PLP.part.hbond>
-2.0000

> <Gold.PLP.part.metal>
0.0000

> <Gold.PLP.part.buried>
0.6425

> <Gold.PLP.part.nonpolar>
-33.3065

> <Gold.PLP.part.repulsive>
0.4048

> <Gold.PLP.ligand.clash>
0.0000

> <Gold.PLP.ligand.torsion>
0.0619

> <Gold.PLP.Chemscore.Hbond>
2.0000

> <Gold.PLP.Chemscore.CHOScore>
0.0000

> <Gold.PLP.Chemscore.Metal>
0.0000

> <Gold.Chemscore.Hbonds>
donor molecule, donor type, donor heavy atom, donor atom, acceptor molecule, acceptor atom, score
      L1  H     7    22       P1  8028  1.00
      L1  H    10    23       P1  8028  1.00

> <Gold.PLP.Chemscore.Internal.Correction>
0.0388

> <Gold.Rescore>
     Score         DG    S(hbond)    S(metal)    S(lipo)     H(rot)  DE(clash)    DE(int)     intcor
     17.49     -20.45       1.92        0.00      95.04       1.00       1.64       1.31       ----

> <Gold.Chemscore.Fitness>
17.4892

> <Gold.Chemscore.DG>
-20.4477

> <Gold.Chemscore.ZeroCoef>
-5.4800

> <Gold.Chemscore.Hbond>
1.9185

> <Gold.Chemscore.Metal>
0.0000

> <Gold.Chemscore.Lipo>
95.0412

> <Gold.Chemscore.Internal_Hbond>
0.0000

> <Gold.Chemscore.DEClash>
1.6445

> <Gold.Chemscore.DEInternal>
1.3140

> <Gold.Chemscore.Rot>
1.0000

> <Gold.Chemscore.Internal.Correction>
   9.000000E+99

> <Gold.Chemscore.Hbonds>
donor molecule, donor type, donor heavy atom, donor atom, acceptor molecule, acceptor atom, score
      L1  H     7    22       P1  8028  0.96
      L1  H    10    23       P1  8028  0.91

> <Gold.Chemscore.Hbond.Weighted>
-6.4079

> <Gold.Chemscore.Metal.Weighted>
-0.0000

> <Gold.Chemscore.Lipo.Weighted>
-11.1198

> <Gold.Chemscore.Internal_Hbond.Weighted>
0.0000

> <Gold.Chemscore.DEClash.Weighted>
1.6445

> <Gold.Chemscore.DEInternal.Weighted>
1.3140

> <Gold.Chemscore.Rot.Weighted>
2.5600

> <Gold.Chemscore.Internal.Correction.Weighted>
   9.000000E+99

> <Gold.Protein.RotatedTorsions>
[ 6907 6896 6895 6894 ] final   95.60 input  -60.11 | X-H torsion
[ 7974 7965 7964 7962 ] final -106.29 input  175.53 | X-H torsion
[ 8008 7997 7996 7995 ] final  -80.59 input   59.86 | X-H torsion
[ 10167 10162 10161 10158 ] final   -8.38 input  -65.29 | X-H torsion
[ 10718 10713 10712 10709 ] final  -45.02 input   66.30 | X-H torsion
[ 10763 10752 10751 10750 ] final  -48.68 input  -60.55 | X-H torsion
[ 11005 11000 10999 10996 ] final  -94.25 input  -57.11 | X-H torsion

> <Gold.Protein.ActiveResidues>
 VAL166  LYS551  ARG553  GLY616  TRP617  ASP618  TYR619  PRO620  LYS621  CYS622 
 ASP623  PHE694  ASN695  SER759  ASP760  ASP761  ALA762  ILE779  LEU786  VAL792 
 PHE793  MET794  SER795  GLU796  ALA797  LYS798  CYS799  TRP800  GLU811  SER814 

> <Gold.Protein.RotatedAtoms>
  152.5442  134.1015  159.8319 H   0  0  0  0  0  0  0  0  0  0  0  0  # atno 6907 bound_to 6896
  151.1092  133.5178  159.2614 H   0  0  0  0  0  0  0  0  0  0  0  0  # atno 6908 bound_to 6896
  151.1903  135.0409  159.8884 H   0  0  0  0  0  0  0  0  0  0  0  0  # atno 6909 bound_to 6896
  145.2198  140.9129  143.3266 H   0  0  0  0  0  0  0  0  0  0  0  0  # atno 7974 bound_to 7965
  154.5898  140.0660  156.9222 H   0  0  0  0  0  0  0  0  0  0  0  0  # atno 8008 bound_to 7997
  155.2315  140.3338  155.4284 H   0  0  0  0  0  0  0  0  0  0  0  0  # atno 8009 bound_to 7997
  156.2248  140.1814  156.7374 H   0  0  0  0  0  0  0  0  0  0  0  0  # atno 8010 bound_to 7997
  140.7057  143.5975  150.8831 H   0  0  0  0  0  0  0  0  0  0  0  0  # atno 10167 bound_to 10162
  156.2325  130.4173  149.8857 H   0  0  0  0  0  0  0  0  0  0  0  0  # atno 10718 bound_to 10713
  154.0818  135.6590  153.4839 H   0  0  0  0  0  0  0  0  0  0  0  0  # atno 10763 bound_to 10752
  153.0353  135.5181  154.7466 H   0  0  0  0  0  0  0  0  0  0  0  0  # atno 10764 bound_to 10752
  154.6564  135.3008  154.9891 H   0  0  0  0  0  0  0  0  0  0  0  0  # atno 10765 bound_to 10752
  141.1475  133.7943  157.0272 H   0  0  0  0  0  0  0  0  0  0  0  0  # atno 11005 bound_to 11000
  144.9777  139.3815  143.6278 LP  0  0  0  0  0  0  0  0  0  0  0  0  # atno 17320 bound_to 7965
  146.3379  139.8903  142.8810 LP  0  0  0  0  0  0  0  0  0  0  0  0  # atno 17321 bound_to 7965
  139.9699  143.6068  152.2976 LP  0  0  0  0  0  0  0  0  0  0  0  0  # atno 17342 bound_to 10162
  139.6651  144.7662  151.1888 LP  0  0  0  0  0  0  0  0  0  0  0  0  # atno 17343 bound_to 10162
  156.6466  130.8726  151.3524 LP  0  0  0  0  0  0  0  0  0  0  0  0  # atno 17370 bound_to 10713
  157.7140  130.9474  150.1187 LP  0  0  0  0  0  0  0  0  0  0  0  0  # atno 17371 bound_to 10713
  140.0777  134.9666  157.1573 LP  0  0  0  0  0  0  0  0  0  0  0  0  # atno 17394 bound_to 11000
  140.3620  134.2483  155.7186 LP  0  0  0  0  0  0  0  0  0  0  0  0  # atno 17395 bound_to 11000

$$$$
