#       Name:                AV-unprocessed.smi:2832
#       Creating user name   scv26
#       Creation time:       Fri Mar 27 15:36:08 2020


#       File generated by GOLD software.
#

@<TRIPOS>MOLECULE
AV-unprocessed.smi:2832
    40    40     1
SMALL
NO_CHARGES


@<TRIPOS>ATOM
      1 ****        -4.3367  -0.1610  -0.7034 C.3            1 S1                 0.0000
      2 ****        -2.8331   0.1334  -0.6690 C.3            1 S1                 0.0000
      3 ****        -1.9836  -1.1091  -1.0194 C.3            1 S1                 0.0000
      4 ****        -0.4410  -0.9026  -1.0664 C.3            1 S1                 0.0000
      5 ****         0.2416  -2.2712  -1.3166 C.3            1 S1                 0.0000
      6 ****        -0.0176  -0.2362   0.1778 N.am           1 S1                 0.0000
      7 ****         0.6800  -0.6786   1.2404 C.2            1 S1                 0.0000
      8 ****         1.0166  -1.8464   1.4301 O.2            1 S1                 0.0000
      9 ****         1.0590   0.3900   2.2667 C.3            1 S1                 0.0000
     10 ****         2.2880   1.0689   1.8893 N.pl3          1 S1                 0.0000
     11 ****         2.5119   1.9160   0.8219 C.2            1 S1                 0.0000
     12 ****         3.8165   2.3135   0.8833 C.2            1 S1                 0.0000
     13 ****         4.3162   1.6540   2.0406 C.2            1 S1                 0.0000
     14 ****         3.3989   0.9151   2.6434 N.2            1 S1                 0.0000
     15 ****        -0.0044   0.0140  -2.2364 C.2            1 S1                 0.0000
     16 ****        -0.8338   0.2759  -3.1359 O.co2          1 S1                 0.0000
     17 ****         1.1766   0.4303  -2.2264 O.co2          1 S1                -1.0000
     18 ****        -4.9120   0.7281  -0.4447 H              1 S1                 0.0000
     19 ****        -4.6004  -0.9466   0.0051 H              1 S1                 0.0000
     20 ****        -4.6512  -0.4835  -1.6964 H              1 S1                 0.0000
     21 ****        -2.6213   0.9510  -1.3573 H              1 S1                 0.0000
     22 ****        -2.5728   0.4964   0.3255 H              1 S1                 0.0000
     23 ****        -2.2056  -1.8827  -0.2830 H              1 S1                 0.0000
     24 ****        -2.3263  -1.5193  -1.9707 H              1 S1                 0.0000
     25 ****        -0.0182  -2.6673  -2.2994 H              1 S1                 0.0000
     26 ****        -0.0730  -3.0196  -0.5889 H              1 S1                 0.0000
     27 ****         1.3297  -2.2007  -1.2753 H              1 S1                 0.0000
     28 ****        -0.2235   0.7519   0.1891 H              1 S1                 0.0000
     29 ****         0.2626   1.1306   2.3527 H              1 S1                 0.0000
     30 ****         1.1781  -0.0679   3.2503 H              1 S1                 0.0000
     31 ****         1.7341   2.1583   0.1120 H              1 S1                 0.0000
     32 ****         4.3344   2.9738   0.2036 H              1 S1                 0.0000
     33 ****         5.3114   1.6916   2.4588 H              1 S1                 0.0000
     34 ****         0.7713  -2.5518   0.7650 LP             1 S1                 0.0000
     35 ****         1.5355  -2.0904   2.2493 LP             1 S1                 0.0000
     36 ****         3.5041   0.3654   3.4721 LP             1 S1                 0.0000
     37 ****        -0.5677   0.8514  -3.9093 LP             1 S1                 0.0000
     38 ****        -1.7628  -0.0903  -3.0815 LP             1 S1                 0.0000
     39 ****         1.5084   1.0108  -2.9700 LP             1 S1                 0.0000
     40 ****         1.7878   0.1822  -1.4749 LP             1 S1                 0.0000
@<TRIPOS>BOND
    1    1    2 1     
    2    1   18 1     
    3    1   19 1     
    4    1   20 1     
    5    2    3 1     
    6    2   21 1     
    7    2   22 1     
    8    3    4 1     
    9    3   23 1     
   10    3   24 1     
   11    4    5 1     
   12    4    6 1     
   13    4   15 1     
   14    5   25 1     
   15    5   26 1     
   16    5   27 1     
   17    6    7 am    
   18    6   28 1     
   19    7    8 2     
   20    7    9 1     
   21    9   10 1     
   22    9   29 1     
   23    9   30 1     
   24   10   14 1     
   25   10   11 1     
   26   11   12 2     
   27   11   31 1     
   28   12   13 1     
   29   12   32 1     
   30   13   14 2     
   31   13   33 1     
   32   15   16 ar    
   33   15   17 ar    
   34    8   34 1     
   35    8   35 1     
   36   14   36 1     
   37   16   37 1     
   38   16   38 1     
   39   17   39 1     
   40   17   40 1     
@<TRIPOS>SUBSTRUCTURE
      1 S1             1
@<TRIPOS>SET
LONE_PAIRS      STATIC     ATOMS    <user>   **** ""
7 34 35 36 37 38 39 40
DONOR_HYDROGENS      STATIC     ATOMS    <user>   **** ""
1 28
ATOM$BLUE        STATIC     ATOMS    COLORGROUP SYSTEM
7 34 35 36 37 38 39 40
ATOM$RED        STATIC     ATOMS    COLORGROUP SYSTEM
1 28
