AV-unprocessed.smi:557|AV-procd|sdf|2916|dock1
  -GOLD-   2262023403D 1   1.00000     0.00000
 Structure written by MMmdl.
 47 49  0  0  0  0  0  0  0  0  2 V2000
  151.7186  138.4777  154.6793 C   0  0  0  0  0  0  0  0  0  0  0  0
  150.5272  139.2879  154.5444 N   0  0  0  0  0  0  0  0  0  0  0  0
  149.2760  138.9100  154.1077 C   0  0  0  0  0  0  0  0  0  0  0  0
  148.4750  140.0163  154.1517 C   0  0  0  0  0  0  0  0  0  0  0  0
  147.0228  140.1398  153.7850 C   0  0  0  0  0  0  0  0  0  0  0  0
  146.7440  139.5594  152.3924 C   0  0  0  0  0  0  0  0  0  0  0  0
  146.9120  138.1088  152.3971 N   0  0  0  0  0  0  0  0  0  0  0  0
  146.1546  137.2059  153.0425 C   0  0  0  0  0  0  0  0  0  0  0  0
  145.1890  137.5349  153.7287 O   0  0  0  0  0  0  0  0  0  0  0  0
  146.5378  135.9295  152.8713 N   0  0  0  0  0  0  0  0  0  0  0  0
  145.8733  134.7749  153.4682 C   0  0  2  0  0  0  0  0  0  0  0  0
  146.8283  133.8331  154.1895 C   0  0  0  0  0  0  0  0  0  0  0  0
  146.0189  132.5362  154.2940 C   0  0  0  0  0  0  0  0  0  0  0  0
  145.0524  132.5400  153.1678 N   0  3  2  0  0  0  0  0  0  0  0  0
  145.1327  131.3360  152.2977 C   0  0  0  0  0  0  0  0  0  0  0  0
  144.4235  131.5774  150.9570 C   0  0  0  0  0  0  0  0  0  0  0  0
  145.0866  132.7220  150.1674 C   0  0  0  0  0  0  0  0  0  0  0  0
  145.8448  133.7056  151.0795 C   0  0  0  0  0  0  0  0  0  0  0  0
  145.1628  133.8488  152.4626 C   0  0  2  0  0  0  0  0  0  0  0  0
  149.3455  141.0356  154.6326 C   0  0  0  0  0  0  0  0  0  0  0  0
  150.5717  140.5972  154.8665 N   0  0  0  0  0  0  0  0  0  0  0  0
  151.4585  137.4203  154.6260 H   0  0  0  0  0  0  0  0  0  0  0  0
  152.1975  138.6752  155.6389 H   0  0  0  0  0  0  0  0  0  0  0  0
  152.4157  138.7137  153.8749 H   0  0  0  0  0  0  0  0  0  0  0  0
  149.0598  137.8956  153.8061 H   0  0  0  0  0  0  0  0  0  0  0  0
  146.4000  139.6281  154.5198 H   0  0  0  0  0  0  0  0  0  0  0  0
  146.7121  141.1851  153.8098 H   0  0  0  0  0  0  0  0  0  0  0  0
  145.7267  139.8061  152.0837 H   0  0  0  0  0  0  0  0  0  0  0  0
  147.4242  140.0027  151.6630 H   0  0  0  0  0  0  0  0  0  0  0  0
  147.6918  137.7515  151.8638 H   0  0  0  0  0  0  0  0  0  0  0  0
  147.3453  135.7487  152.2926 H   0  0  0  0  0  0  0  0  0  0  0  0
  145.1412  135.1272  154.1983 H   0  0  0  0  0  0  0  0  0  0  0  0
  147.7218  133.6638  153.5865 H   0  0  0  0  0  0  0  0  0  0  0  0
  147.1456  134.2113  155.1620 H   0  0  0  0  0  0  0  0  0  0  0  0
  146.6677  131.6593  154.3020 H   0  0  0  0  0  0  0  0  0  0  0  0
  145.4489  132.5254  155.2236 H   0  0  0  0  0  0  0  0  0  0  0  0
  146.1757  131.0773  152.1077 H   0  0  0  0  0  0  0  0  0  0  0  0
  144.6879  130.4895  152.8215 H   0  0  0  0  0  0  0  0  0  0  0  0
  144.4164  130.6666  150.3573 H   0  0  0  0  0  0  0  0  0  0  0  0
  143.3782  131.8236  151.1489 H   0  0  0  0  0  0  0  0  0  0  0  0
  145.7809  132.3157  149.4311 H   0  0  0  0  0  0  0  0  0  0  0  0
  144.3202  133.2517  149.6003 H   0  0  0  0  0  0  0  0  0  0  0  0
  146.8681  133.3532  151.2174 H   0  0  0  0  0  0  0  0  0  0  0  0
  145.9227  134.6685  150.5742 H   0  0  0  0  0  0  0  0  0  0  0  0
  144.1530  134.2257  152.2920 H   0  0  0  0  0  0  0  0  0  0  0  0
  149.1227  142.0759  154.8191 H   0  0  0  0  0  0  0  0  0  0  0  0
  144.1325  132.5328  153.5854 H   0  0  0  0  0  0  0  0  0  0  0  0
  1  2  1  0  0  0  0
  1 22  1  0  0  0  0
  1 23  1  0  0  0  0
  1 24  1  0  0  0  0
  2 21  1  0  0  0  0
  2  3  1  0  0  0  0
  3  4  2  0  0  0  0
  3 25  1  0  0  0  0
  4  5  1  0  0  0  0
  4 20  1  0  0  0  0
  5  6  1  0  0  0  0
  5 26  1  0  0  0  0
  5 27  1  0  0  0  0
  6  7  1  0  0  0  0
  6 28  1  0  0  0  0
  6 29  1  0  0  0  0
  7  8  1  0  0  0  0
  7 30  1  0  0  0  0
  8  9  2  0  0  0  0
  8 10  1  0  0  0  0
 10 11  1  0  0  0  0
 10 31  1  0  0  0  0
 11 19  1  0  0  0  0
 11 12  1  0  0  0  0
 11 32  1  0  0  0  0
 12 13  1  0  0  0  0
 12 33  1  0  0  0  0
 12 34  1  0  0  0  0
 13 14  1  0  0  0  0
 13 35  1  0  0  0  0
 13 36  1  0  0  0  0
 14 19  1  0  0  0  0
 14 15  1  0  0  0  0
 14 47  1  0  0  0  0
 15 16  1  0  0  0  0
 15 37  1  0  0  0  0
 15 38  1  0  0  0  0
 16 17  1  0  0  0  0
 16 39  1  0  0  0  0
 16 40  1  0  0  0  0
 17 18  1  0  0  0  0
 17 41  1  0  0  0  0
 17 42  1  0  0  0  0
 18 19  1  0  0  0  0
 18 43  1  0  0  0  0
 18 44  1  0  0  0  0
 19 45  1  0  0  0  0
 20 21  2  0  0  0  0
 20 46  1  0  0  0  0
M  CHG  1  14   1
M  END
> <s_m_source_file>
AV-unprocessed.smi

> <i_m_source_file_index>
557

> <i_lp_mmshare_version>
43012

> <i_f3d_flags>
0

> <s_epik_input>
W0NIM11uMVtjSF1jKFtjSF1uMSlbQ0gyXVtDSDJdW05IXUMoPU8pW05IXVtDQEhdKFtDSDJdW0NIMl0yKVtDQEhdKE4yMylbQ0gyXVtDSDJdW0NIMl1bQ0gyXTM=

> <s_epik_cmdline>
J2VwaWtfcHl0aG9uJywgJy1waCcsICc3LjAnLCAnLXRuJywgJzgnLCAnLW1hJywgJzIwMCcsICctbWV0YWxfYmluZGluZycsICctaW1hZScsICc8aW5maWxlLm1hZT4nLCAnLW9tYWUnLCAnPG91dGZpbGUubWFlPic=

> <r_lp_tautomer_probability>
1

> <r_epik_Ionization_Penalty>
0.000956547

> <r_epik_Ionization_Penalty_Charging>
0.000435796

> <r_epik_Ionization_Penalty_Neutral>
0.000520752

> <r_epik_State_Penalty>
-0

> <r_epik_Charging_Adjusted_Penalty>
0.000435796

> <i_epik_Tot_Q>
1

> <i_epik_Tot_abs_Q>
1

> <r_epik_Metal_State_Penalty>
-0

> <b_epik_Metal_Only>
0

> <s_lp_Force_Field>
OPLS_2005

> <r_lp_Energy>
46.1315

> <b_lp_Chiralities_Consistent>
1

> <s_lp_Variant>
AV-unprocessed.smi:557-3

> <Gold.Version>
5.8.1

> <Gold.Id.Protein>
6NUR|6NUR_protein|mol2

> <Gold.PLP.Fitness>
49.8162

> <Gold.PLP.PLP>
-33.8860

> <Gold.PLP.part.hbond>
-4.0000

> <Gold.PLP.part.metal>
0.0000

> <Gold.PLP.part.buried>
-1.8308

> <Gold.PLP.part.nonpolar>
-29.7310

> <Gold.PLP.part.repulsive>
0.2960

> <Gold.PLP.ligand.clash>
0.0000

> <Gold.PLP.ligand.torsion>
0.1923

> <Gold.PLP.Chemscore.Hbond>
4.1416

> <Gold.PLP.Chemscore.CHOScore>
1.2891

> <Gold.PLP.Chemscore.Metal>
0.0000

> <Gold.Chemscore.Hbonds>
donor molecule, donor type, donor heavy atom, donor atom, acceptor molecule, acceptor atom, score
      L1  H     7    30       P1  7948  0.83
      L1  H    10    31       P1  7948  0.96
      L1  H    14    47       P1 10957  2.00
      P1  H  7989  7998       L1    21  0.48
      L1  C     3    25       P1  7948  0.97
      L1  C    20    46       P1  8028  0.39

> <Gold.PLP.Chemscore.Internal.Correction>
0.0230

> <Gold.Rescore>
     Score         DG    S(hbond)    S(metal)    S(lipo)     H(rot)  DE(clash)    DE(int)     intcor
     18.60     -18.99       2.54        0.00      77.92       1.60       0.01       0.38       ----

> <Gold.Chemscore.Fitness>
18.5987

> <Gold.Chemscore.DG>
-18.9863

> <Gold.Chemscore.ZeroCoef>
-5.4800

> <Gold.Chemscore.Hbond>
2.5419

> <Gold.Chemscore.Metal>
0.0000

> <Gold.Chemscore.Lipo>
77.9218

> <Gold.Chemscore.Internal_Hbond>
0.0000

> <Gold.Chemscore.DEClash>
0.0060

> <Gold.Chemscore.DEInternal>
0.3816

> <Gold.Chemscore.Rot>
1.6018

> <Gold.Chemscore.Internal.Correction>
   9.000000E+99

> <Gold.Chemscore.Hbonds>
donor molecule, donor type, donor heavy atom, donor atom, acceptor molecule, acceptor atom, score
      L1  H     7    30       P1  7948  0.82
      L1  H    10    31       P1  7948  0.92
      L1  H    14    47       P1 10957  0.31
      P1  H  7989  7998       L1    21  0.02

> <Gold.Chemscore.Hbond.Weighted>
-8.4901

> <Gold.Chemscore.Metal.Weighted>
-0.0000

> <Gold.Chemscore.Lipo.Weighted>
-9.1169

> <Gold.Chemscore.Internal_Hbond.Weighted>
0.0000

> <Gold.Chemscore.DEClash.Weighted>
0.0060

> <Gold.Chemscore.DEInternal.Weighted>
0.3816

> <Gold.Chemscore.Rot.Weighted>
4.1006

> <Gold.Chemscore.Internal.Correction.Weighted>
   9.000000E+99

> <Gold.Protein.RotatedTorsions>
[ 6907 6896 6895 6894 ] final   76.65 input  -60.11 | X-H torsion
[ 7974 7965 7964 7962 ] final  -49.17 input  175.53 | X-H torsion
[ 8008 7997 7996 7995 ] final -175.56 input   59.86 | X-H torsion
[ 10167 10162 10161 10158 ] final -165.92 input  -65.29 | X-H torsion
[ 10718 10713 10712 10709 ] final   46.85 input   66.30 | X-H torsion
[ 10763 10752 10751 10750 ] final -143.31 input  -60.55 | X-H torsion
[ 11005 11000 10999 10996 ] final  -54.01 input  -57.11 | X-H torsion

> <Gold.Protein.ActiveResidues>
 VAL166  LYS551  ARG553  GLY616  TRP617  ASP618  TYR619  PRO620  LYS621  CYS622 
 ASP623  PHE694  ASN695  SER759  ASP760  ASP761  ALA762  ILE779  LEU786  VAL792 
 PHE793  MET794  SER795  GLU796  ALA797  LYS798  CYS799  TRP800  GLU811  SER814 

> <Gold.Protein.RotatedAtoms>
  152.5082  134.3937  159.9392 H   0  0  0  0  0  0  0  0  0  0  0  0  # atno 6907 bound_to 6896
  151.3898  133.3786  159.2727 H   0  0  0  0  0  0  0  0  0  0  0  0  # atno 6908 bound_to 6896
  150.9441  134.8868  159.7690 H   0  0  0  0  0  0  0  0  0  0  0  0  # atno 6909 bound_to 6896
  145.9434  140.7640  142.9540 H   0  0  0  0  0  0  0  0  0  0  0  0  # atno 7974 bound_to 7965
  155.9841  140.1187  157.0699 H   0  0  0  0  0  0  0  0  0  0  0  0  # atno 8008 bound_to 7997
  154.4191  140.1138  156.5543 H   0  0  0  0  0  0  0  0  0  0  0  0  # atno 8009 bound_to 7997
  155.6431  140.3473  155.4724 H   0  0  0  0  0  0  0  0  0  0  0  0  # atno 8010 bound_to 7997
  139.6149  144.0739  152.1878 H   0  0  0  0  0  0  0  0  0  0  0  0  # atno 10167 bound_to 10162
  157.4524  130.8147  149.7802 H   0  0  0  0  0  0  0  0  0  0  0  0  # atno 10718 bound_to 10713
  154.8475  135.3471  154.6168 H   0  0  0  0  0  0  0  0  0  0  0  0  # atno 10763 bound_to 10752
  153.6776  135.6982  153.5132 H   0  0  0  0  0  0  0  0  0  0  0  0  # atno 10764 bound_to 10752
  153.2693  135.4298  155.0928 H   0  0  0  0  0  0  0  0  0  0  0  0  # atno 10765 bound_to 10752
  141.1005  133.6618  156.4258 H   0  0  0  0  0  0  0  0  0  0  0  0  # atno 11005 bound_to 11000
  144.6783  140.2318  143.7354 LP  0  0  0  0  0  0  0  0  0  0  0  0  # atno 17320 bound_to 7965
  145.8268  139.2068  143.1906 LP  0  0  0  0  0  0  0  0  0  0  0  0  # atno 17321 bound_to 7965
  140.0367  144.6039  150.7444 LP  0  0  0  0  0  0  0  0  0  0  0  0  # atno 17342 bound_to 10162
  140.7344  143.2729  151.3832 LP  0  0  0  0  0  0  0  0  0  0  0  0  # atno 17343 bound_to 10162
  155.9993  130.3889  150.2670 LP  0  0  0  0  0  0  0  0  0  0  0  0  # atno 17370 bound_to 10713
  157.0842  131.0152  151.3145 LP  0  0  0  0  0  0  0  0  0  0  0  0  # atno 17371 bound_to 10713
  140.5034  134.6464  157.5257 LP  0  0  0  0  0  0  0  0  0  0  0  0  # atno 17394 bound_to 11000
  139.9855  134.7069  155.9782 LP  0  0  0  0  0  0  0  0  0  0  0  0  # atno 17395 bound_to 11000

$$$$
