#       Name:                AV-unprocessed.smi:2087
#       Creating user name   scv26
#       Creation time:       Fri Mar 27 11:23:51 2020


#       File generated by GOLD software.
#

@<TRIPOS>MOLECULE
AV-unprocessed.smi:2087
    59    60     1
SMALL
NO_CHARGES


@<TRIPOS>ATOM
      1 ****        -3.9848  -2.7182  -2.7019 C.3            1 S1                 0.0000
      2 ****        -2.6476  -2.5861  -1.9535 C.3            1 S1                 0.0000
      3 ****        -2.3045  -3.9003  -1.2355 C.3            1 S1                 0.0000
      4 ****        -2.6598  -1.4107  -0.9518 C.3            1 S1                 0.0000
      5 ****        -2.8643  -0.0867  -1.6015 N.4            1 S1                 1.0000
      6 ****        -3.4016   0.9462  -0.6824 C.3            1 S1                 0.0000
      7 ****        -2.2960   1.5109   0.2277 C.3            1 S1                 0.0000
      8 ****        -1.2467   2.0319  -0.5779 O.3            1 S1                 0.0000
      9 ****        -0.6301   1.0311  -1.3827 C.3            1 S1                 0.0000
     10 ****         0.5411   1.6771  -2.1450 C.3            1 S1                 0.0000
     11 ****         1.5660   2.1701  -1.2320 N.am           1 S1                 0.0000
     12 ****         2.4459   1.3983  -0.5775 C.2            1 S1                 0.0000
     13 ****         2.5170   0.1782  -0.7310 O.2            1 S1                 0.0000
     14 ****         3.3888   2.1182   0.3946 C.3            1 S1                 0.0000
     15 ****         3.6818   1.3189   1.5912 N.am           1 S1                 0.0000
     16 ****         4.9033   0.6811   1.7092 C.2            1 S1                 0.0000
     17 ****         5.2483  -0.0755   2.7738 C.2            1 S1                 0.0000
     18 ****         4.3261  -0.2694   3.8864 C.2            1 S1                 0.0000
     19 ****         4.6080  -0.9380   4.8813 O.2            1 S1                 0.0000
     20 ****         3.0790   0.3836   3.7342 N.am           1 S1                 0.0000
     21 ****         2.0927   0.2630   4.7880 C.3            1 S1                 0.0000
     22 ****         2.7295   1.1849   2.6250 C.2            1 S1                 0.0000
     23 ****         1.6362   1.7525   2.5507 O.2            1 S1                 0.0000
     24 ****        -1.6875   0.4403  -2.3405 C.3            1 S1                 0.0000
     25 ****        -4.8111  -2.8882  -2.0109 H              1 S1                 0.0000
     26 ****        -3.9605  -3.5548  -3.4009 H              1 S1                 0.0000
     27 ****        -4.2113  -1.8215  -3.2791 H              1 S1                 0.0000
     28 ****        -1.8645  -2.4217  -2.6930 H              1 S1                 0.0000
     29 ****        -3.0494  -4.1454  -0.4774 H              1 S1                 0.0000
     30 ****        -1.3345  -3.8377  -0.7410 H              1 S1                 0.0000
     31 ****        -2.2593  -4.7327  -1.9385 H              1 S1                 0.0000
     32 ****        -3.4653  -1.5869  -0.2373 H              1 S1                 0.0000
     33 ****        -1.7405  -1.4026  -0.3664 H              1 S1                 0.0000
     34 ****        -3.8191   1.7553  -1.2832 H              1 S1                 0.0000
     35 ****        -4.2272   0.5482  -0.0914 H              1 S1                 0.0000
     36 ****        -2.6951   2.3145   0.8464 H              1 S1                 0.0000
     37 ****        -1.9108   0.7495   0.9075 H              1 S1                 0.0000
     38 ****        -0.2384   0.2431  -0.7384 H              1 S1                 0.0000
     39 ****         0.9846   0.9617  -2.8395 H              1 S1                 0.0000
     40 ****         0.1838   2.5133  -2.7469 H              1 S1                 0.0000
     41 ****         1.5816   3.1643  -1.0552 H              1 S1                 0.0000
     42 ****         4.3113   2.3533  -0.1377 H              1 S1                 0.0000
     43 ****         2.9635   3.0794   0.6896 H              1 S1                 0.0000
     44 ****         5.6223   0.7909   0.9104 H              1 S1                 0.0000
     45 ****         6.2213  -0.5438   2.8031 H              1 S1                 0.0000
     46 ****         1.1282   0.0453   4.3256 H              1 S1                 0.0000
     47 ****         2.0760   1.2168   5.3173 H              1 S1                 0.0000
     48 ****         2.3433  -0.5528   5.4657 H              1 S1                 0.0000
     49 ****        -1.2450  -0.3264  -2.9748 H              1 S1                 0.0000
     50 ****        -2.0389   1.2221  -3.0150 H              1 S1                 0.0000
     51 ****        -3.5880  -0.2449  -2.2882 H              1 S1                 0.0000
     52 ****        -0.5536   2.4354   0.0194 LP             1 S1                 0.0000
     53 ****        -1.6227   2.7388  -1.1770 LP             1 S1                 0.0000
     54 ****         1.8997  -0.2823  -1.3688 LP             1 S1                 0.0000
     55 ****         3.1921  -0.3518  -0.2178 LP             1 S1                 0.0000
     56 ****         5.5038  -1.3770   4.9513 LP             1 S1                 0.0000
     57 ****         3.9412  -1.0419   5.6193 LP             1 S1                 0.0000
     58 ****         1.4176   2.3140   1.7527 LP             1 S1                 0.0000
     59 ****         0.9690   1.6509   3.2886 LP             1 S1                 0.0000
@<TRIPOS>BOND
    1    1    2 1     
    2    1   25 1     
    3    1   26 1     
    4    1   27 1     
    5    2    3 1     
    6    2    4 1     
    7    2   28 1     
    8    3   29 1     
    9    3   30 1     
   10    3   31 1     
   11    4    5 1     
   12    4   32 1     
   13    4   33 1     
   14    5   24 1     
   15    5    6 1     
   16    5   51 1     
   17    6    7 1     
   18    6   34 1     
   19    6   35 1     
   20    7    8 1     
   21    7   36 1     
   22    7   37 1     
   23    8    9 1     
   24    9   10 1     
   25    9   24 1     
   26    9   38 1     
   27   10   11 1     
   28   10   39 1     
   29   10   40 1     
   30   11   12 am    
   31   11   41 1     
   32   12   13 2     
   33   12   14 1     
   34   14   15 1     
   35   14   42 1     
   36   14   43 1     
   37   15   22 am    
   38   15   16 1     
   39   16   17 2     
   40   16   44 1     
   41   17   18 1     
   42   17   45 1     
   43   18   19 2     
   44   18   20 am    
   45   20   21 1     
   46   20   22 am    
   47   21   46 1     
   48   21   47 1     
   49   21   48 1     
   50   22   23 2     
   51   24   49 1     
   52   24   50 1     
   53    8   52 1     
   54    8   53 1     
   55   13   54 1     
   56   13   55 1     
   57   19   56 1     
   58   19   57 1     
   59   23   58 1     
   60   23   59 1     
@<TRIPOS>SUBSTRUCTURE
      1 S1             1
@<TRIPOS>SET
LONE_PAIRS      STATIC     ATOMS    <user>   **** ""
8 52 53 54 55 56 57 58 59
DONOR_HYDROGENS      STATIC     ATOMS    <user>   **** ""
2 51 41
ATOM$BLUE        STATIC     ATOMS    COLORGROUP SYSTEM
8 52 53 54 55 56 57 58 59
ATOM$RED        STATIC     ATOMS    COLORGROUP SYSTEM
2 51 41
