AV-unprocessed.smi:1213|AV-procd|sdf|5086|dock3
  -GOLD-   22720 4133D 1   1.00000     0.00000
 Structure written by MMmdl.
 37 38  0  0  0  0  0  0  0  0  2 V2000
  145.0499  138.3766  152.2640 N   0  0  0  0  0  0  0  0  0  0  0  0
  146.3603  138.2536  152.4871 C   0  0  0  0  0  0  0  0  0  0  0  0
  147.1955  138.4364  151.6031 O   0  0  0  0  0  0  0  0  0  0  0  0
  146.7849  137.8501  153.9034 C   0  0  0  0  0  0  0  0  0  0  0  0
  148.2504  137.6442  154.0374 N   0  3  2  0  0  0  0  0  0  0  0  0
  148.5945  136.7350  155.1602 C   0  0  0  0  0  0  0  0  0  0  0  0
  150.1022  136.4224  155.1847 C   0  0  0  0  0  0  0  0  0  0  0  0
  150.9594  137.6993  155.2317 C   0  0  2  0  0  0  0  0  0  0  0  0
  150.8640  138.3336  156.5465 N   0  0  0  0  0  0  0  0  0  0  0  0
  151.6127  139.3657  156.9630 C   0  0  0  0  0  0  0  0  0  0  0  0
  152.4744  139.9015  156.2660 O   0  0  0  0  0  0  0  0  0  0  0  0
  151.2930  139.7252  158.2186 N   0  0  0  0  0  0  0  0  0  0  0  0
  151.8430  140.7785  158.9957 C   0  0  0  0  0  0  0  0  0  0  0  0
  151.2314  141.9466  159.2236 N   0  0  0  0  0  0  0  0  0  0  0  0
  152.0024  142.7953  160.0219 C   0  0  0  0  0  0  0  0  0  0  0  0
  153.2062  142.2526  160.3969 C   0  0  0  0  0  0  0  0  0  0  0  0
  153.4215  140.6454  159.7568 S   0  0  0  0  0  0  0  0  0  0  0  0
  150.5305  138.6547  154.0999 C   0  0  0  0  0  0  0  0  0  0  0  0
  149.0148  138.9180  154.1123 C   0  0  0  0  0  0  0  0  0  0  0  0
  144.7207  138.6354  151.3442 H   0  0  0  0  0  0  0  0  0  0  0  0
  144.3885  138.2069  153.0081 H   0  0  0  0  0  0  0  0  0  0  0  0
  146.4419  138.5878  154.6308 H   0  0  0  0  0  0  0  0  0  0  0  0
  146.2620  136.9201  154.1304 H   0  0  0  0  0  0  0  0  0  0  0  0
  148.2827  137.1856  156.1035 H   0  0  0  0  0  0  0  0  0  0  0  0
  148.0412  135.8006  155.0587 H   0  0  0  0  0  0  0  0  0  0  0  0
  150.3384  135.7756  156.0308 H   0  0  0  0  0  0  0  0  0  0  0  0
  150.3597  135.8539  154.2898 H   0  0  0  0  0  0  0  0  0  0  0  0
  152.0007  137.4123  155.0738 H   0  0  0  0  0  0  0  0  0  0  0  0
  150.1863  137.9519  157.1900 H   0  0  0  0  0  0  0  0  0  0  0  0
  150.5671  139.1892  158.6703 H   0  0  0  0  0  0  0  0  0  0  0  0
  151.6161  143.7711  160.2763 H   0  0  0  0  0  0  0  0  0  0  0  0
  153.9760  142.6995  161.0083 H   0  0  0  0  0  0  0  0  0  0  0  0
  151.0743  139.5978  154.1631 H   0  0  0  0  0  0  0  0  0  0  0  0
  150.8056  138.2157  153.1399 H   0  0  0  0  0  0  0  0  0  0  0  0
  148.7598  139.5601  153.2690 H   0  0  0  0  0  0  0  0  0  0  0  0
  148.7330  139.4624  155.0151 H   0  0  0  0  0  0  0  0  0  0  0  0
  148.5438  137.1749  153.1920 H   0  0  0  0  0  0  0  0  0  0  0  0
  1  2  1  0  0  0  0
  1 20  1  0  0  0  0
  1 21  1  0  0  0  0
  2  3  2  0  0  0  0
  2  4  1  0  0  0  0
  4  5  1  0  0  0  0
  4 22  1  0  0  0  0
  4 23  1  0  0  0  0
  5 19  1  0  0  0  0
  5  6  1  0  0  0  0
  5 37  1  0  0  0  0
  6  7  1  0  0  0  0
  6 24  1  0  0  0  0
  6 25  1  0  0  0  0
  7  8  1  0  0  0  0
  7 26  1  0  0  0  0
  7 27  1  0  0  0  0
  8  9  1  0  0  0  0
  8 18  1  0  0  0  0
  8 28  1  0  0  0  0
  9 10  1  0  0  0  0
  9 29  1  0  0  0  0
 10 11  2  0  0  0  0
 10 12  1  0  0  0  0
 12 13  1  0  0  0  0
 12 30  1  0  0  0  0
 13 17  1  0  0  0  0
 13 14  2  0  0  0  0
 14 15  1  0  0  0  0
 15 16  2  0  0  0  0
 15 31  1  0  0  0  0
 16 17  1  0  0  0  0
 16 32  1  0  0  0  0
 18 19  1  0  0  0  0
 18 33  1  0  0  0  0
 18 34  1  0  0  0  0
 19 35  1  0  0  0  0
 19 36  1  0  0  0  0
M  CHG  1   5   1
M  END
> <s_m_source_file>
AV-unprocessed.smi

> <i_m_source_file_index>
1213

> <i_lp_mmshare_version>
43012

> <i_f3d_flags>
0

> <s_epik_input>
W05IMl1DKD1PKVtDSDJdTjFbQ0gyXVtDSDJdW0NIXShbQ0gyXVtDSDJdMSlbTkhdQyg9TylbTkhdYzJuW2NIXVtjSF1zMg==

> <s_epik_cmdline>
J2VwaWtfcHl0aG9uJywgJy1waCcsICc3LjAnLCAnLXRuJywgJzgnLCAnLW1hJywgJzIwMCcsICctbWV0YWxfYmluZGluZycsICctaW1hZScsICc8aW5maWxlLm1hZT4nLCAnLW9tYWUnLCAnPG91dGZpbGUubWFlPic=

> <r_lp_tautomer_probability>
0.999

> <r_epik_Ionization_Penalty>
0.86253

> <r_epik_Ionization_Penalty_Charging>
0.862349

> <r_epik_Ionization_Penalty_Neutral>
0.000180085

> <r_epik_State_Penalty>
0.898939

> <r_epik_Charging_Adjusted_Penalty>
1.76129

> <i_epik_Tot_Q>
1

> <i_epik_Tot_abs_Q>
1

> <r_epik_Metal_State_Penalty>
0.948529

> <b_epik_Metal_Only>
0

> <s_lp_Force_Field>
OPLS_2005

> <r_lp_Energy>
11.1317

> <b_lp_Chiralities_Consistent>
1

> <s_lp_Variant>
AV-unprocessed.smi:1213-3

> <Gold.Version>
5.8.1

> <Gold.Id.Protein>
6NUR|6NUR_protein|mol2

> <Gold.PLP.Fitness>
41.9683

> <Gold.PLP.PLP>
-28.9208

> <Gold.PLP.part.hbond>
-4.8189

> <Gold.PLP.part.metal>
0.0000

> <Gold.PLP.part.buried>
-5.2084

> <Gold.PLP.part.nonpolar>
-22.5501

> <Gold.PLP.part.repulsive>
4.0491

> <Gold.PLP.ligand.clash>
0.0000

> <Gold.PLP.ligand.torsion>
0.9798

> <Gold.PLP.Chemscore.Hbond>
4.9913

> <Gold.PLP.Chemscore.CHOScore>
0.0000

> <Gold.PLP.Chemscore.Metal>
0.0000

> <Gold.Chemscore.Hbonds>
donor molecule, donor type, donor heavy atom, donor atom, acceptor molecule, acceptor atom, score
      L1  H     1    20       P1 10171  1.00
      L1  H     5    37       P1  7948  2.00
      P1  H  7954  7966       L1     3  0.98
      P1  H  7997  8010       L1    11  1.00

> <Gold.PLP.Chemscore.Internal.Correction>
0.0334

> <Gold.Rescore>
     Score         DG    S(hbond)    S(metal)    S(lipo)     H(rot)  DE(clash)    DE(int)     intcor
     18.14     -20.54       3.97        0.00      60.63       2.06       1.41       0.99       ----

> <Gold.Chemscore.Fitness>
18.1433

> <Gold.Chemscore.DG>
-20.5404

> <Gold.Chemscore.ZeroCoef>
-5.4800

> <Gold.Chemscore.Hbond>
3.9666

> <Gold.Chemscore.Metal>
0.0000

> <Gold.Chemscore.Lipo>
60.6275

> <Gold.Chemscore.Internal_Hbond>
0.0000

> <Gold.Chemscore.DEClash>
1.4114

> <Gold.Chemscore.DEInternal>
0.9857

> <Gold.Chemscore.Rot>
2.0631

> <Gold.Chemscore.Internal.Correction>
   9.000000E+99

> <Gold.Chemscore.Hbonds>
donor molecule, donor type, donor heavy atom, donor atom, acceptor molecule, acceptor atom, score
      L1  H     1    20       P1 10171  1.00
      L1  H     5    37       P1  7948  1.00
      P1  H  7954  7966       L1     3  0.90
      P1  H  7997  8010       L1    11  1.00

> <Gold.Chemscore.Hbond.Weighted>
-13.2486

> <Gold.Chemscore.Metal.Weighted>
-0.0000

> <Gold.Chemscore.Lipo.Weighted>
-7.0934

> <Gold.Chemscore.Internal_Hbond.Weighted>
0.0000

> <Gold.Chemscore.DEClash.Weighted>
1.4114

> <Gold.Chemscore.DEInternal.Weighted>
0.9857

> <Gold.Chemscore.Rot.Weighted>
5.2816

> <Gold.Chemscore.Internal.Correction.Weighted>
   9.000000E+99

> <Gold.Protein.RotatedTorsions>
[ 6907 6896 6895 6894 ] final  -76.01 input  -60.11 | X-H torsion
[ 7974 7965 7964 7962 ] final  120.86 input  175.53 | X-H torsion
[ 8008 7997 7996 7995 ] final   81.10 input   59.86 | X-H torsion
[ 10167 10162 10161 10158 ] final -127.06 input  -65.29 | X-H torsion
[ 10718 10713 10712 10709 ] final -156.17 input   66.30 | X-H torsion
[ 10763 10752 10751 10750 ] final   50.53 input  -60.55 | X-H torsion
[ 11005 11000 10999 10996 ] final  135.21 input  -57.11 | X-H torsion

> <Gold.Protein.ActiveResidues>
 VAL166  LYS551  ARG553  GLY616  TRP617  ASP618  TYR619  PRO620  LYS621  CYS622 
 ASP623  PHE694  ASN695  SER759  ASP760  ASP761  ALA762  ILE779  LEU786  VAL792 
 PHE793  MET794  SER795  GLU796  ALA797  LYS798  CYS799  TRP800  GLU811  SER814 

> <Gold.Protein.RotatedAtoms>
  150.7040  134.4635  159.5391 H   0  0  0  0  0  0  0  0  0  0  0  0  # atno 6907 bound_to 6896
  152.2305  134.8324  160.0483 H   0  0  0  0  0  0  0  0  0  0  0  0  # atno 6908 bound_to 6896
  151.9141  133.3533  159.3911 H   0  0  0  0  0  0  0  0  0  0  0  0  # atno 6909 bound_to 6896
  145.1261  139.3357  143.4689 H   0  0  0  0  0  0  0  0  0  0  0  0  # atno 7974 bound_to 7965
  155.8925  140.3438  155.5967 H   0  0  0  0  0  0  0  0  0  0  0  0  # atno 8008 bound_to 7997
  155.7594  140.0830  157.2182 H   0  0  0  0  0  0  0  0  0  0  0  0  # atno 8009 bound_to 7997
  154.4035  140.1538  156.2802 H   0  0  0  0  0  0  0  0  0  0  0  0  # atno 8010 bound_to 7997
  139.9648  143.5910  152.2433 H   0  0  0  0  0  0  0  0  0  0  0  0  # atno 10167 bound_to 10162
  156.5229  130.8486  151.2688 H   0  0  0  0  0  0  0  0  0  0  0  0  # atno 10718 bound_to 10713
  152.9784  135.5876  154.4267 H   0  0  0  0  0  0  0  0  0  0  0  0  # atno 10763 bound_to 10752
  154.3885  135.2767  155.2171 H   0  0  0  0  0  0  0  0  0  0  0  0  # atno 10764 bound_to 10752
  154.4053  135.6094  153.5975 H   0  0  0  0  0  0  0  0  0  0  0  0  # atno 10765 bound_to 10752
  139.9965  134.9495  156.9976 H   0  0  0  0  0  0  0  0  0  0  0  0  # atno 11005 bound_to 11000
  146.3517  140.1241  142.8599 LP  0  0  0  0  0  0  0  0  0  0  0  0  # atno 17320 bound_to 7965
  145.0687  140.9139  143.4895 LP  0  0  0  0  0  0  0  0  0  0  0  0  # atno 17321 bound_to 7965
  139.6526  144.7661  151.2118 LP  0  0  0  0  0  0  0  0  0  0  0  0  # atno 17342 bound_to 10162
  140.7541  143.6137  150.8581 LP  0  0  0  0  0  0  0  0  0  0  0  0  # atno 17343 bound_to 10162
  157.7434  130.9911  150.2589 LP  0  0  0  0  0  0  0  0  0  0  0  0  # atno 17370 bound_to 10713
  156.3132  130.3775  149.7642 LP  0  0  0  0  0  0  0  0  0  0  0  0  # atno 17371 bound_to 10713
  140.4808  134.1291  155.7216 LP  0  0  0  0  0  0  0  0  0  0  0  0  # atno 17394 bound_to 11000
  141.1608  133.8796  157.1852 LP  0  0  0  0  0  0  0  0  0  0  0  0  # atno 17395 bound_to 11000

$$$$
