AV-unprocessed.smi:1715|AV-procd|sdf|6909|dock1
  -GOLD-   22720 8113D 1   1.00000     0.00000
 Structure written by MMmdl.
 40 41  0  0  0  0  0  0  0  0  1 V2000
  152.2879  138.1988  154.3812 C   0  0  0  0  0  0  0  0  0  0  0  0
  151.2086  138.9251  155.1906 C   0  0  2  0  0  0  0  0  0  0  0  0
  149.7887  138.5551  154.7254 C   0  0  0  0  0  0  0  0  0  0  0  0
  148.7658  139.3068  155.4412 N   0  0  0  0  0  0  0  0  0  0  0  0
  147.4277  138.9084  155.0083 C   0  0  0  0  0  0  0  0  0  0  0  0
  147.1210  139.1724  153.5223 C   0  0  0  0  0  0  0  0  0  0  0  0
  146.9899  137.9258  152.7785 N   0  0  0  0  0  0  0  0  0  0  0  0
  145.8289  137.3448  152.4455 C   0  0  0  0  0  0  0  0  0  0  0  0
  144.7264  137.8051  152.7425 O   0  0  0  0  0  0  0  0  0  0  0  0
  146.0329  136.2096  151.7575 N   0  0  0  0  0  0  0  0  0  0  0  0
  145.0509  135.3395  151.2206 C   0  0  0  0  0  0  0  0  0  0  0  0
  145.2514  133.9568  150.9599 C   0  0  0  0  0  0  0  0  0  0  0  0
  144.1610  133.3968  150.4559 N   0  0  0  0  0  0  0  0  0  0  0  0
  143.2669  134.4089  150.3916 N   0  0  0  0  0  0  0  0  0  0  0  0
  143.7643  135.6100  150.8471 C   0  0  0  0  0  0  0  0  0  0  0  0
  149.0122  140.7358  155.2570 C   0  0  0  0  0  0  0  0  0  0  0  0
  150.4360  141.1562  155.6740 C   0  0  1  0  0  0  0  0  0  0  0  0
  150.6381  141.1960  157.1982 C   0  0  0  0  0  0  0  0  0  0  0  0
  151.4071  140.3285  155.0321 O   0  0  0  0  0  0  0  0  0  0  0  0
  142.3316  134.2662  150.0380 H   0  0  0  0  0  0  0  0  0  0  0  0
  152.1914  137.1175  154.4802 H   0  0  0  0  0  0  0  0  0  0  0  0
  153.2846  138.4769  154.7248 H   0  0  0  0  0  0  0  0  0  0  0  0
  152.2200  138.4459  153.3213 H   0  0  0  0  0  0  0  0  0  0  0  0
  151.3297  138.6580  156.2407 H   0  0  0  0  0  0  0  0  0  0  0  0
  149.6966  138.7368  153.6533 H   0  0  0  0  0  0  0  0  0  0  0  0
  149.6314  137.4861  154.8741 H   0  0  0  0  0  0  0  0  0  0  0  0
  147.2670  137.8530  155.2337 H   0  0  0  0  0  0  0  0  0  0  0  0
  146.6934  139.4551  155.6018 H   0  0  0  0  0  0  0  0  0  0  0  0
  146.2138  139.7702  153.4189 H   0  0  0  0  0  0  0  0  0  0  0  0
  147.9240  139.7402  153.0541 H   0  0  0  0  0  0  0  0  0  0  0  0
  147.8469  137.4747  152.4940 H   0  0  0  0  0  0  0  0  0  0  0  0
  146.9926  135.9442  151.5916 H   0  0  0  0  0  0  0  0  0  0  0  0
  146.1336  133.3536  151.1160 H   0  0  0  0  0  0  0  0  0  0  0  0
  143.1731  136.5137  150.8596 H   0  0  0  0  0  0  0  0  0  0  0  0
  148.8633  140.9949  154.2076 H   0  0  0  0  0  0  0  0  0  0  0  0
  148.2931  141.3259  155.8239 H   0  0  0  0  0  0  0  0  0  0  0  0
  150.6065  142.1682  155.3055 H   0  0  0  0  0  0  0  0  0  0  0  0
  149.9636  141.9177  157.6596 H   0  0  0  0  0  0  0  0  0  0  0  0
  151.6575  141.4909  157.4471 H   0  0  0  0  0  0  0  0  0  0  0  0
  150.4466  140.2293  157.6633 H   0  0  0  0  0  0  0  0  0  0  0  0
  1  2  1  0  0  0  0
  1 21  1  0  0  0  0
  1 22  1  0  0  0  0
  1 23  1  0  0  0  0
  2 19  1  0  0  0  0
  2  3  1  0  0  0  0
  2 24  1  0  0  0  0
  3  4  1  0  0  0  0
  3 25  1  0  0  0  0
  3 26  1  0  0  0  0
  4  5  1  0  0  0  0
  4 16  1  0  0  0  0
  5  6  1  0  0  0  0
  5 27  1  0  0  0  0
  5 28  1  0  0  0  0
  6  7  1  0  0  0  0
  6 29  1  0  0  0  0
  6 30  1  0  0  0  0
  7  8  1  0  0  0  0
  7 31  1  0  0  0  0
  8  9  2  0  0  0  0
  8 10  1  0  0  0  0
 10 11  1  0  0  0  0
 10 32  1  0  0  0  0
 11 15  2  0  0  0  0
 11 12  1  0  0  0  0
 12 13  2  0  0  0  0
 12 33  1  0  0  0  0
 13 14  1  0  0  0  0
 14 20  1  0  0  0  0
 14 15  1  0  0  0  0
 15 34  1  0  0  0  0
 16 17  1  0  0  0  0
 16 35  1  0  0  0  0
 16 36  1  0  0  0  0
 17 18  1  0  0  0  0
 17 19  1  0  0  0  0
 17 37  1  0  0  0  0
 18 38  1  0  0  0  0
 18 39  1  0  0  0  0
 18 40  1  0  0  0  0
M  END
> <s_m_source_file>
AV-unprocessed.smi

> <i_m_source_file_index>
1715

> <i_lp_mmshare_version>
43012

> <i_f3d_flags>
0

> <s_epik_input>
W0NIM11bQ0BASF0xW0NIMl1OKFtDSDJdW0NASF0oTzEpW0NIM10pW0NIMl1bQ0gyXVtOSF1DKD1PKVtOSF1jMltjSF1uW25IXVtjSF0y

> <s_epik_cmdline>
J2VwaWtfcHl0aG9uJywgJy1waCcsICc3LjAnLCAnLXRuJywgJzgnLCAnLW1hJywgJzIwMCcsICctbWV0YWxfYmluZGluZycsICctaW1hZScsICc8aW5maWxlLm1hZT4nLCAnLW9tYWUnLCAnPG91dGZpbGUubWFlPic=

> <r_lp_tautomer_probability>
0.5

> <r_epik_Ionization_Penalty>
0.242771

> <r_epik_Ionization_Penalty_Charging>
0

> <r_epik_Ionization_Penalty_Neutral>
0.242771

> <r_epik_State_Penalty>
0.233765

> <r_epik_Charging_Adjusted_Penalty>
0.233765

> <i_epik_Tot_Q>
0

> <i_epik_Tot_abs_Q>
0

> <r_epik_Metal_State_Penalty>
0.233764

> <b_epik_Metal_Only>
0

> <s_lp_Force_Field>
OPLS_2005

> <r_lp_Energy>
24.9441

> <b_lp_Chiralities_Consistent>
1

> <s_lp_Variant>
AV-unprocessed.smi:1715-1

> <Gold.Version>
5.8.1

> <Gold.Id.Protein>
6NUR|6NUR_protein|mol2

> <Gold.PLP.Fitness>
43.8590

> <Gold.PLP.PLP>
-30.2917

> <Gold.PLP.part.hbond>
-4.0000

> <Gold.PLP.part.metal>
0.0000

> <Gold.PLP.part.buried>
-5.2840

> <Gold.PLP.part.nonpolar>
-22.6504

> <Gold.PLP.part.repulsive>
0.6210

> <Gold.PLP.ligand.clash>
0.0000

> <Gold.PLP.ligand.torsion>
0.6367

> <Gold.PLP.Chemscore.Hbond>
3.9280

> <Gold.PLP.Chemscore.CHOScore>
1.0000

> <Gold.PLP.Chemscore.Metal>
0.0000

> <Gold.Chemscore.Hbonds>
donor molecule, donor type, donor heavy atom, donor atom, acceptor molecule, acceptor atom, score
      L1  H     7    31       P1  7948  1.00
      L1  H    10    32       P1  7948  1.00
      L1  H    14    20       P1 10186  0.71
      P1  H  7989  7998       L1    19  1.00
      L1  C    15    34       P1 10171  0.88

> <Gold.PLP.Chemscore.Internal.Correction>
0.0568

> <Gold.Rescore>
     Score         DG    S(hbond)    S(metal)    S(lipo)     H(rot)  DE(clash)    DE(int)     intcor
     19.31     -20.09       3.43        0.00      62.52       1.63       0.04       0.73       ----

> <Gold.Chemscore.Fitness>
19.3147

> <Gold.Chemscore.DG>
-20.0851

> <Gold.Chemscore.ZeroCoef>
-5.4800

> <Gold.Chemscore.Hbond>
3.4309

> <Gold.Chemscore.Metal>
0.0000

> <Gold.Chemscore.Lipo>
62.5246

> <Gold.Chemscore.Internal_Hbond>
0.0000

> <Gold.Chemscore.DEClash>
0.0417

> <Gold.Chemscore.DEInternal>
0.7286

> <Gold.Chemscore.Rot>
1.6287

> <Gold.Chemscore.Internal.Correction>
   9.000000E+99

> <Gold.Chemscore.Hbonds>
donor molecule, donor type, donor heavy atom, donor atom, acceptor molecule, acceptor atom, score
      L1  H     7    31       P1  7948  1.00
      L1  H    10    32       P1  7948  0.95
      L1  H    14    20       P1 10186  0.66
      P1  H  7989  7998       L1    19  0.63

> <Gold.Chemscore.Hbond.Weighted>
-11.4593

> <Gold.Chemscore.Metal.Weighted>
-0.0000

> <Gold.Chemscore.Lipo.Weighted>
-7.3154

> <Gold.Chemscore.Internal_Hbond.Weighted>
0.0000

> <Gold.Chemscore.DEClash.Weighted>
0.0417

> <Gold.Chemscore.DEInternal.Weighted>
0.7286

> <Gold.Chemscore.Rot.Weighted>
4.1695

> <Gold.Chemscore.Internal.Correction.Weighted>
   9.000000E+99

> <Gold.Protein.RotatedTorsions>
[ 6907 6896 6895 6894 ] final  -34.25 input  -60.11 | X-H torsion
[ 7974 7965 7964 7962 ] final -113.42 input  175.53 | X-H torsion
[ 8008 7997 7996 7995 ] final  -96.34 input   59.86 | X-H torsion
[ 10167 10162 10161 10158 ] final  113.49 input  -65.29 | X-H torsion
[ 10718 10713 10712 10709 ] final  101.67 input   66.30 | X-H torsion
[ 10763 10752 10751 10750 ] final   32.58 input  -60.55 | X-H torsion
[ 11005 11000 10999 10996 ] final  104.40 input  -57.11 | X-H torsion

> <Gold.Protein.ActiveResidues>
 VAL166  LYS551  ARG553  GLY616  TRP617  ASP618  TYR619  PRO620  LYS621  CYS622 
 ASP623  PHE694  ASN695  SER759  ASP760  ASP761  ALA762  ILE779  LEU786  VAL792 
 PHE793  MET794  SER795  GLU796  ALA797  LYS798  CYS799  TRP800  GLU811  SER814 

> <Gold.Protein.RotatedAtoms>
  151.0551  134.9699  159.8231 H   0  0  0  0  0  0  0  0  0  0  0  0  # atno 6907 bound_to 6896
  152.5387  134.2488  159.8900 H   0  0  0  0  0  0  0  0  0  0  0  0  # atno 6908 bound_to 6896
  151.2505  133.4309  159.2645 H   0  0  0  0  0  0  0  0  0  0  0  0  # atno 6909 bound_to 6896
  145.1323  140.8731  143.3751 H   0  0  0  0  0  0  0  0  0  0  0  0  # atno 7974 bound_to 7965
  154.7731  140.0472  157.1067 H   0  0  0  0  0  0  0  0  0  0  0  0  # atno 8008 bound_to 7997
  154.9795  140.3100  155.4933 H   0  0  0  0  0  0  0  0  0  0  0  0  # atno 8009 bound_to 7997
  156.2924  140.2238  156.4894 H   0  0  0  0  0  0  0  0  0  0  0  0  # atno 8010 bound_to 7997
  139.6458  144.7126  151.2146 H   0  0  0  0  0  0  0  0  0  0  0  0  # atno 10167 bound_to 10162
  157.6823  131.0732  150.5288 H   0  0  0  0  0  0  0  0  0  0  0  0  # atno 10718 bound_to 10713
  153.0255  135.6409  154.1377 H   0  0  0  0  0  0  0  0  0  0  0  0  # atno 10763 bound_to 10752
  154.1107  135.2853  155.3233 H   0  0  0  0  0  0  0  0  0  0  0  0  # atno 10764 bound_to 10752
  154.6334  135.5485  153.7769 H   0  0  0  0  0  0  0  0  0  0  0  0  # atno 10765 bound_to 10752
  139.8791  134.9299  156.5356 H   0  0  0  0  0  0  0  0  0  0  0  0  # atno 11005 bound_to 11000
  145.0622  139.3096  143.5874 LP  0  0  0  0  0  0  0  0  0  0  0  0  # atno 17320 bound_to 7965
  146.3513  140.0068  142.8671 LP  0  0  0  0  0  0  0  0  0  0  0  0  # atno 17321 bound_to 7965
  140.7514  143.6234  150.8491 LP  0  0  0  0  0  0  0  0  0  0  0  0  # atno 17342 bound_to 10162
  139.9876  143.5882  152.2921 LP  0  0  0  0  0  0  0  0  0  0  0  0  # atno 17343 bound_to 10162
  156.5599  130.4253  149.6068 LP  0  0  0  0  0  0  0  0  0  0  0  0  # atno 17370 bound_to 10713
  156.2830  130.7081  151.1911 LP  0  0  0  0  0  0  0  0  0  0  0  0  # atno 17371 bound_to 10713
  140.8348  133.8251  155.9018 LP  0  0  0  0  0  0  0  0  0  0  0  0  # atno 17394 bound_to 11000
  140.9294  134.2041  157.4874 LP  0  0  0  0  0  0  0  0  0  0  0  0  # atno 17395 bound_to 11000

$$$$
