AV-unprocessed.smi:2053|AV-procd|sdf|8331|dock9
  -GOLD-   2272010593D 1   1.00000     0.00000
 Structure written by MMmdl.
 44 45  0  0  0  0  0  0  0  0  1 V2000
  152.0942  139.3076  157.1392 C   0  0  0  0  0  0  0  0  0  0  0  0
  152.7704  139.5551  155.9191 O   0  0  0  0  0  0  0  0  0  0  0  0
  152.6198  138.4943  154.9903 C   0  0  0  0  0  0  0  0  0  0  0  0
  151.1308  138.2887  154.6970 C   0  0  0  0  0  0  0  0  0  0  0  0
  150.6146  139.4725  154.0961 O   0  0  0  0  0  0  0  0  0  0  0  0
  149.6502  140.1898  154.7735 C   0  0  0  0  0  0  0  0  0  0  0  0
  148.8000  141.0367  154.0354 C   0  0  0  0  0  0  0  0  0  0  0  0
  147.8136  141.7747  154.7170 C   0  0  0  0  0  0  0  0  0  0  0  0
  147.7146  141.6480  156.1231 C   0  0  0  0  0  0  0  0  0  0  0  0
  146.7521  142.3178  156.9255 N   0  0  0  0  0  0  0  0  0  0  0  0
  146.2614  141.9721  158.1301 C   0  0  0  0  0  0  0  0  0  0  0  0
  146.5612  140.9418  158.7336 O   0  0  0  0  0  0  0  0  0  0  0  0
  145.2513  142.9640  158.7304 C   0  0  1  0  0  0  0  0  0  0  0  0
  143.8720  142.9511  158.0472 C   0  0  0  0  0  0  0  0  0  0  0  0
  143.0567  141.9867  158.8970 C   0  0  0  0  0  0  0  0  0  0  0  0
  143.5747  142.2528  160.3088 C   0  0  0  0  0  0  0  0  0  0  0  0
  144.9699  142.6898  160.1497 N   0  0  0  0  0  0  0  0  0  0  0  0
  145.6526  143.7371  161.3474 S   0  0  0  0  0  0  0  0  0  0  0  0
  144.3768  143.7273  162.6714 C   0  0  0  0  0  0  0  0  0  0  0  0
  146.8629  143.0853  161.8707 O   0  0  0  0  0  0  0  0  0  0  0  0
  145.7393  145.0864  160.7685 O   0  0  0  0  0  0  0  0  0  0  0  0
  148.6046  140.7630  156.7659 C   0  0  0  0  0  0  0  0  0  0  0  0
  149.5526  140.0529  156.1188 N   0  0  0  0  0  0  0  0  0  0  0  0
  152.2413  140.1484  157.8170 H   0  0  0  0  0  0  0  0  0  0  0  0
  152.4768  138.4107  157.6279 H   0  0  0  0  0  0  0  0  0  0  0  0
  151.0219  139.1884  156.9783 H   0  0  0  0  0  0  0  0  0  0  0  0
  153.1398  138.7518  154.0664 H   0  0  0  0  0  0  0  0  0  0  0  0
  153.0639  137.5732  155.3713 H   0  0  0  0  0  0  0  0  0  0  0  0
  150.9891  137.4207  154.0506 H   0  0  0  0  0  0  0  0  0  0  0  0
  150.6062  138.0987  155.6348 H   0  0  0  0  0  0  0  0  0  0  0  0
  148.8989  141.1150  152.9629 H   0  0  0  0  0  0  0  0  0  0  0  0
  147.1508  142.4060  154.1468 H   0  0  0  0  0  0  0  0  0  0  0  0
  146.3596  143.1551  156.5184 H   0  0  0  0  0  0  0  0  0  0  0  0
  145.6735  143.9653  158.6290 H   0  0  0  0  0  0  0  0  0  0  0  0
  143.4311  143.9477  158.0973 H   0  0  0  0  0  0  0  0  0  0  0  0
  143.8942  142.6644  156.9950 H   0  0  0  0  0  0  0  0  0  0  0  0
  141.9818  142.1444  158.8042 H   0  0  0  0  0  0  0  0  0  0  0  0
  143.2730  140.9576  158.6073 H   0  0  0  0  0  0  0  0  0  0  0  0
  142.9939  143.0499  160.7744 H   0  0  0  0  0  0  0  0  0  0  0  0
  143.5151  141.3707  160.9467 H   0  0  0  0  0  0  0  0  0  0  0  0
  144.7179  144.3385  163.5067 H   0  0  0  0  0  0  0  0  0  0  0  0
  144.2159  142.7051  163.0132 H   0  0  0  0  0  0  0  0  0  0  0  0
  143.4426  144.1341  162.2857 H   0  0  0  0  0  0  0  0  0  0  0  0
  148.5582  140.6212  157.8357 H   0  0  0  0  0  0  0  0  0  0  0  0
  1  2  1  0  0  0  0
  1 24  1  0  0  0  0
  1 25  1  0  0  0  0
  1 26  1  0  0  0  0
  2  3  1  0  0  0  0
  3  4  1  0  0  0  0
  3 27  1  0  0  0  0
  3 28  1  0  0  0  0
  4  5  1  0  0  0  0
  4 29  1  0  0  0  0
  4 30  1  0  0  0  0
  5  6  1  0  0  0  0
  6 23  1  0  0  0  0
  6  7  2  0  0  0  0
  7  8  1  0  0  0  0
  7 31  1  0  0  0  0
  8  9  2  0  0  0  0
  8 32  1  0  0  0  0
  9 10  1  0  0  0  0
  9 22  1  0  0  0  0
 10 11  1  0  0  0  0
 10 33  1  0  0  0  0
 11 12  2  0  0  0  0
 11 13  1  0  0  0  0
 13 17  1  0  0  0  0
 13 14  1  0  0  0  0
 13 34  1  0  0  0  0
 14 15  1  0  0  0  0
 14 35  1  0  0  0  0
 14 36  1  0  0  0  0
 15 16  1  0  0  0  0
 15 37  1  0  0  0  0
 15 38  1  0  0  0  0
 16 17  1  0  0  0  0
 16 39  1  0  0  0  0
 16 40  1  0  0  0  0
 17 18  1  0  0  0  0
 18 19  1  0  0  0  0
 18 20  2  0  0  0  0
 18 21  2  0  0  0  0
 19 41  1  0  0  0  0
 19 42  1  0  0  0  0
 19 43  1  0  0  0  0
 22 23  2  0  0  0  0
 22 44  1  0  0  0  0
M  END
> <s_m_source_file>
AV-unprocessed.smi

> <i_m_source_file_index>
2053

> <i_lp_mmshare_version>
43012

> <i_f3d_flags>
0

> <s_epik_input>
W0NIM11PW0NIMl1bQ0gyXU9jMVtjSF1bY0hdYyhbY0hdbjEpW05IXUMoPU8pW0NAQEhdMltDSDJdW0NIMl1bQ0gyXU4yUyg9TykoPU8pW0NIM10=

> <s_epik_cmdline>
J2VwaWtfcHl0aG9uJywgJy1waCcsICc3LjAnLCAnLXRuJywgJzgnLCAnLW1hJywgJzIwMCcsICctbWV0YWxfYmluZGluZycsICctaW1hZScsICc8aW5maWxlLm1hZT4nLCAnLW9tYWUnLCAnPG91dGZpbGUubWFlPic=

> <r_lp_tautomer_probability>
1

> <r_epik_Ionization_Penalty>
1.28704e-05

> <r_epik_Ionization_Penalty_Charging>
0

> <r_epik_Ionization_Penalty_Neutral>
1.28704e-05

> <r_epik_State_Penalty>
-0

> <r_epik_Charging_Adjusted_Penalty>
0

> <i_epik_Tot_Q>
0

> <i_epik_Tot_abs_Q>
0

> <r_epik_Metal_State_Penalty>
-0

> <b_epik_Metal_Only>
0

> <s_lp_Force_Field>
OPLS_2005

> <r_lp_Energy>
12.3258

> <b_lp_Chiralities_Consistent>
1

> <s_lp_Variant>
AV-unprocessed.smi:2053-2

> <Gold.Version>
5.8.1

> <Gold.Id.Protein>
6NUR|6NUR_protein|mol2

> <Gold.PLP.Fitness>
38.9164

> <Gold.PLP.PLP>
-32.2363

> <Gold.PLP.part.hbond>
-4.3237

> <Gold.PLP.part.metal>
0.0000

> <Gold.PLP.part.buried>
-3.8096

> <Gold.PLP.part.nonpolar>
-24.3910

> <Gold.PLP.part.repulsive>
0.3990

> <Gold.PLP.ligand.clash>
0.0000

> <Gold.PLP.ligand.torsion>
1.7728

> <Gold.PLP.Chemscore.Hbond>
3.2160

> <Gold.PLP.Chemscore.CHOScore>
0.0000

> <Gold.PLP.Chemscore.Metal>
0.0000

> <Gold.Chemscore.Hbonds>
donor molecule, donor type, donor heavy atom, donor atom, acceptor molecule, acceptor atom, score
      P1  H  6933  6944       L1    20  0.77
      P1  H  6934  6946       L1    12  0.37
      P1  H  7989  7998       L1     5  0.95
      P1  H  7997  8010       L1     2  1.00

> <Gold.PLP.Chemscore.Internal.Correction>
0.5777

> <Gold.Rescore>
     Score         DG    S(hbond)    S(metal)    S(lipo)     H(rot)  DE(clash)    DE(int)     intcor
     10.84     -14.49       2.48        0.00      55.64       2.26       0.30       3.34       ----

> <Gold.Chemscore.Fitness>
10.8438

> <Gold.Chemscore.DG>
-14.4914

> <Gold.Chemscore.ZeroCoef>
-5.4800

> <Gold.Chemscore.Hbond>
2.4793

> <Gold.Chemscore.Metal>
0.0000

> <Gold.Chemscore.Lipo>
55.6431

> <Gold.Chemscore.Internal_Hbond>
0.0000

> <Gold.Chemscore.DEClash>
0.3040

> <Gold.Chemscore.DEInternal>
3.3436

> <Gold.Chemscore.Rot>
2.2576

> <Gold.Chemscore.Internal.Correction>
   9.000000E+99

> <Gold.Chemscore.Hbonds>
donor molecule, donor type, donor heavy atom, donor atom, acceptor molecule, acceptor atom, score
      P1  H  6933  6944       L1    20  0.76
      P1  H  6934  6946       L1    12  0.35
      P1  H  7989  7998       L1     5  0.21
      P1  H  7997  8010       L1     2  0.63

> <Gold.Chemscore.Hbond.Weighted>
-8.2807

> <Gold.Chemscore.Metal.Weighted>
-0.0000

> <Gold.Chemscore.Lipo.Weighted>
-6.5102

> <Gold.Chemscore.Internal_Hbond.Weighted>
0.0000

> <Gold.Chemscore.DEClash.Weighted>
0.3040

> <Gold.Chemscore.DEInternal.Weighted>
3.3436

> <Gold.Chemscore.Rot.Weighted>
5.7796

> <Gold.Chemscore.Internal.Correction.Weighted>
   9.000000E+99

> <Gold.Protein.RotatedTorsions>
[ 6907 6896 6895 6894 ] final  -86.24 input  -60.11 | X-H torsion
[ 7974 7965 7964 7962 ] final   56.33 input  175.53 | X-H torsion
[ 8008 7997 7996 7995 ] final   80.10 input   59.86 | X-H torsion
[ 10167 10162 10161 10158 ] final  -16.66 input  -65.29 | X-H torsion
[ 10718 10713 10712 10709 ] final   49.90 input   66.30 | X-H torsion
[ 10763 10752 10751 10750 ] final   -5.99 input  -60.55 | X-H torsion
[ 11005 11000 10999 10996 ] final   89.60 input  -57.11 | X-H torsion

> <Gold.Protein.ActiveResidues>
 VAL166  LYS551  ARG553  GLY616  TRP617  ASP618  TYR619  PRO620  LYS621  CYS622 
 ASP623  PHE694  ASN695  SER759  ASP760  ASP761  ALA762  ILE779  LEU786  VAL792 
 PHE793  MET794  SER795  GLU796  ALA797  LYS798  CYS799  TRP800  GLU811  SER814 

> <Gold.Protein.RotatedAtoms>
  150.6867  134.3082  159.4734 H   0  0  0  0  0  0  0  0  0  0  0  0  # atno 6907 bound_to 6896
  152.0970  134.9365  160.0580 H   0  0  0  0  0  0  0  0  0  0  0  0  # atno 6908 bound_to 6896
  152.0659  133.4049  159.4475 H   0  0  0  0  0  0  0  0  0  0  0  0  # atno 6909 bound_to 6896
  145.9409  139.3888  143.0364 H   0  0  0  0  0  0  0  0  0  0  0  0  # atno 7974 bound_to 7965
  155.8789  140.3445  155.5873 H   0  0  0  0  0  0  0  0  0  0  0  0  # atno 8008 bound_to 7997
  155.7743  140.0849  157.2111 H   0  0  0  0  0  0  0  0  0  0  0  0  # atno 8009 bound_to 7997
  154.4023  140.1512  156.2965 H   0  0  0  0  0  0  0  0  0  0  0  0  # atno 8010 bound_to 7997
  140.7237  143.5093  150.9770 H   0  0  0  0  0  0  0  0  0  0  0  0  # atno 10167 bound_to 10162
  157.4832  130.8328  149.8117 H   0  0  0  0  0  0  0  0  0  0  0  0  # atno 10718 bound_to 10713
  153.4061  135.7006  153.6391 H   0  0  0  0  0  0  0  0  0  0  0  0  # atno 10763 bound_to 10752
  153.4905  135.3674  155.2489 H   0  0  0  0  0  0  0  0  0  0  0  0  # atno 10764 bound_to 10752
  154.8714  135.4087  154.3405 H   0  0  0  0  0  0  0  0  0  0  0  0  # atno 10765 bound_to 10752
  139.8872  134.8562  156.3166 H   0  0  0  0  0  0  0  0  0  0  0  0  # atno 11005 bound_to 11000
  145.8300  140.9635  143.0854 LP  0  0  0  0  0  0  0  0  0  0  0  0  # atno 17320 bound_to 7965
  144.6779  140.0151  143.7484 LP  0  0  0  0  0  0  0  0  0  0  0  0  # atno 17321 bound_to 7965
  139.8806  143.7077  152.3157 LP  0  0  0  0  0  0  0  0  0  0  0  0  # atno 17342 bound_to 10162
  139.7357  144.7572  151.0731 LP  0  0  0  0  0  0  0  0  0  0  0  0  # atno 17343 bound_to 10162
  156.0133  130.3824  150.2194 LP  0  0  0  0  0  0  0  0  0  0  0  0  # atno 17370 bound_to 10713
  157.0381  131.0027  151.3292 LP  0  0  0  0  0  0  0  0  0  0  0  0  # atno 17371 bound_to 10713
  140.9815  133.7264  156.0679 LP  0  0  0  0  0  0  0  0  0  0  0  0  # atno 17394 bound_to 11000
  140.7743  134.3797  157.5501 LP  0  0  0  0  0  0  0  0  0  0  0  0  # atno 17395 bound_to 11000

$$$$
