AV-unprocessed.smi:667|AV-procd|sdf|3258|dock9
  -GOLD-   22720 0213D 1   1.00000     0.00000
 Structure written by MMmdl.
 48 49  0  0  0  0  0  0  0  0  1 V2000
  147.8175  140.3202  157.3585 C   0  0  0  0  0  0  0  0  0  0  0  0
  147.1502  141.3868  156.5374 C   0  0  0  0  0  0  0  0  0  0  0  0
  146.1468  142.0753  157.0557 N   0  0  0  0  0  0  0  0  0  0  0  0
  145.7835  142.9377  156.0851 N   0  0  0  0  0  0  0  0  0  0  0  0
  144.6915  143.8609  156.3258 C   0  0  0  0  0  0  0  0  0  0  0  0
  146.5605  142.7954  154.9520 C   0  0  0  0  0  0  0  0  0  0  0  0
  146.3608  143.6409  153.7357 C   0  0  0  0  0  0  0  0  0  0  0  0
  147.4604  141.7954  155.2069 C   0  0  0  0  0  0  0  0  0  0  0  0
  148.5392  141.2424  154.3065 C   0  0  0  0  0  0  0  0  0  0  0  0
  149.9090  141.2604  154.9940 C   0  0  0  0  0  0  0  0  0  0  0  0
  150.6835  140.3179  154.8336 O   0  0  0  0  0  0  0  0  0  0  0  0
  150.1858  142.3113  155.7831 N   0  0  0  0  0  0  0  0  0  0  0  0
  151.3870  142.4645  156.5946 C   0  0  0  0  0  0  0  0  0  0  0  0
  151.1264  142.1171  158.0751 C   0  0  1  0  0  0  0  0  0  0  0  0
  150.6569  140.6768  158.2686 C   0  0  0  0  0  0  0  0  0  0  0  0
  151.7953  140.0088  159.0314 C   0  0  0  0  0  0  0  0  0  0  0  0
  152.3282  141.0669  159.8064 O   0  0  0  0  0  0  0  0  0  0  0  0
  152.3868  142.2107  158.9652 C   0  0  2  0  0  0  0  0  0  0  0  0
  152.5373  143.5023  159.8028 C   0  0  0  0  0  0  0  0  0  0  0  0
  151.8602  143.3484  161.1735 C   0  0  0  0  0  0  0  0  0  0  0  0
  152.0204  144.7615  159.0827 C   0  0  0  0  0  0  0  0  0  0  0  0
  148.8995  140.4509  157.3607 H   0  0  0  0  0  0  0  0  0  0  0  0
  147.6043  139.3299  156.9566 H   0  0  0  0  0  0  0  0  0  0  0  0
  147.4825  140.3374  158.3961 H   0  0  0  0  0  0  0  0  0  0  0  0
  143.9551  143.7765  155.5265 H   0  0  0  0  0  0  0  0  0  0  0  0
  145.0745  144.8813  156.3516 H   0  0  0  0  0  0  0  0  0  0  0  0
  144.2042  143.6412  157.2767 H   0  0  0  0  0  0  0  0  0  0  0  0
  147.1233  143.4374  152.9839 H   0  0  0  0  0  0  0  0  0  0  0  0
  146.4154  144.7006  153.9859 H   0  0  0  0  0  0  0  0  0  0  0  0
  145.3867  143.4475  153.2860 H   0  0  0  0  0  0  0  0  0  0  0  0
  148.3222  140.2147  154.0141 H   0  0  0  0  0  0  0  0  0  0  0  0
  148.6013  141.8100  153.3773 H   0  0  0  0  0  0  0  0  0  0  0  0
  149.4946  143.0445  155.8499 H   0  0  0  0  0  0  0  0  0  0  0  0
  152.1892  141.8430  156.1933 H   0  0  0  0  0  0  0  0  0  0  0  0
  151.7261  143.4971  156.5053 H   0  0  0  0  0  0  0  0  0  0  0  0
  150.3404  142.7731  158.4476 H   0  0  0  0  0  0  0  0  0  0  0  0
  149.7530  140.6674  158.8792 H   0  0  0  0  0  0  0  0  0  0  0  0
  150.4284  140.1607  157.3354 H   0  0  0  0  0  0  0  0  0  0  0  0
  151.4572  139.1810  159.6550 H   0  0  0  0  0  0  0  0  0  0  0  0
  152.5586  139.6361  158.3463 H   0  0  0  0  0  0  0  0  0  0  0  0
  153.2686  142.0924  158.3323 H   0  0  0  0  0  0  0  0  0  0  0  0
  153.5996  143.6521  159.9955 H   0  0  0  0  0  0  0  0  0  0  0  0
  150.7848  143.2011  161.0696 H   0  0  0  0  0  0  0  0  0  0  0  0
  152.0171  144.2327  161.7916 H   0  0  0  0  0  0  0  0  0  0  0  0
  152.2615  142.4937  161.7189 H   0  0  0  0  0  0  0  0  0  0  0  0
  150.9574  144.6816  158.8531 H   0  0  0  0  0  0  0  0  0  0  0  0
  152.5489  144.9464  158.1485 H   0  0  0  0  0  0  0  0  0  0  0  0
  152.1551  145.6465  159.7050 H   0  0  0  0  0  0  0  0  0  0  0  0
  1  2  1  0  0  0  0
  1 22  1  0  0  0  0
  1 23  1  0  0  0  0
  1 24  1  0  0  0  0
  2  8  1  0  0  0  0
  2  3  2  0  0  0  0
  3  4  1  0  0  0  0
  4  5  1  0  0  0  0
  4  6  1  0  0  0  0
  5 25  1  0  0  0  0
  5 26  1  0  0  0  0
  5 27  1  0  0  0  0
  6  7  1  0  0  0  0
  6  8  2  0  0  0  0
  7 28  1  0  0  0  0
  7 29  1  0  0  0  0
  7 30  1  0  0  0  0
  8  9  1  0  0  0  0
  9 10  1  0  0  0  0
  9 31  1  0  0  0  0
  9 32  1  0  0  0  0
 10 11  2  0  0  0  0
 10 12  1  0  0  0  0
 12 13  1  0  0  0  0
 12 33  1  0  0  0  0
 13 14  1  0  0  0  0
 13 34  1  0  0  0  0
 13 35  1  0  0  0  0
 14 18  1  0  0  0  0
 14 15  1  0  0  0  0
 14 36  1  0  0  0  0
 15 16  1  0  0  0  0
 15 37  1  0  0  0  0
 15 38  1  0  0  0  0
 16 17  1  0  0  0  0
 16 39  1  0  0  0  0
 16 40  1  0  0  0  0
 17 18  1  0  0  0  0
 18 19  1  0  0  0  0
 18 41  1  0  0  0  0
 19 20  1  0  0  0  0
 19 21  1  0  0  0  0
 19 42  1  0  0  0  0
 20 43  1  0  0  0  0
 20 44  1  0  0  0  0
 20 45  1  0  0  0  0
 21 46  1  0  0  0  0
 21 47  1  0  0  0  0
 21 48  1  0  0  0  0
M  END
> <s_m_source_file>
AV-unprocessed.smi

> <i_m_source_file_index>
667

> <i_lp_mmshare_version>
43012

> <i_f3d_flags>
0

> <s_epik_input>
W0NIM11jMW5uKFtDSDNdKWMoW0NIM10pYzFbQ0gyXUMoPU8pW05IXVtDSDJdW0NAQEhdMltDSDJdW0NIMl1PW0NASF0yW0NIXShbQ0gzXSlbQ0gzXQ==

> <s_epik_cmdline>
J2VwaWtfcHl0aG9uJywgJy1waCcsICc3LjAnLCAnLXRuJywgJzgnLCAnLW1hJywgJzIwMCcsICctbWV0YWxfYmluZGluZycsICctaW1hZScsICc8aW5maWxlLm1hZT4nLCAnLW9tYWUnLCAnPG91dGZpbGUubWFlPic=

> <r_lp_tautomer_probability>
1

> <r_epik_Ionization_Penalty>
0.00315488

> <r_epik_Ionization_Penalty_Charging>
0

> <r_epik_Ionization_Penalty_Neutral>
0.00315488

> <r_epik_State_Penalty>
0.00222269

> <r_epik_Charging_Adjusted_Penalty>
0.00222269

> <i_epik_Tot_Q>
0

> <i_epik_Tot_abs_Q>
0

> <r_epik_Metal_State_Penalty>
-0

> <b_epik_Metal_Only>
0

> <s_lp_Force_Field>
OPLS_2005

> <r_lp_Energy>
15.0171

> <b_lp_Chiralities_Consistent>
1

> <s_lp_Variant>
AV-unprocessed.smi:667-4

> <Gold.Version>
5.8.1

> <Gold.Id.Protein>
6NUR|6NUR_protein|mol2

> <Gold.PLP.Fitness>
45.5592

> <Gold.PLP.PLP>
-41.9416

> <Gold.PLP.part.hbond>
-2.0000

> <Gold.PLP.part.metal>
0.0000

> <Gold.PLP.part.buried>
-6.5976

> <Gold.PLP.part.nonpolar>
-33.1128

> <Gold.PLP.part.repulsive>
0.2940

> <Gold.PLP.ligand.clash>
0.0000

> <Gold.PLP.ligand.torsion>
1.1223

> <Gold.PLP.Chemscore.Hbond>
1.9440

> <Gold.PLP.Chemscore.CHOScore>
0.0000

> <Gold.PLP.Chemscore.Metal>
0.0000

> <Gold.Chemscore.Hbonds>
donor molecule, donor type, donor heavy atom, donor atom, acceptor molecule, acceptor atom, score
      L1  H    12    33       P1  8028  1.00
      P1  H  7989  7998       L1    11  1.00

> <Gold.PLP.Chemscore.Internal.Correction>
0.0301

> <Gold.Rescore>
     Score         DG    S(hbond)    S(metal)    S(lipo)     H(rot)  DE(clash)    DE(int)     intcor
     16.09     -17.87       1.29        0.00     102.32       1.52       0.25       1.53       ----

> <Gold.Chemscore.Fitness>
16.0865

> <Gold.Chemscore.DG>
-17.8685

> <Gold.Chemscore.ZeroCoef>
-5.4800

> <Gold.Chemscore.Hbond>
1.2911

> <Gold.Chemscore.Metal>
0.0000

> <Gold.Chemscore.Lipo>
102.3153

> <Gold.Chemscore.Internal_Hbond>
0.0000

> <Gold.Chemscore.DEClash>
0.2484

> <Gold.Chemscore.DEInternal>
1.5337

> <Gold.Chemscore.Rot>
1.5213

> <Gold.Chemscore.Internal.Correction>
   9.000000E+99

> <Gold.Chemscore.Hbonds>
donor molecule, donor type, donor heavy atom, donor atom, acceptor molecule, acceptor atom, score
      L1  H    12    33       P1  8028  0.98
      P1  H  7989  7998       L1    11  0.30

> <Gold.Chemscore.Hbond.Weighted>
-4.3122

> <Gold.Chemscore.Metal.Weighted>
-0.0000

> <Gold.Chemscore.Lipo.Weighted>
-11.9709

> <Gold.Chemscore.Internal_Hbond.Weighted>
0.0000

> <Gold.Chemscore.DEClash.Weighted>
0.2484

> <Gold.Chemscore.DEInternal.Weighted>
1.5337

> <Gold.Chemscore.Rot.Weighted>
3.8945

> <Gold.Chemscore.Internal.Correction.Weighted>
   9.000000E+99

> <Gold.Protein.RotatedTorsions>
[ 6907 6896 6895 6894 ] final  -18.17 input  -60.11 | X-H torsion
[ 7974 7965 7964 7962 ] final   30.46 input  175.53 | X-H torsion
[ 8008 7997 7996 7995 ] final   -3.24 input   59.86 | X-H torsion
[ 10167 10162 10161 10158 ] final -151.73 input  -65.29 | X-H torsion
[ 10718 10713 10712 10709 ] final  -40.35 input   66.30 | X-H torsion
[ 10763 10752 10751 10750 ] final   69.75 input  -60.55 | X-H torsion
[ 11005 11000 10999 10996 ] final  121.79 input  -57.11 | X-H torsion

> <Gold.Protein.ActiveResidues>
 VAL166  LYS551  ARG553  GLY616  TRP617  ASP618  TYR619  PRO620  LYS621  CYS622 
 ASP623  PHE694  ASN695  SER759  ASP760  ASP761  ALA762  ILE779  LEU786  VAL792 
 PHE793  MET794  SER795  GLU796  ALA797  LYS798  CYS799  TRP800  GLU811  SER814 

> <Gold.Protein.RotatedAtoms>
  151.2823  135.0717  159.9173 H   0  0  0  0  0  0  0  0  0  0  0  0  # atno 6907 bound_to 6896
  152.5332  134.0018  159.7908 H   0  0  0  0  0  0  0  0  0  0  0  0  # atno 6908 bound_to 6896
  151.0274  133.5770  159.2695 H   0  0  0  0  0  0  0  0  0  0  0  0  # atno 6909 bound_to 6896
  146.1610  139.6786  142.9033 H   0  0  0  0  0  0  0  0  0  0  0  0  # atno 7974 bound_to 7965
  154.6271  140.2514  155.7479 H   0  0  0  0  0  0  0  0  0  0  0  0  # atno 8008 bound_to 7997
  156.2459  140.2914  156.0525 H   0  0  0  0  0  0  0  0  0  0  0  0  # atno 8009 bound_to 7997
  155.1804  140.0389  157.2871 H   0  0  0  0  0  0  0  0  0  0  0  0  # atno 8010 bound_to 7997
  139.7242  143.8909  152.2514 H   0  0  0  0  0  0  0  0  0  0  0  0  # atno 10167 bound_to 10162
  156.2823  130.4218  149.8324 H   0  0  0  0  0  0  0  0  0  0  0  0  # atno 10718 bound_to 10713
  153.0304  135.5199  154.7336 H   0  0  0  0  0  0  0  0  0  0  0  0  # atno 10763 bound_to 10752
  154.6357  135.2906  155.0166 H   0  0  0  0  0  0  0  0  0  0  0  0  # atno 10764 bound_to 10752
  154.1103  135.6623  153.4936 H   0  0  0  0  0  0  0  0  0  0  0  0  # atno 10765 bound_to 10752
  139.9241  134.9640  156.8011 H   0  0  0  0  0  0  0  0  0  0  0  0  # atno 11005 bound_to 11000
  145.4587  141.0432  143.2764 LP  0  0  0  0  0  0  0  0  0  0  0  0  # atno 17320 bound_to 7965
  144.8027  139.6109  143.7064 LP  0  0  0  0  0  0  0  0  0  0  0  0  # atno 17321 bound_to 7965
  139.8814  144.7016  150.8874 LP  0  0  0  0  0  0  0  0  0  0  0  0  # atno 17342 bound_to 10162
  140.7759  143.3658  151.1741 LP  0  0  0  0  0  0  0  0  0  0  0  0  # atno 17343 bound_to 10162
  156.5767  130.8448  151.3372 LP  0  0  0  0  0  0  0  0  0  0  0  0  # atno 17370 bound_to 10713
  157.7318  130.9705  150.1897 LP  0  0  0  0  0  0  0  0  0  0  0  0  # atno 17371 bound_to 10713
  140.6389  133.9837  155.7697 LP  0  0  0  0  0  0  0  0  0  0  0  0  # atno 17394 bound_to 11000
  141.0784  134.0099  157.3422 LP  0  0  0  0  0  0  0  0  0  0  0  0  # atno 17395 bound_to 11000

$$$$
