AV-unprocessed.smi:2193|AV-procd|sdf|8898|dock3
  -GOLD-   2272012103D 1   1.00000     0.00000
 Structure written by MMmdl.
 40 42  0  0  0  0  0  0  0  0  1 V2000
  153.2546  139.4408  156.6072 O   0  0  0  0  0  0  0  0  0  0  0  0
  152.5719  139.4900  157.8410 C   0  0  0  0  0  0  0  0  0  0  0  0
  152.3092  140.8896  158.3080 C   0  0  0  0  0  0  0  0  0  0  0  0
  152.7602  141.3288  159.4837 N   0  0  0  0  0  0  0  0  0  0  0  0
  152.3253  142.6390  159.5079 C   0  0  0  0  0  0  0  0  0  0  0  0
  152.4900  143.6434  160.4885 C   0  0  0  0  0  0  0  0  0  0  0  0
  151.9533  144.9319  160.2878 C   0  0  0  0  0  0  0  0  0  0  0  0
  151.2476  145.2348  159.1054 C   0  0  0  0  0  0  0  0  0  0  0  0
  151.0726  144.2486  158.1155 C   0  0  0  0  0  0  0  0  0  0  0  0
  151.6068  142.9623  158.3225 C   0  0  0  0  0  0  0  0  0  0  0  0
  151.6085  141.7906  157.5711 N   0  0  0  0  0  0  0  0  0  0  0  0
  150.9921  141.6195  156.2606 C   0  0  0  0  0  0  0  0  0  0  0  0
  149.5322  141.1285  156.3476 C   0  0  2  0  0  0  0  0  0  0  0  0
  149.3764  140.2706  157.4595 O   0  0  0  0  0  0  0  0  0  0  0  0
  149.0924  140.3738  155.0848 C   0  0  0  0  0  0  0  0  0  0  0  0
  148.4003  141.2743  154.2295 O   0  0  0  0  0  0  0  0  0  0  0  0
  147.1795  141.7616  154.6436 C   0  0  0  0  0  0  0  0  0  0  0  0
  146.5005  142.6224  153.7562 C   0  0  0  0  0  0  0  0  0  0  0  0
  145.2472  143.1668  154.0967 C   0  0  0  0  0  0  0  0  0  0  0  0
  144.6581  142.8541  155.3355 C   0  0  0  0  0  0  0  0  0  0  0  0
  143.4530  143.3764  155.6651 F   0  0  0  0  0  0  0  0  0  0  0  0
  145.3244  141.9974  156.2314 C   0  0  0  0  0  0  0  0  0  0  0  0
  146.5779  141.4523  155.8902 C   0  0  0  0  0  0  0  0  0  0  0  0
  153.7066  138.6134  156.5470 H   0  0  0  0  0  0  0  0  0  0  0  0
  151.6227  138.9645  157.7290 H   0  0  0  0  0  0  0  0  0  0  0  0
  153.1372  138.9468  158.5981 H   0  0  0  0  0  0  0  0  0  0  0  0
  153.0315  143.4220  161.3965 H   0  0  0  0  0  0  0  0  0  0  0  0
  152.0850  145.6918  161.0440 H   0  0  0  0  0  0  0  0  0  0  0  0
  150.8407  146.2247  158.9585 H   0  0  0  0  0  0  0  0  0  0  0  0
  150.5334  144.4783  157.2084 H   0  0  0  0  0  0  0  0  0  0  0  0
  151.0304  142.5823  155.7499 H   0  0  0  0  0  0  0  0  0  0  0  0
  151.5834  140.9345  155.6546 H   0  0  0  0  0  0  0  0  0  0  0  0
  148.8644  141.9769  156.4985 H   0  0  0  0  0  0  0  0  0  0  0  0
  149.9572  140.5612  158.1464 H   0  0  0  0  0  0  0  0  0  0  0  0
  149.9618  139.9487  154.5799 H   0  0  0  0  0  0  0  0  0  0  0  0
  148.4264  139.5544  155.3608 H   0  0  0  0  0  0  0  0  0  0  0  0
  146.9455  142.8681  152.8031 H   0  0  0  0  0  0  0  0  0  0  0  0
  144.7388  143.8243  153.4069 H   0  0  0  0  0  0  0  0  0  0  0  0
  144.8740  141.7570  157.1831 H   0  0  0  0  0  0  0  0  0  0  0  0
  147.0576  140.7997  156.6035 H   0  0  0  0  0  0  0  0  0  0  0  0
  1  2  1  0  0  0  0
  1 24  1  0  0  0  0
  2  3  1  0  0  0  0
  2 25  1  0  0  0  0
  2 26  1  0  0  0  0
  3 11  1  0  0  0  0
  3  4  2  0  0  0  0
  4  5  1  0  0  0  0
  5 10  2  0  0  0  0
  5  6  1  0  0  0  0
  6  7  2  0  0  0  0
  6 27  1  0  0  0  0
  7  8  1  0  0  0  0
  7 28  1  0  0  0  0
  8  9  2  0  0  0  0
  8 29  1  0  0  0  0
  9 10  1  0  0  0  0
  9 30  1  0  0  0  0
 10 11  1  0  0  0  0
 11 12  1  0  0  0  0
 12 13  1  0  0  0  0
 12 31  1  0  0  0  0
 12 32  1  0  0  0  0
 13 14  1  0  0  0  0
 13 15  1  0  0  0  0
 13 33  1  0  0  0  0
 14 34  1  0  0  0  0
 15 16  1  0  0  0  0
 15 35  1  0  0  0  0
 15 36  1  0  0  0  0
 16 17  1  0  0  0  0
 17 23  1  0  0  0  0
 17 18  2  0  0  0  0
 18 19  1  0  0  0  0
 18 37  1  0  0  0  0
 19 20  2  0  0  0  0
 19 38  1  0  0  0  0
 20 21  1  0  0  0  0
 20 22  1  0  0  0  0
 22 23  2  0  0  0  0
 22 39  1  0  0  0  0
 23 40  1  0  0  0  0
M  END
> <s_m_source_file>
AV-unprocessed.smi

> <i_m_source_file_index>
2193

> <i_lp_mmshare_version>
43012

> <i_f3d_flags>
0

> <s_epik_input>
W2NIXTFbY0hdW2NIXVtjSF1jKGMxMiluKGMobjIpW0NIMl1bT0hdKVtDSDJdW0NASF0oW09IXSlbQ0gyXU9jM1tjSF1bY0hdYyhGKVtjSF1bY0hdMw==

> <s_epik_cmdline>
J2VwaWtfcHl0aG9uJywgJy1waCcsICc3LjAnLCAnLXRuJywgJzgnLCAnLW1hJywgJzIwMCcsICctbWV0YWxfYmluZGluZycsICctaW1hZScsICc8aW5maWxlLm1hZT4nLCAnLW9tYWUnLCAnPG91dGZpbGUubWFlPic=

> <r_lp_tautomer_probability>
1

> <r_epik_Ionization_Penalty>
0.0549747

> <r_epik_Ionization_Penalty_Charging>
0

> <r_epik_Ionization_Penalty_Neutral>
0.0549747

> <r_epik_State_Penalty>
0.0472568

> <r_epik_Charging_Adjusted_Penalty>
0.0472568

> <i_epik_Tot_Q>
0

> <i_epik_Tot_abs_Q>
0

> <r_epik_Metal_State_Penalty>
4.91905e-05

> <b_epik_Metal_Only>
0

> <s_lp_Force_Field>
OPLS_2005

> <r_lp_Energy>
14.0704

> <b_lp_Chiralities_Consistent>
1

> <s_lp_Variant>
AV-unprocessed.smi:2193-1

> <Gold.Version>
5.8.1

> <Gold.Id.Protein>
6NUR|6NUR_protein|mol2

> <Gold.PLP.Fitness>
49.8574

> <Gold.PLP.PLP>
-49.1058

> <Gold.PLP.part.hbond>
-1.3250

> <Gold.PLP.part.metal>
0.0000

> <Gold.PLP.part.buried>
-8.0786

> <Gold.PLP.part.nonpolar>
-39.0612

> <Gold.PLP.part.repulsive>
0.1525

> <Gold.PLP.ligand.clash>
0.0000

> <Gold.PLP.ligand.torsion>
1.2107

> <Gold.PLP.Chemscore.Hbond>
1.0000

> <Gold.PLP.Chemscore.CHOScore>
0.0000

> <Gold.PLP.Chemscore.Metal>
0.0000

> <Gold.Chemscore.Hbonds>
donor molecule, donor type, donor heavy atom, donor atom, acceptor molecule, acceptor atom, score
      P1  H  7997  8009       L1     1  0.22

> <Gold.PLP.Chemscore.Internal.Correction>
0.1730

> <Gold.Rescore>
     Score         DG    S(hbond)    S(metal)    S(lipo)     H(rot)  DE(clash)    DE(int)     intcor
     11.41     -13.84       0.79        0.00     119.49       3.22       0.02       2.41       ----

> <Gold.Chemscore.Fitness>
11.4150

> <Gold.Chemscore.DG>
-13.8416

> <Gold.Chemscore.ZeroCoef>
-5.4800

> <Gold.Chemscore.Hbond>
0.7855

> <Gold.Chemscore.Metal>
0.0000

> <Gold.Chemscore.Lipo>
119.4880

> <Gold.Chemscore.Internal_Hbond>
0.0000

> <Gold.Chemscore.DEClash>
0.0182

> <Gold.Chemscore.DEInternal>
2.4084

> <Gold.Chemscore.Rot>
3.2196

> <Gold.Chemscore.Internal.Correction>
   9.000000E+99

> <Gold.Chemscore.Hbonds>
donor molecule, donor type, donor heavy atom, donor atom, acceptor molecule, acceptor atom, score
      P1  H  7997  8009       L1     1  0.02

> <Gold.Chemscore.Hbond.Weighted>
-2.6237

> <Gold.Chemscore.Metal.Weighted>
-0.0000

> <Gold.Chemscore.Lipo.Weighted>
-13.9801

> <Gold.Chemscore.Internal_Hbond.Weighted>
0.0000

> <Gold.Chemscore.DEClash.Weighted>
0.0182

> <Gold.Chemscore.DEInternal.Weighted>
2.4084

> <Gold.Chemscore.Rot.Weighted>
8.2422

> <Gold.Chemscore.Internal.Correction.Weighted>
   9.000000E+99

> <Gold.Protein.RotatedTorsions>
[ 6907 6896 6895 6894 ] final  -95.78 input  -60.11 | X-H torsion
[ 7974 7965 7964 7962 ] final -138.50 input  175.53 | X-H torsion
[ 8008 7997 7996 7995 ] final -167.15 input   59.86 | X-H torsion
[ 10167 10162 10161 10158 ] final  -35.26 input  -65.29 | X-H torsion
[ 10718 10713 10712 10709 ] final   97.25 input   66.30 | X-H torsion
[ 10763 10752 10751 10750 ] final  104.53 input  -60.55 | X-H torsion
[ 11005 11000 10999 10996 ] final  -27.00 input  -57.11 | X-H torsion

> <Gold.Protein.ActiveResidues>
 VAL166  LYS551  ARG553  GLY616  TRP617  ASP618  TYR619  PRO620  LYS621  CYS622 
 ASP623  PHE694  ASN695  SER759  ASP760  ASP761  ALA762  ILE779  LEU786  VAL792 
 PHE793  MET794  SER795  GLU796  ALA797  LYS798  CYS799  TRP800  GLU811  SER814 

> <Gold.Protein.RotatedAtoms>
  150.6972  134.1605  159.4174 H   0  0  0  0  0  0  0  0  0  0  0  0  # atno 6907 bound_to 6896
  151.9586  135.0132  160.0555 H   0  0  0  0  0  0  0  0  0  0  0  0  # atno 6908 bound_to 6896
  152.1947  133.4763  159.5063 H   0  0  0  0  0  0  0  0  0  0  0  0  # atno 6909 bound_to 6896
  144.8753  140.6428  143.5241 H   0  0  0  0  0  0  0  0  0  0  0  0  # atno 7974 bound_to 7965
  155.8737  140.0997  157.1533 H   0  0  0  0  0  0  0  0  0  0  0  0  # atno 8008 bound_to 7997
  154.3999  140.1342  156.4173 H   0  0  0  0  0  0  0  0  0  0  0  0  # atno 8009 bound_to 7997
  155.7721  140.3460  155.5255 H   0  0  0  0  0  0  0  0  0  0  0  0  # atno 8010 bound_to 7997
  140.7169  143.3489  151.2196 H   0  0  0  0  0  0  0  0  0  0  0  0  # atno 10167 bound_to 10162
  157.6915  131.0603  150.4615 H   0  0  0  0  0  0  0  0  0  0  0  0  # atno 10718 bound_to 10713
  153.3672  135.3940  155.1762 H   0  0  0  0  0  0  0  0  0  0  0  0  # atno 10763 bound_to 10752
  154.8688  135.3693  154.5024 H   0  0  0  0  0  0  0  0  0  0  0  0  # atno 10764 bound_to 10752
  153.5489  135.7083  153.5661 H   0  0  0  0  0  0  0  0  0  0  0  0  # atno 10765 bound_to 10752
  140.9080  133.7480  156.0632 H   0  0  0  0  0  0  0  0  0  0  0  0  # atno 11005 bound_to 11000
  145.4054  139.1590  143.4154 LP  0  0  0  0  0  0  0  0  0  0  0  0  # atno 17320 bound_to 7965
  146.2958  140.4154  142.8722 LP  0  0  0  0  0  0  0  0  0  0  0  0  # atno 17321 bound_to 7965
  139.7016  143.9524  152.2908 LP  0  0  0  0  0  0  0  0  0  0  0  0  # atno 17342 bound_to 10162
  139.9219  144.6794  150.8452 LP  0  0  0  0  0  0  0  0  0  0  0  0  # atno 17343 bound_to 10162
  156.4959  130.4106  149.6380 LP  0  0  0  0  0  0  0  0  0  0  0  0  # atno 17370 bound_to 10713
  156.3373  130.7363  151.2303 LP  0  0  0  0  0  0  0  0  0  0  0  0  # atno 17371 bound_to 10713
  140.8146  134.3359  157.5401 LP  0  0  0  0  0  0  0  0  0  0  0  0  # atno 17394 bound_to 11000
  139.8752  134.9274  156.3424 LP  0  0  0  0  0  0  0  0  0  0  0  0  # atno 17395 bound_to 11000

$$$$
