AV-unprocessed.smi:546|AV-procd|sdf|2883|dock3
  -GOLD-   2262023373D 1   1.00000     0.00000
 Structure written by MMmdl.
 52 54  0  0  0  0  0  0  0  0  1 V2000
  150.9422  135.3351  154.6041 C   0  0  0  0  0  0  0  0  0  0  0  0
  151.3897  135.8782  155.9628 C   0  0  0  0  0  0  0  0  0  0  0  0
  152.2029  137.0219  155.7627 O   0  0  0  0  0  0  0  0  0  0  0  0
  152.0731  137.9722  156.8082 C   0  0  0  0  0  0  0  0  0  0  0  0
  152.2608  139.3889  156.2486 C   0  0  0  0  0  0  0  0  0  0  0  0
  150.9845  140.0840  156.0887 N   0  0  0  0  0  0  0  0  0  0  0  0
  150.4749  141.1382  156.7874 C   0  0  0  0  0  0  0  0  0  0  0  0
  151.1300  141.7154  157.8783 N   0  0  0  0  0  0  0  0  0  0  0  0
  150.7961  143.0372  158.4074 C   0  0  0  0  0  0  0  0  0  0  0  0
  152.0524  143.9104  158.5937 C   0  0  1  0  0  0  0  0  0  0  0  0
  151.6933  145.3113  159.1057 C   0  0  0  0  0  0  0  0  0  0  0  0
  153.0534  143.2058  159.5248 C   0  0  0  0  0  0  0  0  0  0  0  0
  153.3351  141.7780  159.0281 C   0  0  1  0  0  0  0  0  0  0  0  0
  154.2701  141.0215  159.9803 C   0  0  0  0  0  0  0  0  0  0  0  0
  152.0023  141.0282  158.8310 C   0  0  0  0  0  0  0  0  0  0  0  0
  149.3107  141.5996  156.3197 N   0  0  0  0  0  0  0  0  0  0  0  0
  149.0364  140.7541  155.2576 C   0  0  0  0  0  0  0  0  0  0  0  0
  150.0263  139.8397  155.1025 C   0  0  0  0  0  0  0  0  0  0  0  0
  150.0070  138.8342  154.0308 C   0  0  0  0  0  0  0  0  0  0  0  0
  150.8946  138.0003  153.8660 O   0  0  0  0  0  0  0  0  0  0  0  0
  148.9110  138.9218  153.2387 N   0  0  0  0  0  0  0  0  0  0  0  0
  147.8807  139.8157  153.3407 C   0  0  0  0  0  0  0  0  0  0  0  0
  146.9498  139.7755  152.5364 O   0  0  0  0  0  0  0  0  0  0  0  0
  147.9347  140.7368  154.3551 N   0  0  0  0  0  0  0  0  0  0  0  0
  146.8614  141.7209  154.5087 C   0  0  0  0  0  0  0  0  0  0  0  0
  148.8483  138.2523  152.4856 H   0  0  0  0  0  0  0  0  0  0  0  0
  150.2867  134.4728  154.7262 H   0  0  0  0  0  0  0  0  0  0  0  0
  151.7991  135.0194  154.0087 H   0  0  0  0  0  0  0  0  0  0  0  0
  150.3988  136.0924  154.0385 H   0  0  0  0  0  0  0  0  0  0  0  0
  150.5171  136.1416  156.5624 H   0  0  0  0  0  0  0  0  0  0  0  0
  151.9439  135.1099  156.5040 H   0  0  0  0  0  0  0  0  0  0  0  0
  151.0915  137.8829  157.2756 H   0  0  0  0  0  0  0  0  0  0  0  0
  152.8188  137.7781  157.5802 H   0  0  0  0  0  0  0  0  0  0  0  0
  152.9052  139.9752  156.9027 H   0  0  0  0  0  0  0  0  0  0  0  0
  152.7925  139.3330  155.3059 H   0  0  0  0  0  0  0  0  0  0  0  0
  150.1082  143.5367  157.7239 H   0  0  0  0  0  0  0  0  0  0  0  0
  150.2647  142.9243  159.3533 H   0  0  0  0  0  0  0  0  0  0  0  0
  152.5245  144.0267  157.6183 H   0  0  0  0  0  0  0  0  0  0  0  0
  151.2099  145.2645  160.0821 H   0  0  0  0  0  0  0  0  0  0  0  0
  151.0121  145.8160  158.4202 H   0  0  0  0  0  0  0  0  0  0  0  0
  152.5836  145.9332  159.2034 H   0  0  0  0  0  0  0  0  0  0  0  0
  153.9822  143.7750  159.5780 H   0  0  0  0  0  0  0  0  0  0  0  0
  152.6493  143.1702  160.5376 H   0  0  0  0  0  0  0  0  0  0  0  0
  153.8373  141.8510  158.0626 H   0  0  0  0  0  0  0  0  0  0  0  0
  153.8247  140.9116  160.9696 H   0  0  0  0  0  0  0  0  0  0  0  0
  155.2185  141.5464  160.0978 H   0  0  0  0  0  0  0  0  0  0  0  0
  154.4903  140.0232  159.6009 H   0  0  0  0  0  0  0  0  0  0  0  0
  151.4804  140.9492  159.7858 H   0  0  0  0  0  0  0  0  0  0  0  0
  152.1744  140.0007  158.5129 H   0  0  0  0  0  0  0  0  0  0  0  0
  145.8892  141.2286  154.5628 H   0  0  0  0  0  0  0  0  0  0  0  0
  146.8500  142.4050  153.6593 H   0  0  0  0  0  0  0  0  0  0  0  0
  146.9684  142.3202  155.4127 H   0  0  0  0  0  0  0  0  0  0  0  0
  1  2  1  0  0  0  0
  1 27  1  0  0  0  0
  1 28  1  0  0  0  0
  1 29  1  0  0  0  0
  2  3  1  0  0  0  0
  2 30  1  0  0  0  0
  2 31  1  0  0  0  0
  3  4  1  0  0  0  0
  4  5  1  0  0  0  0
  4 32  1  0  0  0  0
  4 33  1  0  0  0  0
  5  6  1  0  0  0  0
  5 34  1  0  0  0  0
  5 35  1  0  0  0  0
  6 18  1  0  0  0  0
  6  7  1  0  0  0  0
  7  8  1  0  0  0  0
  7 16  2  0  0  0  0
  8 15  1  0  0  0  0
  8  9  1  0  0  0  0
  9 10  1  0  0  0  0
  9 36  1  0  0  0  0
  9 37  1  0  0  0  0
 10 11  1  0  0  0  0
 10 12  1  0  0  0  0
 10 38  1  0  0  0  0
 11 39  1  0  0  0  0
 11 40  1  0  0  0  0
 11 41  1  0  0  0  0
 12 13  1  0  0  0  0
 12 42  1  0  0  0  0
 12 43  1  0  0  0  0
 13 14  1  0  0  0  0
 13 15  1  0  0  0  0
 13 44  1  0  0  0  0
 14 45  1  0  0  0  0
 14 46  1  0  0  0  0
 14 47  1  0  0  0  0
 15 48  1  0  0  0  0
 15 49  1  0  0  0  0
 16 17  1  0  0  0  0
 17 24  1  0  0  0  0
 17 18  2  0  0  0  0
 18 19  1  0  0  0  0
 19 20  2  0  0  0  0
 19 21  1  0  0  0  0
 21 26  1  0  0  0  0
 21 22  1  0  0  0  0
 22 23  2  0  0  0  0
 22 24  1  0  0  0  0
 24 25  1  0  0  0  0
 25 50  1  0  0  0  0
 25 51  1  0  0  0  0
 25 52  1  0  0  0  0
M  END
> <s_m_source_file>
AV-unprocessed.smi

> <i_m_source_file_index>
546

> <i_lp_mmshare_version>
43012

> <i_f3d_flags>
0

> <s_epik_input>
W0NIM11uMWMoPU8pW25IXWMoPU8pYyhjMTIpbihbQ0gyXVtDSDJdT1tDSDJdW0NIM10pYyhuMilOM1tDSDJdW0NAQEhdKFtDSDNdKVtDSDJdW0NAQEhdKFtDSDNdKVtDSDJdMw==

> <s_epik_cmdline>
J2VwaWtfcHl0aG9uJywgJy1waCcsICc3LjAnLCAnLXRuJywgJzgnLCAnLW1hJywgJzIwMCcsICctbWV0YWxfYmluZGluZycsICctaW1hZScsICc8aW5maWxlLm1hZT4nLCAnLW9tYWUnLCAnPG91dGZpbGUubWFlPic=

> <r_lp_tautomer_probability>
1

> <r_epik_Ionization_Penalty>
0.000576472

> <r_epik_Ionization_Penalty_Charging>
0.000118943

> <r_epik_Ionization_Penalty_Neutral>
0.000457529

> <r_epik_State_Penalty>
-0

> <r_epik_Charging_Adjusted_Penalty>
0.000118943

> <i_epik_Tot_Q>
0

> <i_epik_Tot_abs_Q>
0

> <r_epik_Metal_State_Penalty>
0.0916165

> <b_epik_Metal_Only>
0

> <s_lp_Force_Field>
OPLS_2005

> <r_lp_Energy>
35.568

> <b_lp_Chiralities_Consistent>
1

> <s_lp_Variant>
AV-unprocessed.smi:546-1

> <Gold.Version>
5.8.1

> <Gold.Id.Protein>
6NUR|6NUR_protein|mol2

> <Gold.PLP.Fitness>
50.7216

> <Gold.PLP.PLP>
-48.2754

> <Gold.PLP.part.hbond>
-2.7560

> <Gold.PLP.part.metal>
0.0000

> <Gold.PLP.part.buried>
-5.9985

> <Gold.PLP.part.nonpolar>
-43.5864

> <Gold.PLP.part.repulsive>
2.5449

> <Gold.PLP.ligand.clash>
0.0000

> <Gold.PLP.ligand.torsion>
1.1002

> <Gold.PLP.Chemscore.Hbond>
1.4485

> <Gold.PLP.Chemscore.CHOScore>
0.0000

> <Gold.PLP.Chemscore.Metal>
0.0000

> <Gold.Chemscore.Hbonds>
donor molecule, donor type, donor heavy atom, donor atom, acceptor molecule, acceptor atom, score
      L1  H    21    26       P1  7948  0.86

> <Gold.PLP.Chemscore.Internal.Correction>
0.3012

> <Gold.Rescore>
     Score         DG    S(hbond)    S(metal)    S(lipo)     H(rot)  DE(clash)    DE(int)     intcor
     13.21     -16.71       0.97        0.00     102.06       1.55       0.04       3.47       ----

> <Gold.Chemscore.Fitness>
13.2053

> <Gold.Chemscore.DG>
-16.7118

> <Gold.Chemscore.ZeroCoef>
-5.4800

> <Gold.Chemscore.Hbond>
0.9731

> <Gold.Chemscore.Metal>
0.0000

> <Gold.Chemscore.Lipo>
102.0567

> <Gold.Chemscore.Internal_Hbond>
0.0000

> <Gold.Chemscore.DEClash>
0.0399

> <Gold.Chemscore.DEInternal>
3.4666

> <Gold.Chemscore.Rot>
1.5465

> <Gold.Chemscore.Internal.Correction>
   9.000000E+99

> <Gold.Chemscore.Hbonds>
donor molecule, donor type, donor heavy atom, donor atom, acceptor molecule, acceptor atom, score
      L1  H    21    26       P1  7948  0.80

> <Gold.Chemscore.Hbond.Weighted>
-3.2503

> <Gold.Chemscore.Metal.Weighted>
-0.0000

> <Gold.Chemscore.Lipo.Weighted>
-11.9406

> <Gold.Chemscore.Internal_Hbond.Weighted>
0.0000

> <Gold.Chemscore.DEClash.Weighted>
0.0399

> <Gold.Chemscore.DEInternal.Weighted>
3.4666

> <Gold.Chemscore.Rot.Weighted>
3.9591

> <Gold.Chemscore.Internal.Correction.Weighted>
   9.000000E+99

> <Gold.Protein.RotatedTorsions>
[ 6907 6896 6895 6894 ] final -128.43 input  -60.11 | X-H torsion
[ 7974 7965 7964 7962 ] final -153.62 input  175.53 | X-H torsion
[ 8008 7997 7996 7995 ] final   -3.01 input   59.86 | X-H torsion
[ 10167 10162 10161 10158 ] final  -24.18 input  -65.29 | X-H torsion
[ 10718 10713 10712 10709 ] final  150.34 input   66.30 | X-H torsion
[ 10763 10752 10751 10750 ] final -157.21 input  -60.55 | X-H torsion
[ 11005 11000 10999 10996 ] final  -41.32 input  -57.11 | X-H torsion

> <Gold.Protein.ActiveResidues>
 VAL166  LYS551  ARG553  GLY616  TRP617  ASP618  TYR619  PRO620  LYS621  CYS622 
 ASP623  PHE694  ASN695  SER759  ASP760  ASP761  ALA762  ILE779  LEU786  VAL792 
 PHE793  MET794  SER795  GLU796  ALA797  LYS798  CYS799  TRP800  GLU811  SER814 

> <Gold.Protein.RotatedAtoms>
  150.9179  133.6917  159.2838 H   0  0  0  0  0  0  0  0  0  0  0  0  # atno 6907 bound_to 6896
  151.4382  135.1016  159.9672 H   0  0  0  0  0  0  0  0  0  0  0  0  # atno 6908 bound_to 6896
  152.4964  133.8593  159.7297 H   0  0  0  0  0  0  0  0  0  0  0  0  # atno 6909 bound_to 6896
  144.7731  140.4501  143.5892 H   0  0  0  0  0  0  0  0  0  0  0  0  # atno 7974 bound_to 7965
  154.6295  140.2520  155.7451 H   0  0  0  0  0  0  0  0  0  0  0  0  # atno 8008 bound_to 7997
  156.2471  140.2910  156.0559 H   0  0  0  0  0  0  0  0  0  0  0  0  # atno 8009 bound_to 7997
  155.1768  140.0388  157.2864 H   0  0  0  0  0  0  0  0  0  0  0  0  # atno 8010 bound_to 7997
  140.7288  143.4376  151.0706 H   0  0  0  0  0  0  0  0  0  0  0  0  # atno 10167 bound_to 10162
  157.2847  131.0842  151.1506 H   0  0  0  0  0  0  0  0  0  0  0  0  # atno 10718 bound_to 10713
  154.7654  135.3129  154.8296 H   0  0  0  0  0  0  0  0  0  0  0  0  # atno 10763 bound_to 10752
  153.9046  135.6812  153.4758 H   0  0  0  0  0  0  0  0  0  0  0  0  # atno 10764 bound_to 10752
  153.1259  135.4801  154.9204 H   0  0  0  0  0  0  0  0  0  0  0  0  # atno 10765 bound_to 10752
  141.0237  133.6851  156.2441 H   0  0  0  0  0  0  0  0  0  0  0  0  # atno 11005 bound_to 11000
  145.6264  139.1530  143.2993 LP  0  0  0  0  0  0  0  0  0  0  0  0  # atno 17320 bound_to 7965
  146.1892  140.6371  142.9153 LP  0  0  0  0  0  0  0  0  0  0  0  0  # atno 17321 bound_to 7965
  139.8040  143.8044  152.3165 LP  0  0  0  0  0  0  0  0  0  0  0  0  # atno 17342 bound_to 10162
  139.8070  144.7351  150.9747 LP  0  0  0  0  0  0  0  0  0  0  0  0  # atno 17343 bound_to 10162
  157.2926  130.6803  149.6122 LP  0  0  0  0  0  0  0  0  0  0  0  0  # atno 17370 bound_to 10713
  155.9665  130.4416  150.5348 LP  0  0  0  0  0  0  0  0  0  0  0  0  # atno 17371 bound_to 10713
  140.6528  134.5049  157.5578 LP  0  0  0  0  0  0  0  0  0  0  0  0  # atno 17394 bound_to 11000
  139.9162  134.8241  156.1358 LP  0  0  0  0  0  0  0  0  0  0  0  0  # atno 17395 bound_to 11000

$$$$
