AV-unprocessed.smi:2406|AV-procd|sdf|9517|dock10
  -GOLD-   2272013153D 1   1.00000     0.00000
 Structure written by MMmdl.
 36 37  0  0  0  0  0  0  0  0  1 V2000
  146.5726  138.7140  152.4657 C   0  0  0  0  0  0  0  0  0  0  0  0
  146.8497  139.7784  153.3690 O   0  0  0  0  0  0  0  0  0  0  0  0
  148.1250  139.8788  153.8853 C   0  0  0  0  0  0  0  0  0  0  0  0
  148.4774  141.0166  154.6398 C   0  0  0  0  0  0  0  0  0  0  0  0
  149.7911  141.0764  155.1569 C   0  0  0  0  0  0  0  0  0  0  0  0
  150.1017  142.2331  155.9194 N   0  0  0  0  0  0  0  0  0  0  0  0
  150.9683  142.3447  156.9412 C   0  0  0  0  0  0  0  0  0  0  0  0
  151.6865  141.4396  157.3669 O   0  0  0  0  0  0  0  0  0  0  0  0
  150.9491  143.5833  157.4552 N   0  0  0  0  0  0  0  0  0  0  0  0
  151.7168  144.0443  158.6106 C   0  0  1  0  0  0  0  0  0  0  0  0
  151.2691  145.4624  158.9922 C   0  0  0  0  0  0  0  0  0  0  0  0
  151.5527  143.0583  159.7825 C   0  0  0  0  0  0  0  0  0  0  0  0
  152.7006  143.1100  160.7762 C   0  0  0  0  0  0  0  0  0  0  0  0
  153.5158  141.8798  161.1032 C   0  0  0  0  0  0  0  0  0  0  0  0
  152.5766  142.4609  162.1340 C   0  0  0  0  0  0  0  0  0  0  0  0
  150.6600  140.0641  154.9146 N   0  0  0  0  0  0  0  0  0  0  0  0
  150.2304  139.0319  154.1864 C   0  0  0  0  0  0  0  0  0  0  0  0
  149.0143  138.8817  153.6601 N   0  0  0  0  0  0  0  0  0  0  0  0
  145.5288  138.7658  152.1568 H   0  0  0  0  0  0  0  0  0  0  0  0
  146.7305  137.7419  152.9349 H   0  0  0  0  0  0  0  0  0  0  0  0
  147.1876  138.7819  151.5673 H   0  0  0  0  0  0  0  0  0  0  0  0
  147.7622  141.8071  154.8158 H   0  0  0  0  0  0  0  0  0  0  0  0
  149.5834  143.0647  155.6778 H   0  0  0  0  0  0  0  0  0  0  0  0
  150.3287  144.2583  157.0329 H   0  0  0  0  0  0  0  0  0  0  0  0
  152.7787  144.0867  158.3617 H   0  0  0  0  0  0  0  0  0  0  0  0
  151.8390  145.8379  159.8425 H   0  0  0  0  0  0  0  0  0  0  0  0
  150.2131  145.4870  159.2625 H   0  0  0  0  0  0  0  0  0  0  0  0
  151.4184  146.1571  158.1650 H   0  0  0  0  0  0  0  0  0  0  0  0
  150.6321  143.2826  160.3220 H   0  0  0  0  0  0  0  0  0  0  0  0
  151.4487  142.0396  159.4058 H   0  0  0  0  0  0  0  0  0  0  0  0
  153.2501  144.0494  160.7544 H   0  0  0  0  0  0  0  0  0  0  0  0
  153.2282  140.9404  160.6352 H   0  0  0  0  0  0  0  0  0  0  0  0
  154.5840  142.0146  161.2600 H   0  0  0  0  0  0  0  0  0  0  0  0
  153.0193  142.9810  162.9810 H   0  0  0  0  0  0  0  0  0  0  0  0
  151.6664  141.9053  162.3515 H   0  0  0  0  0  0  0  0  0  0  0  0
  150.9388  138.2371  154.0060 H   0  0  0  0  0  0  0  0  0  0  0  0
  1  2  1  0  0  0  0
  1 19  1  0  0  0  0
  1 20  1  0  0  0  0
  1 21  1  0  0  0  0
  2  3  1  0  0  0  0
  3 18  1  0  0  0  0
  3  4  2  0  0  0  0
  4  5  1  0  0  0  0
  4 22  1  0  0  0  0
  5  6  1  0  0  0  0
  5 16  2  0  0  0  0
  6  7  1  0  0  0  0
  6 23  1  0  0  0  0
  7  8  2  0  0  0  0
  7  9  1  0  0  0  0
  9 10  1  0  0  0  0
  9 24  1  0  0  0  0
 10 11  1  0  0  0  0
 10 12  1  0  0  0  0
 10 25  1  0  0  0  0
 11 26  1  0  0  0  0
 11 27  1  0  0  0  0
 11 28  1  0  0  0  0
 12 13  1  0  0  0  0
 12 29  1  0  0  0  0
 12 30  1  0  0  0  0
 13 15  1  0  0  0  0
 13 14  1  0  0  0  0
 13 31  1  0  0  0  0
 14 15  1  0  0  0  0
 14 32  1  0  0  0  0
 14 33  1  0  0  0  0
 15 34  1  0  0  0  0
 15 35  1  0  0  0  0
 16 17  1  0  0  0  0
 17 18  2  0  0  0  0
 17 36  1  0  0  0  0
M  END
> <s_m_source_file>
AV-unprocessed.smi

> <i_m_source_file_index>
2406

> <i_lp_mmshare_version>
43012

> <i_f3d_flags>
0

> <s_epik_input>
W0NIM11PYzFbY0hdYyhuW2NIXW4xKVtOSF1DKD1PKVtOSF1bQ0BIXShbQ0gzXSlbQ0gyXVtDSF0yW0NIMl1bQ0gyXTI=

> <s_epik_cmdline>
J2VwaWtfcHl0aG9uJywgJy1waCcsICc3LjAnLCAnLXRuJywgJzgnLCAnLW1hJywgJzIwMCcsICctbWV0YWxfYmluZGluZycsICctaW1hZScsICc8aW5maWxlLm1hZT4nLCAnLW9tYWUnLCAnPG91dGZpbGUubWFlPic=

> <r_lp_tautomer_probability>
1

> <r_epik_Ionization_Penalty>
2.82876e-05

> <r_epik_Ionization_Penalty_Charging>
0

> <r_epik_Ionization_Penalty_Neutral>
2.82876e-05

> <r_epik_State_Penalty>
-0

> <r_epik_Charging_Adjusted_Penalty>
0

> <i_epik_Tot_Q>
0

> <i_epik_Tot_abs_Q>
0

> <r_epik_Metal_State_Penalty>
-0

> <b_epik_Metal_Only>
0

> <s_lp_Force_Field>
OPLS_2005

> <r_lp_Energy>
10.7025

> <b_lp_Chiralities_Consistent>
1

> <s_lp_Variant>
AV-unprocessed.smi:2406-2

> <Gold.Version>
5.8.1

> <Gold.Id.Protein>
6NUR|6NUR_protein|mol2

> <Gold.PLP.Fitness>
46.9480

> <Gold.PLP.PLP>
-40.2366

> <Gold.PLP.part.hbond>
-3.0000

> <Gold.PLP.part.metal>
0.0000

> <Gold.PLP.part.buried>
-4.5883

> <Gold.PLP.part.nonpolar>
-34.3218

> <Gold.PLP.part.repulsive>
1.6722

> <Gold.PLP.ligand.clash>
0.0000

> <Gold.PLP.ligand.torsion>
1.0008

> <Gold.PLP.Chemscore.Hbond>
2.7113

> <Gold.PLP.Chemscore.CHOScore>
0.0000

> <Gold.PLP.Chemscore.Metal>
0.0000

> <Gold.Chemscore.Hbonds>
donor molecule, donor type, donor heavy atom, donor atom, acceptor molecule, acceptor atom, score
      L1  H     6    23       P1  8028  1.00
      L1  H     9    24       P1  8028  1.00
      P1  H  7989  7998       L1    16  0.68

> <Gold.PLP.Chemscore.Internal.Correction>
0.5792

> <Gold.Rescore>
     Score         DG    S(hbond)    S(metal)    S(lipo)     H(rot)  DE(clash)    DE(int)     intcor
     12.58     -17.01       1.94        0.00      83.44       1.85       1.44       2.99       ----

> <Gold.Chemscore.Fitness>
12.5810

> <Gold.Chemscore.DG>
-17.0115

> <Gold.Chemscore.ZeroCoef>
-5.4800

> <Gold.Chemscore.Hbond>
1.9445

> <Gold.Chemscore.Metal>
0.0000

> <Gold.Chemscore.Lipo>
83.4370

> <Gold.Chemscore.Internal_Hbond>
0.0000

> <Gold.Chemscore.DEClash>
1.4410

> <Gold.Chemscore.DEInternal>
2.9896

> <Gold.Chemscore.Rot>
1.8458

> <Gold.Chemscore.Internal.Correction>
   9.000000E+99

> <Gold.Chemscore.Hbonds>
donor molecule, donor type, donor heavy atom, donor atom, acceptor molecule, acceptor atom, score
      L1  H     6    23       P1  8028  1.00
      L1  H     9    24       P1  8028  0.82
      P1  H  7989  7998       L1    16  0.02

> <Gold.Chemscore.Hbond.Weighted>
-6.4948

> <Gold.Chemscore.Metal.Weighted>
-0.0000

> <Gold.Chemscore.Lipo.Weighted>
-9.7621

> <Gold.Chemscore.Internal_Hbond.Weighted>
0.0000

> <Gold.Chemscore.DEClash.Weighted>
1.4410

> <Gold.Chemscore.DEInternal.Weighted>
2.9896

> <Gold.Chemscore.Rot.Weighted>
4.7254

> <Gold.Chemscore.Internal.Correction.Weighted>
   9.000000E+99

> <Gold.Protein.RotatedTorsions>
[ 6907 6896 6895 6894 ] final  175.22 input  -60.11 | X-H torsion
[ 7974 7965 7964 7962 ] final -104.77 input  175.53 | X-H torsion
[ 8008 7997 7996 7995 ] final  140.93 input   59.86 | X-H torsion
[ 10167 10162 10161 10158 ] final   25.98 input  -65.29 | X-H torsion
[ 10718 10713 10712 10709 ] final  112.85 input   66.30 | X-H torsion
[ 10763 10752 10751 10750 ] final  162.39 input  -60.55 | X-H torsion
[ 11005 11000 10999 10996 ] final   39.69 input  -57.11 | X-H torsion

> <Gold.Protein.ActiveResidues>
 VAL166  LYS551  ARG553  GLY616  TRP617  ASP618  TYR619  PRO620  LYS621  CYS622 
 ASP623  PHE694  ASN695  SER759  ASP760  ASP761  ALA762  ILE779  LEU786  VAL792 
 PHE793  MET794  SER795  GLU796  ALA797  LYS798  CYS799  TRP800  GLU811  SER814 

> <Gold.Protein.RotatedAtoms>
  151.7397  133.3321  159.3362 H   0  0  0  0  0  0  0  0  0  0  0  0  # atno 6907 bound_to 6896
  150.7578  134.6289  159.6185 H   0  0  0  0  0  0  0  0  0  0  0  0  # atno 6908 bound_to 6896
  152.3539  134.6970  160.0280 H   0  0  0  0  0  0  0  0  0  0  0  0  # atno 6909 bound_to 6896
  145.2389  140.9198  143.3161 H   0  0  0  0  0  0  0  0  0  0  0  0  # atno 7974 bound_to 7965
  156.2973  140.2328  156.4481 H   0  0  0  0  0  0  0  0  0  0  0  0  # atno 8008 bound_to 7997
  154.8126  140.0442  157.1374 H   0  0  0  0  0  0  0  0  0  0  0  0  # atno 8009 bound_to 7997
  154.9406  140.3029  155.5126 H   0  0  0  0  0  0  0  0  0  0  0  0  # atno 8010 bound_to 7997
  140.5061  144.0236  150.6353 H   0  0  0  0  0  0  0  0  0  0  0  0  # atno 10167 bound_to 10162
  157.6370  131.0974  150.6955 H   0  0  0  0  0  0  0  0  0  0  0  0  # atno 10718 bound_to 10713
  154.2777  135.2764  155.2711 H   0  0  0  0  0  0  0  0  0  0  0  0  # atno 10763 bound_to 10752
  154.5246  135.5747  153.6712 H   0  0  0  0  0  0  0  0  0  0  0  0  # atno 10764 bound_to 10752
  152.9934  135.6213  154.2935 H   0  0  0  0  0  0  0  0  0  0  0  0  # atno 10765 bound_to 10752
  140.2003  134.3878  155.8099 H   0  0  0  0  0  0  0  0  0  0  0  0  # atno 11005 bound_to 11000
  144.9607  139.3983  143.6357 LP  0  0  0  0  0  0  0  0  0  0  0  0  # atno 17320 bound_to 7965
  146.3334  139.8659  142.8848 LP  0  0  0  0  0  0  0  0  0  0  0  0  # atno 17321 bound_to 7965
  140.3545  143.2943  152.0451 LP  0  0  0  0  0  0  0  0  0  0  0  0  # atno 17342 bound_to 10162
  139.4884  144.6349  151.6996 LP  0  0  0  0  0  0  0  0  0  0  0  0  # atno 17343 bound_to 10162
  156.7285  130.4702  149.5505 LP  0  0  0  0  0  0  0  0  0  0  0  0  # atno 17370 bound_to 10713
  156.1618  130.6379  151.0728 LP  0  0  0  0  0  0  0  0  0  0  0  0  # atno 17371 bound_to 10713
  141.2227  133.7091  156.8247 LP  0  0  0  0  0  0  0  0  0  0  0  0  # atno 17394 bound_to 11000
  140.2061  134.8862  157.3223 LP  0  0  0  0  0  0  0  0  0  0  0  0  # atno 17395 bound_to 11000

$$$$
