AV-unprocessed.smi:158|AV-procd|sdf|1330|dock1
  -GOLD-   2262019 23D 1   1.00000     0.00000
 Structure written by MMmdl.
 31 33  0  0  0  0  0  0  0  0  1 V2000
  153.8438  141.8819  161.2533 N   0  0  0  0  0  0  0  0  0  0  0  0
  153.1752  142.2358  160.1470 C   0  0  0  0  0  0  0  0  0  0  0  0
  152.7779  143.5229  160.0165 N   0  0  0  0  0  0  0  0  0  0  0  0
  152.1102  143.9177  158.9251 C   0  0  0  0  0  0  0  0  0  0  0  0
  151.6548  145.5796  158.8651 Cl  0  0  0  0  0  0  0  0  0  0  0  0
  151.7550  143.1681  157.8757 N   0  0  0  0  0  0  0  0  0  0  0  0
  152.1512  141.8691  158.0072 C   0  0  0  0  0  0  0  0  0  0  0  0
  152.8663  141.3260  159.1067 C   0  0  0  0  0  0  0  0  0  0  0  0
  153.1075  139.9761  158.8929 N   0  0  0  0  0  0  0  0  0  0  0  0
  152.5653  139.7412  157.7277 C   0  0  0  0  0  0  0  0  0  0  0  0
  151.9495  140.8235  157.1323 N   0  0  0  0  0  0  0  0  0  0  0  0
  151.2430  140.9143  155.8137 C   0  0  1  0  0  0  0  0  0  0  0  0
  151.7002  139.8674  155.0031 O   0  0  0  0  0  0  0  0  0  0  0  0
  150.6973  138.8561  154.8495 C   0  0  1  0  0  0  0  0  0  0  0  0
  151.3151  137.4532  154.9624 C   0  0  0  0  0  0  0  0  0  0  0  0
  151.9499  137.1059  153.7511 O   0  0  0  0  0  0  0  0  0  0  0  0
  149.6804  139.1670  155.9512 C   0  0  2  0  0  0  0  0  0  0  0  0
  148.3738  138.7063  155.6693 O   0  0  0  0  0  0  0  0  0  0  0  0
  149.7439  140.6811  156.0084 C   0  0  2  0  0  0  0  0  0  0  0  0
  149.1061  141.2412  154.9777 F   0  0  0  0  0  0  0  0  0  0  0  0
  151.5087  141.8984  155.4253 H   0  0  0  0  0  0  0  0  0  0  0  0
  150.2226  138.9924  153.8757 H   0  0  0  0  0  0  0  0  0  0  0  0
  150.0112  138.7488  156.9033 H   0  0  0  0  0  0  0  0  0  0  0  0
  149.3588  141.1173  156.9304 H   0  0  0  0  0  0  0  0  0  0  0  0
  154.1507  140.9268  161.3705 H   0  0  0  0  0  0  0  0  0  0  0  0
  154.0399  142.5693  161.9666 H   0  0  0  0  0  0  0  0  0  0  0  0
  152.6080  138.7631  157.2740 H   0  0  0  0  0  0  0  0  0  0  0  0
  152.0170  137.3847  155.7923 H   0  0  0  0  0  0  0  0  0  0  0  0
  150.5332  136.7150  155.1425 H   0  0  0  0  0  0  0  0  0  0  0  0
  151.2869  136.8733  153.1191 H   0  0  0  0  0  0  0  0  0  0  0  0
  148.4170  138.1010  154.9451 H   0  0  0  0  0  0  0  0  0  0  0  0
  1  2  1  0  0  0  0
  1 25  1  0  0  0  0
  1 26  1  0  0  0  0
  2  8  1  0  0  0  0
  2  3  2  0  0  0  0
  3  4  1  0  0  0  0
  4  5  1  0  0  0  0
  4  6  2  0  0  0  0
  6  7  1  0  0  0  0
  7 11  1  0  0  0  0
  7  8  2  0  0  0  0
  8  9  1  0  0  0  0
  9 10  2  0  0  0  0
 10 11  1  0  0  0  0
 10 27  1  0  0  0  0
 11 12  1  0  0  0  0
 12 21  1  0  0  0  0
 12 19  1  0  0  0  0
 12 13  1  0  0  0  0
 13 14  1  0  0  0  0
 14 22  1  0  0  0  0
 14 15  1  0  0  0  0
 14 17  1  0  0  0  0
 15 16  1  0  0  0  0
 15 28  1  0  0  0  0
 15 29  1  0  0  0  0
 16 30  1  0  0  0  0
 17 23  1  0  0  0  0
 17 18  1  0  0  0  0
 17 19  1  0  0  0  0
 18 31  1  0  0  0  0
 19 24  1  0  0  0  0
 19 20  1  0  0  0  0
M  END
> <s_m_source_file>
AV-unprocessed.smi

> <i_m_source_file_index>
158

> <i_lp_mmshare_version>
43012

> <i_f3d_flags>
0

> <s_epik_input>
Q2xjKG4xKW5jKFtOSDJdKWMoYzEyKW5bY0hdbjJbQ0BASF0zT1tDQEhdKFtDSDJdW09IXSlbQ0BASF0oW09IXSlbQ0BASF0zRg==

> <s_epik_cmdline>
J2VwaWtfcHl0aG9uJywgJy1waCcsICc3LjAnLCAnLXRuJywgJzgnLCAnLW1hJywgJzIwMCcsICctbWV0YWxfYmluZGluZycsICctaW1hZScsICc8aW5maWxlLm1hZT4nLCAnLW9tYWUnLCAnPG91dGZpbGUubWFlPic=

> <r_lp_tautomer_probability>
1

> <r_epik_Ionization_Penalty>
6.51543e-05

> <r_epik_Ionization_Penalty_Charging>
0

> <r_epik_Ionization_Penalty_Neutral>
6.51543e-05

> <r_epik_State_Penalty>
-0

> <r_epik_Charging_Adjusted_Penalty>
0

> <i_epik_Tot_Q>
0

> <i_epik_Tot_abs_Q>
0

> <r_epik_Metal_State_Penalty>
-0

> <b_epik_Metal_Only>
0

> <s_epik_Chemistry_Notes>
This compound contains an acetal/aminal-like group ( X-CH(R)-Y where X, Y are N, S, or O) that may be acid/base labile, releasing an aldehyde.

> <s_lp_Force_Field>
OPLS_2005

> <r_lp_Energy>
30.2805

> <b_lp_Chiralities_Consistent>
1

> <s_lp_Variant>
AV-unprocessed.smi:158-8

> <Gold.Version>
5.8.1

> <Gold.Id.Protein>
6NUR|6NUR_protein|mol2

> <Gold.PLP.Fitness>
43.9250

> <Gold.PLP.PLP>
-37.1522

> <Gold.PLP.part.hbond>
-3.0000

> <Gold.PLP.part.metal>
0.0000

> <Gold.PLP.part.buried>
-5.8928

> <Gold.PLP.part.nonpolar>
-27.8051

> <Gold.PLP.part.repulsive>
0.1800

> <Gold.PLP.ligand.clash>
0.0000

> <Gold.PLP.ligand.torsion>
0.8358

> <Gold.PLP.Chemscore.Hbond>
2.8056

> <Gold.PLP.Chemscore.CHOScore>
0.0000

> <Gold.PLP.Chemscore.Metal>
0.0000

> <Gold.Chemscore.Hbonds>
donor molecule, donor type, donor heavy atom, donor atom, acceptor molecule, acceptor atom, score
      L1  H    16    30       P1  7949  0.77
      P1  H  7989  7998       L1    13  0.65
      P1  H 10752 10763       L1    16  1.00

> <Gold.PLP.Chemscore.Internal.Correction>
0.0276

> <Gold.Rescore>
     Score         DG    S(hbond)    S(metal)    S(lipo)     H(rot)  DE(clash)    DE(int)     intcor
      5.96      -7.02       1.36        0.00      42.76       3.12       0.08       0.97       ----

> <Gold.Chemscore.Fitness>
5.9628

> <Gold.Chemscore.DG>
-7.0171

> <Gold.Chemscore.ZeroCoef>
-5.4800

> <Gold.Chemscore.Hbond>
1.3561

> <Gold.Chemscore.Metal>
0.0000

> <Gold.Chemscore.Lipo>
42.7592

> <Gold.Chemscore.Internal_Hbond>
0.0000

> <Gold.Chemscore.DEClash>
0.0798

> <Gold.Chemscore.DEInternal>
0.9745

> <Gold.Chemscore.Rot>
3.1230

> <Gold.Chemscore.Internal.Correction>
   9.000000E+99

> <Gold.Chemscore.Hbonds>
donor molecule, donor type, donor heavy atom, donor atom, acceptor molecule, acceptor atom, score
      L1  H    16    30       P1  7949  0.53
      P1  H  7989  7998       L1    13  0.03
      P1  H 10752 10763       L1    16  0.54

> <Gold.Chemscore.Hbond.Weighted>
-4.5292

> <Gold.Chemscore.Metal.Weighted>
-0.0000

> <Gold.Chemscore.Lipo.Weighted>
-5.0028

> <Gold.Chemscore.Internal_Hbond.Weighted>
0.0000

> <Gold.Chemscore.DEClash.Weighted>
0.0798

> <Gold.Chemscore.DEInternal.Weighted>
0.9745

> <Gold.Chemscore.Rot.Weighted>
7.9950

> <Gold.Chemscore.Internal.Correction.Weighted>
   9.000000E+99

> <Gold.Protein.RotatedTorsions>
[ 6907 6896 6895 6894 ] final -123.82 input  -60.11 | X-H torsion
[ 7974 7965 7964 7962 ] final -122.05 input  175.53 | X-H torsion
[ 8008 7997 7996 7995 ] final   17.46 input   59.86 | X-H torsion
[ 10167 10162 10161 10158 ] final   58.35 input  -65.29 | X-H torsion
[ 10718 10713 10712 10709 ] final   94.53 input   66.30 | X-H torsion
[ 10763 10752 10751 10750 ] final   22.23 input  -60.55 | X-H torsion
[ 11005 11000 10999 10996 ] final  -99.56 input  -57.11 | X-H torsion

> <Gold.Protein.ActiveResidues>
 VAL166  LYS551  ARG553  GLY616  TRP617  ASP618  TYR619  PRO620  LYS621  CYS622 
 ASP623  PHE694  ASN695  SER759  ASP760  ASP761  ALA762  ILE779  LEU786  VAL792 
 PHE793  MET794  SER795  GLU796  ALA797  LYS798  CYS799  TRP800  GLU811  SER814 

> <Gold.Protein.RotatedAtoms>
  150.8707  133.7509  159.2961 H   0  0  0  0  0  0  0  0  0  0  0  0  # atno 6907 bound_to 6896
  151.5122  135.1064  159.9866 H   0  0  0  0  0  0  0  0  0  0  0  0  # atno 6908 bound_to 6896
  152.4693  133.7949  159.6977 H   0  0  0  0  0  0  0  0  0  0  0  0  # atno 6909 bound_to 6896
  145.0336  140.8088  143.4308 H   0  0  0  0  0  0  0  0  0  0  0  0  # atno 7974 bound_to 7965
  154.8917  140.2988  155.5367 H   0  0  0  0  0  0  0  0  0  0  0  0  # atno 8008 bound_to 7997
  156.3021  140.2423  156.3868 H   0  0  0  0  0  0  0  0  0  0  0  0  # atno 8009 bound_to 7997
  154.8611  140.0405  157.1655 H   0  0  0  0  0  0  0  0  0  0  0  0  # atno 8010 bound_to 7997
  140.1882  144.4113  150.6583 H   0  0  0  0  0  0  0  0  0  0  0  0  # atno 10167 bound_to 10162
  157.6947  131.0515  150.4201 H   0  0  0  0  0  0  0  0  0  0  0  0  # atno 10718 bound_to 10713
  153.0932  135.6652  153.9814 H   0  0  0  0  0  0  0  0  0  0  0  0  # atno 10763 bound_to 10752
  153.9405  135.2994  155.3444 H   0  0  0  0  0  0  0  0  0  0  0  0  # atno 10764 bound_to 10752
  154.7348  135.5106  153.9097 H   0  0  0  0  0  0  0  0  0  0  0  0  # atno 10765 bound_to 10752
  141.1304  133.8331  157.0988 H   0  0  0  0  0  0  0  0  0  0  0  0  # atno 11005 bound_to 11000
  145.1738  139.2389  143.5328 LP  0  0  0  0  0  0  0  0  0  0  0  0  # atno 17320 bound_to 7965
  146.3501  140.1495  142.8592 LP  0  0  0  0  0  0  0  0  0  0  0  0  # atno 17321 bound_to 7965
  140.6474  143.2216  151.6155 LP  0  0  0  0  0  0  0  0  0  0  0  0  # atno 17342 bound_to 10162
  139.5267  144.3038  152.1051 LP  0  0  0  0  0  0  0  0  0  0  0  0  # atno 17343 bound_to 10162
  156.4577  130.4025  149.6596 LP  0  0  0  0  0  0  0  0  0  0  0  0  # atno 17370 bound_to 10713
  156.3723  130.7536  151.2521 LP  0  0  0  0  0  0  0  0  0  0  0  0  # atno 17371 bound_to 10713
  140.0346  134.9884  157.0847 LP  0  0  0  0  0  0  0  0  0  0  0  0  # atno 17394 bound_to 11000
  140.4230  134.1860  155.7165 LP  0  0  0  0  0  0  0  0  0  0  0  0  # atno 17395 bound_to 11000

$$$$
