#       Name:                AV-unprocessed.smi:3349
#       Creating user name   scv26
#       Creation time:       Fri Mar 27 19:36:22 2020


#       File generated by GOLD software.
#

@<TRIPOS>MOLECULE
AV-unprocessed.smi:3349
    47    48     1
SMALL
NO_CHARGES


@<TRIPOS>ATOM
      1 ****        -0.5070   0.7714  -1.4298 C.3            1 S1                 0.0000
      2 ****        -0.9764   0.7135   0.0475 C.3            1 S1                 0.0000
      3 ****        -0.3720  -0.5521   0.7163 C.3            1 S1                 0.0000
      4 ****         1.0826  -0.5833   0.6206 N.am           1 S1                 0.0000
      5 ****         1.8406  -1.6813   0.7616 C.2            1 S1                 0.0000
      6 ****         1.3741  -2.7846   1.0474 O.2            1 S1                 0.0000
      7 ****         3.3522  -1.4928   0.5447 C.3            1 S1                 0.0000
      8 ****         4.1796  -2.7338   0.9378 C.3            1 S1                 0.0000
      9 ****         3.6217  -1.0717  -0.8257 N.pl3          1 S1                 0.0000
     10 ****         3.8755   0.1437  -1.3159 C.2            1 S1                 0.0000
     11 ****         4.0253   0.1733  -2.6327 N.2            1 S1                 0.0000
     12 ****         3.8306  -1.1491  -2.9139 C.2            1 S1                 0.0000
     13 ****         3.5765  -1.9371  -1.8694 N.2            1 S1                 0.0000
     14 ****        -2.4491   0.8015   0.1834 N.3            1 S1                 0.0000
     15 ****        -2.8946   0.7724   1.5816 C.3            1 S1                 0.0000
     16 ****        -4.4215   0.8962   1.7261 C.3            1 S1                 0.0000
     17 ****        -4.8685   2.0879   1.0949 O.3            1 S1                 0.0000
     18 ****        -4.5273   2.1200  -0.2838 C.3            1 S1                 0.0000
     19 ****        -3.0010   2.0091  -0.4419 C.3            1 S1                 0.0000
     20 ****         0.5716   0.6564  -1.5331 H              1 S1                 0.0000
     21 ****        -0.7339   1.7276  -1.8993 H              1 S1                 0.0000
     22 ****        -0.9760  -0.0147  -2.0224 H              1 S1                 0.0000
     23 ****        -0.5415   1.5774   0.5531 H              1 S1                 0.0000
     24 ****        -0.5965  -0.5941   1.7808 H              1 S1                 0.0000
     25 ****        -0.7995  -1.4476   0.2612 H              1 S1                 0.0000
     26 ****         1.5423   0.2860   0.3926 H              1 S1                 0.0000
     27 ****         3.6643  -0.6759   1.1973 H              1 S1                 0.0000
     28 ****         4.0295  -2.9911   1.9869 H              1 S1                 0.0000
     29 ****         5.2451  -2.5499   0.7978 H              1 S1                 0.0000
     30 ****         3.9146  -3.6081   0.3414 H              1 S1                 0.0000
     31 ****         3.9450   1.0267  -0.6976 H              1 S1                 0.0000
     32 ****         3.8718  -1.5420  -3.9192 H              1 S1                 0.0000
     33 ****        -2.6091  -0.1633   2.0579 H              1 S1                 0.0000
     34 ****        -2.4119   1.5754   2.1408 H              1 S1                 0.0000
     35 ****        -4.9225   0.0321   1.2865 H              1 S1                 0.0000
     36 ****        -4.7007   0.9259   2.7795 H              1 S1                 0.0000
     37 ****        -5.0310   1.3085  -0.8114 H              1 S1                 0.0000
     38 ****        -4.8855   3.0541  -0.7168 H              1 S1                 0.0000
     39 ****        -2.5283   2.8953  -0.0157 H              1 S1                 0.0000
     40 ****        -2.7905   2.0198  -1.5098 H              1 S1                 0.0000
     41 ****         0.3894  -2.8907   1.1852 LP             1 S1                 0.0000
     42 ****         1.9801  -3.5745   1.1417 LP             1 S1                 0.0000
     43 ****         4.2233   0.9405  -3.2427 LP             1 S1                 0.0000
     44 ****         3.3973  -2.9209  -1.8579 LP             1 S1                 0.0000
     45 ****        -2.7920  -0.0095  -0.2908 LP             1 S1                 0.0000
     46 ****        -4.4469   2.8721   1.5502 LP             1 S1                 0.0000
     47 ****        -5.8629   2.1464   1.1829 LP             1 S1                 0.0000
@<TRIPOS>BOND
    1    1    2 1     
    2    1   20 1     
    3    1   21 1     
    4    1   22 1     
    5    2    3 1     
    6    2   14 1     
    7    2   23 1     
    8    3    4 1     
    9    3   24 1     
   10    3   25 1     
   11    4    5 am    
   12    4   26 1     
   13    5    6 2     
   14    5    7 1     
   15    7    8 1     
   16    7    9 1     
   17    7   27 1     
   18    8   28 1     
   19    8   29 1     
   20    8   30 1     
   21    9   13 1     
   22    9   10 1     
   23   10   11 2     
   24   10   31 1     
   25   11   12 1     
   26   12   13 2     
   27   12   32 1     
   28   14   19 1     
   29   14   15 1     
   30   15   16 1     
   31   15   33 1     
   32   15   34 1     
   33   16   17 1     
   34   16   35 1     
   35   16   36 1     
   36   17   18 1     
   37   18   19 1     
   38   18   37 1     
   39   18   38 1     
   40   19   39 1     
   41   19   40 1     
   42    6   41 1     
   43    6   42 1     
   44   11   43 1     
   45   13   44 1     
   46   14   45 1     
   47   17   46 1     
   48   17   47 1     
@<TRIPOS>SUBSTRUCTURE
      1 S1             1
@<TRIPOS>SET
LONE_PAIRS      STATIC     ATOMS    <user>   **** ""
7 41 42 43 44 45 46 47
DONOR_HYDROGENS      STATIC     ATOMS    <user>   **** ""
1 26
ATOM$BLUE        STATIC     ATOMS    COLORGROUP SYSTEM
7 41 42 43 44 45 46 47
ATOM$RED        STATIC     ATOMS    COLORGROUP SYSTEM
1 26
