AV-unprocessed.smi:1718|AV-procd|sdf|6925|dock6
  -GOLD-   22720 8133D 1   1.00000     0.00000
 Structure written by MMmdl.
 40 41  0  0  0  0  0  0  0  0  1 V2000
  151.4704  138.1730  156.2917 C   0  0  0  0  0  0  0  0  0  0  0  0
  151.4239  138.4719  157.7970 C   0  0  1  0  0  0  0  0  0  0  0  0
  151.2224  139.8745  157.9494 O   0  0  0  0  0  0  0  0  0  0  0  0
  152.0714  140.5155  158.8950 C   0  0  0  0  0  0  0  0  0  0  0  0
  151.4846  141.8907  159.2337 C   0  0  1  0  0  0  0  0  0  0  0  0
  152.2964  142.6773  160.2639 C   0  0  0  0  0  0  0  0  0  0  0  0
  151.9596  144.1041  159.8967 C   0  0  0  0  0  0  0  0  0  0  0  0
  151.9178  144.0239  158.3746 C   0  0  0  0  0  0  0  0  0  0  0  0
  151.4468  142.7139  158.0697 O   0  0  0  0  0  0  0  0  0  0  0  0
  150.2887  137.6948  158.4827 C   0  0  0  0  0  0  0  0  0  0  0  0
  150.5646  136.8063  159.2891 O   0  0  0  0  0  0  0  0  0  0  0  0
  149.0405  138.0609  158.1309 N   0  0  0  0  0  0  0  0  0  0  0  0
  147.8116  137.4997  158.5145 C   0  0  0  0  0  0  0  0  0  0  0  0
  147.6332  136.7000  159.5980 C   0  0  0  0  0  0  0  0  0  0  0  0
  146.3393  136.1317  159.9322 C   0  0  0  0  0  0  0  0  0  0  0  0
  146.1669  135.2598  161.1654 C   0  0  0  0  0  0  0  0  0  0  0  0
  144.8817  135.0153  161.4252 F   0  0  0  0  0  0  0  0  0  0  0  0
  146.7884  134.0941  160.9908 F   0  0  0  0  0  0  0  0  0  0  0  0
  146.7041  135.8564  162.2290 F   0  0  0  0  0  0  0  0  0  0  0  0
  145.3192  136.4306  159.1061 C   0  0  0  0  0  0  0  0  0  0  0  0
  145.4974  137.2409  157.9821 N   0  0  0  0  0  0  0  0  0  0  0  0
  146.6775  137.7956  157.6237 C   0  0  0  0  0  0  0  0  0  0  0  0
  146.7544  138.4949  156.6140 O   0  0  0  0  0  0  0  0  0  0  0  0
  144.6848  137.4138  157.4078 H   0  0  0  0  0  0  0  0  0  0  0  0
  151.6101  137.1079  156.1032 H   0  0  0  0  0  0  0  0  0  0  0  0
  152.2985  138.7015  155.8192 H   0  0  0  0  0  0  0  0  0  0  0  0
  150.5527  138.4854  155.7914 H   0  0  0  0  0  0  0  0  0  0  0  0
  152.3858  138.1959  158.2339 H   0  0  0  0  0  0  0  0  0  0  0  0
  152.1788  139.9269  159.8069 H   0  0  0  0  0  0  0  0  0  0  0  0
  153.0674  140.6357  158.4666 H   0  0  0  0  0  0  0  0  0  0  0  0
  150.4581  141.7819  159.5871 H   0  0  0  0  0  0  0  0  0  0  0  0
  152.0351  142.4260  161.2922 H   0  0  0  0  0  0  0  0  0  0  0  0
  153.3650  142.5018  160.1306 H   0  0  0  0  0  0  0  0  0  0  0  0
  150.9770  144.3709  160.2882 H   0  0  0  0  0  0  0  0  0  0  0  0
  152.6862  144.8275  160.2676 H   0  0  0  0  0  0  0  0  0  0  0  0
  151.2820  144.7913  157.9328 H   0  0  0  0  0  0  0  0  0  0  0  0
  152.9211  144.1360  157.9616 H   0  0  0  0  0  0  0  0  0  0  0  0
  148.9650  138.8671  157.5269 H   0  0  0  0  0  0  0  0  0  0  0  0
  148.4590  136.4392  160.2400 H   0  0  0  0  0  0  0  0  0  0  0  0
  144.3051  136.0822  159.2351 H   0  0  0  0  0  0  0  0  0  0  0  0
  1  2  1  0  0  0  0
  1 25  1  0  0  0  0
  1 26  1  0  0  0  0
  1 27  1  0  0  0  0
  2  3  1  0  0  0  0
  2 10  1  0  0  0  0
  2 28  1  0  0  0  0
  3  4  1  0  0  0  0
  4  5  1  0  0  0  0
  4 29  1  0  0  0  0
  4 30  1  0  0  0  0
  5  9  1  0  0  0  0
  5  6  1  0  0  0  0
  5 31  1  0  0  0  0
  6  7  1  0  0  0  0
  6 32  1  0  0  0  0
  6 33  1  0  0  0  0
  7  8  1  0  0  0  0
  7 34  1  0  0  0  0
  7 35  1  0  0  0  0
  8  9  1  0  0  0  0
  8 36  1  0  0  0  0
  8 37  1  0  0  0  0
 10 11  2  0  0  0  0
 10 12  1  0  0  0  0
 12 13  1  0  0  0  0
 12 38  1  0  0  0  0
 13 22  1  0  0  0  0
 13 14  2  0  0  0  0
 14 15  1  0  0  0  0
 14 39  1  0  0  0  0
 15 16  1  0  0  0  0
 15 20  2  0  0  0  0
 16 17  1  0  0  0  0
 16 18  1  0  0  0  0
 16 19  1  0  0  0  0
 20 21  1  0  0  0  0
 20 40  1  0  0  0  0
 21 24  1  0  0  0  0
 21 22  1  0  0  0  0
 22 23  2  0  0  0  0
M  END
> <s_m_source_file>
AV-unprocessed.smi

> <i_m_source_file_index>
1718

> <i_lp_mmshare_version>
43012

> <i_f3d_flags>
0

> <s_epik_input>
TzFbQ0gyXVtDSDJdW0NIMl1bQ0BIXTFbQ0gyXU9bQ0BASF0oW0NIM10pQyg9TylbTkhdYzJbY0hdYyhDKEYpKEYpRilbY0hdW25IXWMyPU8=

> <s_epik_cmdline>
J2VwaWtfcHl0aG9uJywgJy1waCcsICc3LjAnLCAnLXRuJywgJzgnLCAnLW1hJywgJzIwMCcsICctbWV0YWxfYmluZGluZycsICctaW1hZScsICc8aW5maWxlLm1hZT4nLCAnLW9tYWUnLCAnPG91dGZpbGUubWFlPic=

> <r_lp_tautomer_probability>
0.999

> <r_epik_Ionization_Penalty>
0.00894336

> <r_epik_Ionization_Penalty_Charging>
0.00894326

> <r_epik_Ionization_Penalty_Neutral>
1.00145e-07

> <r_epik_State_Penalty>
0.00676626

> <r_epik_Charging_Adjusted_Penalty>
0.0157095

> <i_epik_Tot_Q>
0

> <i_epik_Tot_abs_Q>
0

> <r_epik_Metal_State_Penalty>
0.321145

> <b_epik_Metal_Only>
0

> <s_lp_Force_Field>
OPLS_2005

> <r_lp_Energy>
34.4612

> <b_lp_Chiralities_Consistent>
1

> <s_lp_Variant>
AV-unprocessed.smi:1718-4

> <Gold.Version>
5.8.1

> <Gold.Id.Protein>
6NUR|6NUR_protein|mol2

> <Gold.PLP.Fitness>
41.6350

> <Gold.PLP.PLP>
-40.9091

> <Gold.PLP.part.hbond>
-1.0000

> <Gold.PLP.part.metal>
0.0000

> <Gold.PLP.part.buried>
-6.3077

> <Gold.PLP.part.nonpolar>
-34.3458

> <Gold.PLP.part.repulsive>
0.2723

> <Gold.PLP.ligand.clash>
0.0000

> <Gold.PLP.ligand.torsion>
1.1902

> <Gold.PLP.Chemscore.Hbond>
1.0000

> <Gold.PLP.Chemscore.CHOScore>
0.0000

> <Gold.PLP.Chemscore.Metal>
0.0000

> <Gold.Chemscore.Hbonds>
donor molecule, donor type, donor heavy atom, donor atom, acceptor molecule, acceptor atom, score
      P1  H  6896  6908       L1    11  1.00

> <Gold.PLP.Chemscore.Internal.Correction>
0.1063

> <Gold.Rescore>
     Score         DG    S(hbond)    S(metal)    S(lipo)     H(rot)  DE(clash)    DE(int)     intcor
     11.98     -14.29       0.98        0.00      88.44       1.88       0.09       2.22       ----

> <Gold.Chemscore.Fitness>
11.9798

> <Gold.Chemscore.DG>
-14.2897

> <Gold.Chemscore.ZeroCoef>
-5.4800

> <Gold.Chemscore.Hbond>
0.9796

> <Gold.Chemscore.Metal>
0.0000

> <Gold.Chemscore.Lipo>
88.4445

> <Gold.Chemscore.Internal_Hbond>
0.0000

> <Gold.Chemscore.DEClash>
0.0945

> <Gold.Chemscore.DEInternal>
2.2154

> <Gold.Chemscore.Rot>
1.8790

> <Gold.Chemscore.Internal.Correction>
   9.000000E+99

> <Gold.Chemscore.Hbonds>
donor molecule, donor type, donor heavy atom, donor atom, acceptor molecule, acceptor atom, score
      P1  H  6896  6908       L1    11  1.00

> <Gold.Chemscore.Hbond.Weighted>
-3.2719

> <Gold.Chemscore.Metal.Weighted>
-0.0000

> <Gold.Chemscore.Lipo.Weighted>
-10.3480

> <Gold.Chemscore.Internal_Hbond.Weighted>
0.0000

> <Gold.Chemscore.DEClash.Weighted>
0.0945

> <Gold.Chemscore.DEInternal.Weighted>
2.2154

> <Gold.Chemscore.Rot.Weighted>
4.8102

> <Gold.Chemscore.Internal.Correction.Weighted>
   9.000000E+99

> <Gold.Protein.RotatedTorsions>
[ 6907 6896 6895 6894 ] final -151.90 input  -60.11 | X-H torsion
[ 7974 7965 7964 7962 ] final   38.31 input  175.53 | X-H torsion
[ 8008 7997 7996 7995 ] final  159.95 input   59.86 | X-H torsion
[ 10167 10162 10161 10158 ] final  -15.65 input  -65.29 | X-H torsion
[ 10718 10713 10712 10709 ] final   -0.14 input   66.30 | X-H torsion
[ 10763 10752 10751 10750 ] final  -52.54 input  -60.55 | X-H torsion
[ 11005 11000 10999 10996 ] final  174.15 input  -57.11 | X-H torsion

> <Gold.Protein.ActiveResidues>
 VAL166  LYS551  ARG553  GLY616  TRP617  ASP618  TYR619  PRO620  LYS621  CYS622 
 ASP623  PHE694  ASN695  SER759  ASP760  ASP761  ALA762  ILE779  LEU786  VAL792 
 PHE793  MET794  SER795  GLU796  ALA797  LYS798  CYS799  TRP800  GLU811  SER814 

> <Gold.Protein.RotatedAtoms>
  151.2199  133.4508  159.2600 H   0  0  0  0  0  0  0  0  0  0  0  0  # atno 6907 bound_to 6896
  151.0895  134.9907  159.8406 H   0  0  0  0  0  0  0  0  0  0  0  0  # atno 6908 bound_to 6896
  152.5433  134.2134  159.8812 H   0  0  0  0  0  0  0  0  0  0  0  0  # atno 6909 bound_to 6896
  146.1071  139.5787  142.9376 H   0  0  0  0  0  0  0  0  0  0  0  0  # atno 7974 bound_to 7965
  156.2205  140.1817  156.7489 H   0  0  0  0  0  0  0  0  0  0  0  0  # atno 8008 bound_to 7997
  154.5857  140.0659  156.9197 H   0  0  0  0  0  0  0  0  0  0  0  0  # atno 8009 bound_to 7997
  155.2423  140.3323  155.4293 H   0  0  0  0  0  0  0  0  0  0  0  0  # atno 8010 bound_to 7997
  140.7222  143.5196  150.9649 H   0  0  0  0  0  0  0  0  0  0  0  0  # atno 10167 bound_to 10162
  156.8249  130.5469  149.5693 H   0  0  0  0  0  0  0  0  0  0  0  0  # atno 10718 bound_to 10713
  154.1444  135.6500  153.4949 H   0  0  0  0  0  0  0  0  0  0  0  0  # atno 10763 bound_to 10752
  153.0156  135.5323  154.6872 H   0  0  0  0  0  0  0  0  0  0  0  0  # atno 10764 bound_to 10752
  154.6142  135.2957  155.0369 H   0  0  0  0  0  0  0  0  0  0  0  0  # atno 10765 bound_to 10752
  140.3482  134.7218  157.4250 H   0  0  0  0  0  0  0  0  0  0  0  0  # atno 11005 bound_to 11000
  145.5738  141.0391  143.2159 LP  0  0  0  0  0  0  0  0  0  0  0  0  # atno 17320 bound_to 7965
  144.7480  139.7268  143.7284 LP  0  0  0  0  0  0  0  0  0  0  0  0  # atno 17321 bound_to 7965
  139.8913  143.6950  152.3145 LP  0  0  0  0  0  0  0  0  0  0  0  0  # atno 17342 bound_to 10162
  139.7266  144.7591  151.0868 LP  0  0  0  0  0  0  0  0  0  0  0  0  # atno 17343 bound_to 10162
  156.0967  130.5938  150.9826 LP  0  0  0  0  0  0  0  0  0  0  0  0  # atno 17370 bound_to 10713
  157.6437  131.0907  150.8197 LP  0  0  0  0  0  0  0  0  0  0  0  0  # atno 17371 bound_to 10713
  140.0725  134.5843  155.8627 LP  0  0  0  0  0  0  0  0  0  0  0  0  # atno 17394 bound_to 11000
  141.2019  133.6622  156.5979 LP  0  0  0  0  0  0  0  0  0  0  0  0  # atno 17395 bound_to 11000

$$$$
