#       Name:                AV-unprocessed.smi:2390
#       Creating user name   scv26
#       Creation time:       Fri Mar 27 13:10:22 2020


#       File generated by GOLD software.
#

@<TRIPOS>MOLECULE
AV-unprocessed.smi:2390
    51    52     1
SMALL
NO_CHARGES


@<TRIPOS>ATOM
      1 ****        -3.4260   4.4417  -0.5967 C.3            1 S1                 0.0000
      2 ****        -3.6851   2.9835  -0.9122 C.ar           1 S1                 0.0000
      3 ****        -4.9978   2.4969  -1.0674 C.ar           1 S1                 0.0000
      4 ****        -5.1677   1.1319  -1.3610 C.ar           1 S1                 0.0000
      5 ****        -4.0267   0.3155  -1.4846 C.ar           1 S1                 0.0000
      6 ****        -2.7442   0.8822  -1.3087 C.ar           1 S1                 0.0000
      7 ****        -1.6590  -0.0242  -1.4456 N.am           1 S1                 0.0000
      8 ****        -0.3464   0.2235  -1.2884 C.2            1 S1                 0.0000
      9 ****         0.1413   1.3212  -1.0174 O.2            1 S1                 0.0000
     10 ****         0.3802  -0.8910  -1.4590 N.am           1 S1                 0.0000
     11 ****         1.8306  -1.0043  -1.2986 C.3            1 S1                 0.0000
     12 ****         2.4334  -1.6481  -2.5602 C.3            1 S1                 0.0000
     13 ****         2.1920  -1.7522   0.0258 C.3            1 S1                 0.0000
     14 ****         1.5561  -3.1674   0.0151 C.3            1 S1                 0.0000
     15 ****         1.8692  -0.9880   1.2574 N.3            1 S1                 0.0000
     16 ****         2.5584   0.3065   1.3320 C.3            1 S1                 0.0000
     17 ****         2.2199   1.0871   2.6136 C.3            1 S1                 0.0000
     18 ****         2.5427   0.3017   3.7528 O.3            1 S1                 0.0000
     19 ****         1.8463  -0.9366   3.7611 C.3            1 S1                 0.0000
     20 ****         2.1809  -1.7289   2.4854 C.3            1 S1                 0.0000
     21 ****        -2.5914   2.2004  -1.0279 N.ar           1 S1                 0.0000
     22 ****        -4.3337   5.0360  -0.7041 H              1 S1                 0.0000
     23 ****        -2.6719   4.8499  -1.2705 H              1 S1                 0.0000
     24 ****        -3.0662   4.5479   0.4270 H              1 S1                 0.0000
     25 ****        -5.8525   3.1494  -0.9655 H              1 S1                 0.0000
     26 ****        -6.1565   0.7170  -1.4888 H              1 S1                 0.0000
     27 ****        -4.1407  -0.7352  -1.7088 H              1 S1                 0.0000
     28 ****        -1.9134  -0.9753  -1.6672 H              1 S1                 0.0000
     29 ****        -0.1122  -1.7435  -1.6816 H              1 S1                 0.0000
     30 ****         2.2776  -0.0127  -1.2930 H              1 S1                 0.0000
     31 ****         3.5051  -1.8113  -2.4440 H              1 S1                 0.0000
     32 ****         2.2962  -0.9975  -3.4247 H              1 S1                 0.0000
     33 ****         1.9719  -2.6034  -2.8073 H              1 S1                 0.0000
     34 ****         3.2731  -1.8995   0.0113 H              1 S1                 0.0000
     35 ****         1.7197  -3.6912  -0.9243 H              1 S1                 0.0000
     36 ****         0.4797  -3.1247   0.1845 H              1 S1                 0.0000
     37 ****         1.9882  -3.8136   0.7782 H              1 S1                 0.0000
     38 ****         3.6372   0.1556   1.2734 H              1 S1                 0.0000
     39 ****         2.2846   0.9484   0.4991 H              1 S1                 0.0000
     40 ****         2.7865   2.0175   2.6513 H              1 S1                 0.0000
     41 ****         1.1624   1.3560   2.6330 H              1 S1                 0.0000
     42 ****         2.1377  -1.5022   4.6462 H              1 S1                 0.0000
     43 ****         0.7720  -0.7597   3.8341 H              1 S1                 0.0000
     44 ****         1.6122  -2.6561   2.5308 H              1 S1                 0.0000
     45 ****         3.2369  -2.0028   2.4946 H              1 S1                 0.0000
     46 ****        -0.4530   2.1163  -0.8968 LP             1 S1                 0.0000
     47 ****         1.1317   1.4175  -0.9179 LP             1 S1                 0.0000
     48 ****         0.8828  -0.8367   1.1937 LP             1 S1                 0.0000
     49 ****         2.3005   0.8137   4.5770 LP             1 S1                 0.0000
     50 ****         3.5259   0.1190   3.7508 LP             1 S1                 0.0000
     51 ****        -1.6776   2.5884  -0.9077 LP             1 S1                 0.0000
@<TRIPOS>BOND
    1    1    2 1     
    2    1   22 1     
    3    1   23 1     
    4    1   24 1     
    5    2   21 ar    
    6    2    3 ar    
    7    3    4 ar    
    8    3   25 1     
    9    4    5 ar    
   10    4   26 1     
   11    5    6 ar    
   12    5   27 1     
   13    6    7 1     
   14    6   21 ar    
   15    7    8 am    
   16    7   28 1     
   17    8    9 2     
   18    8   10 am    
   19   10   11 1     
   20   10   29 1     
   21   11   12 1     
   22   11   13 1     
   23   11   30 1     
   24   12   31 1     
   25   12   32 1     
   26   12   33 1     
   27   13   14 1     
   28   13   15 1     
   29   13   34 1     
   30   14   35 1     
   31   14   36 1     
   32   14   37 1     
   33   15   20 1     
   34   15   16 1     
   35   16   17 1     
   36   16   38 1     
   37   16   39 1     
   38   17   18 1     
   39   17   40 1     
   40   17   41 1     
   41   18   19 1     
   42   19   20 1     
   43   19   42 1     
   44   19   43 1     
   45   20   44 1     
   46   20   45 1     
   47    9   46 1     
   48    9   47 1     
   49   15   48 1     
   50   18   49 1     
   51   18   50 1     
   52   21   51 1     
@<TRIPOS>SUBSTRUCTURE
      1 S1             1
@<TRIPOS>SET
LONE_PAIRS      STATIC     ATOMS    <user>   **** ""
6 46 47 48 49 50 51
DONOR_HYDROGENS      STATIC     ATOMS    <user>   **** ""
2 28 29
ATOM$BLUE        STATIC     ATOMS    COLORGROUP SYSTEM
6 46 47 48 49 50 51
ATOM$RED        STATIC     ATOMS    COLORGROUP SYSTEM
2 28 29
