AV-unprocessed.smi:1647|AV-procd|sdf|6626|dock1
  -GOLD-   22720 7323D 1   1.00000     0.00000
 Structure written by MMmdl.
 40 41  0  0  0  0  0  0  0  0  2 V2000
  145.5997  136.1108  151.1506 C   0  0  0  0  0  0  0  0  0  0  0  0
  145.7916  137.1287  152.0025 C   0  0  0  0  0  0  0  0  0  0  0  0
  146.4977  138.4216  151.6463 C   0  0  0  0  0  0  0  0  0  0  0  0
  147.7173  138.5968  152.4256 N   0  0  0  0  0  0  0  0  0  0  0  0
  147.9335  139.5900  153.3002 C   0  0  0  0  0  0  0  0  0  0  0  0
  147.1114  140.4745  153.5370 O   0  0  0  0  0  0  0  0  0  0  0  0
  149.1535  139.4902  153.8569 N   0  0  0  0  0  0  0  0  0  0  0  0
  149.7701  140.3411  154.8152 C   0  0  0  0  0  0  0  0  0  0  0  0
  150.7567  139.7751  155.6516 C   0  0  0  0  0  0  0  0  0  0  0  0
  151.3962  140.5729  156.6223 C   0  0  0  0  0  0  0  0  0  0  0  0
  151.0330  141.9329  156.7483 C   0  0  0  0  0  0  0  0  0  0  0  0
  151.6173  142.8046  157.6768 N   0  0  0  0  0  0  0  0  0  0  0  0
  150.6462  143.6788  158.3298 C   0  0  0  0  0  0  0  0  0  0  0  0
  151.3556  144.7378  159.1916 C   0  0  0  0  0  0  0  0  0  0  0  0
  152.3156  144.0777  160.1943 C   0  0  0  0  0  0  0  0  0  0  0  0
  153.2938  143.1468  159.4597 C   0  0  0  0  0  0  0  0  0  0  0  0
  152.5361  142.1286  158.5897 C   0  0  0  0  0  0  0  0  0  0  0  0
  150.0755  142.4364  155.9400 N   0  3  0  0  0  0  0  0  0  0  0  0
  149.4393  141.7071  154.9976 C   0  0  0  0  0  0  0  0  0  0  0  0
  145.9464  136.1618  150.1288 H   0  0  0  0  0  0  0  0  0  0  0  0
  145.0909  135.2116  151.4655 H   0  0  0  0  0  0  0  0  0  0  0  0
  145.4319  137.0413  153.0174 H   0  0  0  0  0  0  0  0  0  0  0  0
  146.7647  138.3917  150.5899 H   0  0  0  0  0  0  0  0  0  0  0  0
  145.8301  139.2750  151.7794 H   0  0  0  0  0  0  0  0  0  0  0  0
  148.4473  137.9134  152.2861 H   0  0  0  0  0  0  0  0  0  0  0  0
  149.7300  138.7344  153.5170 H   0  0  0  0  0  0  0  0  0  0  0  0
  151.0295  138.7348  155.5493 H   0  0  0  0  0  0  0  0  0  0  0  0
  152.1562  140.1425  157.2582 H   0  0  0  0  0  0  0  0  0  0  0  0
  150.0279  144.1692  157.5767 H   0  0  0  0  0  0  0  0  0  0  0  0
  149.9787  143.0827  158.9538 H   0  0  0  0  0  0  0  0  0  0  0  0
  151.9131  145.4187  158.5470 H   0  0  0  0  0  0  0  0  0  0  0  0
  150.6199  145.3440  159.7205 H   0  0  0  0  0  0  0  0  0  0  0  0
  152.8641  144.8393  160.7492 H   0  0  0  0  0  0  0  0  0  0  0  0
  151.7455  143.5064  160.9280 H   0  0  0  0  0  0  0  0  0  0  0  0
  153.9601  143.7396  158.8317 H   0  0  0  0  0  0  0  0  0  0  0  0
  153.9273  142.6265  160.1783 H   0  0  0  0  0  0  0  0  0  0  0  0
  151.9781  141.4421  159.2278 H   0  0  0  0  0  0  0  0  0  0  0  0
  153.2464  141.5289  158.0191 H   0  0  0  0  0  0  0  0  0  0  0  0
  148.6911  142.2499  154.4403 H   0  0  0  0  0  0  0  0  0  0  0  0
  149.8189  143.4181  156.0459 H   0  0  0  0  0  0  0  0  0  0  0  0
  1  2  2  0  0  0  0
  1 20  1  0  0  0  0
  1 21  1  0  0  0  0
  2  3  1  0  0  0  0
  2 22  1  0  0  0  0
  3  4  1  0  0  0  0
  3 23  1  0  0  0  0
  3 24  1  0  0  0  0
  4  5  1  0  0  0  0
  4 25  1  0  0  0  0
  5  6  2  0  0  0  0
  5  7  1  0  0  0  0
  7  8  1  0  0  0  0
  7 26  1  0  0  0  0
  8 19  1  0  0  0  0
  8  9  2  0  0  0  0
  9 10  1  0  0  0  0
  9 27  1  0  0  0  0
 10 11  2  0  0  0  0
 10 28  1  0  0  0  0
 11 12  1  0  0  0  0
 11 18  1  0  0  0  0
 12 17  1  0  0  0  0
 12 13  1  0  0  0  0
 13 14  1  0  0  0  0
 13 29  1  0  0  0  0
 13 30  1  0  0  0  0
 14 15  1  0  0  0  0
 14 31  1  0  0  0  0
 14 32  1  0  0  0  0
 15 16  1  0  0  0  0
 15 33  1  0  0  0  0
 15 34  1  0  0  0  0
 16 17  1  0  0  0  0
 16 35  1  0  0  0  0
 16 36  1  0  0  0  0
 17 37  1  0  0  0  0
 17 38  1  0  0  0  0
 18 19  2  0  0  0  0
 18 40  1  0  0  0  0
 19 39  1  0  0  0  0
M  CHG  1  18   1
M  END
> <s_m_source_file>
AV-unprocessed.smi

> <i_m_source_file_index>
1647

> <i_lp_mmshare_version>
43012

> <i_f3d_flags>
0

> <s_epik_input>
W0NIMl09W0NIXVtDSDJdW05IXUMoPU8pW05IXWMxW2NIXVtjSF1jKG5bY0hdMSlOMltDSDJdW0NIMl1bQ0gyXVtDSDJdW0NIMl0y

> <s_epik_cmdline>
J2VwaWtfcHl0aG9uJywgJy1waCcsICc3LjAnLCAnLXRuJywgJzgnLCAnLW1hJywgJzIwMCcsICctbWV0YWxfYmluZGluZycsICctaW1hZScsICc8aW5maWxlLm1hZT4nLCAnLW9tYWUnLCAnPG91dGZpbGUubWFlPic=

> <r_lp_tautomer_probability>
0.999994

> <r_epik_Ionization_Penalty>
0.589008

> <r_epik_Ionization_Penalty_Charging>
0.588988

> <r_epik_Ionization_Penalty_Neutral>
2.00705e-05

> <r_epik_State_Penalty>
0.602394

> <r_epik_Charging_Adjusted_Penalty>
1.19138

> <i_epik_Tot_Q>
1

> <i_epik_Tot_abs_Q>
1

> <r_epik_Metal_State_Penalty>
0.79095

> <b_epik_Metal_Only>
0

> <s_lp_Force_Field>
OPLS_2005

> <r_lp_Energy>
26.0236

> <b_lp_Chiralities_Consistent>
1

> <s_lp_Variant>
AV-unprocessed.smi:1647-2

> <Gold.Version>
5.8.1

> <Gold.Id.Protein>
6NUR|6NUR_protein|mol2

> <Gold.PLP.Fitness>
50.2276

> <Gold.PLP.PLP>
-41.9407

> <Gold.PLP.part.hbond>
-4.0000

> <Gold.PLP.part.metal>
0.0000

> <Gold.PLP.part.buried>
-0.3427

> <Gold.PLP.part.nonpolar>
-38.0460

> <Gold.PLP.part.repulsive>
0.5398

> <Gold.PLP.ligand.clash>
0.0000

> <Gold.PLP.ligand.torsion>
0.4333

> <Gold.PLP.Chemscore.Hbond>
3.0000

> <Gold.PLP.Chemscore.CHOScore>
0.0000

> <Gold.PLP.Chemscore.Metal>
0.0000

> <Gold.Chemscore.Hbonds>
donor molecule, donor type, donor heavy atom, donor atom, acceptor molecule, acceptor atom, score
      L1  H     4    25       P1  7948  1.00
      L1  H    18    40       P1  8028  2.00

> <Gold.PLP.Chemscore.Internal.Correction>
0.1534

> <Gold.Rescore>
     Score         DG    S(hbond)    S(metal)    S(lipo)     H(rot)  DE(clash)    DE(int)     intcor
     18.93     -20.47       1.94        0.00     102.05       1.35       0.19       1.36       ----

> <Gold.Chemscore.Fitness>
18.9282

> <Gold.Chemscore.DG>
-20.4703

> <Gold.Chemscore.ZeroCoef>
-5.4800

> <Gold.Chemscore.Hbond>
1.9443

> <Gold.Chemscore.Metal>
0.0000

> <Gold.Chemscore.Lipo>
102.0531

> <Gold.Chemscore.Internal_Hbond>
0.0000

> <Gold.Chemscore.DEClash>
0.1855

> <Gold.Chemscore.DEInternal>
1.3566

> <Gold.Chemscore.Rot>
1.3452

> <Gold.Chemscore.Internal.Correction>
   9.000000E+99

> <Gold.Chemscore.Hbonds>
donor molecule, donor type, donor heavy atom, donor atom, acceptor molecule, acceptor atom, score
      L1  H     4    25       P1  7948  0.95
      L1  H    18    40       P1  8028  0.96

> <Gold.Chemscore.Hbond.Weighted>
-6.4939

> <Gold.Chemscore.Metal.Weighted>
-0.0000

> <Gold.Chemscore.Lipo.Weighted>
-11.9402

> <Gold.Chemscore.Internal_Hbond.Weighted>
0.0000

> <Gold.Chemscore.DEClash.Weighted>
0.1855

> <Gold.Chemscore.DEInternal.Weighted>
1.3566

> <Gold.Chemscore.Rot.Weighted>
3.4438

> <Gold.Chemscore.Internal.Correction.Weighted>
   9.000000E+99

> <Gold.Protein.RotatedTorsions>
[ 6907 6896 6895 6894 ] final  173.35 input  -60.11 | X-H torsion
[ 7974 7965 7964 7962 ] final -135.95 input  175.53 | X-H torsion
[ 8008 7997 7996 7995 ] final  145.65 input   59.86 | X-H torsion
[ 10167 10162 10161 10158 ] final  -98.51 input  -65.29 | X-H torsion
[ 10718 10713 10712 10709 ] final  126.08 input   66.30 | X-H torsion
[ 10763 10752 10751 10750 ] final  128.79 input  -60.55 | X-H torsion
[ 11005 11000 10999 10996 ] final -174.79 input  -57.11 | X-H torsion

> <Gold.Protein.ActiveResidues>
 VAL166  LYS551  ARG553  GLY616  TRP617  ASP618  TYR619  PRO620  LYS621  CYS622 
 ASP623  PHE694  ASN695  SER759  ASP760  ASP761  ALA762  ILE779  LEU786  VAL792 
 PHE793  MET794  SER795  GLU796  ALA797  LYS798  CYS799  TRP800  GLU811  SER814 

> <Gold.Protein.RotatedAtoms>
  151.7696  133.3340  159.3440 H   0  0  0  0  0  0  0  0  0  0  0  0  # atno 6907 bound_to 6896
  150.7466  134.6030  159.6056 H   0  0  0  0  0  0  0  0  0  0  0  0  # atno 6908 bound_to 6896
  152.3350  134.7212  160.0331 H   0  0  0  0  0  0  0  0  0  0  0  0  # atno 6909 bound_to 6896
  144.8969  140.6719  143.5109 H   0  0  0  0  0  0  0  0  0  0  0  0  # atno 7974 bound_to 7965
  156.2877  140.2203  156.5250 H   0  0  0  0  0  0  0  0  0  0  0  0  # atno 8008 bound_to 7997
  154.7497  140.0481  157.0904 H   0  0  0  0  0  0  0  0  0  0  0  0  # atno 8009 bound_to 7997
  155.0126  140.3114  155.4827 H   0  0  0  0  0  0  0  0  0  0  0  0  # atno 8010 bound_to 7997
  140.2722  143.3336  152.0523 H   0  0  0  0  0  0  0  0  0  0  0  0  # atno 10167 bound_to 10162
  157.5449  131.1096  150.8798 H   0  0  0  0  0  0  0  0  0  0  0  0  # atno 10718 bound_to 10713
  153.7312  135.3238  155.3286 H   0  0  0  0  0  0  0  0  0  0  0  0  # atno 10763 bound_to 10752
  154.8325  135.4522  154.1120 H   0  0  0  0  0  0  0  0  0  0  0  0  # atno 10764 bound_to 10752
  153.2268  135.6955  153.8017 H   0  0  0  0  0  0  0  0  0  0  0  0  # atno 10765 bound_to 10752
  140.4706  134.6169  157.4880 H   0  0  0  0  0  0  0  0  0  0  0  0  # atno 11005 bound_to 11000
  145.3684  139.1664  143.4345 LP  0  0  0  0  0  0  0  0  0  0  0  0  # atno 17320 bound_to 7965
  146.3086  140.3753  142.8678 LP  0  0  0  0  0  0  0  0  0  0  0  0  # atno 17321 bound_to 7965
  139.4985  144.6648  151.6381 LP  0  0  0  0  0  0  0  0  0  0  0  0  # atno 17342 bound_to 10162
  140.5880  143.9830  150.6307 LP  0  0  0  0  0  0  0  0  0  0  0  0  # atno 17343 bound_to 10162
  156.9339  130.5360  149.5279 LP  0  0  0  0  0  0  0  0  0  0  0  0  # atno 17370 bound_to 10713
  156.0527  130.5594  150.9025 LP  0  0  0  0  0  0  0  0  0  0  0  0  # atno 17371 bound_to 10713
  139.9888  134.7019  155.9727 LP  0  0  0  0  0  0  0  0  0  0  0  0  # atno 17394 bound_to 11000
  141.1579  133.6541  156.4220 LP  0  0  0  0  0  0  0  0  0  0  0  0  # atno 17395 bound_to 11000

$$$$
