AV-unprocessed.smi:2822|AV-procd|sdf|10864|dock5
  -GOLD-   2272015313D 1   1.00000     0.00000
 Structure written by MMmdl.
 41 43  0  0  0  0  0  0  0  0  3 V2000
  146.7933  131.2015  148.7095 Cl  0  0  0  0  0  0  0  0  0  0  0  0
  145.7847  132.2699  149.6210 C   0  0  0  0  0  0  0  0  0  0  0  0
  144.5437  132.6710  149.0841 C   0  0  0  0  0  0  0  0  0  0  0  0
  143.7447  133.5067  149.7805 N   0  3  0  0  0  0  0  0  0  0  0  0
  144.0780  133.9900  150.9957 C   0  0  0  0  0  0  0  0  0  0  0  0
  145.3053  133.6244  151.5854 C   0  0  0  0  0  0  0  0  0  0  0  0
  146.1816  132.7511  150.8933 C   0  0  0  0  0  0  0  0  0  0  0  0
  147.4169  132.3503  151.4263 N   0  0  0  0  0  0  0  0  0  0  0  0
  147.9885  133.0301  152.5794 C   0  0  0  0  0  0  0  0  0  0  0  0
  147.8253  132.2035  153.8634 C   0  0  2  0  0  0  0  0  0  0  0  0
  149.0751  132.2935  154.7581 C   0  0  0  0  0  0  0  0  0  0  0  0
  148.9291  131.4199  155.9489 N   0  3  2  0  0  0  0  0  0  0  0  0
  150.0729  131.4958  156.8952 C   0  0  0  0  0  0  0  0  0  0  0  0
  151.3105  130.7392  156.3758 C   0  0  0  0  0  0  0  0  0  0  0  0
  150.9622  129.2867  156.0241 C   0  0  0  0  0  0  0  0  0  0  0  0
  149.7858  129.2421  155.0388 C   0  0  0  0  0  0  0  0  0  0  0  0
  148.5699  130.0205  155.5885 C   0  0  2  0  0  0  0  0  0  0  0  0
  147.3711  130.0108  154.6199 C   0  0  0  0  0  0  0  0  0  0  0  0
  147.6369  130.8410  153.4956 O   0  0  0  0  0  0  0  0  0  0  0  0
  144.1692  132.3498  148.1231 H   0  0  0  0  0  0  0  0  0  0  0  0
  143.3581  134.6495  151.4582 H   0  0  0  0  0  0  0  0  0  0  0  0
  145.5517  134.0184  152.5599 H   0  0  0  0  0  0  0  0  0  0  0  0
  148.0245  131.7726  150.8622 H   0  0  0  0  0  0  0  0  0  0  0  0
  149.0440  133.2408  152.4009 H   0  0  0  0  0  0  0  0  0  0  0  0
  147.4806  133.9879  152.6999 H   0  0  0  0  0  0  0  0  0  0  0  0
  146.9545  132.5641  154.4152 H   0  0  0  0  0  0  0  0  0  0  0  0
  149.9598  132.0129  154.1864 H   0  0  0  0  0  0  0  0  0  0  0  0
  149.2244  133.3237  155.0837 H   0  0  0  0  0  0  0  0  0  0  0  0
  150.3198  132.5383  157.0995 H   0  0  0  0  0  0  0  0  0  0  0  0
  149.7585  131.0642  157.8462 H   0  0  0  0  0  0  0  0  0  0  0  0
  151.7199  131.2422  155.4994 H   0  0  0  0  0  0  0  0  0  0  0  0
  152.0975  130.7575  157.1303 H   0  0  0  0  0  0  0  0  0  0  0  0
  151.8305  128.7835  155.5976 H   0  0  0  0  0  0  0  0  0  0  0  0
  150.7015  128.7413  156.9321 H   0  0  0  0  0  0  0  0  0  0  0  0
  150.0972  129.6497  154.0765 H   0  0  0  0  0  0  0  0  0  0  0  0
  149.5087  128.2042  154.8519 H   0  0  0  0  0  0  0  0  0  0  0  0
  148.2532  129.5239  156.5070 H   0  0  0  0  0  0  0  0  0  0  0  0
  147.1686  128.9967  154.2747 H   0  0  0  0  0  0  0  0  0  0  0  0
  146.4666  130.3547  155.1243 H   0  0  0  0  0  0  0  0  0  0  0  0
  148.1332  131.7889  156.4497 H   0  0  0  0  0  0  0  0  0  0  0  0
  142.8514  133.7833  149.3718 H   0  0  0  0  0  0  0  0  0  0  0  0
  1  2  1  0  0  0  0
  2  7  1  0  0  0  0
  2  3  2  0  0  0  0
  3  4  1  0  0  0  0
  3 20  1  0  0  0  0
  4  5  2  0  0  0  0
  4 41  1  0  0  0  0
  5  6  1  0  0  0  0
  5 21  1  0  0  0  0
  6  7  2  0  0  0  0
  6 22  1  0  0  0  0
  7  8  1  0  0  0  0
  8  9  1  0  0  0  0
  8 23  1  0  0  0  0
  9 10  1  0  0  0  0
  9 24  1  0  0  0  0
  9 25  1  0  0  0  0
 10 19  1  0  0  0  0
 10 11  1  0  0  0  0
 10 26  1  0  0  0  0
 11 12  1  0  0  0  0
 11 27  1  0  0  0  0
 11 28  1  0  0  0  0
 12 17  1  0  0  0  0
 12 13  1  0  0  0  0
 12 40  1  0  0  0  0
 13 14  1  0  0  0  0
 13 29  1  0  0  0  0
 13 30  1  0  0  0  0
 14 15  1  0  0  0  0
 14 31  1  0  0  0  0
 14 32  1  0  0  0  0
 15 16  1  0  0  0  0
 15 33  1  0  0  0  0
 15 34  1  0  0  0  0
 16 17  1  0  0  0  0
 16 35  1  0  0  0  0
 16 36  1  0  0  0  0
 17 18  1  0  0  0  0
 17 37  1  0  0  0  0
 18 19  1  0  0  0  0
 18 38  1  0  0  0  0
 18 39  1  0  0  0  0
M  CHG  1   4   1
M  CHG  1  12   1
M  END
> <s_m_source_file>
AV-unprocessed.smi

> <i_m_source_file_index>
2822

> <i_lp_mmshare_version>
43012

> <i_f3d_flags>
0

> <s_epik_input>
Q2xjMVtjSF1uW2NIXVtjSF1jMVtOSF1bQ0gyXVtDQEhdKFtDSDJdMilPW0NIMl1bQ0BASF0oTjIzKVtDSDJdW0NIMl1bQ0gyXVtDSDJdMw==

> <s_epik_cmdline>
J2VwaWtfcHl0aG9uJywgJy1waCcsICc3LjAnLCAnLXRuJywgJzgnLCAnLW1hJywgJzIwMCcsICctbWV0YWxfYmluZGluZycsICctaW1hZScsICc8aW5maWxlLm1hZT4nLCAnLW9tYWUnLCAnPG91dGZpbGUubWFlPic=

> <r_lp_tautomer_probability>
1

> <r_epik_Ionization_Penalty>
0.254999

> <r_epik_Ionization_Penalty_Charging>
0.254956

> <r_epik_Ionization_Penalty_Neutral>
4.33524e-05

> <r_epik_State_Penalty>
0.230978

> <r_epik_Charging_Adjusted_Penalty>
0.485934

> <i_epik_Tot_Q>
2

> <i_epik_Tot_abs_Q>
2

> <r_epik_Metal_State_Penalty>
3.47007

> <b_epik_Metal_Only>
0

> <s_lp_Force_Field>
OPLS_2005

> <r_lp_Energy>
39.695

> <b_lp_Chiralities_Consistent>
1

> <s_lp_Variant>
AV-unprocessed.smi:2822-5

> <Gold.Version>
5.8.1

> <Gold.Id.Protein>
6NUR|6NUR_protein|mol2

> <Gold.PLP.Fitness>
44.2791

> <Gold.PLP.PLP>
-36.6468

> <Gold.PLP.part.hbond>
-1.9601

> <Gold.PLP.part.metal>
0.0000

> <Gold.PLP.part.buried>
-3.6604

> <Gold.PLP.part.nonpolar>
-31.3125

> <Gold.PLP.part.repulsive>
0.2090

> <Gold.PLP.ligand.clash>
0.0000

> <Gold.PLP.ligand.torsion>
0.6843

> <Gold.PLP.Chemscore.Hbond>
3.0000

> <Gold.PLP.Chemscore.CHOScore>
0.0000

> <Gold.PLP.Chemscore.Metal>
0.0000

> <Gold.Chemscore.Hbonds>
donor molecule, donor type, donor heavy atom, donor atom, acceptor molecule, acceptor atom, score
      L1  H     4    41       P1 10186  2.00
      L1  H     8    23       P1 10747  0.78

> <Gold.PLP.Chemscore.Internal.Correction>
0.0008

> <Gold.Rescore>
     Score         DG    S(hbond)    S(metal)    S(lipo)     H(rot)  DE(clash)    DE(int)     intcor
     18.56     -20.72       1.98        0.00      99.76       1.20       1.53       0.63       ----

> <Gold.Chemscore.Fitness>
18.5560

> <Gold.Chemscore.DG>
-20.7156

> <Gold.Chemscore.ZeroCoef>
-5.4800

> <Gold.Chemscore.Hbond>
1.9839

> <Gold.Chemscore.Metal>
0.0000

> <Gold.Chemscore.Lipo>
99.7583

> <Gold.Chemscore.Internal_Hbond>
0.0000

> <Gold.Chemscore.DEClash>
1.5275

> <Gold.Chemscore.DEInternal>
0.6321

> <Gold.Chemscore.Rot>
1.1962

> <Gold.Chemscore.Internal.Correction>
   9.000000E+99

> <Gold.Chemscore.Hbonds>
donor molecule, donor type, donor heavy atom, donor atom, acceptor molecule, acceptor atom, score
      L1  H     4    41       P1 10186  0.95
      L1  H     8    23       P1 10747  0.77

> <Gold.Chemscore.Hbond.Weighted>
-6.6261

> <Gold.Chemscore.Metal.Weighted>
-0.0000

> <Gold.Chemscore.Lipo.Weighted>
-11.6717

> <Gold.Chemscore.Internal_Hbond.Weighted>
0.0000

> <Gold.Chemscore.DEClash.Weighted>
1.5275

> <Gold.Chemscore.DEInternal.Weighted>
0.6321

> <Gold.Chemscore.Rot.Weighted>
3.0623

> <Gold.Chemscore.Internal.Correction.Weighted>
   9.000000E+99

> <Gold.Protein.RotatedTorsions>
[ 6907 6896 6895 6894 ] final -126.47 input  -60.11 | X-H torsion
[ 7974 7965 7964 7962 ] final -114.03 input  175.53 | X-H torsion
[ 8008 7997 7996 7995 ] final -106.47 input   59.86 | X-H torsion
[ 10167 10162 10161 10158 ] final  110.53 input  -65.29 | X-H torsion
[ 10718 10713 10712 10709 ] final  176.54 input   66.30 | X-H torsion
[ 10763 10752 10751 10750 ] final -131.36 input  -60.55 | X-H torsion
[ 11005 11000 10999 10996 ] final  -51.78 input  -57.11 | X-H torsion

> <Gold.Protein.ActiveResidues>
 VAL166  LYS551  ARG553  GLY616  TRP617  ASP618  TYR619  PRO620  LYS621  CYS622 
 ASP623  PHE694  ASN695  SER759  ASP760  ASP761  ALA762  ILE779  LEU786  VAL792 
 PHE793  MET794  SER795  GLU796  ALA797  LYS798  CYS799  TRP800  GLU811  SER814 

> <Gold.Protein.RotatedAtoms>
  150.8973  133.7164  159.2888 H   0  0  0  0  0  0  0  0  0  0  0  0  # atno 6907 bound_to 6896
  151.4695  135.1043  159.9757 H   0  0  0  0  0  0  0  0  0  0  0  0  # atno 6908 bound_to 6896
  152.4856  133.8317  159.7162 H   0  0  0  0  0  0  0  0  0  0  0  0  # atno 6909 bound_to 6896
  145.1250  140.8691  143.3792 H   0  0  0  0  0  0  0  0  0  0  0  0  # atno 7974 bound_to 7965
  154.9150  140.0409  157.1967 H   0  0  0  0  0  0  0  0  0  0  0  0  # atno 8008 bound_to 7997
  154.8310  140.2899  155.5701 H   0  0  0  0  0  0  0  0  0  0  0  0  # atno 8009 bound_to 7997
  156.2987  140.2500  156.3236 H   0  0  0  0  0  0  0  0  0  0  0  0  # atno 8010 bound_to 7997
  139.6681  144.7126  151.1739 H   0  0  0  0  0  0  0  0  0  0  0  0  # atno 10167 bound_to 10162
  156.9186  130.9933  151.3008 H   0  0  0  0  0  0  0  0  0  0  0  0  # atno 10718 bound_to 10713
  154.8751  135.3832  154.4234 H   0  0  0  0  0  0  0  0  0  0  0  0  # atno 10763 bound_to 10752
  153.4935  135.7030  153.5876 H   0  0  0  0  0  0  0  0  0  0  0  0  # atno 10764 bound_to 10752
  153.4239  135.3895  155.2095 H   0  0  0  0  0  0  0  0  0  0  0  0  # atno 10765 bound_to 10752
  141.0889  133.6636  156.3927 H   0  0  0  0  0  0  0  0  0  0  0  0  # atno 11005 bound_to 11000
  145.0699  139.3040  143.5837 LP  0  0  0  0  0  0  0  0  0  0  0  0  # atno 17320 bound_to 7965
  146.3518  140.0169  142.8662 LP  0  0  0  0  0  0  0  0  0  0  0  0  # atno 17321 bound_to 7965
  140.7607  143.5887  150.8818 LP  0  0  0  0  0  0  0  0  0  0  0  0  # atno 17342 bound_to 10162
  139.9550  143.6228  152.3018 LP  0  0  0  0  0  0  0  0  0  0  0  0  # atno 17343 bound_to 10162
  157.5922  130.8452  149.8676 LP  0  0  0  0  0  0  0  0  0  0  0  0  # atno 17370 bound_to 10713
  156.0502  130.3719  150.1221 LP  0  0  0  0  0  0  0  0  0  0  0  0  # atno 17371 bound_to 10713
  140.5298  134.6224  157.5346 LP  0  0  0  0  0  0  0  0  0  0  0  0  # atno 17394 bound_to 11000
  139.9712  134.7290  156.0039 LP  0  0  0  0  0  0  0  0  0  0  0  0  # atno 17395 bound_to 11000

$$$$
