AV-unprocessed.smi:2445|AV-procd|sdf|9633|dock5
  -GOLD-   2272013263D 1   1.00000     0.00000
 Structure written by MMmdl.
 40 41  0  0  0  0  0  0  0  0  1 V2000
  143.8933  132.2455  150.2578 C   0  0  0  0  0  0  0  0  0  0  0  0
  145.1406  132.5984  150.9945 C   0  0  0  0  0  0  0  0  0  0  0  0
  145.8953  133.7385  150.8712 C   0  0  0  0  0  0  0  0  0  0  0  0
  147.0135  133.7688  151.7073 N   0  0  0  0  0  0  0  0  0  0  0  0
  147.1182  132.6721  152.4624 C   0  0  0  0  0  0  0  0  0  0  0  0
  148.2292  132.4487  153.4446 C   0  0  2  0  0  0  0  0  0  0  0  0
  148.2635  130.9955  153.9382 C   0  0  0  0  0  0  0  0  0  0  0  0
  148.2095  133.4591  154.6084 C   0  0  0  0  0  0  0  0  0  0  0  0
  148.6934  134.7705  154.1911 N   0  0  0  0  0  0  0  0  0  0  0  0
  148.8926  135.8052  155.0169 C   0  0  0  0  0  0  0  0  0  0  0  0
  148.7134  135.7604  156.2341 O   0  0  0  0  0  0  0  0  0  0  0  0
  149.3057  136.8945  154.3561 N   0  0  0  0  0  0  0  0  0  0  0  0
  149.5973  138.1861  154.9703 C   0  0  2  0  0  0  0  0  0  0  0  0
  148.5917  139.2401  154.5559 C   0  0  0  0  0  0  0  0  0  0  0  0
  149.3774  140.5262  154.7802 C   0  0  0  0  0  0  0  0  0  0  0  0
  150.7312  140.2048  154.4827 O   0  0  0  0  0  0  0  0  0  0  0  0
  150.9139  138.7910  154.4607 C   0  0  1  0  0  0  0  0  0  0  0  0
  152.1463  138.4082  155.2893 C   0  0  0  0  0  0  0  0  0  0  0  0
  145.8225  131.5127  152.1765 S   0  0  0  0  0  0  0  0  0  0  0  0
  143.5835  133.0564  149.5980 H   0  0  0  0  0  0  0  0  0  0  0  0
  143.0767  132.0466  150.9521 H   0  0  0  0  0  0  0  0  0  0  0  0
  144.0434  131.3545  149.6481 H   0  0  0  0  0  0  0  0  0  0  0  0
  145.7110  134.5764  150.2150 H   0  0  0  0  0  0  0  0  0  0  0  0
  149.1628  132.6141  152.9040 H   0  0  0  0  0  0  0  0  0  0  0  0
  148.3584  130.3001  153.1036 H   0  0  0  0  0  0  0  0  0  0  0  0
  147.3541  130.7395  154.4829 H   0  0  0  0  0  0  0  0  0  0  0  0
  149.1088  130.8274  154.6058 H   0  0  0  0  0  0  0  0  0  0  0  0
  147.1911  133.5523  154.9903 H   0  0  0  0  0  0  0  0  0  0  0  0
  148.8246  133.0989  155.4341 H   0  0  0  0  0  0  0  0  0  0  0  0
  148.8683  134.9021  153.2053 H   0  0  0  0  0  0  0  0  0  0  0  0
  149.4245  136.8290  153.3557 H   0  0  0  0  0  0  0  0  0  0  0  0
  149.6038  138.1174  156.0603 H   0  0  0  0  0  0  0  0  0  0  0  0
  148.3420  139.1412  153.4981 H   0  0  0  0  0  0  0  0  0  0  0  0
  147.6662  139.2010  155.1315 H   0  0  0  0  0  0  0  0  0  0  0  0
  149.0169  141.3511  154.1655 H   0  0  0  0  0  0  0  0  0  0  0  0
  149.3154  140.8301  155.8259 H   0  0  0  0  0  0  0  0  0  0  0  0
  151.0725  138.5102  153.4183 H   0  0  0  0  0  0  0  0  0  0  0  0
  152.3250  137.3336  155.2549 H   0  0  0  0  0  0  0  0  0  0  0  0
  152.0248  138.6951  156.3340 H   0  0  0  0  0  0  0  0  0  0  0  0
  153.0392  138.9046  154.9091 H   0  0  0  0  0  0  0  0  0  0  0  0
  1  2  1  0  0  0  0
  1 20  1  0  0  0  0
  1 21  1  0  0  0  0
  1 22  1  0  0  0  0
  2 19  1  0  0  0  0
  2  3  2  0  0  0  0
  3  4  1  0  0  0  0
  3 23  1  0  0  0  0
  4  5  2  0  0  0  0
  5  6  1  0  0  0  0
  5 19  1  0  0  0  0
  6  7  1  0  0  0  0
  6  8  1  0  0  0  0
  6 24  1  0  0  0  0
  7 25  1  0  0  0  0
  7 26  1  0  0  0  0
  7 27  1  0  0  0  0
  8  9  1  0  0  0  0
  8 28  1  0  0  0  0
  8 29  1  0  0  0  0
  9 10  1  0  0  0  0
  9 30  1  0  0  0  0
 10 11  2  0  0  0  0
 10 12  1  0  0  0  0
 12 13  1  0  0  0  0
 12 31  1  0  0  0  0
 13 17  1  0  0  0  0
 13 14  1  0  0  0  0
 13 32  1  0  0  0  0
 14 15  1  0  0  0  0
 14 33  1  0  0  0  0
 14 34  1  0  0  0  0
 15 16  1  0  0  0  0
 15 35  1  0  0  0  0
 15 36  1  0  0  0  0
 16 17  1  0  0  0  0
 17 18  1  0  0  0  0
 17 37  1  0  0  0  0
 18 38  1  0  0  0  0
 18 39  1  0  0  0  0
 18 40  1  0  0  0  0
M  END
> <s_m_source_file>
AV-unprocessed.smi

> <i_m_source_file_index>
2445

> <i_lp_mmshare_version>
43012

> <i_f3d_flags>
0

> <s_epik_input>
W0NIM11jMVtjSF1uYyhzMSlbQ0BIXShbQ0gzXSlbQ0gyXVtOSF1DKD1PKVtOSF1bQ0BASF0yW0NIMl1bQ0gyXU9bQ0BIXTJbQ0gzXQ==

> <s_epik_cmdline>
J2VwaWtfcHl0aG9uJywgJy1waCcsICc3LjAnLCAnLXRuJywgJzgnLCAnLW1hJywgJzIwMCcsICctbWV0YWxfYmluZGluZycsICctaW1hZScsICc8aW5maWxlLm1hZT4nLCAnLW9tYWUnLCAnPG91dGZpbGUubWFlPic=

> <r_epik_Ionization_Penalty>
0.000649483

> <r_epik_Ionization_Penalty_Charging>
0

> <r_epik_Ionization_Penalty_Neutral>
0.000649483

> <r_epik_State_Penalty>
0.000379895

> <r_epik_Charging_Adjusted_Penalty>
0.000379895

> <i_epik_Tot_Q>
0

> <i_epik_Tot_abs_Q>
0

> <r_epik_Metal_State_Penalty>
-0

> <b_epik_Metal_Only>
0

> <s_lp_Force_Field>
OPLS_2005

> <r_lp_Energy>
5.96994

> <b_lp_Chiralities_Consistent>
1

> <s_lp_Variant>
AV-unprocessed.smi:2445-1

> <Gold.Version>
5.8.1

> <Gold.Id.Protein>
6NUR|6NUR_protein|mol2

> <Gold.PLP.Fitness>
44.0142

> <Gold.PLP.PLP>
-33.2322

> <Gold.PLP.part.hbond>
-2.9197

> <Gold.PLP.part.metal>
0.0000

> <Gold.PLP.part.buried>
-4.6235

> <Gold.PLP.part.nonpolar>
-27.3759

> <Gold.PLP.part.repulsive>
0.7557

> <Gold.PLP.ligand.clash>
0.0000

> <Gold.PLP.ligand.torsion>
0.4630

> <Gold.PLP.Chemscore.Hbond>
2.8640

> <Gold.PLP.Chemscore.CHOScore>
1.0000

> <Gold.PLP.Chemscore.Metal>
0.0000

> <Gold.Chemscore.Hbonds>
donor molecule, donor type, donor heavy atom, donor atom, acceptor molecule, acceptor atom, score
      L1  H     9    30       P1  7948  0.88
      L1  H    12    31       P1  7948  1.00
      P1  H  7989  7998       L1    16  0.89
      L1  C     3    23       P1  7921  0.77

> <Gold.PLP.Chemscore.Internal.Correction>
0.1160

> <Gold.Rescore>
     Score         DG    S(hbond)    S(metal)    S(lipo)     H(rot)  DE(clash)    DE(int)     intcor
     18.97     -19.39       2.48        0.00      81.73       1.53       0.02       0.39       ----

> <Gold.Chemscore.Fitness>
18.9716

> <Gold.Chemscore.DG>
-19.3878

> <Gold.Chemscore.ZeroCoef>
-5.4800

> <Gold.Chemscore.Hbond>
2.4758

> <Gold.Chemscore.Metal>
0.0000

> <Gold.Chemscore.Lipo>
81.7257

> <Gold.Chemscore.Internal_Hbond>
0.0000

> <Gold.Chemscore.DEClash>
0.0215

> <Gold.Chemscore.DEInternal>
0.3947

> <Gold.Chemscore.Rot>
1.5325

> <Gold.Chemscore.Internal.Correction>
   9.000000E+99

> <Gold.Chemscore.Hbonds>
donor molecule, donor type, donor heavy atom, donor atom, acceptor molecule, acceptor atom, score
      L1  H     9    30       P1  7948  0.22
      L1  H    12    31       P1  7948  0.85
      P1  H  7989  7998       L1    16  0.68

> <Gold.Chemscore.Hbond.Weighted>
-8.2692

> <Gold.Chemscore.Metal.Weighted>
-0.0000

> <Gold.Chemscore.Lipo.Weighted>
-9.5619

> <Gold.Chemscore.Internal_Hbond.Weighted>
0.0000

> <Gold.Chemscore.DEClash.Weighted>
0.0215

> <Gold.Chemscore.DEInternal.Weighted>
0.3947

> <Gold.Chemscore.Rot.Weighted>
3.9233

> <Gold.Chemscore.Internal.Correction.Weighted>
   9.000000E+99

> <Gold.Protein.RotatedTorsions>
[ 6907 6896 6895 6894 ] final  174.34 input  -60.11 | X-H torsion
[ 7974 7965 7964 7962 ] final  -56.71 input  175.53 | X-H torsion
[ 8008 7997 7996 7995 ] final    6.82 input   59.86 | X-H torsion
[ 10167 10162 10161 10158 ] final  118.52 input  -65.29 | X-H torsion
[ 10718 10713 10712 10709 ] final -164.06 input   66.30 | X-H torsion
[ 10763 10752 10751 10750 ] final  -71.46 input  -60.55 | X-H torsion
[ 11005 11000 10999 10996 ] final  -23.29 input  -57.11 | X-H torsion

> <Gold.Protein.ActiveResidues>
 VAL166  LYS551  ARG553  GLY616  TRP617  ASP618  TYR619  PRO620  LYS621  CYS622 
 ASP623  PHE694  ASN695  SER759  ASP760  ASP761  ALA762  ILE779  LEU786  VAL792 
 PHE793  MET794  SER795  GLU796  ALA797  LYS798  CYS799  TRP800  GLU811  SER814 

> <Gold.Protein.RotatedAtoms>
  151.7539  133.3329  159.3398 H   0  0  0  0  0  0  0  0  0  0  0  0  # atno 6907 bound_to 6896
  150.7524  134.6167  159.6124 H   0  0  0  0  0  0  0  0  0  0  0  0  # atno 6908 bound_to 6896
  152.3450  134.7085  160.0304 H   0  0  0  0  0  0  0  0  0  0  0  0  # atno 6909 bound_to 6896
  145.8595  140.8295  142.9944 H   0  0  0  0  0  0  0  0  0  0  0  0  # atno 7974 bound_to 7965
  154.7459  140.2757  155.6334 H   0  0  0  0  0  0  0  0  0  0  0  0  # atno 8008 bound_to 7997
  156.2884  140.2688  156.2125 H   0  0  0  0  0  0  0  0  0  0  0  0  # atno 8009 bound_to 7997
  155.0199  140.0371  157.2423 H   0  0  0  0  0  0  0  0  0  0  0  0  # atno 8010 bound_to 7997
  139.6106  144.7081  151.2853 H   0  0  0  0  0  0  0  0  0  0  0  0  # atno 10167 bound_to 10162
  156.6336  130.8940  151.2982 H   0  0  0  0  0  0  0  0  0  0  0  0  # atno 10718 bound_to 10713
  154.4320  135.5961  153.6075 H   0  0  0  0  0  0  0  0  0  0  0  0  # atno 10763 bound_to 10752
  152.9799  135.5977  154.3827 H   0  0  0  0  0  0  0  0  0  0  0  0  # atno 10764 bound_to 10752
  154.3666  135.2841  155.2268 H   0  0  0  0  0  0  0  0  0  0  0  0  # atno 10765 bound_to 10752
  140.8737  133.7702  156.0218 H   0  0  0  0  0  0  0  0  0  0  0  0  # atno 11005 bound_to 11000
  144.6727  140.1074  143.7457 LP  0  0  0  0  0  0  0  0  0  0  0  0  # atno 17320 bound_to 7965
  145.9264  139.2578  143.1351 LP  0  0  0  0  0  0  0  0  0  0  0  0  # atno 17321 bound_to 7965
  140.7316  143.6847  150.7972 LP  0  0  0  0  0  0  0  0  0  0  0  0  # atno 17342 bound_to 10162
  140.0440  143.5317  152.2704 LP  0  0  0  0  0  0  0  0  0  0  0  0  # atno 17343 bound_to 10162
  157.7192  130.9537  150.1373 LP  0  0  0  0  0  0  0  0  0  0  0  0  # atno 17370 bound_to 10713
  156.2215  130.3674  149.8550 LP  0  0  0  0  0  0  0  0  0  0  0  0  # atno 17371 bound_to 10713
  140.8543  134.2917  157.5262 LP  0  0  0  0  0  0  0  0  0  0  0  0  # atno 17394 bound_to 11000
  139.8714  134.9484  156.3996 LP  0  0  0  0  0  0  0  0  0  0  0  0  # atno 17395 bound_to 11000

$$$$
