AV-unprocessed.smi:3070|AV-procd|sdf|11711|dock6
  -GOLD-   2272017113D 1   1.00000     0.00000
 Structure written by MMmdl.
 21 22  0  0  0  0  0  0  0  0  2 V2000
  151.6349  137.9742  154.2192 C   0  0  0  0  0  0  0  0  0  0  0  0
  152.2006  137.4402  155.3419 N   0  0  0  0  0  0  0  0  0  0  0  0
  152.1238  138.4886  156.1494 C   0  0  0  0  0  0  0  0  0  0  0  0
  151.5695  139.5647  155.5877 N   0  0  0  0  0  0  0  0  0  0  0  0
  151.3172  140.8862  156.1424 C   0  0  2  0  0  0  0  0  0  0  0  0
  151.5675  140.9888  157.6467 C   0  0  0  0  0  0  0  0  0  0  0  0
  150.7843  142.2447  158.0323 C   0  0  0  0  0  0  0  0  0  0  0  0
  149.6477  142.3288  157.0923 N   0  3  0  0  0  0  0  0  0  0  0  0
  149.8628  141.3533  156.0050 C   0  0  0  0  0  0  0  0  0  0  0  0
  151.2399  139.2441  154.3126 N   0  0  0  0  0  0  0  0  0  0  0  0
  151.5110  137.4107  153.3061 H   0  0  0  0  0  0  0  0  0  0  0  0
  152.4801  138.4708  157.1691 H   0  0  0  0  0  0  0  0  0  0  0  0
  151.9653  141.6012  155.6322 H   0  0  0  0  0  0  0  0  0  0  0  0
  151.1539  140.1265  158.1717 H   0  0  0  0  0  0  0  0  0  0  0  0
  152.6265  141.0578  157.8972 H   0  0  0  0  0  0  0  0  0  0  0  0
  150.4470  142.2254  159.0689 H   0  0  0  0  0  0  0  0  0  0  0  0
  151.4072  143.1299  157.8980 H   0  0  0  0  0  0  0  0  0  0  0  0
  148.7857  142.1080  157.5704 H   0  0  0  0  0  0  0  0  0  0  0  0
  149.6571  141.7915  155.0281 H   0  0  0  0  0  0  0  0  0  0  0  0
  149.1640  140.5295  156.1552 H   0  0  0  0  0  0  0  0  0  0  0  0
  149.5956  143.2640  156.7140 H   0  0  0  0  0  0  0  0  0  0  0  0
  1 10  2  0  0  0  0
  1  2  1  0  0  0  0
  1 11  1  0  0  0  0
  2  3  2  0  0  0  0
  3  4  1  0  0  0  0
  3 12  1  0  0  0  0
  4  5  1  0  0  0  0
  4 10  1  0  0  0  0
  5  9  1  0  0  0  0
  5  6  1  0  0  0  0
  5 13  1  0  0  0  0
  6  7  1  0  0  0  0
  6 14  1  0  0  0  0
  6 15  1  0  0  0  0
  7  8  1  0  0  0  0
  7 16  1  0  0  0  0
  7 17  1  0  0  0  0
  8  9  1  0  0  0  0
  8 18  1  0  0  0  0
  8 21  1  0  0  0  0
  9 19  1  0  0  0  0
  9 20  1  0  0  0  0
M  CHG  1   8   1
M  END
> <s_m_source_file>
AV-unprocessed.smi

> <i_m_source_file_index>
3070

> <i_lp_mmshare_version>
43012

> <i_f3d_flags>
0

> <s_epik_input>
bjFbY0hdbltjSF1uMVtDQEBIXTJbQ0gyXVtDSDJdW05IXVtDSDJdMg==

> <s_epik_cmdline>
J2VwaWtfcHl0aG9uJywgJy1waCcsICc3LjAnLCAnLXRuJywgJzgnLCAnLW1hJywgJzIwMCcsICctbWV0YWxfYmluZGluZycsICctaW1hZScsICc8aW5maWxlLm1hZT4nLCAnLW9tYWUnLCAnPG91dGZpbGUubWFlPic=

> <r_lp_tautomer_probability>
1

> <r_epik_Ionization_Penalty>
0.000421274

> <r_epik_Ionization_Penalty_Charging>
0.000420295

> <r_epik_Ionization_Penalty_Neutral>
9.79543e-07

> <r_epik_State_Penalty>
0.000258452

> <r_epik_Charging_Adjusted_Penalty>
0.000678746

> <i_epik_Tot_Q>
1

> <i_epik_Tot_abs_Q>
1

> <r_epik_Metal_State_Penalty>
-0

> <b_epik_Metal_Only>
0

> <s_lp_Force_Field>
OPLS_2005

> <r_lp_Energy>
29.098

> <b_lp_Chiralities_Consistent>
1

> <s_lp_Variant>
AV-unprocessed.smi:3070-1

> <Gold.Version>
5.8.1

> <Gold.Id.Protein>
6NUR|6NUR_protein|mol2

> <Gold.PLP.Fitness>
33.0840

> <Gold.PLP.PLP>
-19.3510

> <Gold.PLP.part.hbond>
-3.0000

> <Gold.PLP.part.metal>
0.0000

> <Gold.PLP.part.buried>
-2.4437

> <Gold.PLP.part.nonpolar>
-14.5584

> <Gold.PLP.part.repulsive>
0.2041

> <Gold.PLP.ligand.clash>
0.0000

> <Gold.PLP.ligand.torsion>
0.1106

> <Gold.PLP.Chemscore.Hbond>
3.6497

> <Gold.PLP.Chemscore.CHOScore>
1.0000

> <Gold.PLP.Chemscore.Metal>
0.0000

> <Gold.Chemscore.Hbonds>
donor molecule, donor type, donor heavy atom, donor atom, acceptor molecule, acceptor atom, score
      L1  H     8    21       P1  8028  2.00
      P1  H  7989  7998       L1    10  1.00
      P1  H 10752 10765       L1     2  0.65
      L1  C     1    11       P1  7949  1.00

> <Gold.PLP.Chemscore.Internal.Correction>
0.0050

> <Gold.Rescore>
     Score         DG    S(hbond)    S(metal)    S(lipo)     H(rot)  DE(clash)    DE(int)     intcor
     11.24     -11.34       1.56        0.00      27.41       1.00       0.02       0.09       ----

> <Gold.Chemscore.Fitness>
11.2362

> <Gold.Chemscore.DG>
-11.3432

> <Gold.Chemscore.ZeroCoef>
-5.4800

> <Gold.Chemscore.Hbond>
1.5619

> <Gold.Chemscore.Metal>
0.0000

> <Gold.Chemscore.Lipo>
27.4060

> <Gold.Chemscore.Internal_Hbond>
0.0000

> <Gold.Chemscore.DEClash>
0.0174

> <Gold.Chemscore.DEInternal>
0.0896

> <Gold.Chemscore.Rot>
1.0000

> <Gold.Chemscore.Internal.Correction>
   9.000000E+99

> <Gold.Chemscore.Hbonds>
donor molecule, donor type, donor heavy atom, donor atom, acceptor molecule, acceptor atom, score
      L1  H     8    21       P1  8028  0.98
      P1  H  7989  7998       L1    10  0.26
      P1  H 10752 10765       L1     2  0.28

> <Gold.Chemscore.Hbond.Weighted>
-5.2167

> <Gold.Chemscore.Metal.Weighted>
-0.0000

> <Gold.Chemscore.Lipo.Weighted>
-3.2065

> <Gold.Chemscore.Internal_Hbond.Weighted>
0.0000

> <Gold.Chemscore.DEClash.Weighted>
0.0174

> <Gold.Chemscore.DEInternal.Weighted>
0.0896

> <Gold.Chemscore.Rot.Weighted>
2.5600

> <Gold.Chemscore.Internal.Correction.Weighted>
   9.000000E+99

> <Gold.Protein.RotatedTorsions>
[ 6907 6896 6895 6894 ] final  -89.75 input  -60.11 | X-H torsion
[ 7974 7965 7964 7962 ] final   40.02 input  175.53 | X-H torsion
[ 8008 7997 7996 7995 ] final   67.09 input   59.86 | X-H torsion
[ 10167 10162 10161 10158 ] final   54.46 input  -65.29 | X-H torsion
[ 10718 10713 10712 10709 ] final  142.06 input   66.30 | X-H torsion
[ 10763 10752 10751 10750 ] final -173.69 input  -60.55 | X-H torsion
[ 11005 11000 10999 10996 ] final  112.53 input  -57.11 | X-H torsion

> <Gold.Protein.ActiveResidues>
 VAL166  LYS551  ARG553  GLY616  TRP617  ASP618  TYR619  PRO620  LYS621  CYS622 
 ASP623  PHE694  ASN695  SER759  ASP760  ASP761  ALA762  ILE779  LEU786  VAL792 
 PHE793  MET794  SER795  GLU796  ALA797  LYS798  CYS799  TRP800  GLU811  SER814 

> <Gold.Protein.RotatedAtoms>
  150.6876  134.2539  159.4521 H   0  0  0  0  0  0  0  0  0  0  0  0  # atno 6907 bound_to 6896
  152.0474  134.9672  160.0583 H   0  0  0  0  0  0  0  0  0  0  0  0  # atno 6908 bound_to 6896
  152.1149  133.4286  159.4685 H   0  0  0  0  0  0  0  0  0  0  0  0  # atno 6909 bound_to 6896
  146.0938  139.5583  142.9458 H   0  0  0  0  0  0  0  0  0  0  0  0  # atno 7974 bound_to 7965
  155.6875  140.3496  155.4880 H   0  0  0  0  0  0  0  0  0  0  0  0  # atno 8008 bound_to 7997
  155.9553  140.1127  157.0964 H   0  0  0  0  0  0  0  0  0  0  0  0  # atno 8009 bound_to 7997
  154.4131  140.1186  156.5093 H   0  0  0  0  0  0  0  0  0  0  0  0  # atno 8010 bound_to 7997
  140.2299  144.3698  150.6418 H   0  0  0  0  0  0  0  0  0  0  0  0  # atno 10167 bound_to 10162
  157.3849  131.0997  151.0703 H   0  0  0  0  0  0  0  0  0  0  0  0  # atno 10718 bound_to 10713
  154.6049  135.2858  155.0495 H   0  0  0  0  0  0  0  0  0  0  0  0  # atno 10763 bound_to 10752
  154.1747  135.6467  153.5022 H   0  0  0  0  0  0  0  0  0  0  0  0  # atno 10764 bound_to 10752
  153.0171  135.5409  154.6781 H   0  0  0  0  0  0  0  0  0  0  0  0  # atno 10765 bound_to 10752
  139.8929  134.9531  156.6599 H   0  0  0  0  0  0  0  0  0  0  0  0  # atno 11005 bound_to 11000
  145.5987  141.0358  143.2030 LP  0  0  0  0  0  0  0  0  0  0  0  0  # atno 17320 bound_to 7965
  144.7380  139.7529  143.7322 LP  0  0  0  0  0  0  0  0  0  0  0  0  # atno 17321 bound_to 7965
  140.6193  143.2175  151.6728 LP  0  0  0  0  0  0  0  0  0  0  0  0  # atno 17342 bound_to 10162
  139.5114  144.3512  152.0650 LP  0  0  0  0  0  0  0  0  0  0  0  0  # atno 17343 bound_to 10162
  157.1758  130.6287  149.5655 LP  0  0  0  0  0  0  0  0  0  0  0  0  # atno 17370 bound_to 10713
  155.9784  130.4770  150.6654 LP  0  0  0  0  0  0  0  0  0  0  0  0  # atno 17371 bound_to 10713
  140.7455  133.8941  155.8309 LP  0  0  0  0  0  0  0  0  0  0  0  0  # atno 17394 bound_to 11000
  141.0043  134.1107  157.4286 LP  0  0  0  0  0  0  0  0  0  0  0  0  # atno 17395 bound_to 11000

$$$$
