AV-unprocessed.smi:2862|AV-procd|sdf|11010|dock2
  -GOLD-   2272015473D 1   1.00000     0.00000
 Structure written by MMmdl.
 52 54  0  0  0  0  0  0  0  0  1 V2000
  144.3028  136.8707  152.6176 C   0  0  0  0  0  0  0  0  0  0  0  0
  145.5855  136.0281  152.6944 C   0  0  2  0  0  0  0  0  0  0  0  0
  146.7416  136.8928  152.8906 N   0  0  0  0  0  0  0  0  0  0  0  0
  146.8060  137.9722  153.6892 C   0  0  0  0  0  0  0  0  0  0  0  0
  145.8373  138.3983  154.3164 O   0  0  0  0  0  0  0  0  0  0  0  0
  148.1641  138.6860  153.8262 C   0  0  0  0  0  0  0  0  0  0  0  0
  148.6358  138.8371  155.2163 N   0  0  0  0  0  0  0  0  0  0  0  0
  147.8123  138.3034  156.2282 C   0  0  0  0  0  0  0  0  0  0  0  0
  148.1064  138.4335  157.5309 C   0  0  0  0  0  0  0  0  0  0  0  0
  149.3024  139.1533  157.8938 C   0  0  0  0  0  0  0  0  0  0  0  0
  150.0909  139.6833  156.9319 C   0  0  0  0  0  0  0  0  0  0  0  0
  151.3336  140.3967  157.2452 C   0  0  0  0  0  0  0  0  0  0  0  0
  152.4311  140.0266  156.8243 O   0  0  0  0  0  0  0  0  0  0  0  0
  151.2009  141.4865  158.0557 N   0  0  0  0  0  0  0  0  0  0  0  0
  149.9239  142.1944  158.2550 C   0  0  0  0  0  0  0  0  0  0  0  0
  152.3574  142.1655  158.6807 C   0  0  1  0  0  0  0  0  0  0  0  0
  152.4091  143.6638  158.3197 C   0  0  0  0  0  0  0  0  0  0  0  0
  152.4796  141.9543  160.1840 C   0  0  0  0  0  0  0  0  0  0  0  0
  152.7898  143.1070  161.1084 C   0  0  0  0  0  0  0  0  0  0  0  0
  153.8191  142.0231  160.8761 C   0  0  0  0  0  0  0  0  0  0  0  0
  149.7986  139.5079  155.4923 C   0  0  0  0  0  0  0  0  0  0  0  0
  150.5052  139.9525  154.5831 O   0  0  0  0  0  0  0  0  0  0  0  0
  145.7382  135.1582  151.4611 C   0  0  0  0  0  0  0  0  0  0  0  0
  144.6455  135.0665  150.4240 C   0  0  0  0  0  0  0  0  0  0  0  0
  144.9525  133.8785  151.3097 C   0  0  0  0  0  0  0  0  0  0  0  0
  143.4252  136.2357  152.4937 H   0  0  0  0  0  0  0  0  0  0  0  0
  144.3330  137.5632  151.7759 H   0  0  0  0  0  0  0  0  0  0  0  0
  144.1567  137.4563  153.5258 H   0  0  0  0  0  0  0  0  0  0  0  0
  145.5045  135.3617  153.5553 H   0  0  0  0  0  0  0  0  0  0  0  0
  147.5865  136.6223  152.4087 H   0  0  0  0  0  0  0  0  0  0  0  0
  148.8949  138.1340  153.2336 H   0  0  0  0  0  0  0  0  0  0  0  0
  148.0943  139.6630  153.3447 H   0  0  0  0  0  0  0  0  0  0  0  0
  146.9273  137.7912  155.8792 H   0  0  0  0  0  0  0  0  0  0  0  0
  147.4583  138.0193  158.2892 H   0  0  0  0  0  0  0  0  0  0  0  0
  149.5585  139.2612  158.9382 H   0  0  0  0  0  0  0  0  0  0  0  0
  149.2517  142.0992  157.4010 H   0  0  0  0  0  0  0  0  0  0  0  0
  150.0679  143.2669  158.3901 H   0  0  0  0  0  0  0  0  0  0  0  0
  149.4138  141.8154  159.1409 H   0  0  0  0  0  0  0  0  0  0  0  0
  153.2664  141.7526  158.2400 H   0  0  0  0  0  0  0  0  0  0  0  0
  153.3528  144.1049  158.6418 H   0  0  0  0  0  0  0  0  0  0  0  0
  151.6112  144.2349  158.7937 H   0  0  0  0  0  0  0  0  0  0  0  0
  152.3324  143.8109  157.2420 H   0  0  0  0  0  0  0  0  0  0  0  0
  151.7810  141.2233  160.5856 H   0  0  0  0  0  0  0  0  0  0  0  0
  152.9778  144.0814  160.6616 H   0  0  0  0  0  0  0  0  0  0  0  0
  152.2867  143.1254  162.0731 H   0  0  0  0  0  0  0  0  0  0  0  0
  154.0010  141.3173  161.6839 H   0  0  0  0  0  0  0  0  0  0  0  0
  154.6897  142.2786  160.2756 H   0  0  0  0  0  0  0  0  0  0  0  0
  146.7557  135.1303  151.0747 H   0  0  0  0  0  0  0  0  0  0  0  0
  143.7188  135.6055  150.6120 H   0  0  0  0  0  0  0  0  0  0  0  0
  144.9478  135.0083  149.3803 H   0  0  0  0  0  0  0  0  0  0  0  0
  145.4627  133.0294  150.8593 H   0  0  0  0  0  0  0  0  0  0  0  0
  144.2323  133.6312  152.0873 H   0  0  0  0  0  0  0  0  0  0  0  0
  1  2  1  0  0  0  0
  1 26  1  0  0  0  0
  1 27  1  0  0  0  0
  1 28  1  0  0  0  0
  2  3  1  0  0  0  0
  2 23  1  0  0  0  0
  2 29  1  0  0  0  0
  3  4  1  0  0  0  0
  3 30  1  0  0  0  0
  4  5  2  0  0  0  0
  4  6  1  0  0  0  0
  6  7  1  0  0  0  0
  6 31  1  0  0  0  0
  6 32  1  0  0  0  0
  7 21  1  0  0  0  0
  7  8  1  0  0  0  0
  8  9  2  0  0  0  0
  8 33  1  0  0  0  0
  9 10  1  0  0  0  0
  9 34  1  0  0  0  0
 10 11  2  0  0  0  0
 10 35  1  0  0  0  0
 11 12  1  0  0  0  0
 11 21  1  0  0  0  0
 12 13  2  0  0  0  0
 12 14  1  0  0  0  0
 14 15  1  0  0  0  0
 14 16  1  0  0  0  0
 15 36  1  0  0  0  0
 15 37  1  0  0  0  0
 15 38  1  0  0  0  0
 16 17  1  0  0  0  0
 16 18  1  0  0  0  0
 16 39  1  0  0  0  0
 17 40  1  0  0  0  0
 17 41  1  0  0  0  0
 17 42  1  0  0  0  0
 18 20  1  0  0  0  0
 18 19  1  0  0  0  0
 18 43  1  0  0  0  0
 19 20  1  0  0  0  0
 19 44  1  0  0  0  0
 19 45  1  0  0  0  0
 20 46  1  0  0  0  0
 20 47  1  0  0  0  0
 21 22  2  0  0  0  0
 23 25  1  0  0  0  0
 23 24  1  0  0  0  0
 23 48  1  0  0  0  0
 24 25  1  0  0  0  0
 24 49  1  0  0  0  0
 24 50  1  0  0  0  0
 25 51  1  0  0  0  0
 25 52  1  0  0  0  0
M  END
> <s_m_source_file>
AV-unprocessed.smi

> <i_m_source_file_index>
2862

> <i_lp_mmshare_version>
43012

> <i_f3d_flags>
0

> <s_epik_input>
W0NIMl0xW0NIMl1bQ0hdMVtDQEhdKFtDSDNdKVtOSF1DKD1PKVtDSDJdbjJbY0hdW2NIXVtjSF1jKGMyPU8pQyg9TylOKFtDSDNdKVtDQEhdKFtDSDNdKVtDSF0zW0NIMl1bQ0gyXTM=

> <s_epik_cmdline>
J2VwaWtfcHl0aG9uJywgJy1waCcsICc3LjAnLCAnLXRuJywgJzgnLCAnLW1hJywgJzIwMCcsICctbWV0YWxfYmluZGluZycsICctaW1hZScsICc8aW5maWxlLm1hZT4nLCAnLW9tYWUnLCAnPG91dGZpbGUubWFlPic=

> <r_lp_tautomer_probability>
1

> <r_epik_Ionization_Penalty>
4.00841e-08

> <r_epik_Ionization_Penalty_Charging>
2.07773e-08

> <r_epik_Ionization_Penalty_Neutral>
1.93069e-08

> <r_epik_State_Penalty>
-0

> <r_epik_Charging_Adjusted_Penalty>
2.07773e-08

> <i_epik_Tot_Q>
0

> <i_epik_Tot_abs_Q>
0

> <r_epik_Metal_State_Penalty>
-0

> <b_epik_Metal_Only>
0

> <s_lp_Force_Field>
OPLS_2005

> <r_lp_Energy>
59.7867

> <b_lp_Chiralities_Consistent>
1

> <s_lp_Variant>
AV-unprocessed.smi:2862-3

> <Gold.Version>
5.8.1

> <Gold.Id.Protein>
6NUR|6NUR_protein|mol2

> <Gold.PLP.Fitness>
48.8774

> <Gold.PLP.PLP>
-42.2954

> <Gold.PLP.part.hbond>
-3.0000

> <Gold.PLP.part.metal>
0.0000

> <Gold.PLP.part.buried>
-4.4462

> <Gold.PLP.part.nonpolar>
-34.5565

> <Gold.PLP.part.repulsive>
0.2383

> <Gold.PLP.ligand.clash>
0.0000

> <Gold.PLP.ligand.torsion>
3.5233

> <Gold.PLP.Chemscore.Hbond>
3.0000

> <Gold.PLP.Chemscore.CHOScore>
0.0000

> <Gold.PLP.Chemscore.Metal>
0.0000

> <Gold.Chemscore.Hbonds>
donor molecule, donor type, donor heavy atom, donor atom, acceptor molecule, acceptor atom, score
      L1  H     3    30       P1  7948  0.96
      P1  H  7989  7998       L1    22  1.00
      P1  H  7997  8009       L1    13  1.00

> <Gold.PLP.Chemscore.Internal.Correction>
4.6285

> <Gold.Rescore>
     Score         DG    S(hbond)    S(metal)    S(lipo)     H(rot)  DE(clash)    DE(int)     intcor
     15.42     -22.35       2.96        0.00      97.54       1.73       0.18       6.75       ----

> <Gold.Chemscore.Fitness>
15.4233

> <Gold.Chemscore.DG>
-22.3499

> <Gold.Chemscore.ZeroCoef>
-5.4800

> <Gold.Chemscore.Hbond>
2.9637

> <Gold.Chemscore.Metal>
0.0000

> <Gold.Chemscore.Lipo>
97.5417

> <Gold.Chemscore.Internal_Hbond>
0.0000

> <Gold.Chemscore.DEClash>
0.1790

> <Gold.Chemscore.DEInternal>
6.7476

> <Gold.Chemscore.Rot>
1.7348

> <Gold.Chemscore.Internal.Correction>
   9.000000E+99

> <Gold.Chemscore.Hbonds>
donor molecule, donor type, donor heavy atom, donor atom, acceptor molecule, acceptor atom, score
      L1  H     3    30       P1  7948  0.91
      P1  H  7989  7998       L1    22  1.00
      P1  H  7997  8009       L1    13  0.97

> <Gold.Chemscore.Hbond.Weighted>
-9.8987

> <Gold.Chemscore.Metal.Weighted>
-0.0000

> <Gold.Chemscore.Lipo.Weighted>
-11.4124

> <Gold.Chemscore.Internal_Hbond.Weighted>
0.0000

> <Gold.Chemscore.DEClash.Weighted>
0.1790

> <Gold.Chemscore.DEInternal.Weighted>
6.7476

> <Gold.Chemscore.Rot.Weighted>
4.4412

> <Gold.Chemscore.Internal.Correction.Weighted>
   9.000000E+99

> <Gold.Protein.RotatedTorsions>
[ 6907 6896 6895 6894 ] final  144.66 input  -60.11 | X-H torsion
[ 7974 7965 7964 7962 ] final   34.53 input  175.53 | X-H torsion
[ 8008 7997 7996 7995 ] final -164.49 input   59.86 | X-H torsion
[ 10167 10162 10161 10158 ] final  -63.29 input  -65.29 | X-H torsion
[ 10718 10713 10712 10709 ] final  -17.13 input   66.30 | X-H torsion
[ 10763 10752 10751 10750 ] final   48.15 input  -60.55 | X-H torsion
[ 11005 11000 10999 10996 ] final   32.15 input  -57.11 | X-H torsion

> <Gold.Protein.ActiveResidues>
 VAL166  LYS551  ARG553  GLY616  TRP617  ASP618  TYR619  PRO620  LYS621  CYS622 
 ASP623  PHE694  ASN695  SER759  ASP760  ASP761  ALA762  ILE779  LEU786  VAL792 
 PHE793  MET794  SER795  GLU796  ALA797  LYS798  CYS799  TRP800  GLU811  SER814 

> <Gold.Protein.RotatedAtoms>
  152.1908  133.4772  159.5006 H   0  0  0  0  0  0  0  0  0  0  0  0  # atno 6907 bound_to 6896
  150.6951  134.1715  159.4223 H   0  0  0  0  0  0  0  0  0  0  0  0  # atno 6908 bound_to 6896
  151.9629  135.0114  160.0599 H   0  0  0  0  0  0  0  0  0  0  0  0  # atno 6909 bound_to 6896
  146.1347  139.6258  142.9203 H   0  0  0  0  0  0  0  0  0  0  0  0  # atno 7974 bound_to 7965
  155.8364  140.0941  157.1761 H   0  0  0  0  0  0  0  0  0  0  0  0  # atno 8008 bound_to 7997
  154.3981  140.1409  156.3736 H   0  0  0  0  0  0  0  0  0  0  0  0  # atno 8009 bound_to 7997
  155.8111  140.3449  155.5461 H   0  0  0  0  0  0  0  0  0  0  0  0  # atno 8010 bound_to 7997
  140.5881  143.2337  151.6199 H   0  0  0  0  0  0  0  0  0  0  0  0  # atno 10167 bound_to 10162
  156.5778  130.4766  149.6334 H   0  0  0  0  0  0  0  0  0  0  0  0  # atno 10718 bound_to 10713
  152.9794  135.5953  154.3878 H   0  0  0  0  0  0  0  0  0  0  0  0  # atno 10763 bound_to 10752
  154.3537  135.2767  155.2360 H   0  0  0  0  0  0  0  0  0  0  0  0  # atno 10764 bound_to 10752
  154.4388  135.6018  153.6171 H   0  0  0  0  0  0  0  0  0  0  0  0  # atno 10765 bound_to 10752
  140.2764  134.3023  155.7813 H   0  0  0  0  0  0  0  0  0  0  0  0  # atno 11005 bound_to 11000
  145.5183  141.0433  143.2449 LP  0  0  0  0  0  0  0  0  0  0  0  0  # atno 17320 bound_to 7965
  144.7727  139.6699  143.7188 LP  0  0  0  0  0  0  0  0  0  0  0  0  # atno 17321 bound_to 7965
  139.5210  144.3206  152.0914 LP  0  0  0  0  0  0  0  0  0  0  0  0  # atno 17342 bound_to 10162
  140.2366  144.4313  150.6277 LP  0  0  0  0  0  0  0  0  0  0  0  0  # atno 17343 bound_to 10162
  156.2658  130.6988  151.1771 LP  0  0  0  0  0  0  0  0  0  0  0  0  # atno 17370 bound_to 10713
  157.7333  131.0592  150.5581 LP  0  0  0  0  0  0  0  0  0  0  0  0  # atno 17371 bound_to 10713
  141.2169  133.7498  156.9414 LP  0  0  0  0  0  0  0  0  0  0  0  0  # atno 17394 bound_to 11000
  140.1324  134.9347  157.2355 LP  0  0  0  0  0  0  0  0  0  0  0  0  # atno 17395 bound_to 11000

$$$$
