#       Name:                AV-unprocessed.smi:1297
#       Creating user name   scv26
#       Creation time:       Fri Mar 27 04:57:26 2020


#       File generated by GOLD software.
#

@<TRIPOS>MOLECULE
AV-unprocessed.smi:1297
    30    31     1
SMALL
NO_CHARGES


@<TRIPOS>ATOM
      1 ****        -3.0839   1.8809   2.2222 C.3            1 S1                 0.0000
      2 ****        -2.6751   1.2121   0.5844 S.3            1 S1                 0.0000
      3 ****        -0.9235   1.0189   0.7531 C.2            1 S1                 0.0000
      4 ****        -0.2308   1.3352   1.8520 N.2            1 S1                 0.0000
      5 ****         1.0831   1.0491   1.5618 N.2            1 S1                 0.0000
      6 ****         1.0728   0.5643   0.3188 C.2            1 S1                 0.0000
      7 ****         2.3099   0.1531  -0.4161 C.3            1 S1                 0.0000
      8 ****         2.6147  -1.3066  -0.6699 C.3            1 S1                 0.0000
      9 ****         3.4630  -0.5223   0.2954 C.3            1 S1                 0.0000
     10 ****        -0.1531   0.5337  -0.2451 N.pl3          1 S1                 0.0000
     11 ****        -0.5374   0.1008  -1.5845 C.3            1 S1                 0.0000
     12 ****        -0.8514  -1.3969  -1.6359 C.2            1 S1                 0.0000
     13 ****        -1.9489  -1.8190  -1.0030 N.am           1 S1                 0.0000
     14 ****        -0.1161  -2.1645  -2.2521 O.2            1 S1                 0.0000
     15 ****        -4.1569   2.0582   2.2935 H              1 S1                 0.0000
     16 ****        -2.5703   2.8278   2.3910 H              1 S1                 0.0000
     17 ****        -2.8008   1.1799   3.0080 H              1 S1                 0.0000
     18 ****         2.5483   0.8695  -1.1998 H              1 S1                 0.0000
     19 ****         1.9390  -2.0479  -0.2480 H              1 S1                 0.0000
     20 ****         3.0515  -1.5668  -1.6317 H              1 S1                 0.0000
     21 ****         4.4703  -0.2590  -0.0205 H              1 S1                 0.0000
     22 ****         3.3505  -0.7475   1.3543 H              1 S1                 0.0000
     23 ****        -1.4026   0.6728  -1.9202 H              1 S1                 0.0000
     24 ****         0.2707   0.3330  -2.2791 H              1 S1                 0.0000
     25 ****        -2.1922  -2.7993  -1.0134 H              1 S1                 0.0000
     26 ****        -2.5333  -1.1551  -0.5159 H              1 S1                 0.0000
     27 ****        -0.5930   1.7037   2.7082 LP             1 S1                 0.0000
     28 ****         1.8771   1.1772   2.1561 LP             1 S1                 0.0000
     29 ****         0.6924  -1.8121  -2.7234 LP             1 S1                 0.0000
     30 ****        -0.3260  -3.1418  -2.2823 LP             1 S1                 0.0000
@<TRIPOS>BOND
    1    1    2 1     
    2    1   15 1     
    3    1   16 1     
    4    1   17 1     
    5    2    3 1     
    6    3   10 1     
    7    3    4 2     
    8    4    5 1     
    9    5    6 2     
   10    6    7 1     
   11    6   10 1     
   12    7    9 1     
   13    7    8 1     
   14    7   18 1     
   15    8    9 1     
   16    8   19 1     
   17    8   20 1     
   18    9   21 1     
   19    9   22 1     
   20   10   11 1     
   21   11   12 1     
   22   11   23 1     
   23   11   24 1     
   24   12   13 am    
   25   12   14 2     
   26   13   25 1     
   27   13   26 1     
   28    4   27 1     
   29    5   28 1     
   30   14   29 1     
   31   14   30 1     
@<TRIPOS>SUBSTRUCTURE
      1 S1             1
@<TRIPOS>SET
LONE_PAIRS      STATIC     ATOMS    <user>   **** ""
4 27 28 29 30
DONOR_HYDROGENS      STATIC     ATOMS    <user>   **** ""
2 25 26
ATOM$BLUE        STATIC     ATOMS    COLORGROUP SYSTEM
4 27 28 29 30
ATOM$RED        STATIC     ATOMS    COLORGROUP SYSTEM
2 25 26
