AV-unprocessed.smi:3152|AV-procd|sdf|12018|dock6
  -GOLD-   2272017433D 1   1.00000     0.00000
 Structure written by MMmdl.
 40 41  0  0  0  0  0  0  0  0  1 V2000
  146.8913  142.5190  154.2209 C   0  0  0  0  0  0  0  0  0  0  0  0
  148.1594  141.7452  154.4414 C   0  0  0  0  0  0  0  0  0  0  0  0
  148.7586  140.7847  153.5775 C   0  0  0  0  0  0  0  0  0  0  0  0
  149.8821  140.2840  154.0651 N   0  0  0  0  0  0  0  0  0  0  0  0
  150.0392  140.9040  155.2538 N   0  0  0  0  0  0  0  0  0  0  0  0
  151.1910  140.5976  156.0793 C   0  0  0  0  0  0  0  0  0  0  0  0
  151.1897  141.4189  157.3755 C   0  0  0  0  0  0  0  0  0  0  0  0
  152.1421  140.8764  158.3375 N   0  0  0  0  0  0  0  0  0  0  0  0
  151.9636  141.4004  159.6904 C   0  0  0  0  0  0  0  0  0  0  0  0
  153.0342  142.4553  160.0667 C   0  0  0  0  0  0  0  0  0  0  0  0
  154.2731  141.7744  160.1395 O   0  0  0  0  0  0  0  0  0  0  0  0
  153.1883  143.5147  158.9496 C   0  0  0  0  0  0  0  0  0  0  0  0
  151.9957  144.4869  158.8833 C   0  0  0  0  0  0  0  0  0  0  0  0
  151.7411  145.1569  160.2424 C   0  0  0  0  0  0  0  0  0  0  0  0
  151.5687  144.1136  161.3573 C   0  0  0  0  0  0  0  0  0  0  0  0
  152.7778  143.1648  161.4194 C   0  0  0  0  0  0  0  0  0  0  0  0
  149.0152  141.7919  155.5055 C   0  0  0  0  0  0  0  0  0  0  0  0
  146.2051  141.9912  153.5583 H   0  0  0  0  0  0  0  0  0  0  0  0
  147.0890  143.4918  153.7703 H   0  0  0  0  0  0  0  0  0  0  0  0
  146.3592  142.6984  155.1552 H   0  0  0  0  0  0  0  0  0  0  0  0
  148.4124  140.4396  152.6146 H   0  0  0  0  0  0  0  0  0  0  0  0
  151.1813  139.5305  156.3050 H   0  0  0  0  0  0  0  0  0  0  0  0
  152.0965  140.7911  155.5020 H   0  0  0  0  0  0  0  0  0  0  0  0
  151.4420  142.4557  157.1490 H   0  0  0  0  0  0  0  0  0  0  0  0
  150.1875  141.4258  157.8058 H   0  0  0  0  0  0  0  0  0  0  0  0
  153.0897  141.0668  158.0266 H   0  0  0  0  0  0  0  0  0  0  0  0
  150.9717  141.8438  159.7873 H   0  0  0  0  0  0  0  0  0  0  0  0
  151.9925  140.5711  160.3966 H   0  0  0  0  0  0  0  0  0  0  0  0
  154.2210  141.1301  160.8286 H   0  0  0  0  0  0  0  0  0  0  0  0
  154.0949  144.0973  159.1225 H   0  0  0  0  0  0  0  0  0  0  0  0
  153.3230  143.0292  157.9820 H   0  0  0  0  0  0  0  0  0  0  0  0
  152.1856  145.2494  158.1274 H   0  0  0  0  0  0  0  0  0  0  0  0
  151.0984  143.9589  158.5604 H   0  0  0  0  0  0  0  0  0  0  0  0
  152.5770  145.8141  160.4857 H   0  0  0  0  0  0  0  0  0  0  0  0
  150.8562  145.7914  160.1852 H   0  0  0  0  0  0  0  0  0  0  0  0
  151.4451  144.6167  162.3166 H   0  0  0  0  0  0  0  0  0  0  0  0
  150.6553  143.5414  161.1914 H   0  0  0  0  0  0  0  0  0  0  0  0
  152.6430  142.4426  162.2250 H   0  0  0  0  0  0  0  0  0  0  0  0
  153.6583  143.7482  161.6934 H   0  0  0  0  0  0  0  0  0  0  0  0
  148.9817  142.3791  156.4116 H   0  0  0  0  0  0  0  0  0  0  0  0
  1  2  1  0  0  0  0
  1 18  1  0  0  0  0
  1 19  1  0  0  0  0
  1 20  1  0  0  0  0
  2 17  2  0  0  0  0
  2  3  1  0  0  0  0
  3  4  2  0  0  0  0
  3 21  1  0  0  0  0
  4  5  1  0  0  0  0
  5  6  1  0  0  0  0
  5 17  1  0  0  0  0
  6  7  1  0  0  0  0
  6 22  1  0  0  0  0
  6 23  1  0  0  0  0
  7  8  1  0  0  0  0
  7 24  1  0  0  0  0
  7 25  1  0  0  0  0
  8  9  1  0  0  0  0
  8 26  1  0  0  0  0
  9 10  1  0  0  0  0
  9 27  1  0  0  0  0
  9 28  1  0  0  0  0
 10 16  1  0  0  0  0
 10 11  1  0  0  0  0
 10 12  1  0  0  0  0
 11 29  1  0  0  0  0
 12 13  1  0  0  0  0
 12 30  1  0  0  0  0
 12 31  1  0  0  0  0
 13 14  1  0  0  0  0
 13 32  1  0  0  0  0
 13 33  1  0  0  0  0
 14 15  1  0  0  0  0
 14 34  1  0  0  0  0
 14 35  1  0  0  0  0
 15 16  1  0  0  0  0
 15 36  1  0  0  0  0
 15 37  1  0  0  0  0
 16 38  1  0  0  0  0
 16 39  1  0  0  0  0
 17 40  1  0  0  0  0
M  END
> <s_m_source_file>
AV-unprocessed.smi

> <i_m_source_file_index>
3152

> <i_lp_mmshare_version>
43012

> <i_f3d_flags>
0

> <s_epik_input>
W0NIM11jMVtjSF1ubihbY0hdMSlbQ0gyXVtDSDJdW05IXVtDSDJdQzIoW09IXSlbQ0gyXVtDSDJdW0NIMl1bQ0gyXVtDSDJdMg==

> <s_epik_cmdline>
J2VwaWtfcHl0aG9uJywgJy1waCcsICc3LjAnLCAnLXRuJywgJzgnLCAnLW1hJywgJzIwMCcsICctbWV0YWxfYmluZGluZycsICctaW1hZScsICc8aW5maWxlLm1hZT4nLCAnLW9tYWUnLCAnPG91dGZpbGUubWFlPic=

> <r_lp_tautomer_probability>
1

> <r_epik_Ionization_Penalty>
1.91403

> <r_epik_Ionization_Penalty_Charging>
0

> <r_epik_Ionization_Penalty_Neutral>
1.91403

> <r_epik_State_Penalty>
2.0334

> <r_epik_Charging_Adjusted_Penalty>
2.0334

> <i_epik_Tot_Q>
0

> <i_epik_Tot_abs_Q>
0

> <r_epik_Metal_State_Penalty>
2.03082

> <b_epik_Metal_Only>
0

> <s_lp_Force_Field>
OPLS_2005

> <r_lp_Energy>
20.9393

> <b_lp_Chiralities_Consistent>
1

> <s_lp_Variant>
AV-unprocessed.smi:3152-2

> <Gold.Version>
5.8.1

> <Gold.Id.Protein>
6NUR|6NUR_protein|mol2

> <Gold.PLP.Fitness>
47.1224

> <Gold.PLP.PLP>
-42.9387

> <Gold.PLP.part.hbond>
-1.0000

> <Gold.PLP.part.metal>
0.0000

> <Gold.PLP.part.buried>
-0.8347

> <Gold.PLP.part.nonpolar>
-42.2111

> <Gold.PLP.part.repulsive>
1.1779

> <Gold.PLP.ligand.clash>
0.0000

> <Gold.PLP.ligand.torsion>
0.4729

> <Gold.PLP.Chemscore.Hbond>
0.4203

> <Gold.PLP.Chemscore.CHOScore>
1.2815

> <Gold.PLP.Chemscore.Metal>
0.0000

> <Gold.Chemscore.Hbonds>
donor molecule, donor type, donor heavy atom, donor atom, acceptor molecule, acceptor atom, score
      P1  H  7989  7998       L1     4  0.48
      L1  C     3    21       P1  7957  0.62
      L1  C    17    40       P1  8028  0.51

> <Gold.PLP.Chemscore.Internal.Correction>
0.0241

> <Gold.Rescore>
     Score         DG    S(hbond)    S(metal)    S(lipo)     H(rot)  DE(clash)    DE(int)     intcor
     13.31     -14.07       0.00        0.00     119.10       2.09       0.27       0.49       ----

> <Gold.Chemscore.Fitness>
13.3054

> <Gold.Chemscore.DG>
-14.0701

> <Gold.Chemscore.ZeroCoef>
-5.4800

> <Gold.Chemscore.Hbond>
0.0003

> <Gold.Chemscore.Metal>
0.0000

> <Gold.Chemscore.Lipo>
119.1049

> <Gold.Chemscore.Internal_Hbond>
0.0000

> <Gold.Chemscore.DEClash>
0.2739

> <Gold.Chemscore.DEInternal>
0.4908

> <Gold.Chemscore.Rot>
2.0883

> <Gold.Chemscore.Internal.Correction>
   9.000000E+99

> <Gold.Chemscore.Hbonds>
donor molecule, donor type, donor heavy atom, donor atom, acceptor molecule, acceptor atom, score
      P1  H  7989  7998       L1     4  0.03

> <Gold.Chemscore.Hbond.Weighted>
-0.0009

> <Gold.Chemscore.Metal.Weighted>
-0.0000

> <Gold.Chemscore.Lipo.Weighted>
-13.9353

> <Gold.Chemscore.Internal_Hbond.Weighted>
0.0000

> <Gold.Chemscore.DEClash.Weighted>
0.2739

> <Gold.Chemscore.DEInternal.Weighted>
0.4908

> <Gold.Chemscore.Rot.Weighted>
5.3461

> <Gold.Chemscore.Internal.Correction.Weighted>
   9.000000E+99

> <Gold.Protein.RotatedTorsions>
[ 6907 6896 6895 6894 ] final -139.38 input  -60.11 | X-H torsion
[ 7974 7965 7964 7962 ] final  -78.45 input  175.53 | X-H torsion
[ 8008 7997 7996 7995 ] final  -13.04 input   59.86 | X-H torsion
[ 10167 10162 10161 10158 ] final   71.56 input  -65.29 | X-H torsion
[ 10718 10713 10712 10709 ] final   91.09 input   66.30 | X-H torsion
[ 10763 10752 10751 10750 ] final  -86.00 input  -60.55 | X-H torsion
[ 11005 11000 10999 10996 ] final   69.98 input  -57.11 | X-H torsion

> <Gold.Protein.ActiveResidues>
 VAL166  LYS551  ARG553  GLY616  TRP617  ASP618  TYR619  PRO620  LYS621  CYS622 
 ASP623  PHE694  ASN695  SER759  ASP760  ASP761  ALA762  ILE779  LEU786  VAL792 
 PHE793  MET794  SER795  GLU796  ALA797  LYS798  CYS799  TRP800  GLU811  SER814 

> <Gold.Protein.RotatedAtoms>
  151.0471  133.5656  159.2645 H   0  0  0  0  0  0  0  0  0  0  0  0  # atno 6907 bound_to 6896
  151.2681  135.0675  159.9133 H   0  0  0  0  0  0  0  0  0  0  0  0  # atno 6908 bound_to 6896
  152.5375  134.0205  159.8033 H   0  0  0  0  0  0  0  0  0  0  0  0  # atno 6909 bound_to 6896
  145.5863  140.9438  143.1317 H   0  0  0  0  0  0  0  0  0  0  0  0  # atno 7974 bound_to 7965
  154.5326  140.2260  155.8779 H   0  0  0  0  0  0  0  0  0  0  0  0  # atno 8008 bound_to 7997
  156.1779  140.3107  155.9056 H   0  0  0  0  0  0  0  0  0  0  0  0  # atno 8009 bound_to 7997
  155.3421  140.0451  157.3035 H   0  0  0  0  0  0  0  0  0  0  0  0  # atno 8010 bound_to 7997
  140.0448  144.5360  150.7407 H   0  0  0  0  0  0  0  0  0  0  0  0  # atno 10167 bound_to 10162
  157.6960  131.0394  150.3676 H   0  0  0  0  0  0  0  0  0  0  0  0  # atno 10718 bound_to 10713
  154.6174  135.5465  153.7539 H   0  0  0  0  0  0  0  0  0  0  0  0  # atno 10763 bound_to 10752
  153.0223  135.6404  154.1490 H   0  0  0  0  0  0  0  0  0  0  0  0  # atno 10764 bound_to 10752
  154.1425  135.2907  155.3137 H   0  0  0  0  0  0  0  0  0  0  0  0  # atno 10765 bound_to 10752
  139.9623  134.7040  156.0620 H   0  0  0  0  0  0  0  0  0  0  0  0  # atno 11005 bound_to 11000
  144.7371  139.7554  143.7325 LP  0  0  0  0  0  0  0  0  0  0  0  0  # atno 17320 bound_to 7965
  146.1680  139.4819  142.9946 LP  0  0  0  0  0  0  0  0  0  0  0  0  # atno 17321 bound_to 7965
  140.7244  143.2620  151.4172 LP  0  0  0  0  0  0  0  0  0  0  0  0  # atno 17342 bound_to 10162
  139.5990  144.1335  152.2177 LP  0  0  0  0  0  0  0  0  0  0  0  0  # atno 17343 bound_to 10162
  156.4105  130.3933  149.6895 LP  0  0  0  0  0  0  0  0  0  0  0  0  # atno 17370 bound_to 10713
  156.4181  130.7755  151.2771 LP  0  0  0  0  0  0  0  0  0  0  0  0  # atno 17371 bound_to 10713
  141.1301  133.6589  156.3441 LP  0  0  0  0  0  0  0  0  0  0  0  0  # atno 17394 bound_to 11000
  140.5473  134.6062  157.5397 LP  0  0  0  0  0  0  0  0  0  0  0  0  # atno 17395 bound_to 11000

$$$$
