AV-unprocessed.smi:1164|AV-procd|sdf|4927|dock4
  -GOLD-   22720 3513D 1   1.00000     0.00000
 Structure written by MMmdl.
 31 31  0  0  0  0  0  0  0  0  1 V2000
  150.8817  143.1096  158.4369 C   0  0  0  0  0  0  0  0  0  0  0  0
  152.2026  143.8526  158.7052 C   0  0  0  0  0  0  0  0  0  0  0  0
  151.8906  145.1854  159.4186 C   0  0  0  0  0  0  0  0  0  0  0  0
  153.1080  142.9644  159.5839 C   0  0  0  0  0  0  0  0  0  0  0  0
  152.8292  144.0933  157.3997 N   0  0  0  0  0  0  0  0  0  0  0  0
  153.2106  143.1937  156.4755 C   0  0  0  0  0  0  0  0  0  0  0  0
  153.0890  141.9760  156.6149 O   0  0  0  0  0  0  0  0  0  0  0  0
  153.8361  143.7827  155.2019 C   0  0  0  0  0  0  0  0  0  0  0  0
  155.1828  143.2699  154.9093 N   0  0  0  0  0  0  0  0  0  0  0  0
  156.0340  143.2619  156.0038 N   0  0  0  0  0  0  0  0  0  0  0  0
  157.2409  142.8235  155.8793 C   0  0  0  0  0  0  0  0  0  0  0  0
  158.0493  142.8319  156.9896 O   0  0  0  0  0  0  0  0  0  0  0  0
  157.7331  142.3366  154.6091 C   0  0  0  0  0  0  0  0  0  0  0  0
  156.8977  142.3522  153.5475 C   0  0  0  0  0  0  0  0  0  0  0  0
  155.5229  142.8447  153.6538 C   0  0  0  0  0  0  0  0  0  0  0  0
  154.7418  142.8732  152.7031 O   0  0  0  0  0  0  0  0  0  0  0  0
  158.8380  142.3810  156.7306 H   0  0  0  0  0  0  0  0  0  0  0  0
  150.3544  142.8880  159.3656 H   0  0  0  0  0  0  0  0  0  0  0  0
  151.0543  142.1620  157.9248 H   0  0  0  0  0  0  0  0  0  0  0  0
  150.2108  143.7024  157.8138 H   0  0  0  0  0  0  0  0  0  0  0  0
  151.2883  145.8417  158.7895 H   0  0  0  0  0  0  0  0  0  0  0  0
  152.7956  145.7285  159.6906 H   0  0  0  0  0  0  0  0  0  0  0  0
  151.3342  145.0152  160.3408 H   0  0  0  0  0  0  0  0  0  0  0  0
  152.6129  142.7044  160.5200 H   0  0  0  0  0  0  0  0  0  0  0  0
  154.0423  143.4619  159.8445 H   0  0  0  0  0  0  0  0  0  0  0  0
  153.3614  142.0322  159.0776 H   0  0  0  0  0  0  0  0  0  0  0  0
  152.9863  145.0640  157.1702 H   0  0  0  0  0  0  0  0  0  0  0  0
  153.1722  143.5912  154.3565 H   0  0  0  0  0  0  0  0  0  0  0  0
  153.8653  144.8685  155.3095 H   0  0  0  0  0  0  0  0  0  0  0  0
  158.7455  141.9710  154.5202 H   0  0  0  0  0  0  0  0  0  0  0  0
  157.2511  141.9903  152.5931 H   0  0  0  0  0  0  0  0  0  0  0  0
  1  2  1  0  0  0  0
  1 18  1  0  0  0  0
  1 19  1  0  0  0  0
  1 20  1  0  0  0  0
  2  3  1  0  0  0  0
  2  4  1  0  0  0  0
  2  5  1  0  0  0  0
  3 21  1  0  0  0  0
  3 22  1  0  0  0  0
  3 23  1  0  0  0  0
  4 24  1  0  0  0  0
  4 25  1  0  0  0  0
  4 26  1  0  0  0  0
  5  6  1  0  0  0  0
  5 27  1  0  0  0  0
  6  7  2  0  0  0  0
  6  8  1  0  0  0  0
  8 28  1  0  0  0  0
  8 29  1  0  0  0  0
  8  9  1  0  0  0  0
  9 10  1  0  0  0  0
  9 15  1  0  0  0  0
 10 11  2  0  0  0  0
 11 12  1  0  0  0  0
 11 13  1  0  0  0  0
 12 17  1  0  0  0  0
 13 30  1  0  0  0  0
 13 14  2  0  0  0  0
 14 31  1  0  0  0  0
 14 15  1  0  0  0  0
 15 16  2  0  0  0  0
M  END
> <s_m_source_file>
AV-unprocessed.smi

> <i_m_source_file_index>
1164

> <i_lp_mmshare_version>
43012

> <i_f3d_flags>
0

> <s_epik_input>
W0NIM11DKFtDSDNdKShbQ0gzXSlbTkhdQyg9TylbQ0gyXW4xW25IXWMoPU8pW2NIXVtjSF1jMT1P

> <s_epik_cmdline>
J2VwaWtfcHl0aG9uJywgJy1waCcsICc3LjAnLCAnLXRuJywgJzgnLCAnLW1hJywgJzIwMCcsICctbWV0YWxfYmluZGluZycsICctaW1hZScsICc8aW5maWxlLm1hZT4nLCAnLW9tYWUnLCAnPG91dGZpbGUubWFlPic=

> <r_lp_tautomer_probability>
0.9996

> <r_epik_Ionization_Penalty>
2.1187

> <r_epik_Ionization_Penalty_Charging>
3.7231e-08

> <r_epik_Ionization_Penalty_Neutral>
2.1187

> <r_epik_State_Penalty>
1.69546

> <r_epik_Charging_Adjusted_Penalty>
1.69546

> <i_epik_Tot_Q>
0

> <i_epik_Tot_abs_Q>
0

> <r_epik_Metal_State_Penalty>
1.69546

> <b_epik_Metal_Only>
0

> <s_lp_Force_Field>
OPLS_2005

> <r_lp_Energy>
13.6022

> <b_lp_Chiralities_Consistent>
1

> <s_lp_Variant>
AV-unprocessed.smi:1164-2

> <Gold.Version>
5.8.1

> <Gold.Id.Protein>
6NUR|6NUR_protein|mol2

> <Gold.PLP.Fitness>
37.6347

> <Gold.PLP.PLP>
-36.2298

> <Gold.PLP.part.hbond>
-2.1277

> <Gold.PLP.part.metal>
0.0000

> <Gold.PLP.part.buried>
-4.2496

> <Gold.PLP.part.nonpolar>
-30.6727

> <Gold.PLP.part.repulsive>
0.1840

> <Gold.PLP.ligand.clash>
0.0000

> <Gold.PLP.ligand.torsion>
0.1657

> <Gold.PLP.Chemscore.Hbond>
0.5760

> <Gold.PLP.Chemscore.CHOScore>
0.0000

> <Gold.PLP.Chemscore.Metal>
0.0000

> <Gold.Chemscore.Hbonds>
donor molecule, donor type, donor heavy atom, donor atom, acceptor molecule, acceptor atom, score
      P1  H  7997  8009       L1     7  0.02

> <Gold.PLP.Chemscore.Internal.Correction>
0.0083

> <Gold.Rescore>
     Score         DG    S(hbond)    S(metal)    S(lipo)     H(rot)  DE(clash)    DE(int)     intcor
      9.01      -9.31       0.41        0.00      71.72       2.31       0.07       0.23       ----

> <Gold.Chemscore.Fitness>
9.0074

> <Gold.Chemscore.DG>
-9.3132

> <Gold.Chemscore.ZeroCoef>
-5.4800

> <Gold.Chemscore.Hbond>
0.4059

> <Gold.Chemscore.Metal>
0.0000

> <Gold.Chemscore.Lipo>
71.7167

> <Gold.Chemscore.Internal_Hbond>
0.0000

> <Gold.Chemscore.DEClash>
0.0715

> <Gold.Chemscore.DEInternal>
0.2343

> <Gold.Chemscore.Rot>
2.3099

> <Gold.Chemscore.Internal.Correction>
   9.000000E+99

> <Gold.Chemscore.Hbonds>
donor molecule, donor type, donor heavy atom, donor atom, acceptor molecule, acceptor atom, score
      P1  H  7997  8009       L1     7  0.04

> <Gold.Chemscore.Hbond.Weighted>
-1.3557

> <Gold.Chemscore.Metal.Weighted>
-0.0000

> <Gold.Chemscore.Lipo.Weighted>
-8.3909

> <Gold.Chemscore.Internal_Hbond.Weighted>
0.0000

> <Gold.Chemscore.DEClash.Weighted>
0.0715

> <Gold.Chemscore.DEInternal.Weighted>
0.2343

> <Gold.Chemscore.Rot.Weighted>
5.9134

> <Gold.Chemscore.Internal.Correction.Weighted>
   9.000000E+99

> <Gold.Protein.RotatedTorsions>
[ 6907 6896 6895 6894 ] final  -13.86 input  -60.11 | X-H torsion
[ 7974 7965 7964 7962 ] final  -90.39 input  175.53 | X-H torsion
[ 8008 7997 7996 7995 ] final -172.79 input   59.86 | X-H torsion
[ 10167 10162 10161 10158 ] final  147.09 input  -65.29 | X-H torsion
[ 10718 10713 10712 10709 ] final  104.20 input   66.30 | X-H torsion
[ 10763 10752 10751 10750 ] final   -2.27 input  -60.55 | X-H torsion
[ 11005 11000 10999 10996 ] final -132.23 input  -57.11 | X-H torsion

> <Gold.Protein.ActiveResidues>
 VAL166  LYS551  ARG553  GLY616  TRP617  ASP618  TYR619  PRO620  LYS621  CYS622 
 ASP623  PHE694  ASN695  SER759  ASP760  ASP761  ALA762  ILE779  LEU786  VAL792 
 PHE793  MET794  SER795  GLU796  ALA797  LYS798  CYS799  TRP800  GLU811  SER814 

> <Gold.Protein.RotatedAtoms>
  151.3484  135.0879  159.9394 H   0  0  0  0  0  0  0  0  0  0  0  0  # atno 6907 bound_to 6896
  152.5193  133.9377  159.7622 H   0  0  0  0  0  0  0  0  0  0  0  0  # atno 6908 bound_to 6896
  150.9748  133.6253  159.2761 H   0  0  0  0  0  0  0  0  0  0  0  0  # atno 6909 bound_to 6896
  145.4272  140.9554  143.2148 H   0  0  0  0  0  0  0  0  0  0  0  0  # atno 7974 bound_to 7965
  155.9492  140.1123  157.0991 H   0  0  0  0  0  0  0  0  0  0  0  0  # atno 8008 bound_to 7997
  154.4106  140.1204  156.5096 H   0  0  0  0  0  0  0  0  0  0  0  0  # atno 8009 bound_to 7997
  155.6864  140.3473  155.4878 H   0  0  0  0  0  0  0  0  0  0  0  0  # atno 8010 bound_to 7997
  139.4896  144.5781  151.6925 H   0  0  0  0  0  0  0  0  0  0  0  0  # atno 10167 bound_to 10162
  157.6748  131.0798  150.5671 H   0  0  0  0  0  0  0  0  0  0  0  0  # atno 10718 bound_to 10713
  153.3558  135.6988  153.6752 H   0  0  0  0  0  0  0  0  0  0  0  0  # atno 10763 bound_to 10752
  153.5460  135.3563  155.2739 H   0  0  0  0  0  0  0  0  0  0  0  0  # atno 10764 bound_to 10752
  154.8660  135.4215  154.2804 H   0  0  0  0  0  0  0  0  0  0  0  0  # atno 10765 bound_to 10752
  140.9189  134.1470  157.4330 H   0  0  0  0  0  0  0  0  0  0  0  0  # atno 11005 bound_to 11000
  144.8207  139.5797  143.6988 LP  0  0  0  0  0  0  0  0  0  0  0  0  # atno 17320 bound_to 7965
  146.2626  139.6446  142.9351 LP  0  0  0  0  0  0  0  0  0  0  0  0  # atno 17321 bound_to 7965
  140.5382  144.0622  150.6078 LP  0  0  0  0  0  0  0  0  0  0  0  0  # atno 17342 bound_to 10162
  140.3635  143.2894  152.0357 LP  0  0  0  0  0  0  0  0  0  0  0  0  # atno 17343 bound_to 10162
  156.5973  130.4345  149.5912 LP  0  0  0  0  0  0  0  0  0  0  0  0  # atno 17370 bound_to 10713
  156.2535  130.6921  151.1666 LP  0  0  0  0  0  0  0  0  0  0  0  0  # atno 17371 bound_to 10713
  139.8771  134.9964  156.5792 LP  0  0  0  0  0  0  0  0  0  0  0  0  # atno 17394 bound_to 11000
  140.8014  133.8502  155.8730 LP  0  0  0  0  0  0  0  0  0  0  0  0  # atno 17395 bound_to 11000

$$$$
