AV-unprocessed.smi:2474|AV-procd|sdf|9752|dock9
  -GOLD-   2272013393D 1   1.00000     0.00000
 Structure written by MMmdl.
 40 41  0  0  0  0  0  0  0  0  1 V2000
  145.0752  136.6944  151.8837 C   0  0  0  0  0  0  0  0  0  0  0  0
  145.6933  137.7957  152.6762 C   0  0  0  0  0  0  0  0  0  0  0  0
  145.6143  138.0030  154.0311 C   0  0  0  0  0  0  0  0  0  0  0  0
  146.3129  139.1292  154.4715 N   0  0  0  0  0  0  0  0  0  0  0  0
  146.9119  139.7824  153.4716 C   0  0  0  0  0  0  0  0  0  0  0  0
  147.7465  141.0130  153.6606 C   0  0  1  0  0  0  0  0  0  0  0  0
  146.9212  142.2001  154.1773 C   0  0  0  0  0  0  0  0  0  0  0  0
  149.0253  140.7611  154.4915 C   0  0  0  0  0  0  0  0  0  0  0  0
  149.4078  141.9041  155.3165 N   0  0  0  0  0  0  0  0  0  0  0  0
  150.4479  141.9317  156.1604 C   0  0  0  0  0  0  0  0  0  0  0  0
  151.2358  140.9986  156.3152 O   0  0  0  0  0  0  0  0  0  0  0  0
  150.5109  143.0900  156.8314 N   0  0  0  0  0  0  0  0  0  0  0  0
  151.4911  143.4130  157.8637 C   0  0  2  0  0  0  0  0  0  0  0  0
  151.6031  142.2484  158.8698 C   0  0  0  0  0  0  0  0  0  0  0  0
  152.6595  142.5061  159.9565 C   0  0  0  0  0  0  0  0  0  0  0  0
  152.3454  143.7522  160.7963 C   0  0  0  0  0  0  0  0  0  0  0  0
  152.3270  145.2476  159.7710 S   0  0  0  0  0  0  0  0  0  0  0  0
  151.0862  144.7266  158.5545 C   0  0  0  0  0  0  0  0  0  0  0  0
  146.6539  139.0279  151.9019 S   0  0  0  0  0  0  0  0  0  0  0  0
  144.5038  136.0219  152.5239 H   0  0  0  0  0  0  0  0  0  0  0  0
  145.8406  136.1069  151.3763 H   0  0  0  0  0  0  0  0  0  0  0  0
  144.3992  137.0951  151.1283 H   0  0  0  0  0  0  0  0  0  0  0  0
  145.0869  137.3996  154.7549 H   0  0  0  0  0  0  0  0  0  0  0  0
  148.0791  141.3010  152.6627 H   0  0  0  0  0  0  0  0  0  0  0  0
  146.0902  142.4215  153.5070 H   0  0  0  0  0  0  0  0  0  0  0  0
  147.5326  143.0996  154.2537 H   0  0  0  0  0  0  0  0  0  0  0  0
  146.5072  141.9953  155.1651 H   0  0  0  0  0  0  0  0  0  0  0  0
  148.9101  139.8727  155.1144 H   0  0  0  0  0  0  0  0  0  0  0  0
  149.8603  140.5595  153.8199 H   0  0  0  0  0  0  0  0  0  0  0  0
  148.8168  142.7209  155.2619 H   0  0  0  0  0  0  0  0  0  0  0  0
  149.8150  143.7932  156.6309 H   0  0  0  0  0  0  0  0  0  0  0  0
  152.4628  143.5666  157.3898 H   0  0  0  0  0  0  0  0  0  0  0  0
  150.6342  142.0667  159.3370 H   0  0  0  0  0  0  0  0  0  0  0  0
  151.8620  141.3298  158.3415 H   0  0  0  0  0  0  0  0  0  0  0  0
  152.7181  141.6373  160.6128 H   0  0  0  0  0  0  0  0  0  0  0  0
  153.6436  142.6092  159.4975 H   0  0  0  0  0  0  0  0  0  0  0  0
  151.3779  143.6463  161.2885 H   0  0  0  0  0  0  0  0  0  0  0  0
  153.0918  143.8760  161.5811 H   0  0  0  0  0  0  0  0  0  0  0  0
  150.9743  145.5242  157.8194 H   0  0  0  0  0  0  0  0  0  0  0  0
  150.1243  144.6166  159.0567 H   0  0  0  0  0  0  0  0  0  0  0  0
  1  2  1  0  0  0  0
  1 20  1  0  0  0  0
  1 21  1  0  0  0  0
  1 22  1  0  0  0  0
  2 19  1  0  0  0  0
  2  3  2  0  0  0  0
  3  4  1  0  0  0  0
  3 23  1  0  0  0  0
  4  5  2  0  0  0  0
  5  6  1  0  0  0  0
  5 19  1  0  0  0  0
  6  7  1  0  0  0  0
  6  8  1  0  0  0  0
  6 24  1  0  0  0  0
  7 25  1  0  0  0  0
  7 26  1  0  0  0  0
  7 27  1  0  0  0  0
  8  9  1  0  0  0  0
  8 28  1  0  0  0  0
  8 29  1  0  0  0  0
  9 10  1  0  0  0  0
  9 30  1  0  0  0  0
 10 11  2  0  0  0  0
 10 12  1  0  0  0  0
 12 13  1  0  0  0  0
 12 31  1  0  0  0  0
 13 18  1  0  0  0  0
 13 14  1  0  0  0  0
 13 32  1  0  0  0  0
 14 15  1  0  0  0  0
 14 33  1  0  0  0  0
 14 34  1  0  0  0  0
 15 16  1  0  0  0  0
 15 35  1  0  0  0  0
 15 36  1  0  0  0  0
 16 17  1  0  0  0  0
 16 37  1  0  0  0  0
 16 38  1  0  0  0  0
 17 18  1  0  0  0  0
 18 39  1  0  0  0  0
 18 40  1  0  0  0  0
M  END
> <s_m_source_file>
AV-unprocessed.smi

> <i_m_source_file_index>
2474

> <i_lp_mmshare_version>
43012

> <i_f3d_flags>
0

> <s_epik_input>
W0NIM11jMVtjSF1uYyhzMSlbQ0BIXShbQ0gzXSlbQ0gyXVtOSF1DKD1PKVtOSF1bQ0BASF0yW0NIMl1bQ0gyXVtDSDJdU1tDSDJdMg==

> <s_epik_cmdline>
J2VwaWtfcHl0aG9uJywgJy1waCcsICc3LjAnLCAnLXRuJywgJzgnLCAnLW1hJywgJzIwMCcsICctbWV0YWxfYmluZGluZycsICctaW1hZScsICc8aW5maWxlLm1hZT4nLCAnLW9tYWUnLCAnPG91dGZpbGUubWFlPic=

> <r_epik_Ionization_Penalty>
0.000644338

> <r_epik_Ionization_Penalty_Charging>
0

> <r_epik_Ionization_Penalty_Neutral>
0.000644338

> <r_epik_State_Penalty>
0.000374131

> <r_epik_Charging_Adjusted_Penalty>
0.000374131

> <i_epik_Tot_Q>
0

> <i_epik_Tot_abs_Q>
0

> <r_epik_Metal_State_Penalty>
-0

> <b_epik_Metal_Only>
0

> <s_lp_Force_Field>
OPLS_2005

> <r_lp_Energy>
-6.48006

> <b_lp_Chiralities_Consistent>
1

> <s_lp_Variant>
AV-unprocessed.smi:2474-2

> <Gold.Version>
5.8.1

> <Gold.Id.Protein>
6NUR|6NUR_protein|mol2

> <Gold.PLP.Fitness>
48.6497

> <Gold.PLP.PLP>
-44.5459

> <Gold.PLP.part.hbond>
-2.0000

> <Gold.PLP.part.metal>
0.0000

> <Gold.PLP.part.buried>
-1.5239

> <Gold.PLP.part.nonpolar>
-40.7943

> <Gold.PLP.part.repulsive>
0.3766

> <Gold.PLP.ligand.clash>
0.0000

> <Gold.PLP.ligand.torsion>
0.6868

> <Gold.PLP.Chemscore.Hbond>
1.7840

> <Gold.PLP.Chemscore.CHOScore>
0.0000

> <Gold.PLP.Chemscore.Metal>
0.0000

> <Gold.Chemscore.Hbonds>
donor molecule, donor type, donor heavy atom, donor atom, acceptor molecule, acceptor atom, score
      L1  H     9    30       P1  8028  0.82
      L1  H    12    31       P1  8028  1.00

> <Gold.PLP.Chemscore.Internal.Correction>
0.1255

> <Gold.Rescore>
     Score         DG    S(hbond)    S(metal)    S(lipo)     H(rot)  DE(clash)    DE(int)     intcor
     19.44     -21.19       1.62        0.00     119.99       1.46       0.03       1.73       ----

> <Gold.Chemscore.Fitness>
19.4361

> <Gold.Chemscore.DG>
-21.1935

> <Gold.Chemscore.ZeroCoef>
-5.4800

> <Gold.Chemscore.Hbond>
1.6216

> <Gold.Chemscore.Metal>
0.0000

> <Gold.Chemscore.Lipo>
119.9918

> <Gold.Chemscore.Internal_Hbond>
0.0000

> <Gold.Chemscore.DEClash>
0.0312

> <Gold.Chemscore.DEInternal>
1.7261

> <Gold.Chemscore.Rot>
1.4616

> <Gold.Chemscore.Internal.Correction>
   9.000000E+99

> <Gold.Chemscore.Hbonds>
donor molecule, donor type, donor heavy atom, donor atom, acceptor molecule, acceptor atom, score
      L1  H     9    30       P1  8028  0.76
      L1  H    12    31       P1  8028  0.98

> <Gold.Chemscore.Hbond.Weighted>
-5.4160

> <Gold.Chemscore.Metal.Weighted>
-0.0000

> <Gold.Chemscore.Lipo.Weighted>
-14.0390

> <Gold.Chemscore.Internal_Hbond.Weighted>
0.0000

> <Gold.Chemscore.DEClash.Weighted>
0.0312

> <Gold.Chemscore.DEInternal.Weighted>
1.7261

> <Gold.Chemscore.Rot.Weighted>
3.7416

> <Gold.Chemscore.Internal.Correction.Weighted>
   9.000000E+99

> <Gold.Protein.RotatedTorsions>
[ 6907 6896 6895 6894 ] final  -53.52 input  -60.11 | X-H torsion
[ 7974 7965 7964 7962 ] final   88.16 input  175.53 | X-H torsion
[ 8008 7997 7996 7995 ] final   20.89 input   59.86 | X-H torsion
[ 10167 10162 10161 10158 ] final  -37.29 input  -65.29 | X-H torsion
[ 10718 10713 10712 10709 ] final  -71.10 input   66.30 | X-H torsion
[ 10763 10752 10751 10750 ] final -179.64 input  -60.55 | X-H torsion
[ 11005 11000 10999 10996 ] final  121.58 input  -57.11 | X-H torsion

> <Gold.Protein.ActiveResidues>
 VAL166  LYS551  ARG553  GLY616  TRP617  ASP618  TYR619  PRO620  LYS621  CYS622 
 ASP623  PHE694  ASN695  SER759  ASP760  ASP761  ALA762  ILE779  LEU786  VAL792 
 PHE793  MET794  SER795  GLU796  ALA797  LYS798  CYS799  TRP800  GLU811  SER814 

> <Gold.Protein.RotatedAtoms>
  150.8419  134.7714  159.6939 H   0  0  0  0  0  0  0  0  0  0  0  0  # atno 6907 bound_to 6896
  152.4505  134.5401  159.9846 H   0  0  0  0  0  0  0  0  0  0  0  0  # atno 6908 bound_to 6896
  151.5539  133.3375  159.2994 H   0  0  0  0  0  0  0  0  0  0  0  0  # atno 6909 bound_to 6896
  145.5493  139.2294  143.2521 H   0  0  0  0  0  0  0  0  0  0  0  0  # atno 7974 bound_to 7965
  154.9423  140.3055  155.5114 H   0  0  0  0  0  0  0  0  0  0  0  0  # atno 8008 bound_to 7997
  156.2995  140.2334  156.4431 H   0  0  0  0  0  0  0  0  0  0  0  0  # atno 8009 bound_to 7997
  154.8133  140.0427  157.1347 H   0  0  0  0  0  0  0  0  0  0  0  0  # atno 8010 bound_to 7997
  140.7122  143.3351  151.2480 H   0  0  0  0  0  0  0  0  0  0  0  0  # atno 10167 bound_to 10162
  156.0378  130.4344  150.2394 H   0  0  0  0  0  0  0  0  0  0  0  0  # atno 10718 bound_to 10713
  154.5325  135.2800  155.1167 H   0  0  0  0  0  0  0  0  0  0  0  0  # atno 10763 bound_to 10752
  154.2682  135.6309  153.5304 H   0  0  0  0  0  0  0  0  0  0  0  0  # atno 10764 bound_to 10752
  152.9960  135.5622  154.5842 H   0  0  0  0  0  0  0  0  0  0  0  0  # atno 10765 bound_to 10752
  139.9232  134.9639  156.7980 H   0  0  0  0  0  0  0  0  0  0  0  0  # atno 11005 bound_to 11000
  146.1927  140.6316  142.9138 LP  0  0  0  0  0  0  0  0  0  0  0  0  # atno 17320 bound_to 7965
  144.7537  140.5255  143.6784 LP  0  0  0  0  0  0  0  0  0  0  0  0  # atno 17321 bound_to 7965
  139.6844  143.9798  152.2826 LP  0  0  0  0  0  0  0  0  0  0  0  0  # atno 17342 bound_to 10162
  139.9439  144.6664  150.8239 LP  0  0  0  0  0  0  0  0  0  0  0  0  # atno 17343 bound_to 10162
  157.0492  131.0057  151.3259 LP  0  0  0  0  0  0  0  0  0  0  0  0  # atno 17370 bound_to 10713
  157.5153  130.7964  149.7749 LP  0  0  0  0  0  0  0  0  0  0  0  0  # atno 17371 bound_to 10713
  140.6413  133.9816  155.7709 LP  0  0  0  0  0  0  0  0  0  0  0  0  # atno 17394 bound_to 11000
  141.0769  134.0121  157.3444 LP  0  0  0  0  0  0  0  0  0  0  0  0  # atno 17395 bound_to 11000

$$$$
