#       Name:                AV-unprocessed.smi:2083
#       Creating user name   scv26
#       Creation time:       Fri Mar 27 11:21:08 2020


#       File generated by GOLD software.
#

@<TRIPOS>MOLECULE
AV-unprocessed.smi:2083
    50    51     1
SMALL
NO_CHARGES


@<TRIPOS>ATOM
      1 ****        -2.4426   6.5672   3.0737 C.3            1 S1                 0.0000
      2 ****        -2.7859   5.4026   2.2093 C.2            1 S1                 0.0000
      3 ****        -2.0911   4.7240   1.2487 C.2            1 S1                 0.0000
      4 ****        -3.0083   3.7202   0.8332 C.2            1 S1                 0.0000
      5 ****        -2.7897   2.7928  -0.1117 N.pl3          1 S1                -1.0000
      6 ****        -2.1604   1.6382   0.2031 C.2            1 S1                 0.0000
      7 ****        -1.7183   1.3231   1.3105 O.2            1 S1                 0.0000
      8 ****        -2.0296   0.7958  -0.8315 N.am           1 S1                 0.0000
      9 ****        -1.3821  -0.5121  -0.7883 C.3            1 S1                 0.0000
     10 ****         0.1693  -0.4172  -0.7587 C.3            1 S1                 0.0000
     11 ****         0.6785   0.3949  -1.9709 C.3            1 S1                 0.0000
     12 ****         0.8690  -1.7430  -0.7082 N.4            1 S1                 1.0000
     13 ****         0.1235  -2.8549  -0.0489 C.3            1 S1                 0.0000
     14 ****         0.8670  -4.1946  -0.1834 C.3            1 S1                 0.0000
     15 ****         2.2991  -4.1009   0.3550 C.3            1 S1                 0.0000
     16 ****         3.0536  -2.9288  -0.2928 C.3            1 S1                 0.0000
     17 ****         3.4516  -3.2026  -1.7540 C.3            1 S1                 0.0000
     18 ****         2.2447  -1.6254  -0.1422 C.3            1 S1                 0.0000
     19 ****        -4.1638   3.7950   1.4720 N.2            1 S1                 0.0000
     20 ****        -4.0276   4.8682   2.3605 O.3            1 S1                 0.0000
     21 ****        -2.3504   7.4747   2.4770 H              1 S1                 0.0000
     22 ****        -1.4953   6.4004   3.5862 H              1 S1                 0.0000
     23 ****        -3.2098   6.7360   3.8297 H              1 S1                 0.0000
     24 ****        -1.0863   4.9120   0.9011 H              1 S1                 0.0000
     25 ****        -2.4104   1.0903  -1.7192 H              1 S1                 0.0000
     26 ****        -1.7687  -1.0373   0.0863 H              1 S1                 0.0000
     27 ****        -1.7089  -1.0729  -1.6646 H              1 S1                 0.0000
     28 ****         0.4376   0.1233   0.1503 H              1 S1                 0.0000
     29 ****         0.2446   1.3945  -1.9990 H              1 S1                 0.0000
     30 ****         0.4231  -0.1004  -2.9081 H              1 S1                 0.0000
     31 ****         1.7578   0.5358  -1.9589 H              1 S1                 0.0000
     32 ****        -0.0407  -2.6141   1.0026 H              1 S1                 0.0000
     33 ****        -0.8541  -2.9955  -0.5083 H              1 S1                 0.0000
     34 ****         0.3232  -4.9740   0.3512 H              1 S1                 0.0000
     35 ****         0.8832  -4.5009  -1.2297 H              1 S1                 0.0000
     36 ****         2.2650  -3.9542   1.4356 H              1 S1                 0.0000
     37 ****         2.8305  -5.0389   0.1902 H              1 S1                 0.0000
     38 ****         3.9852  -2.8006   0.2599 H              1 S1                 0.0000
     39 ****         2.5811  -3.3163  -2.4001 H              1 S1                 0.0000
     40 ****         4.0456  -4.1133  -1.8343 H              1 S1                 0.0000
     41 ****         4.0515  -2.3847  -2.1542 H              1 S1                 0.0000
     42 ****         2.7973  -0.8139  -0.6127 H              1 S1                 0.0000
     43 ****         2.1680  -1.3643   0.9147 H              1 S1                 0.0000
     44 ****         0.9754  -2.0282  -1.6710 H              1 S1                 0.0000
     45 ****        -3.0929   2.9559  -1.0506 LP             1 S1                 0.0000
     46 ****        -1.8109   1.9513   2.0830 LP             1 S1                 0.0000
     47 ****        -1.2673   0.4394   1.4358 LP             1 S1                 0.0000
     48 ****        -4.9647   3.2094   1.3469 LP             1 S1                 0.0000
     49 ****        -4.7195   5.5617   2.1596 LP             1 S1                 0.0000
     50 ****        -4.1430   4.5446   3.2996 LP             1 S1                 0.0000
@<TRIPOS>BOND
    1    1    2 1     
    2    1   21 1     
    3    1   22 1     
    4    1   23 1     
    5    2   20 1     
    6    2    3 2     
    7    3    4 1     
    8    3   24 1     
    9    4    5 1     
   10    4   19 2     
   11    5    6 1     
   12    6    7 2     
   13    6    8 am    
   14    8    9 1     
   15    8   25 1     
   16    9   10 1     
   17    9   26 1     
   18    9   27 1     
   19   10   11 1     
   20   10   12 1     
   21   10   28 1     
   22   11   29 1     
   23   11   30 1     
   24   11   31 1     
   25   12   18 1     
   26   12   13 1     
   27   12   44 1     
   28   13   14 1     
   29   13   32 1     
   30   13   33 1     
   31   14   15 1     
   32   14   34 1     
   33   14   35 1     
   34   15   16 1     
   35   15   36 1     
   36   15   37 1     
   37   16   17 1     
   38   16   18 1     
   39   16   38 1     
   40   17   39 1     
   41   17   40 1     
   42   17   41 1     
   43   18   42 1     
   44   18   43 1     
   45   19   20 1     
   46    5   45 1     
   47    7   46 1     
   48    7   47 1     
   49   19   48 1     
   50   20   49 1     
   51   20   50 1     
@<TRIPOS>SUBSTRUCTURE
      1 S1             1
@<TRIPOS>SET
LONE_PAIRS      STATIC     ATOMS    <user>   **** ""
6 45 46 47 48 49 50
DONOR_HYDROGENS      STATIC     ATOMS    <user>   **** ""
2 25 44
ATOM$BLUE        STATIC     ATOMS    COLORGROUP SYSTEM
6 45 46 47 48 49 50
ATOM$RED        STATIC     ATOMS    COLORGROUP SYSTEM
2 25 44
