AV-unprocessed.smi:2124|AV-procd|sdf|8671|dock2
  -GOLD-   2272011423D 1   1.00000     0.00000
 Structure written by MMmdl.
 46 48  0  0  0  0  0  0  0  0  2 V2000
  151.3697  142.7076  157.5219 C   0  0  0  0  0  0  0  0  0  0  0  0
  150.7862  141.6232  156.6416 C   0  0  0  0  0  0  0  0  0  0  0  0
  149.7592  141.8843  155.9258 N   0  0  0  0  0  0  0  0  0  0  0  0
  149.2181  140.8828  155.1016 C   0  0  0  0  0  0  0  0  0  0  0  0
  148.0023  141.2810  154.2827 C   0  0  0  0  0  0  0  0  0  0  0  0
  149.7692  139.6362  155.0520 C   0  0  0  0  0  0  0  0  0  0  0  0
  149.2256  138.5146  154.1668 C   0  0  0  0  0  0  0  0  0  0  0  0
  147.8160  138.0136  154.4906 C   0  0  0  0  0  0  0  0  0  0  0  0
  147.1687  138.5108  155.4122 O   0  0  0  0  0  0  0  0  0  0  0  0
  147.3559  137.0259  153.7040 N   0  0  0  0  0  0  0  0  0  0  0  0
  146.0404  136.3820  153.7566 C   0  0  1  0  0  0  0  0  0  0  0  0
  144.9185  137.4369  153.8261 C   0  0  0  0  0  0  0  0  0  0  0  0
  145.8350  135.3538  152.6108 C   0  0  2  0  0  0  0  0  0  0  0  0
  145.5719  136.0082  151.2327 C   0  0  0  0  0  0  0  0  0  0  0  0
  144.2694  135.3361  150.7637 C   0  0  1  0  0  0  0  0  0  0  0  0
  144.5410  133.8569  150.4341 C   0  0  0  0  0  0  0  0  0  0  0  0
  144.7348  133.2306  151.8276 C   0  0  0  0  0  0  0  0  0  0  0  0
  144.5895  134.4424  152.7674 C   0  0  2  0  0  0  0  0  0  0  0  0
  143.4908  135.2363  152.0682 C   0  0  0  0  0  0  0  0  0  0  0  0
  150.9452  139.3732  155.9000 C   0  0  0  0  0  0  0  0  0  0  0  0
  151.4685  138.2594  155.9077 O   0  0  0  0  0  0  0  0  0  0  0  0
  151.4158  140.3991  156.6650 N   0  5  0  0  0  0  0  0  0  0  0  0
  150.6728  143.5393  157.6338 H   0  0  0  0  0  0  0  0  0  0  0  0
  152.2928  143.0889  157.0848 H   0  0  0  0  0  0  0  0  0  0  0  0
  151.5932  142.3160  158.5149 H   0  0  0  0  0  0  0  0  0  0  0  0
  148.2382  141.2662  153.2188 H   0  0  0  0  0  0  0  0  0  0  0  0
  147.6672  142.2870  154.5380 H   0  0  0  0  0  0  0  0  0  0  0  0
  147.1730  140.5975  154.4651 H   0  0  0  0  0  0  0  0  0  0  0  0
  149.2243  138.8632  153.1338 H   0  0  0  0  0  0  0  0  0  0  0  0
  149.9064  137.6627  154.1694 H   0  0  0  0  0  0  0  0  0  0  0  0
  147.9790  136.6933  152.9825 H   0  0  0  0  0  0  0  0  0  0  0  0
  146.0313  135.8402  154.7025 H   0  0  0  0  0  0  0  0  0  0  0  0
  143.9501  136.9771  154.0215 H   0  0  0  0  0  0  0  0  0  0  0  0
  144.8297  137.9966  152.8950 H   0  0  0  0  0  0  0  0  0  0  0  0
  145.1032  138.1529  154.6275 H   0  0  0  0  0  0  0  0  0  0  0  0
  146.7287  134.7322  152.5435 H   0  0  0  0  0  0  0  0  0  0  0  0
  145.4184  137.0843  151.3219 H   0  0  0  0  0  0  0  0  0  0  0  0
  146.3954  135.8506  150.5352 H   0  0  0  0  0  0  0  0  0  0  0  0
  143.7622  135.8773  149.9645 H   0  0  0  0  0  0  0  0  0  0  0  0
  143.6873  133.4066  149.9264 H   0  0  0  0  0  0  0  0  0  0  0  0
  145.4164  133.7313  149.7958 H   0  0  0  0  0  0  0  0  0  0  0  0
  143.9560  132.4933  152.0268 H   0  0  0  0  0  0  0  0  0  0  0  0
  145.6987  132.7316  151.9332 H   0  0  0  0  0  0  0  0  0  0  0  0
  144.3609  134.1520  153.7930 H   0  0  0  0  0  0  0  0  0  0  0  0
  143.2901  136.2044  152.5294 H   0  0  0  0  0  0  0  0  0  0  0  0
  142.5533  134.6857  151.9712 H   0  0  0  0  0  0  0  0  0  0  0  0
  1  2  1  0  0  0  0
  1 23  1  0  0  0  0
  1 24  1  0  0  0  0
  1 25  1  0  0  0  0
  2 22  1  0  0  0  0
  2  3  2  0  0  0  0
  3  4  1  0  0  0  0
  4  5  1  0  0  0  0
  4  6  2  0  0  0  0
  5 26  1  0  0  0  0
  5 27  1  0  0  0  0
  5 28  1  0  0  0  0
  6  7  1  0  0  0  0
  6 20  1  0  0  0  0
  7  8  1  0  0  0  0
  7 29  1  0  0  0  0
  7 30  1  0  0  0  0
  8  9  2  0  0  0  0
  8 10  1  0  0  0  0
 10 11  1  0  0  0  0
 10 31  1  0  0  0  0
 11 12  1  0  0  0  0
 11 13  1  0  0  0  0
 11 32  1  0  0  0  0
 12 33  1  0  0  0  0
 12 34  1  0  0  0  0
 12 35  1  0  0  0  0
 13 18  1  0  0  0  0
 13 14  1  0  0  0  0
 13 36  1  0  0  0  0
 14 15  1  0  0  0  0
 14 37  1  0  0  0  0
 14 38  1  0  0  0  0
 15 19  1  0  0  0  0
 15 16  1  0  0  0  0
 15 39  1  0  0  0  0
 16 17  1  0  0  0  0
 16 40  1  0  0  0  0
 16 41  1  0  0  0  0
 17 18  1  0  0  0  0
 17 42  1  0  0  0  0
 17 43  1  0  0  0  0
 18 19  1  0  0  0  0
 18 44  1  0  0  0  0
 19 45  1  0  0  0  0
 19 46  1  0  0  0  0
 20 21  2  0  0  0  0
 20 22  1  0  0  0  0
M  CHG  1  22  -1
M  END
> <s_m_source_file>
AV-unprocessed.smi

> <i_m_source_file_index>
2124

> <i_lp_mmshare_version>
43012

> <i_f3d_flags>
0

> <s_epik_input>
W0NIM11jMW5jKFtDSDNdKWMoYyg9TylbbkhdMSlbQ0gyXUMoPU8pW05IXVtDQEhdKFtDSDNdKVtDQEhdKFtDSDJdW0NASF0yMylbQ0BIXShbQ0gyXTMpW0NIMl1bQ0gyXTI=

> <s_epik_cmdline>
J2VwaWtfcHl0aG9uJywgJy1waCcsICc3LjAnLCAnLXRuJywgJzgnLCAnLW1hJywgJzIwMCcsICctbWV0YWxfYmluZGluZycsICctaW1hZScsICc8aW5maWxlLm1hZT4nLCAnLW9tYWUnLCAnPG91dGZpbGUubWFlPic=

> <r_lp_tautomer_probability>
0.839158

> <r_epik_Ionization_Penalty>
6.63797

> <r_epik_Ionization_Penalty_Charging>
7.48558e-08

> <r_epik_Ionization_Penalty_Neutral>
6.63797

> <r_epik_State_Penalty>
4.49496

> <r_epik_Charging_Adjusted_Penalty>
4.49496

> <i_epik_Tot_Q>
-1

> <i_epik_Tot_abs_Q>
1

> <r_epik_Metal_State_Penalty>
0.841241

> <b_epik_Metal_Only>
1

> <s_lp_Force_Field>
OPLS_2005

> <r_lp_Energy>
55.5878

> <b_lp_Chiralities_Consistent>
1

> <s_lp_Variant>
AV-unprocessed.smi:2124-22

> <Gold.Version>
5.8.1

> <Gold.Id.Protein>
6NUR|6NUR_protein|mol2

> <Gold.PLP.Fitness>
35.5561

> <Gold.PLP.PLP>
-32.9062

> <Gold.PLP.part.hbond>
-1.0000

> <Gold.PLP.part.metal>
0.0000

> <Gold.PLP.part.buried>
-6.3534

> <Gold.PLP.part.nonpolar>
-29.2016

> <Gold.PLP.part.repulsive>
2.2558

> <Gold.PLP.ligand.clash>
0.0000

> <Gold.PLP.ligand.torsion>
0.2096

> <Gold.PLP.Chemscore.Hbond>
1.0000

> <Gold.PLP.Chemscore.CHOScore>
0.0000

> <Gold.PLP.Chemscore.Metal>
0.0000

> <Gold.Chemscore.Hbonds>
donor molecule, donor type, donor heavy atom, donor atom, acceptor molecule, acceptor atom, score
      L1  H    10    31       P1  7948  1.00

> <Gold.PLP.Chemscore.Internal.Correction>
0.0690

> <Gold.Rescore>
     Score         DG    S(hbond)    S(metal)    S(lipo)     H(rot)  DE(clash)    DE(int)     intcor
     12.66     -13.62       1.00        0.00      76.28       1.61       0.07       0.89       ----

> <Gold.Chemscore.Fitness>
12.6644

> <Gold.Chemscore.DG>
-13.6248

> <Gold.Chemscore.ZeroCoef>
-5.4800

> <Gold.Chemscore.Hbond>
0.9966

> <Gold.Chemscore.Metal>
0.0000

> <Gold.Chemscore.Lipo>
76.2838

> <Gold.Chemscore.Internal_Hbond>
0.0000

> <Gold.Chemscore.DEClash>
0.0741

> <Gold.Chemscore.DEInternal>
0.8863

> <Gold.Chemscore.Rot>
1.6051

> <Gold.Chemscore.Internal.Correction>
   9.000000E+99

> <Gold.Chemscore.Hbonds>
donor molecule, donor type, donor heavy atom, donor atom, acceptor molecule, acceptor atom, score
      L1  H    10    31       P1  7948  0.95

> <Gold.Chemscore.Hbond.Weighted>
-3.3286

> <Gold.Chemscore.Metal.Weighted>
-0.0000

> <Gold.Chemscore.Lipo.Weighted>
-8.9252

> <Gold.Chemscore.Internal_Hbond.Weighted>
0.0000

> <Gold.Chemscore.DEClash.Weighted>
0.0741

> <Gold.Chemscore.DEInternal.Weighted>
0.8863

> <Gold.Chemscore.Rot.Weighted>
4.1090

> <Gold.Chemscore.Internal.Correction.Weighted>
   9.000000E+99

> <Gold.Protein.RotatedTorsions>
[ 6907 6896 6895 6894 ] final  -55.16 input  -60.11 | X-H torsion
[ 7974 7965 7964 7962 ] final   -8.70 input  175.53 | X-H torsion
[ 8008 7997 7996 7995 ] final   67.19 input   59.86 | X-H torsion
[ 10167 10162 10161 10158 ] final  -31.07 input  -65.29 | X-H torsion
[ 10718 10713 10712 10709 ] final   98.81 input   66.30 | X-H torsion
[ 10763 10752 10751 10750 ] final   77.27 input  -60.55 | X-H torsion
[ 11005 11000 10999 10996 ] final  -74.69 input  -57.11 | X-H torsion

> <Gold.Protein.ActiveResidues>
 VAL166  LYS551  ARG553  GLY616  TRP617  ASP618  TYR619  PRO620  LYS621  CYS622 
 ASP623  PHE694  ASN695  SER759  ASP760  ASP761  ALA762  ILE779  LEU786  VAL792 
 PHE793  MET794  SER795  GLU796  ALA797  LYS798  CYS799  TRP800  GLU811  SER814 

> <Gold.Protein.RotatedAtoms>
  150.8275  134.7513  159.6825 H   0  0  0  0  0  0  0  0  0  0  0  0  # atno 6907 bound_to 6896
  152.4384  134.5637  159.9911 H   0  0  0  0  0  0  0  0  0  0  0  0  # atno 6908 bound_to 6896
  151.5806  133.3341  159.3043 H   0  0  0  0  0  0  0  0  0  0  0  0  # atno 6909 bound_to 6896
  146.2273  140.2506  142.8347 H   0  0  0  0  0  0  0  0  0  0  0  0  # atno 7974 bound_to 7965
  155.6890  140.3496  155.4886 H   0  0  0  0  0  0  0  0  0  0  0  0  # atno 8008 bound_to 7997
  155.9541  140.1125  157.0974 H   0  0  0  0  0  0  0  0  0  0  0  0  # atno 8009 bound_to 7997
  154.4128  140.1188  156.5077 H   0  0  0  0  0  0  0  0  0  0  0  0  # atno 8010 bound_to 7997
  140.7241  143.3799  151.1620 H   0  0  0  0  0  0  0  0  0  0  0  0  # atno 10167 bound_to 10162
  157.6888  131.0651  150.4853 H   0  0  0  0  0  0  0  0  0  0  0  0  # atno 10718 bound_to 10713
  153.0786  135.4920  154.8456 H   0  0  0  0  0  0  0  0  0  0  0  0  # atno 10763 bound_to 10752
  154.7121  135.3022  154.9183 H   0  0  0  0  0  0  0  0  0  0  0  0  # atno 10764 bound_to 10752
  153.9874  135.6782  153.4805 H   0  0  0  0  0  0  0  0  0  0  0  0  # atno 10765 bound_to 10752
  141.1638  133.6920  156.7402 H   0  0  0  0  0  0  0  0  0  0  0  0  # atno 11005 bound_to 11000
  144.9414  140.8082  143.5628 LP  0  0  0  0  0  0  0  0  0  0  0  0  # atno 17320 bound_to 7965
  145.2458  139.2052  143.4968 LP  0  0  0  0  0  0  0  0  0  0  0  0  # atno 17321 bound_to 7965
  139.7386  143.8959  152.3043 LP  0  0  0  0  0  0  0  0  0  0  0  0  # atno 17342 bound_to 10162
  139.8773  144.7036  150.8918 LP  0  0  0  0  0  0  0  0  0  0  0  0  # atno 17343 bound_to 10162
  156.5183  130.4155  149.6264 LP  0  0  0  0  0  0  0  0  0  0  0  0  # atno 17370 bound_to 10713
  156.3178  130.7264  151.2170 LP  0  0  0  0  0  0  0  0  0  0  0  0  # atno 17371 bound_to 10713
  140.2680  134.8415  157.3821 LP  0  0  0  0  0  0  0  0  0  0  0  0  # atno 17394 bound_to 11000
  140.1548  134.4803  155.7935 LP  0  0  0  0  0  0  0  0  0  0  0  0  # atno 17395 bound_to 11000

$$$$
