AV-unprocessed.smi:740|AV-procd|sdf|3551|dock7
  -GOLD-   22720 0543D 1   1.00000     0.00000
 Structure written by MMmdl.
 45 47  0  0  0  0  0  0  0  0  2 V2000
  152.1515  145.3051  160.2790 C   0  0  0  0  0  0  0  0  0  0  0  0
  151.8088  143.9924  159.5953 C   0  0  0  0  0  0  0  0  0  0  0  0
  151.0040  144.0269  158.4345 C   0  0  0  0  0  0  0  0  0  0  0  0
  150.7094  142.8106  157.8305 C   0  0  0  0  0  0  0  0  0  0  0  0
  149.9571  142.5155  156.6920 N   0  3  0  0  0  0  0  0  0  0  0  0
  149.9529  141.1696  156.4868 C   0  0  0  0  0  0  0  0  0  0  0  0
  150.6888  140.5999  157.4793 N   0  0  0  0  0  0  0  0  0  0  0  0
  150.9948  139.1822  157.7176 C   0  0  0  0  0  0  0  0  0  0  0  0
  149.7437  138.3529  158.0672 C   0  0  1  0  0  0  0  0  0  0  0  0
  149.0838  137.9948  156.8686 O   0  0  0  0  0  0  0  0  0  0  0  0
  150.1122  137.0674  158.8369 C   0  0  0  0  0  0  0  0  0  0  0  0
  148.9431  136.2142  159.0790 N   0  0  0  0  0  0  0  0  0  0  0  0
  148.5847  135.1906  158.2921 C   0  0  0  0  0  0  0  0  0  0  0  0
  149.1611  134.8223  157.2691 O   0  0  0  0  0  0  0  0  0  0  0  0
  147.3389  134.4996  158.8286 C   0  0  0  0  0  0  0  0  0  0  0  0
  147.0154  135.2935  160.1033 C   0  0  1  0  0  0  0  0  0  0  0  0
  147.0070  134.4373  161.3805 C   0  0  0  0  0  0  0  0  0  0  0  0
  148.1238  136.3443  160.1321 C   0  0  0  0  0  0  0  0  0  0  0  0
  148.2214  137.1839  161.0273 O   0  0  0  0  0  0  0  0  0  0  0  0
  151.1823  141.5862  158.3422 C   0  0  0  0  0  0  0  0  0  0  0  0
  151.9759  141.5351  159.4861 C   0  0  0  0  0  0  0  0  0  0  0  0
  152.2900  142.7621  160.1133 C   0  0  0  0  0  0  0  0  0  0  0  0
  153.1584  142.7366  161.3598 C   0  0  0  0  0  0  0  0  0  0  0  0
  151.6705  146.1496  159.7846 H   0  0  0  0  0  0  0  0  0  0  0  0
  153.2281  145.4759  160.2591 H   0  0  0  0  0  0  0  0  0  0  0  0
  151.8206  145.2958  161.3177 H   0  0  0  0  0  0  0  0  0  0  0  0
  150.6356  144.9595  158.0327 H   0  0  0  0  0  0  0  0  0  0  0  0
  149.4555  140.6477  155.6820 H   0  0  0  0  0  0  0  0  0  0  0  0
  151.5205  138.7716  156.8552 H   0  0  0  0  0  0  0  0  0  0  0  0
  151.7012  139.1502  158.5481 H   0  0  0  0  0  0  0  0  0  0  0  0
  149.0704  138.9697  158.6642 H   0  0  0  0  0  0  0  0  0  0  0  0
  149.7051  137.5670  156.2994 H   0  0  0  0  0  0  0  0  0  0  0  0
  150.9036  136.5216  158.3199 H   0  0  0  0  0  0  0  0  0  0  0  0
  150.5384  137.3337  159.8059 H   0  0  0  0  0  0  0  0  0  0  0  0
  146.5291  134.5554  158.1004 H   0  0  0  0  0  0  0  0  0  0  0  0
  147.5510  133.4493  159.0322 H   0  0  0  0  0  0  0  0  0  0  0  0
  146.0554  135.7995  159.9922 H   0  0  0  0  0  0  0  0  0  0  0  0
  146.7379  135.0338  162.2528 H   0  0  0  0  0  0  0  0  0  0  0  0
  147.9831  133.9890  161.5707 H   0  0  0  0  0  0  0  0  0  0  0  0
  146.2809  133.6280  161.3006 H   0  0  0  0  0  0  0  0  0  0  0  0
  152.3454  140.6004  159.8801 H   0  0  0  0  0  0  0  0  0  0  0  0
  153.4891  141.7246  161.5958 H   0  0  0  0  0  0  0  0  0  0  0  0
  152.6041  143.1155  162.2188 H   0  0  0  0  0  0  0  0  0  0  0  0
  154.0478  143.3517  161.2217 H   0  0  0  0  0  0  0  0  0  0  0  0
  149.4812  143.1815  156.0967 H   0  0  0  0  0  0  0  0  0  0  0  0
  1  2  1  0  0  0  0
  1 24  1  0  0  0  0
  1 25  1  0  0  0  0
  1 26  1  0  0  0  0
  2 22  1  0  0  0  0
  2  3  2  0  0  0  0
  3  4  1  0  0  0  0
  3 27  1  0  0  0  0
  4 20  2  0  0  0  0
  4  5  1  0  0  0  0
  5  6  2  0  0  0  0
  5 45  1  0  0  0  0
  6  7  1  0  0  0  0
  6 28  1  0  0  0  0
  7  8  1  0  0  0  0
  7 20  1  0  0  0  0
  8  9  1  0  0  0  0
  8 29  1  0  0  0  0
  8 30  1  0  0  0  0
  9 10  1  0  0  0  0
  9 11  1  0  0  0  0
  9 31  1  0  0  0  0
 10 32  1  0  0  0  0
 11 12  1  0  0  0  0
 11 33  1  0  0  0  0
 11 34  1  0  0  0  0
 12 18  1  0  0  0  0
 12 13  1  0  0  0  0
 13 14  2  0  0  0  0
 13 15  1  0  0  0  0
 15 16  1  0  0  0  0
 15 35  1  0  0  0  0
 15 36  1  0  0  0  0
 16 17  1  0  0  0  0
 16 18  1  0  0  0  0
 16 37  1  0  0  0  0
 17 38  1  0  0  0  0
 17 39  1  0  0  0  0
 17 40  1  0  0  0  0
 18 19  2  0  0  0  0
 20 21  1  0  0  0  0
 21 22  2  0  0  0  0
 21 41  1  0  0  0  0
 22 23  1  0  0  0  0
 23 42  1  0  0  0  0
 23 43  1  0  0  0  0
 23 44  1  0  0  0  0
M  CHG  1   5   1
M  END
> <s_m_source_file>
AV-unprocessed.smi

> <i_m_source_file_index>
740

> <i_lp_mmshare_version>
43012

> <i_f3d_flags>
0

> <s_epik_input>
W0NIM11jKFtjSF0xKWMoW0NIM10pW2NIXWMoYzEyKW4oW2NIXW4yKVtDSDJdW0NASF0oW09IXSlbQ0gyXU4zQyg9TylbQ0gyXVtDQEBIXShbQ0gzXSlDMz1P

> <s_epik_cmdline>
J2VwaWtfcHl0aG9uJywgJy1waCcsICc3LjAnLCAnLXRuJywgJzgnLCAnLW1hJywgJzIwMCcsICctbWV0YWxfYmluZGluZycsICctaW1hZScsICc8aW5maWxlLm1hZT4nLCAnLW9tYWUnLCAnPG91dGZpbGUubWFlPic=

> <r_lp_tautomer_probability>
1

> <r_epik_Ionization_Penalty>
1.08202

> <r_epik_Ionization_Penalty_Charging>
1.08202

> <r_epik_Ionization_Penalty_Neutral>
1.16605e-06

> <r_epik_State_Penalty>
1.13754

> <r_epik_Charging_Adjusted_Penalty>
2.21956

> <i_epik_Tot_Q>
1

> <i_epik_Tot_abs_Q>
1

> <r_epik_Metal_State_Penalty>
5.13645

> <b_epik_Metal_Only>
0

> <s_lp_Force_Field>
OPLS_2005

> <r_lp_Energy>
22.2654

> <b_lp_Chiralities_Consistent>
1

> <s_lp_Variant>
AV-unprocessed.smi:740-6

> <Gold.Version>
5.8.1

> <Gold.Id.Protein>
6NUR|6NUR_protein|mol2

> <Gold.PLP.Fitness>
51.0777

> <Gold.PLP.PLP>
-41.5344

> <Gold.PLP.part.hbond>
-3.0000

> <Gold.PLP.part.metal>
0.0000

> <Gold.PLP.part.buried>
-5.6653

> <Gold.PLP.part.nonpolar>
-33.6654

> <Gold.PLP.part.repulsive>
0.0504

> <Gold.PLP.ligand.clash>
0.0000

> <Gold.PLP.ligand.torsion>
0.6298

> <Gold.PLP.Chemscore.Hbond>
3.5943

> <Gold.PLP.Chemscore.CHOScore>
0.0000

> <Gold.PLP.Chemscore.Metal>
0.0000

> <Gold.Chemscore.Hbonds>
donor molecule, donor type, donor heavy atom, donor atom, acceptor molecule, acceptor atom, score
      L1  H     5    45       P1  8028  2.00
      P1  H  6931  6943       L1    19  0.99
      P1  H  6934  6947       L1    19  0.51

> <Gold.PLP.Chemscore.Internal.Correction>
0.0200

> <Gold.Rescore>
     Score         DG    S(hbond)    S(metal)    S(lipo)     H(rot)  DE(clash)    DE(int)     intcor
     19.41     -20.10       2.61        0.00     102.43       2.37       0.09       0.60       ----

> <Gold.Chemscore.Fitness>
19.4114

> <Gold.Chemscore.DG>
-20.1002

> <Gold.Chemscore.ZeroCoef>
-5.4800

> <Gold.Chemscore.Hbond>
2.6074

> <Gold.Chemscore.Metal>
0.0000

> <Gold.Chemscore.Lipo>
102.4346

> <Gold.Chemscore.Internal_Hbond>
0.0000

> <Gold.Chemscore.DEClash>
0.0918

> <Gold.Chemscore.DEInternal>
0.5971

> <Gold.Chemscore.Rot>
2.3724

> <Gold.Chemscore.Internal.Correction>
   9.000000E+99

> <Gold.Chemscore.Hbonds>
donor molecule, donor type, donor heavy atom, donor atom, acceptor molecule, acceptor atom, score
      L1  H     5    45       P1  8028  0.98
      P1  H  6931  6943       L1    19  0.92
      P1  H  6934  6947       L1    19  0.49

> <Gold.Chemscore.Hbond.Weighted>
-8.7088

> <Gold.Chemscore.Metal.Weighted>
-0.0000

> <Gold.Chemscore.Lipo.Weighted>
-11.9848

> <Gold.Chemscore.Internal_Hbond.Weighted>
0.0000

> <Gold.Chemscore.DEClash.Weighted>
0.0918

> <Gold.Chemscore.DEInternal.Weighted>
0.5971

> <Gold.Chemscore.Rot.Weighted>
6.0734

> <Gold.Chemscore.Internal.Correction.Weighted>
   9.000000E+99

> <Gold.Protein.RotatedTorsions>
[ 6907 6896 6895 6894 ] final   52.77 input  -60.11 | X-H torsion
[ 7974 7965 7964 7962 ] final -159.08 input  175.53 | X-H torsion
[ 8008 7997 7996 7995 ] final  -63.65 input   59.86 | X-H torsion
[ 10167 10162 10161 10158 ] final -136.95 input  -65.29 | X-H torsion
[ 10718 10713 10712 10709 ] final -108.09 input   66.30 | X-H torsion
[ 10763 10752 10751 10750 ] final  153.77 input  -60.55 | X-H torsion
[ 11005 11000 10999 10996 ] final  -76.42 input  -57.11 | X-H torsion

> <Gold.Protein.ActiveResidues>
 VAL166  LYS551  ARG553  GLY616  TRP617  ASP618  TYR619  PRO620  LYS621  CYS622 
 ASP623  PHE694  ASN695  SER759  ASP760  ASP761  ALA762  ILE779  LEU786  VAL792 
 PHE793  MET794  SER795  GLU796  ALA797  LYS798  CYS799  TRP800  GLU811  SER814 

> <Gold.Protein.RotatedAtoms>
  152.3268  134.7311  160.0299 H   0  0  0  0  0  0  0  0  0  0  0  0  # atno 6907 bound_to 6896
  151.7741  133.3338  159.3461 H   0  0  0  0  0  0  0  0  0  0  0  0  # atno 6908 bound_to 6896
  150.7400  134.5923  159.6038 H   0  0  0  0  0  0  0  0  0  0  0  0  # atno 6909 bound_to 6896
  144.7479  140.3735  143.6070 H   0  0  0  0  0  0  0  0  0  0  0  0  # atno 7974 bound_to 7965
  154.4566  140.0970  156.6775 H   0  0  0  0  0  0  0  0  0  0  0  0  # atno 8008 bound_to 7997
  155.5119  140.3476  155.4371 H   0  0  0  0  0  0  0  0  0  0  0  0  # atno 8009 bound_to 7997
  156.0790  140.1368  156.9725 H   0  0  0  0  0  0  0  0  0  0  0  0  # atno 8010 bound_to 7997
  139.8626  143.7058  152.2648 H   0  0  0  0  0  0  0  0  0  0  0  0  # atno 10167 bound_to 10162
  156.0468  130.5695  150.7913 H   0  0  0  0  0  0  0  0  0  0  0  0  # atno 10718 bound_to 10713
  154.1415  135.2820  155.3159 H   0  0  0  0  0  0  0  0  0  0  0  0  # atno 10763 bound_to 10752
  154.6283  135.5444  153.7655 H   0  0  0  0  0  0  0  0  0  0  0  0  # atno 10764 bound_to 10752
  153.0249  135.6456  154.1562 H   0  0  0  0  0  0  0  0  0  0  0  0  # atno 10765 bound_to 10752
  141.1653  133.6983  156.7665 H   0  0  0  0  0  0  0  0  0  0  0  0  # atno 11005 bound_to 11000
  145.7052  139.1671  143.2570 LP  0  0  0  0  0  0  0  0  0  0  0  0  # atno 17320 bound_to 7965
  146.1386  140.7088  142.9377 LP  0  0  0  0  0  0  0  0  0  0  0  0  # atno 17321 bound_to 7965
  139.7359  144.7571  151.0728 LP  0  0  0  0  0  0  0  0  0  0  0  0  # atno 17342 bound_to 10162
  140.7773  143.5031  150.9746 LP  0  0  0  0  0  0  0  0  0  0  0  0  # atno 17343 bound_to 10162
  157.5353  131.0938  150.9901 LP  0  0  0  0  0  0  0  0  0  0  0  0  # atno 17370 bound_to 10713
  157.0197  130.5669  149.5330 LP  0  0  0  0  0  0  0  0  0  0  0  0  # atno 17371 bound_to 10713
  140.2495  134.8551  157.3653 LP  0  0  0  0  0  0  0  0  0  0  0  0  # atno 17394 bound_to 11000
  140.1716  134.4601  155.7828 LP  0  0  0  0  0  0  0  0  0  0  0  0  # atno 17395 bound_to 11000

$$$$
