AV-unprocessed.smi:2185|AV-procd|sdf|8875|dock1
  -GOLD-   2272012 73D 1   1.00000     0.00000
 Structure written by MMmdl.
 38 39  0  0  0  0  0  0  0  0  1 V2000
  145.7488  137.3807  152.2451 C   0  0  0  0  0  0  0  0  0  0  0  0
  146.4405  137.9031  153.8671 S   0  0  0  0  0  0  0  0  0  0  0  0
  145.4477  138.7600  154.5332 O   0  0  0  0  0  0  0  0  0  0  0  0
  146.9505  136.7075  154.5555 O   0  0  0  0  0  0  0  0  0  0  0  0
  147.8043  138.8986  153.4458 N   0  0  0  0  0  0  0  0  0  0  0  0
  147.5895  140.2513  152.8937 C   0  0  0  0  0  0  0  0  0  0  0  0
  147.8035  141.3406  153.9589 C   0  0  0  0  0  0  0  0  0  0  0  0
  149.1796  141.2078  154.6270 C   0  0  0  0  0  0  0  0  0  0  0  0
  149.3243  142.2216  155.6677 N   0  0  0  0  0  0  0  0  0  0  0  0
  150.2040  142.1731  156.6782 C   0  0  0  0  0  0  0  0  0  0  0  0
  150.9956  141.2457  156.8438 O   0  0  0  0  0  0  0  0  0  0  0  0
  150.1080  143.2657  157.4552 N   0  0  0  0  0  0  0  0  0  0  0  0
  150.8581  143.6045  158.6145 C   0  0  0  0  0  0  0  0  0  0  0  0
  151.8127  142.7579  159.2294 C   0  0  0  0  0  0  0  0  0  0  0  0
  152.4761  143.2094  160.3868 C   0  0  0  0  0  0  0  0  0  0  0  0
  152.1579  144.4854  160.8908 C   0  0  0  0  0  0  0  0  0  0  0  0
  151.2427  145.2980  160.3225 N   0  0  0  0  0  0  0  0  0  0  0  0
  150.6107  144.8582  159.2135 C   0  0  0  0  0  0  0  0  0  0  0  0
  149.3241  139.7937  155.2140 C   0  0  0  0  0  0  0  0  0  0  0  0
  149.0943  138.7140  154.1412 C   0  0  0  0  0  0  0  0  0  0  0  0
  144.8818  136.7436  152.4178 H   0  0  0  0  0  0  0  0  0  0  0  0
  146.4948  136.8182  151.6868 H   0  0  0  0  0  0  0  0  0  0  0  0
  145.4365  138.2550  151.6766 H   0  0  0  0  0  0  0  0  0  0  0  0
  148.2912  140.4023  152.0725 H   0  0  0  0  0  0  0  0  0  0  0  0
  146.5922  140.3329  152.4629 H   0  0  0  0  0  0  0  0  0  0  0  0
  147.7095  142.3235  153.4956 H   0  0  0  0  0  0  0  0  0  0  0  0
  147.0173  141.2830  154.7112 H   0  0  0  0  0  0  0  0  0  0  0  0
  149.9476  141.3608  153.8661 H   0  0  0  0  0  0  0  0  0  0  0  0
  148.7132  143.0230  155.6084 H   0  0  0  0  0  0  0  0  0  0  0  0
  149.4523  143.9690  157.1481 H   0  0  0  0  0  0  0  0  0  0  0  0
  152.0401  141.7736  158.8515 H   0  0  0  0  0  0  0  0  0  0  0  0
  153.2097  142.5887  160.8797 H   0  0  0  0  0  0  0  0  0  0  0  0
  152.6472  144.8608  161.7774 H   0  0  0  0  0  0  0  0  0  0  0  0
  149.8831  145.5342  158.7880 H   0  0  0  0  0  0  0  0  0  0  0  0
  150.3180  139.6663  155.6446 H   0  0  0  0  0  0  0  0  0  0  0  0
  148.6194  139.6594  156.0342 H   0  0  0  0  0  0  0  0  0  0  0  0
  149.1471  137.7208  154.5857 H   0  0  0  0  0  0  0  0  0  0  0  0
  149.8934  138.7622  153.4008 H   0  0  0  0  0  0  0  0  0  0  0  0
  1  2  1  0  0  0  0
  1 21  1  0  0  0  0
  1 22  1  0  0  0  0
  1 23  1  0  0  0  0
  2  3  2  0  0  0  0
  2  4  2  0  0  0  0
  2  5  1  0  0  0  0
  5 20  1  0  0  0  0
  5  6  1  0  0  0  0
  6  7  1  0  0  0  0
  6 24  1  0  0  0  0
  6 25  1  0  0  0  0
  7  8  1  0  0  0  0
  7 26  1  0  0  0  0
  7 27  1  0  0  0  0
  8  9  1  0  0  0  0
  8 19  1  0  0  0  0
  8 28  1  0  0  0  0
  9 10  1  0  0  0  0
  9 29  1  0  0  0  0
 10 11  2  0  0  0  0
 10 12  1  0  0  0  0
 12 13  1  0  0  0  0
 12 30  1  0  0  0  0
 13 18  1  0  0  0  0
 13 14  2  0  0  0  0
 14 15  1  0  0  0  0
 14 31  1  0  0  0  0
 15 16  2  0  0  0  0
 15 32  1  0  0  0  0
 16 17  1  0  0  0  0
 16 33  1  0  0  0  0
 17 18  2  0  0  0  0
 18 34  1  0  0  0  0
 19 20  1  0  0  0  0
 19 35  1  0  0  0  0
 19 36  1  0  0  0  0
 20 37  1  0  0  0  0
 20 38  1  0  0  0  0
M  END
> <s_m_source_file>
AV-unprocessed.smi

> <i_m_source_file_index>
2185

> <i_lp_mmshare_version>
43012

> <i_f3d_flags>
0

> <s_epik_input>
W0NIM11TKD1PKSg9TylOMVtDSDJdW0NIMl1bQ0hdKFtDSDJdW0NIMl0xKVtOSF1DKD1PKVtOSF1jMltjSF1bY0hdW2NIXW5bY0hdMg==

> <s_epik_cmdline>
J2VwaWtfcHl0aG9uJywgJy1waCcsICc3LjAnLCAnLXRuJywgJzgnLCAnLW1hJywgJzIwMCcsICctbWV0YWxfYmluZGluZycsICctaW1hZScsICc8aW5maWxlLm1hZT4nLCAnLW9tYWUnLCAnPG91dGZpbGUubWFlPic=

> <r_epik_Ionization_Penalty>
0.00480481

> <r_epik_Ionization_Penalty_Charging>
0

> <r_epik_Ionization_Penalty_Neutral>
0.00480481

> <r_epik_State_Penalty>
0.00345682

> <r_epik_Charging_Adjusted_Penalty>
0.00345682

> <i_epik_Tot_Q>
0

> <i_epik_Tot_abs_Q>
0

> <r_epik_Metal_State_Penalty>
-0

> <b_epik_Metal_Only>
0

> <s_lp_Force_Field>
OPLS_2005

> <r_lp_Energy>
2.72974

> <b_lp_Chiralities_Consistent>
1

> <s_lp_Variant>
AV-unprocessed.smi:2185-1

> <Gold.Version>
5.8.1

> <Gold.Id.Protein>
6NUR|6NUR_protein|mol2

> <Gold.PLP.Fitness>
40.3260

> <Gold.PLP.PLP>
-33.1309

> <Gold.PLP.part.hbond>
-2.0000

> <Gold.PLP.part.metal>
0.0000

> <Gold.PLP.part.buried>
-1.3077

> <Gold.PLP.part.nonpolar>
-31.3731

> <Gold.PLP.part.repulsive>
0.5794

> <Gold.PLP.ligand.clash>
0.0261

> <Gold.PLP.ligand.torsion>
1.3637

> <Gold.PLP.Chemscore.Hbond>
1.6320

> <Gold.PLP.Chemscore.CHOScore>
1.0000

> <Gold.PLP.Chemscore.Metal>
0.0000

> <Gold.Chemscore.Hbonds>
donor molecule, donor type, donor heavy atom, donor atom, acceptor molecule, acceptor atom, score
      L1  H     9    29       P1  8028  0.75
      L1  H    12    30       P1  8028  0.82
      L1  C    18    34       P1  8029  1.00

> <Gold.PLP.Chemscore.Internal.Correction>
2.0525

> <Gold.Rescore>
     Score         DG    S(hbond)    S(metal)    S(lipo)     H(rot)  DE(clash)    DE(int)     intcor
     15.19     -19.46       1.91        0.00      86.90       1.00       0.08       4.19       ----

> <Gold.Chemscore.Fitness>
15.1895

> <Gold.Chemscore.DG>
-19.4639

> <Gold.Chemscore.ZeroCoef>
-5.4800

> <Gold.Chemscore.Hbond>
1.9091

> <Gold.Chemscore.Metal>
0.0000

> <Gold.Chemscore.Lipo>
86.9025

> <Gold.Chemscore.Internal_Hbond>
0.0000

> <Gold.Chemscore.DEClash>
0.0816

> <Gold.Chemscore.DEInternal>
4.1928

> <Gold.Chemscore.Rot>
1.0000

> <Gold.Chemscore.Internal.Correction>
   9.000000E+99

> <Gold.Chemscore.Hbonds>
donor molecule, donor type, donor heavy atom, donor atom, acceptor molecule, acceptor atom, score
      L1  H     9    29       P1  8028  0.76
      L1  H    12    30       P1  8028  0.41

> <Gold.Chemscore.Hbond.Weighted>
-6.3763

> <Gold.Chemscore.Metal.Weighted>
-0.0000

> <Gold.Chemscore.Lipo.Weighted>
-10.1676

> <Gold.Chemscore.Internal_Hbond.Weighted>
0.0000

> <Gold.Chemscore.DEClash.Weighted>
0.0816

> <Gold.Chemscore.DEInternal.Weighted>
4.1928

> <Gold.Chemscore.Rot.Weighted>
2.5600

> <Gold.Chemscore.Internal.Correction.Weighted>
   9.000000E+99

> <Gold.Protein.RotatedTorsions>
[ 6907 6896 6895 6894 ] final  -71.53 input  -60.11 | X-H torsion
[ 7974 7965 7964 7962 ] final  -85.78 input  175.53 | X-H torsion
[ 8008 7997 7996 7995 ] final -113.84 input   59.86 | X-H torsion
[ 10167 10162 10161 10158 ] final -124.81 input  -65.29 | X-H torsion
[ 10718 10713 10712 10709 ] final   -4.29 input   66.30 | X-H torsion
[ 10763 10752 10751 10750 ] final   -0.10 input  -60.55 | X-H torsion
[ 11005 11000 10999 10996 ] final  153.93 input  -57.11 | X-H torsion

> <Gold.Protein.ActiveResidues>
 VAL166  LYS551  ARG553  GLY616  TRP617  ASP618  TYR619  PRO620  LYS621  CYS622 
 ASP623  PHE694  ASN695  SER759  ASP760  ASP761  ALA762  ILE779  LEU786  VAL792 
 PHE793  MET794  SER795  GLU796  ALA797  LYS798  CYS799  TRP800  GLU811  SER814 

> <Gold.Protein.RotatedAtoms>
  150.7208  134.5295  159.5692 H   0  0  0  0  0  0  0  0  0  0  0  0  # atno 6907 bound_to 6896
  152.2831  134.7803  160.0401 H   0  0  0  0  0  0  0  0  0  0  0  0  # atno 6908 bound_to 6896
  151.8442  133.3393  159.3689 H   0  0  0  0  0  0  0  0  0  0  0  0  # atno 6909 bound_to 6896
  145.4887  140.9554  143.1824 H   0  0  0  0  0  0  0  0  0  0  0  0  # atno 7974 bound_to 7965
  155.0269  140.0393  157.2459 H   0  0  0  0  0  0  0  0  0  0  0  0  # atno 8008 bound_to 7997
  154.7330  140.2734  155.6416 H   0  0  0  0  0  0  0  0  0  0  0  0  # atno 8009 bound_to 7997
  156.2846  140.2680  156.2035 H   0  0  0  0  0  0  0  0  0  0  0  0  # atno 8010 bound_to 7997
  139.9888  143.5663  152.2350 H   0  0  0  0  0  0  0  0  0  0  0  0  # atno 10167 bound_to 10162
  156.7635  130.5277  149.5780 H   0  0  0  0  0  0  0  0  0  0  0  0  # atno 10718 bound_to 10713
  153.3276  135.6973  153.6976 H   0  0  0  0  0  0  0  0  0  0  0  0  # atno 10763 bound_to 10752
  153.5791  135.3501  155.2868 H   0  0  0  0  0  0  0  0  0  0  0  0  # atno 10764 bound_to 10752
  154.8611  135.4290  154.2456 H   0  0  0  0  0  0  0  0  0  0  0  0  # atno 10765 bound_to 10752
  140.1443  134.8718  157.2372 H   0  0  0  0  0  0  0  0  0  0  0  0  # atno 11005 bound_to 11000
  144.7846  139.6453  143.7139 LP  0  0  0  0  0  0  0  0  0  0  0  0  # atno 17320 bound_to 7965
  146.2297  139.5790  142.9563 LP  0  0  0  0  0  0  0  0  0  0  0  0  # atno 17321 bound_to 7965
  139.6355  144.7649  151.2447 LP  0  0  0  0  0  0  0  0  0  0  0  0  # atno 17342 bound_to 10162
  140.7462  143.6406  150.8338 LP  0  0  0  0  0  0  0  0  0  0  0  0  # atno 17343 bound_to 10162
  156.1323  130.6187  151.0351 LP  0  0  0  0  0  0  0  0  0  0  0  0  # atno 17370 bound_to 10713
  157.6723  131.0858  150.7580 LP  0  0  0  0  0  0  0  0  0  0  0  0  # atno 17371 bound_to 10713
  140.2683  134.3490  155.7382 LP  0  0  0  0  0  0  0  0  0  0  0  0  # atno 17394 bound_to 11000
  141.2190  133.7409  156.9185 LP  0  0  0  0  0  0  0  0  0  0  0  0  # atno 17395 bound_to 11000

$$$$
