AV-unprocessed.smi:3290|AV-procd|sdf|12618|dock7
  -GOLD-   2272018553D 1   1.00000     0.00000
 Structure written by MMmdl.
 43 44  0  0  0  0  0  0  0  0  2 V2000
  141.9104  135.2618  153.4482 C   0  0  0  0  0  0  0  0  0  0  0  0
  143.2340  134.8022  152.8103 C   0  0  1  0  0  0  0  0  0  0  0  0
  142.9899  133.5186  151.9883 C   0  0  0  0  0  0  0  0  0  0  0  0
  144.2842  132.9755  151.3688 C   0  0  0  0  0  0  0  0  0  0  0  0
  144.9625  134.0432  150.5035 C   0  0  0  0  0  0  0  0  0  0  0  0
  145.2202  135.3206  151.3148 C   0  0  0  0  0  0  0  0  0  0  0  0
  143.9258  135.8913  151.9367 C   0  0  2  0  0  0  0  0  0  0  0  0
  144.2577  137.1884  152.7094 C   0  0  0  0  0  0  0  0  0  0  0  0
  145.2026  138.0500  151.9712 N   0  3  0  0  0  0  0  0  0  0  0  0
  146.4888  138.2690  152.6624 C   0  0  0  0  0  0  0  0  0  0  0  0
  146.5445  139.6590  153.3201 C   0  0  1  0  0  0  0  0  0  0  0  0
  145.5592  139.7226  154.3334 O   0  0  0  0  0  0  0  0  0  0  0  0
  147.9330  139.9536  153.8657 C   0  0  0  0  0  0  0  0  0  0  0  0
  148.8932  138.9260  153.9730 C   0  0  0  0  0  0  0  0  0  0  0  0
  150.1659  139.2437  154.4886 C   0  0  0  0  0  0  0  0  0  0  0  0
  150.5148  140.4847  154.8893 N   0  0  0  0  0  0  0  0  0  0  0  0
  149.5918  141.4645  154.7868 C   0  0  0  0  0  0  0  0  0  0  0  0
  148.2920  141.2530  154.2855 C   0  0  0  0  0  0  0  0  0  0  0  0
  141.2144  135.6346  152.6962 H   0  0  0  0  0  0  0  0  0  0  0  0
  142.0684  136.0466  154.1872 H   0  0  0  0  0  0  0  0  0  0  0  0
  141.4216  134.4385  153.9702 H   0  0  0  0  0  0  0  0  0  0  0  0
  143.9112  134.5432  153.6257 H   0  0  0  0  0  0  0  0  0  0  0  0
  142.5466  132.7480  152.6202 H   0  0  0  0  0  0  0  0  0  0  0  0
  142.2662  133.7198  151.1971 H   0  0  0  0  0  0  0  0  0  0  0  0
  144.9644  132.6551  152.1590 H   0  0  0  0  0  0  0  0  0  0  0  0
  144.0677  132.0915  150.7682 H   0  0  0  0  0  0  0  0  0  0  0  0
  145.9020  133.6579  150.1062 H   0  0  0  0  0  0  0  0  0  0  0  0
  144.3333  134.2740  149.6428 H   0  0  0  0  0  0  0  0  0  0  0  0
  145.9457  135.1093  152.1020 H   0  0  0  0  0  0  0  0  0  0  0  0
  145.6825  136.0643  150.6645 H   0  0  0  0  0  0  0  0  0  0  0  0
  143.2606  136.1465  151.1098 H   0  0  0  0  0  0  0  0  0  0  0  0
  143.3431  137.7381  152.9369 H   0  0  0  0  0  0  0  0  0  0  0  0
  144.7242  136.9481  153.6657 H   0  0  0  0  0  0  0  0  0  0  0  0
  145.3829  137.6374  151.0671 H   0  0  0  0  0  0  0  0  0  0  0  0
  146.6380  137.4893  153.4112 H   0  0  0  0  0  0  0  0  0  0  0  0
  147.2950  138.1715  151.9340 H   0  0  0  0  0  0  0  0  0  0  0  0
  146.2970  140.4193  152.5778 H   0  0  0  0  0  0  0  0  0  0  0  0
  144.7146  139.8344  153.9231 H   0  0  0  0  0  0  0  0  0  0  0  0
  148.6662  137.9148  153.6686 H   0  0  0  0  0  0  0  0  0  0  0  0
  150.9234  138.4797  154.5823 H   0  0  0  0  0  0  0  0  0  0  0  0
  149.8973  142.4468  155.1154 H   0  0  0  0  0  0  0  0  0  0  0  0
  147.5910  142.0727  154.2272 H   0  0  0  0  0  0  0  0  0  0  0  0
  144.7674  138.9515  151.8326 H   0  0  0  0  0  0  0  0  0  0  0  0
  1  2  1  0  0  0  0
  1 19  1  0  0  0  0
  1 20  1  0  0  0  0
  1 21  1  0  0  0  0
  2  7  1  0  0  0  0
  2  3  1  0  0  0  0
  2 22  1  0  0  0  0
  3  4  1  0  0  0  0
  3 23  1  0  0  0  0
  3 24  1  0  0  0  0
  4  5  1  0  0  0  0
  4 25  1  0  0  0  0
  4 26  1  0  0  0  0
  5  6  1  0  0  0  0
  5 27  1  0  0  0  0
  5 28  1  0  0  0  0
  6  7  1  0  0  0  0
  6 29  1  0  0  0  0
  6 30  1  0  0  0  0
  7  8  1  0  0  0  0
  7 31  1  0  0  0  0
  8  9  1  0  0  0  0
  8 32  1  0  0  0  0
  8 33  1  0  0  0  0
  9 10  1  0  0  0  0
  9 34  1  0  0  0  0
  9 43  1  0  0  0  0
 10 11  1  0  0  0  0
 10 35  1  0  0  0  0
 10 36  1  0  0  0  0
 11 12  1  0  0  0  0
 11 13  1  0  0  0  0
 11 37  1  0  0  0  0
 12 38  1  0  0  0  0
 13 18  1  0  0  0  0
 13 14  2  0  0  0  0
 14 15  1  0  0  0  0
 14 39  1  0  0  0  0
 15 16  2  0  0  0  0
 15 40  1  0  0  0  0
 16 17  1  0  0  0  0
 17 18  2  0  0  0  0
 17 41  1  0  0  0  0
 18 42  1  0  0  0  0
M  CHG  1   9   1
M  END
> <s_m_source_file>
AV-unprocessed.smi

> <i_m_source_file_index>
3290

> <i_lp_mmshare_version>
43012

> <i_f3d_flags>
0

> <s_epik_input>
W0NIM11bQ0BASF0xW0NIMl1bQ0gyXVtDSDJdW0NIMl1bQ0BIXTFbQ0gyXVtOSF1bQ0gyXVtDQEhdKFtPSF0pYzJbY0hdW2NIXW5bY0hdW2NIXTI=

> <s_epik_cmdline>
J2VwaWtfcHl0aG9uJywgJy1waCcsICc3LjAnLCAnLXRuJywgJzgnLCAnLW1hJywgJzIwMCcsICctbWV0YWxfYmluZGluZycsICctaW1hZScsICc8aW5maWxlLm1hZT4nLCAnLW9tYWUnLCAnPG91dGZpbGUubWFlPic=

> <r_lp_tautomer_probability>
1

> <r_epik_Ionization_Penalty>
0.00420552

> <r_epik_Ionization_Penalty_Charging>
0.00207255

> <r_epik_Ionization_Penalty_Neutral>
0.00213297

> <r_epik_State_Penalty>
-0

> <r_epik_Charging_Adjusted_Penalty>
0.00207255

> <i_epik_Tot_Q>
1

> <i_epik_Tot_abs_Q>
1

> <r_epik_Metal_State_Penalty>
-0

> <b_epik_Metal_Only>
0

> <s_lp_Force_Field>
OPLS_2005

> <r_lp_Energy>
17.3555

> <b_lp_Chiralities_Consistent>
1

> <s_lp_Variant>
AV-unprocessed.smi:3290-8

> <Gold.Version>
5.8.1

> <Gold.Id.Protein>
6NUR|6NUR_protein|mol2

> <Gold.PLP.Fitness>
49.4490

> <Gold.PLP.PLP>
-36.7296

> <Gold.PLP.part.hbond>
-4.0000

> <Gold.PLP.part.metal>
0.0000

> <Gold.PLP.part.buried>
-0.4962

> <Gold.PLP.part.nonpolar>
-32.4033

> <Gold.PLP.part.repulsive>
0.1136

> <Gold.PLP.ligand.clash>
0.0000

> <Gold.PLP.ligand.torsion>
1.0582

> <Gold.PLP.Chemscore.Hbond>
3.9198

> <Gold.PLP.Chemscore.CHOScore>
1.0000

> <Gold.PLP.Chemscore.Metal>
0.0000

> <Gold.Chemscore.Hbonds>
donor molecule, donor type, donor heavy atom, donor atom, acceptor molecule, acceptor atom, score
      L1  H     9    34       P1 10171  0.03
      L1  H     9    43       P1 10175  2.00
      L1  H    12    38       P1 10175  1.00
      P1  H  7989  7998       L1    16  0.90
      L1  C    17    41       P1  8028  0.98

> <Gold.PLP.Chemscore.Internal.Correction>
0.0766

> <Gold.Rescore>
     Score         DG    S(hbond)    S(metal)    S(lipo)     H(rot)  DE(clash)    DE(int)     intcor
     16.28     -17.62       1.93        0.00      93.51       2.05       0.41       0.94       ----

> <Gold.Chemscore.Fitness>
16.2778

> <Gold.Chemscore.DG>
-17.6185

> <Gold.Chemscore.ZeroCoef>
-5.4800

> <Gold.Chemscore.Hbond>
1.9298

> <Gold.Chemscore.Metal>
0.0000

> <Gold.Chemscore.Lipo>
93.5076

> <Gold.Chemscore.Internal_Hbond>
0.0000

> <Gold.Chemscore.DEClash>
0.4051

> <Gold.Chemscore.DEInternal>
0.9356

> <Gold.Chemscore.Rot>
2.0498

> <Gold.Chemscore.Internal.Correction>
   9.000000E+99

> <Gold.Chemscore.Hbonds>
donor molecule, donor type, donor heavy atom, donor atom, acceptor molecule, acceptor atom, score
      L1  H     9    34       P1 10171  0.06
      L1  H     9    43       P1 10175  0.95
      L1  H    12    38       P1 10175  0.94
      P1  H  7989  7998       L1    16  0.05

> <Gold.Chemscore.Hbond.Weighted>
-6.4457

> <Gold.Chemscore.Metal.Weighted>
-0.0000

> <Gold.Chemscore.Lipo.Weighted>
-10.9404

> <Gold.Chemscore.Internal_Hbond.Weighted>
0.0000

> <Gold.Chemscore.DEClash.Weighted>
0.4051

> <Gold.Chemscore.DEInternal.Weighted>
0.9356

> <Gold.Chemscore.Rot.Weighted>
5.2475

> <Gold.Chemscore.Internal.Correction.Weighted>
   9.000000E+99

> <Gold.Protein.RotatedTorsions>
[ 6907 6896 6895 6894 ] final -104.99 input  -60.11 | X-H torsion
[ 7974 7965 7964 7962 ] final  -68.18 input  175.53 | X-H torsion
[ 8008 7997 7996 7995 ] final  100.58 input   59.86 | X-H torsion
[ 10167 10162 10161 10158 ] final   56.62 input  -65.29 | X-H torsion
[ 10718 10713 10712 10709 ] final  -15.68 input   66.30 | X-H torsion
[ 10763 10752 10751 10750 ] final   -2.17 input  -60.55 | X-H torsion
[ 11005 11000 10999 10996 ] final -147.05 input  -57.11 | X-H torsion

> <Gold.Protein.ActiveResidues>
 VAL166  LYS551  ARG553  GLY616  TRP617  ASP618  TYR619  PRO620  LYS621  CYS622 
 ASP623  PHE694  ASN695  SER759  ASP760  ASP761  ALA762  ILE779  LEU786  VAL792 
 PHE793  MET794  SER795  GLU796  ALA797  LYS798  CYS799  TRP800  GLU811  SER814 

> <Gold.Protein.RotatedAtoms>
  150.7314  134.0194  159.3695 H   0  0  0  0  0  0  0  0  0  0  0  0  # atno 6907 bound_to 6896
  151.8157  135.0665  160.0428 H   0  0  0  0  0  0  0  0  0  0  0  0  # atno 6908 bound_to 6896
  152.3040  133.5648  159.5673 H   0  0  0  0  0  0  0  0  0  0  0  0  # atno 6909 bound_to 6896
  145.7198  140.9043  143.0636 H   0  0  0  0  0  0  0  0  0  0  0  0  # atno 7974 bound_to 7965
  156.1217  140.3211  155.8217 H   0  0  0  0  0  0  0  0  0  0  0  0  # atno 8008 bound_to 7997
  155.4493  140.0531  157.3020 H   0  0  0  0  0  0  0  0  0  0  0  0  # atno 8009 bound_to 7997
  154.4832  140.2062  155.9729 H   0  0  0  0  0  0  0  0  0  0  0  0  # atno 8010 bound_to 7997
  140.2067  144.3931  150.6506 H   0  0  0  0  0  0  0  0  0  0  0  0  # atno 10167 bound_to 10162
  156.5983  130.4817  149.6250 H   0  0  0  0  0  0  0  0  0  0  0  0  # atno 10718 bound_to 10713
  153.3545  135.6987  153.6762 H   0  0  0  0  0  0  0  0  0  0  0  0  # atno 10763 bound_to 10752
  153.5475  135.3560  155.2746 H   0  0  0  0  0  0  0  0  0  0  0  0  # atno 10764 bound_to 10752
  154.8658  135.4218  154.2788 H   0  0  0  0  0  0  0  0  0  0  0  0  # atno 10765 bound_to 10752
  140.7757  134.3138  157.5061 H   0  0  0  0  0  0  0  0  0  0  0  0  # atno 11005 bound_to 11000
  144.6920  139.9187  143.7467 LP  0  0  0  0  0  0  0  0  0  0  0  0  # atno 17320 bound_to 7965
  146.0636  139.3628  143.0566 LP  0  0  0  0  0  0  0  0  0  0  0  0  # atno 17321 bound_to 7965
  140.6352  143.2194  151.6410 LP  0  0  0  0  0  0  0  0  0  0  0  0  # atno 17342 bound_to 10162
  139.5196  144.3250  152.0877 LP  0  0  0  0  0  0  0  0  0  0  0  0  # atno 17343 bound_to 10162
  156.2491  130.6896  151.1627 LP  0  0  0  0  0  0  0  0  0  0  0  0  # atno 17370 bound_to 10713
  157.7286  131.0630  150.5812 LP  0  0  0  0  0  0  0  0  0  0  0  0  # atno 17371 bound_to 10713
  139.8749  134.9288  156.3459 LP  0  0  0  0  0  0  0  0  0  0  0  0  # atno 17394 bound_to 11000
  140.9531  133.7437  156.0299 LP  0  0  0  0  0  0  0  0  0  0  0  0  # atno 17395 bound_to 11000

$$$$
