AV-unprocessed.smi:740|AV-procd|sdf|3553|dock10
  -GOLD-   22720 0553D 1   1.00000     0.00000
 Structure written by MMmdl.
 45 47  0  0  0  0  0  0  0  0  2 V2000
  151.9204  143.3856  160.5467 C   0  0  0  0  0  0  0  0  0  0  0  0
  151.8211  142.4861  159.3266 C   0  0  0  0  0  0  0  0  0  0  0  0
  150.9158  142.8391  158.3007 C   0  0  0  0  0  0  0  0  0  0  0  0
  150.8479  141.9972  157.1970 C   0  0  0  0  0  0  0  0  0  0  0  0
  150.0721  142.0708  156.0382 N   0  3  0  0  0  0  0  0  0  0  0  0
  150.3559  141.0099  155.2335 C   0  0  0  0  0  0  0  0  0  0  0  0
  151.2990  140.2576  155.8626 N   0  0  0  0  0  0  0  0  0  0  0  0
  151.9453  139.0126  155.4240 C   0  0  0  0  0  0  0  0  0  0  0  0
  150.9314  137.9444  154.9702 C   0  0  1  0  0  0  0  0  0  0  0  0
  151.6048  136.9769  154.1883 O   0  0  0  0  0  0  0  0  0  0  0  0
  150.2737  137.2391  156.1737 C   0  0  0  0  0  0  0  0  0  0  0  0
  150.1099  135.7986  155.9462 N   0  0  0  0  0  0  0  0  0  0  0  0
  150.9875  134.8703  156.3508 C   0  0  0  0  0  0  0  0  0  0  0  0
  152.0386  135.0773  156.9568 O   0  0  0  0  0  0  0  0  0  0  0  0
  150.5178  133.4727  155.9724 C   0  0  0  0  0  0  0  0  0  0  0  0
  149.1805  133.7304  155.2614 C   0  0  2  0  0  0  0  0  0  0  0  0
  149.1367  133.2074  153.8162 C   0  0  0  0  0  0  0  0  0  0  0  0
  149.0584  135.2519  155.3200 C   0  0  0  0  0  0  0  0  0  0  0  0
  148.1004  135.8613  154.8438 O   0  0  0  0  0  0  0  0  0  0  0  0
  151.6388  140.8364  157.0916 C   0  0  0  0  0  0  0  0  0  0  0  0
  152.5370  140.4751  158.0935 C   0  0  0  0  0  0  0  0  0  0  0  0
  152.6232  141.3202  159.2229 C   0  0  0  0  0  0  0  0  0  0  0  0
  153.5994  140.9542  160.3280 C   0  0  0  0  0  0  0  0  0  0  0  0
  151.2186  144.2178  160.4870 H   0  0  0  0  0  0  0  0  0  0  0  0
  152.9243  143.8014  160.6344 H   0  0  0  0  0  0  0  0  0  0  0  0
  151.6956  142.8262  161.4552 H   0  0  0  0  0  0  0  0  0  0  0  0
  150.3046  143.7270  158.3708 H   0  0  0  0  0  0  0  0  0  0  0  0
  149.9141  140.8030  154.2693 H   0  0  0  0  0  0  0  0  0  0  0  0
  152.6719  139.2334  154.6418 H   0  0  0  0  0  0  0  0  0  0  0  0
  152.5178  138.6395  156.2741 H   0  0  0  0  0  0  0  0  0  0  0  0
  150.1715  138.4246  154.3521 H   0  0  0  0  0  0  0  0  0  0  0  0
  151.1190  136.8447  153.3887 H   0  0  0  0  0  0  0  0  0  0  0  0
  150.8336  137.4374  157.0897 H   0  0  0  0  0  0  0  0  0  0  0  0
  149.2846  137.6663  156.3489 H   0  0  0  0  0  0  0  0  0  0  0  0
  151.2517  132.9932  155.3235 H   0  0  0  0  0  0  0  0  0  0  0  0
  150.3901  132.8594  156.8650 H   0  0  0  0  0  0  0  0  0  0  0  0
  148.3626  133.2939  155.8361 H   0  0  0  0  0  0  0  0  0  0  0  0
  148.1708  133.4096  153.3517 H   0  0  0  0  0  0  0  0  0  0  0  0
  149.2933  132.1288  153.7895 H   0  0  0  0  0  0  0  0  0  0  0  0
  149.9076  133.6697  153.1984 H   0  0  0  0  0  0  0  0  0  0  0  0
  153.1509  139.5905  158.0154 H   0  0  0  0  0  0  0  0  0  0  0  0
  154.1608  140.0523  160.0822 H   0  0  0  0  0  0  0  0  0  0  0  0
  153.0688  140.7719  161.2627 H   0  0  0  0  0  0  0  0  0  0  0  0
  154.3176  141.7586  160.4877 H   0  0  0  0  0  0  0  0  0  0  0  0
  149.3994  142.7919  155.8099 H   0  0  0  0  0  0  0  0  0  0  0  0
  1  2  1  0  0  0  0
  1 24  1  0  0  0  0
  1 25  1  0  0  0  0
  1 26  1  0  0  0  0
  2 22  1  0  0  0  0
  2  3  2  0  0  0  0
  3  4  1  0  0  0  0
  3 27  1  0  0  0  0
  4 20  2  0  0  0  0
  4  5  1  0  0  0  0
  5  6  2  0  0  0  0
  5 45  1  0  0  0  0
  6  7  1  0  0  0  0
  6 28  1  0  0  0  0
  7  8  1  0  0  0  0
  7 20  1  0  0  0  0
  8  9  1  0  0  0  0
  8 29  1  0  0  0  0
  8 30  1  0  0  0  0
  9 10  1  0  0  0  0
  9 11  1  0  0  0  0
  9 31  1  0  0  0  0
 10 32  1  0  0  0  0
 11 12  1  0  0  0  0
 11 33  1  0  0  0  0
 11 34  1  0  0  0  0
 12 18  1  0  0  0  0
 12 13  1  0  0  0  0
 13 14  2  0  0  0  0
 13 15  1  0  0  0  0
 15 16  1  0  0  0  0
 15 35  1  0  0  0  0
 15 36  1  0  0  0  0
 16 17  1  0  0  0  0
 16 18  1  0  0  0  0
 16 37  1  0  0  0  0
 17 38  1  0  0  0  0
 17 39  1  0  0  0  0
 17 40  1  0  0  0  0
 18 19  2  0  0  0  0
 20 21  1  0  0  0  0
 21 22  2  0  0  0  0
 21 41  1  0  0  0  0
 22 23  1  0  0  0  0
 23 42  1  0  0  0  0
 23 43  1  0  0  0  0
 23 44  1  0  0  0  0
M  CHG  1   5   1
M  END
> <s_m_source_file>
AV-unprocessed.smi

> <i_m_source_file_index>
740

> <i_lp_mmshare_version>
43012

> <i_f3d_flags>
0

> <s_epik_input>
W0NIM11jKFtjSF0xKWMoW0NIM10pW2NIXWMoYzEyKW4oW2NIXW4yKVtDSDJdW0NASF0oW09IXSlbQ0gyXU4zQyg9TylbQ0gyXVtDQEBIXShbQ0gzXSlDMz1P

> <s_epik_cmdline>
J2VwaWtfcHl0aG9uJywgJy1waCcsICc3LjAnLCAnLXRuJywgJzgnLCAnLW1hJywgJzIwMCcsICctbWV0YWxfYmluZGluZycsICctaW1hZScsICc8aW5maWxlLm1hZT4nLCAnLW9tYWUnLCAnPG91dGZpbGUubWFlPic=

> <r_lp_tautomer_probability>
1

> <r_epik_Ionization_Penalty>
1.08202

> <r_epik_Ionization_Penalty_Charging>
1.08202

> <r_epik_Ionization_Penalty_Neutral>
1.16605e-06

> <r_epik_State_Penalty>
1.13754

> <r_epik_Charging_Adjusted_Penalty>
2.21956

> <i_epik_Tot_Q>
1

> <i_epik_Tot_abs_Q>
1

> <r_epik_Metal_State_Penalty>
5.13645

> <b_epik_Metal_Only>
0

> <s_lp_Force_Field>
OPLS_2005

> <r_lp_Energy>
22.4261

> <b_lp_Chiralities_Consistent>
1

> <s_lp_Variant>
AV-unprocessed.smi:740-8

> <Gold.Version>
5.8.1

> <Gold.Id.Protein>
6NUR|6NUR_protein|mol2

> <Gold.PLP.Fitness>
55.5622

> <Gold.PLP.PLP>
-44.5560

> <Gold.PLP.part.hbond>
-4.0211

> <Gold.PLP.part.metal>
0.0000

> <Gold.PLP.part.buried>
-3.8044

> <Gold.PLP.part.nonpolar>
-36.1635

> <Gold.PLP.part.repulsive>
0.5904

> <Gold.PLP.ligand.clash>
0.0000

> <Gold.PLP.ligand.torsion>
1.1638

> <Gold.PLP.Chemscore.Hbond>
4.4371

> <Gold.PLP.Chemscore.CHOScore>
0.0000

> <Gold.PLP.Chemscore.Metal>
0.0000

> <Gold.Chemscore.Hbonds>
donor molecule, donor type, donor heavy atom, donor atom, acceptor molecule, acceptor atom, score
      L1  H     5    45       P1  8028  2.00
      L1  H    10    32       P1  7949  0.79
      P1  H 10752 10763       L1    14  0.29
      P1  H 10752 10765       L1    10  0.68

> <Gold.PLP.Chemscore.Internal.Correction>
0.0226

> <Gold.Rescore>
     Score         DG    S(hbond)    S(metal)    S(lipo)     H(rot)  DE(clash)    DE(int)     intcor
     16.31     -17.41       1.69        0.00     105.64       2.37       0.08       1.01       ----

> <Gold.Chemscore.Fitness>
16.3128

> <Gold.Chemscore.DG>
-17.4113

> <Gold.Chemscore.ZeroCoef>
-5.4800

> <Gold.Chemscore.Hbond>
1.6899

> <Gold.Chemscore.Metal>
0.0000

> <Gold.Chemscore.Lipo>
105.6434

> <Gold.Chemscore.Internal_Hbond>
0.0000

> <Gold.Chemscore.DEClash>
0.0839

> <Gold.Chemscore.DEInternal>
1.0145

> <Gold.Chemscore.Rot>
2.3724

> <Gold.Chemscore.Internal.Correction>
   9.000000E+99

> <Gold.Chemscore.Hbonds>
donor molecule, donor type, donor heavy atom, donor atom, acceptor molecule, acceptor atom, score
      L1  H     5    45       P1  8028  0.92
      L1  H    10    32       P1  7949  0.33
      P1  H 10752 10763       L1    14  0.17
      P1  H 10752 10765       L1    10  0.14

> <Gold.Chemscore.Hbond.Weighted>
-5.6444

> <Gold.Chemscore.Metal.Weighted>
-0.0000

> <Gold.Chemscore.Lipo.Weighted>
-12.3603

> <Gold.Chemscore.Internal_Hbond.Weighted>
0.0000

> <Gold.Chemscore.DEClash.Weighted>
0.0839

> <Gold.Chemscore.DEInternal.Weighted>
1.0145

> <Gold.Chemscore.Rot.Weighted>
6.0734

> <Gold.Chemscore.Internal.Correction.Weighted>
   9.000000E+99

> <Gold.Protein.RotatedTorsions>
[ 6907 6896 6895 6894 ] final   17.72 input  -60.11 | X-H torsion
[ 7974 7965 7964 7962 ] final  -26.05 input  175.53 | X-H torsion
[ 8008 7997 7996 7995 ] final   59.82 input   59.86 | X-H torsion
[ 10167 10162 10161 10158 ] final   28.27 input  -65.29 | X-H torsion
[ 10718 10713 10712 10709 ] final -156.64 input   66.30 | X-H torsion
[ 10763 10752 10751 10750 ] final  128.37 input  -60.55 | X-H torsion
[ 11005 11000 10999 10996 ] final  168.60 input  -57.11 | X-H torsion

> <Gold.Protein.ActiveResidues>
 VAL166  LYS551  ARG553  GLY616  TRP617  ASP618  TYR619  PRO620  LYS621  CYS622 
 ASP623  PHE694  ASN695  SER759  ASP760  ASP761  ALA762  ILE779  LEU786  VAL792 
 PHE793  MET794  SER795  GLU796  ALA797  LYS798  CYS799  TRP800  GLU811  SER814 

> <Gold.Protein.RotatedAtoms>
  151.8540  135.0547  160.0461 H   0  0  0  0  0  0  0  0  0  0  0  0  # atno 6907 bound_to 6896
  152.2714  133.5381  159.5450 H   0  0  0  0  0  0  0  0  0  0  0  0  # atno 6908 bound_to 6896
  150.7153  134.0608  159.3873 H   0  0  0  0  0  0  0  0  0  0  0  0  # atno 6909 bound_to 6896
  146.1451  140.4968  142.8635 H   0  0  0  0  0  0  0  0  0  0  0  0  # atno 7974 bound_to 7965
  155.5724  140.3490  155.4518 H   0  0  0  0  0  0  0  0  0  0  0  0  # atno 8008 bound_to 7997
  156.0434  140.1301  157.0155 H   0  0  0  0  0  0  0  0  0  0  0  0  # atno 8009 bound_to 7997
  154.4402  140.1019  156.6256 H   0  0  0  0  0  0  0  0  0  0  0  0  # atno 8010 bound_to 7997
  140.4867  144.0532  150.6283 H   0  0  0  0  0  0  0  0  0  0  0  0  # atno 10167 bound_to 10162
  156.5293  130.8513  151.2710 H   0  0  0  0  0  0  0  0  0  0  0  0  # atno 10718 bound_to 10713
  153.7245  135.3248  155.3273 H   0  0  0  0  0  0  0  0  0  0  0  0  # atno 10763 bound_to 10752
  154.8345  135.4507  154.1184 H   0  0  0  0  0  0  0  0  0  0  0  0  # atno 10764 bound_to 10752
  153.2314  135.6960  153.7966 H   0  0  0  0  0  0  0  0  0  0  0  0  # atno 10765 bound_to 10752
  140.2890  134.7689  157.3822 H   0  0  0  0  0  0  0  0  0  0  0  0  # atno 11005 bound_to 11000
  144.7837  140.5892  143.6588 LP  0  0  0  0  0  0  0  0  0  0  0  0  # atno 17320 bound_to 7965
  145.4957  139.1486  143.3685 LP  0  0  0  0  0  0  0  0  0  0  0  0  # atno 17321 bound_to 7965
  140.3789  143.2813  152.0193 LP  0  0  0  0  0  0  0  0  0  0  0  0  # atno 17342 bound_to 10162
  139.4843  144.6170  151.7326 LP  0  0  0  0  0  0  0  0  0  0  0  0  # atno 17343 bound_to 10162
  157.7424  130.9890  150.2516 LP  0  0  0  0  0  0  0  0  0  0  0  0  # atno 17370 bound_to 10713
  156.3075  130.3767  149.7692 LP  0  0  0  0  0  0  0  0  0  0  0  0  # atno 17371 bound_to 10713
  140.1213  134.5216  155.8181 LP  0  0  0  0  0  0  0  0  0  0  0  0  # atno 17394 bound_to 11000
  141.2149  133.6757  156.6871 LP  0  0  0  0  0  0  0  0  0  0  0  0  # atno 17395 bound_to 11000

$$$$
