#       Name:                AV-unprocessed.smi:1703
#       Creating user name   scv26
#       Creation time:       Fri Mar 27 08:08:14 2020


#       File generated by GOLD software.
#

@<TRIPOS>MOLECULE
AV-unprocessed.smi:1703
    56    58     1
SMALL
NO_CHARGES


@<TRIPOS>ATOM
      1 ****        -3.3540   3.3593  -1.4236 C.3            1 S1                 0.0000
      2 ****        -4.0123   2.4431  -0.3762 C.3            1 S1                 0.0000
      3 ****        -3.5131   0.9859  -0.4340 C.3            1 S1                 0.0000
      4 ****        -2.1394   0.8726   0.1098 N.4            1 S1                 1.0000
      5 ****        -1.5871  -0.5009  -0.0095 C.3            1 S1                 0.0000
      6 ****        -0.0461  -0.5140  -0.0405 C.3            1 S1                 0.0000
      7 ****         0.3942   0.1784  -1.1933 O.3            1 S1                 0.0000
      8 ****         0.5174  -1.9486  -0.0571 C.3            1 S1                 0.0000
      9 ****         1.9899  -1.9794  -0.0445 N.pl3          1 S1                 0.0000
     10 ****         2.8577  -1.8511   1.0011 C.2            1 S1                 0.0000
     11 ****         2.4988  -1.6400   2.4380 C.3            1 S1                 0.0000
     12 ****         3.5530  -1.9458   3.3259 O.3            1 S1                 0.0000
     13 ****         4.1192  -1.9340   0.4896 N.pl3          1 S1                 1.0000
     14 ****         4.0600  -2.1219  -0.8911 C.ar           1 S1                 0.0000
     15 ****         5.0740  -2.2611  -1.8337 C.ar           1 S1                 0.0000
     16 ****         4.6724  -2.4368  -3.1738 C.ar           1 S1                 0.0000
     17 ****         3.3094  -2.4670  -3.5330 C.ar           1 S1                 0.0000
     18 ****         2.2902  -2.3236  -2.5682 C.ar           1 S1                 0.0000
     19 ****         2.6948  -2.1527  -1.2435 C.ar           1 S1                 0.0000
     20 ****        -2.0848   1.4224   1.4856 C.3            1 S1                 0.0000
     21 ****        -2.5650   2.8852   1.4937 C.3            1 S1                 0.0000
     22 ****        -2.6089   3.4692   2.9099 C.3            1 S1                 0.0000
     23 ****        -3.8808   2.9556   0.9501 O.3            1 S1                 0.0000
     24 ****        -3.5878   3.0214  -2.4336 H              1 S1                 0.0000
     25 ****        -2.2682   3.3796  -1.3334 H              1 S1                 0.0000
     26 ****        -3.7169   4.3828  -1.3284 H              1 S1                 0.0000
     27 ****        -5.0814   2.4364  -0.5917 H              1 S1                 0.0000
     28 ****        -4.1789   0.3441   0.1453 H              1 S1                 0.0000
     29 ****        -3.5426   0.6255  -1.4632 H              1 S1                 0.0000
     30 ****        -1.9608  -1.1121   0.8137 H              1 S1                 0.0000
     31 ****        -1.9549  -0.9678  -0.9247 H              1 S1                 0.0000
     32 ****         0.3512   0.0018   0.8331 H              1 S1                 0.0000
     33 ****         0.0999  -0.2899  -1.9597 H              1 S1                 0.0000
     34 ****         0.1752  -2.4918   0.8241 H              1 S1                 0.0000
     35 ****         0.1472  -2.5105  -0.9146 H              1 S1                 0.0000
     36 ****         2.2077  -0.5991   2.5802 H              1 S1                 0.0000
     37 ****         1.6378  -2.2566   2.6956 H              1 S1                 0.0000
     38 ****         3.7178  -2.8761   3.2898 H              1 S1                 0.0000
     39 ****         6.1189  -2.2360  -1.5607 H              1 S1                 0.0000
     40 ****         5.4250  -2.5494  -3.9410 H              1 S1                 0.0000
     41 ****         3.0397  -2.6023  -4.5706 H              1 S1                 0.0000
     42 ****         1.2515  -2.3458  -2.8608 H              1 S1                 0.0000
     43 ****        -2.7072   0.8161   2.1460 H              1 S1                 0.0000
     44 ****        -1.0685   1.3749   1.8756 H              1 S1                 0.0000
     45 ****        -1.8863   3.4970   0.8987 H              1 S1                 0.0000
     46 ****        -1.6226   3.4494   3.3742 H              1 S1                 0.0000
     47 ****        -3.2913   2.9076   3.5486 H              1 S1                 0.0000
     48 ****        -2.9463   4.5059   2.8930 H              1 S1                 0.0000
     49 ****        -1.5581   1.4623  -0.4693 H              1 S1                 0.0000
     50 ****         4.9589  -1.8624   1.0505 H              1 S1                 0.0000
     51 ****         1.3929   0.2301  -1.1936 LP             1 S1                 0.0000
     52 ****         0.0126   1.1027  -1.1967 LP             1 S1                 0.0000
     53 ****         3.2960  -1.6851   4.2565 LP             1 S1                 0.0000
     54 ****         4.3765  -1.4471   3.0555 LP             1 S1                 0.0000
     55 ****        -4.4914   2.4344   1.5464 LP             1 S1                 0.0000
     56 ****        -4.1623   3.9151   0.9416 LP             1 S1                 0.0000
@<TRIPOS>BOND
    1    1    2 1     
    2    1   24 1     
    3    1   25 1     
    4    1   26 1     
    5    2   23 1     
    6    2    3 1     
    7    2   27 1     
    8    3    4 1     
    9    3   28 1     
   10    3   29 1     
   11    4    5 1     
   12    4   20 1     
   13    4   49 1     
   14    5    6 1     
   15    5   30 1     
   16    5   31 1     
   17    6    7 1     
   18    6    8 1     
   19    6   32 1     
   20    7   33 1     
   21    8    9 1     
   22    8   34 1     
   23    8   35 1     
   24    9   19 1     
   25    9   10 1     
   26   10   11 1     
   27   10   13 2     
   28   11   12 1     
   29   11   36 1     
   30   11   37 1     
   31   12   38 1     
   32   13   14 1     
   33   13   50 1     
   34   14   19 ar    
   35   14   15 ar    
   36   15   16 ar    
   37   15   39 1     
   38   16   17 ar    
   39   16   40 1     
   40   17   18 ar    
   41   17   41 1     
   42   18   19 ar    
   43   18   42 1     
   44   20   21 1     
   45   20   43 1     
   46   20   44 1     
   47   21   22 1     
   48   21   23 1     
   49   21   45 1     
   50   22   46 1     
   51   22   47 1     
   52   22   48 1     
   53    7   51 1     
   54    7   52 1     
   55   12   53 1     
   56   12   54 1     
   57   23   55 1     
   58   23   56 1     
@<TRIPOS>SUBSTRUCTURE
      1 S1             1
@<TRIPOS>SET
LONE_PAIRS      STATIC     ATOMS    <user>   **** ""
6 51 52 53 54 55 56
DONOR_HYDROGENS      STATIC     ATOMS    <user>   **** ""
4 49 33 38 50
ATOM$BLUE        STATIC     ATOMS    COLORGROUP SYSTEM
6 51 52 53 54 55 56
ATOM$RED        STATIC     ATOMS    COLORGROUP SYSTEM
4 49 33 38 50
