AV-unprocessed.smi:55|AV-procd|sdf|567|dock8
  -GOLD-   2262016473D 1   1.00000     0.00000
 Structure written by MMmdl.
 31 32  0  0  0  0  0  0  0  0  1 V2000
  150.0943  142.9033  159.0335 C   0  0  0  0  0  0  0  0  0  0  0  0
  150.5394  141.9930  157.9008 C   0  0  0  0  0  0  0  0  0  0  0  0
  149.8587  141.9021  156.7298 C   0  0  0  0  0  0  0  0  0  0  0  0
  150.2429  141.0849  155.6757 N   0  0  0  0  0  0  0  0  0  0  0  0
  149.4437  141.0361  154.3933 C   0  0  2  0  0  0  0  0  0  0  0  0
  148.2320  141.9664  154.4739 C   0  0  0  0  0  0  0  0  0  0  0  0
  147.1775  141.1554  153.7503 C   0  0  2  0  0  0  0  0  0  0  0  0
  145.8832  141.5234  154.1809 O   0  0  0  0  0  0  0  0  0  0  0  0
  147.5471  139.7242  154.1527 C   0  0  1  0  0  0  0  0  0  0  0  0
  147.0778  138.6380  153.1724 C   0  0  0  0  0  0  0  0  0  0  0  0
  147.6324  138.8519  151.8920 O   0  0  0  0  0  0  0  0  0  0  0  0
  148.9727  139.7339  154.1998 O   0  0  0  0  0  0  0  0  0  0  0  0
  151.4165  140.3115  155.7936 C   0  0  0  0  0  0  0  0  0  0  0  0
  151.8383  139.5881  154.8923 O   0  0  0  0  0  0  0  0  0  0  0  0
  152.1133  140.4003  156.9974 N   0  0  0  0  0  0  0  0  0  0  0  0
  151.7547  141.1959  158.0884 C   0  0  0  0  0  0  0  0  0  0  0  0
  152.4511  141.1861  159.1019 O   0  0  0  0  0  0  0  0  0  0  0  0
  150.1142  141.2679  153.5645 H   0  0  0  0  0  0  0  0  0  0  0  0
  147.2727  141.2929  152.6723 H   0  0  0  0  0  0  0  0  0  0  0  0
  147.1849  139.5095  155.1595 H   0  0  0  0  0  0  0  0  0  0  0  0
  152.9523  139.8459  157.0873 H   0  0  0  0  0  0  0  0  0  0  0  0
  149.1733  143.4329  158.7887 H   0  0  0  0  0  0  0  0  0  0  0  0
  150.8619  143.6481  159.2466 H   0  0  0  0  0  0  0  0  0  0  0  0
  149.9161  142.3253  159.9409 H   0  0  0  0  0  0  0  0  0  0  0  0
  148.9726  142.5071  156.6129 H   0  0  0  0  0  0  0  0  0  0  0  0
  147.9546  142.1200  155.5186 H   0  0  0  0  0  0  0  0  0  0  0  0
  148.4419  142.9330  154.0150 H   0  0  0  0  0  0  0  0  0  0  0  0
  145.2718  141.3345  153.4849 H   0  0  0  0  0  0  0  0  0  0  0  0
  147.3488  137.6437  153.5288 H   0  0  0  0  0  0  0  0  0  0  0  0
  145.9918  138.6620  153.0805 H   0  0  0  0  0  0  0  0  0  0  0  0
  148.1113  138.0774  151.6389 H   0  0  0  0  0  0  0  0  0  0  0  0
  1  2  1  0  0  0  0
  1 22  1  0  0  0  0
  1 23  1  0  0  0  0
  1 24  1  0  0  0  0
  2 16  1  0  0  0  0
  2  3  2  0  0  0  0
  3  4  1  0  0  0  0
  3 25  1  0  0  0  0
  4  5  1  0  0  0  0
  4 13  1  0  0  0  0
  5 18  1  0  0  0  0
  5 12  1  0  0  0  0
  5  6  1  0  0  0  0
  6  7  1  0  0  0  0
  6 26  1  0  0  0  0
  6 27  1  0  0  0  0
  7 19  1  0  0  0  0
  7  8  1  0  0  0  0
  7  9  1  0  0  0  0
  8 28  1  0  0  0  0
  9 20  1  0  0  0  0
  9 10  1  0  0  0  0
  9 12  1  0  0  0  0
 10 11  1  0  0  0  0
 10 29  1  0  0  0  0
 10 30  1  0  0  0  0
 11 31  1  0  0  0  0
 13 14  2  0  0  0  0
 13 15  1  0  0  0  0
 15 21  1  0  0  0  0
 15 16  1  0  0  0  0
 16 17  2  0  0  0  0
M  END
> <s_m_source_file>
AV-unprocessed.smi

> <i_m_source_file_index>
55

> <i_lp_mmshare_version>
43012

> <i_f3d_flags>
0

> <s_epik_input>
Tz1jMVtuSF1jKD1PKW4oW2NIXWMxW0NIM10pW0NAQEhdMltDSDJdW0NAQEhdKFtPSF0pW0NAQEhdKE8yKVtDSDJdW09IXQ==

> <s_epik_cmdline>
J2VwaWtfcHl0aG9uJywgJy1waCcsICc3LjAnLCAnLXRuJywgJzgnLCAnLW1hJywgJzIwMCcsICctbWV0YWxfYmluZGluZycsICctaW1hZScsICc8aW5maWxlLm1hZT4nLCAnLW9tYWUnLCAnPG91dGZpbGUubWFlPic=

> <r_lp_tautomer_probability>
0.999537

> <r_epik_Ionization_Penalty>
0.00121888

> <r_epik_Ionization_Penalty_Charging>
0.00121876

> <r_epik_Ionization_Penalty_Neutral>
1.19946e-07

> <r_epik_State_Penalty>
0.000805124

> <r_epik_Charging_Adjusted_Penalty>
0.00202389

> <i_epik_Tot_Q>
0

> <i_epik_Tot_abs_Q>
0

> <r_epik_Metal_State_Penalty>
0.662472

> <b_epik_Metal_Only>
0

> <s_epik_Chemistry_Notes>
This compound contains an acetal/aminal-like group ( X-CH(R)-Y where X, Y are N, S, or O) that may be acid/base labile, releasing an aldehyde.

> <s_lp_Force_Field>
OPLS_2005

> <r_lp_Energy>
24.0727

> <b_lp_Chiralities_Consistent>
1

> <s_lp_Variant>
AV-unprocessed.smi:55-7

> <Gold.Version>
5.8.1

> <Gold.Id.Protein>
6NUR|6NUR_protein|mol2

> <Gold.PLP.Fitness>
39.0263

> <Gold.PLP.PLP>
-27.9004

> <Gold.PLP.part.hbond>
-4.3034

> <Gold.PLP.part.metal>
0.0000

> <Gold.PLP.part.buried>
-0.7694

> <Gold.PLP.part.nonpolar>
-22.9496

> <Gold.PLP.part.repulsive>
0.3018

> <Gold.PLP.ligand.clash>
0.0000

> <Gold.PLP.ligand.torsion>
0.0070

> <Gold.PLP.Chemscore.Hbond>
2.7500

> <Gold.PLP.Chemscore.CHOScore>
0.9607

> <Gold.PLP.Chemscore.Metal>
0.0000

> <Gold.Chemscore.Hbonds>
donor molecule, donor type, donor heavy atom, donor atom, acceptor molecule, acceptor atom, score
      L1  H     8    28       P1 10175  0.90
      L1  H    11    31       P1  7948  1.00
      P1  H  7989  7998       L1    14  0.85
      L1  C     3    25       P1  8028  0.93

> <Gold.PLP.Chemscore.Internal.Correction>
0.0077

> <Gold.Rescore>
     Score         DG    S(hbond)    S(metal)    S(lipo)     H(rot)  DE(clash)    DE(int)     intcor
      8.88      -9.95       2.08        0.00      38.44       2.73       0.06       1.01       ----

> <Gold.Chemscore.Fitness>
8.8796

> <Gold.Chemscore.DG>
-9.9498

> <Gold.Chemscore.ZeroCoef>
-5.4800

> <Gold.Chemscore.Hbond>
2.0804

> <Gold.Chemscore.Metal>
0.0000

> <Gold.Chemscore.Lipo>
38.4446

> <Gold.Chemscore.Internal_Hbond>
0.0000

> <Gold.Chemscore.DEClash>
0.0572

> <Gold.Chemscore.DEInternal>
1.0129

> <Gold.Chemscore.Rot>
2.7253

> <Gold.Chemscore.Internal.Correction>
   9.000000E+99

> <Gold.Chemscore.Hbonds>
donor molecule, donor type, donor heavy atom, donor atom, acceptor molecule, acceptor atom, score
      L1  H     8    28       P1 10175  0.19
      L1  H    11    31       P1  7948  0.95
      P1  H  7989  7998       L1    14  0.14

> <Gold.Chemscore.Hbond.Weighted>
-6.9486

> <Gold.Chemscore.Metal.Weighted>
-0.0000

> <Gold.Chemscore.Lipo.Weighted>
-4.4980

> <Gold.Chemscore.Internal_Hbond.Weighted>
0.0000

> <Gold.Chemscore.DEClash.Weighted>
0.0572

> <Gold.Chemscore.DEInternal.Weighted>
1.0129

> <Gold.Chemscore.Rot.Weighted>
6.9769

> <Gold.Chemscore.Internal.Correction.Weighted>
   9.000000E+99

> <Gold.Protein.RotatedTorsions>
[ 6907 6896 6895 6894 ] final  -30.61 input  -60.11 | X-H torsion
[ 7974 7965 7964 7962 ] final  176.56 input  175.53 | X-H torsion
[ 8008 7997 7996 7995 ] final   20.08 input   59.86 | X-H torsion
[ 10167 10162 10161 10158 ] final  151.90 input  -65.29 | X-H torsion
[ 10718 10713 10712 10709 ] final  -95.23 input   66.30 | X-H torsion
[ 10763 10752 10751 10750 ] final  121.02 input  -60.55 | X-H torsion
[ 11005 11000 10999 10996 ] final   85.18 input  -57.11 | X-H torsion

> <Gold.Protein.ActiveResidues>
 VAL166  LYS551  ARG553  GLY616  TRP617  ASP618  TYR619  PRO620  LYS621  CYS622 
 ASP623  PHE694  ASN695  SER759  ASP760  ASP761  ALA762  ILE779  LEU786  VAL792 
 PHE793  MET794  SER795  GLU796  ALA797  LYS798  CYS799  TRP800  GLU811  SER814 

> <Gold.Protein.RotatedAtoms>
  151.1032  134.9984  159.8458 H   0  0  0  0  0  0  0  0  0  0  0  0  # atno 6907 bound_to 6896
  152.5438  134.1925  159.8689 H   0  0  0  0  0  0  0  0  0  0  0  0  # atno 6908 bound_to 6896
  151.1969  133.4589  159.2629 H   0  0  0  0  0  0  0  0  0  0  0  0  # atno 6909 bound_to 6896
  144.7182  140.0114  143.6440 H   0  0  0  0  0  0  0  0  0  0  0  0  # atno 7974 bound_to 7965
  154.9303  140.3039  155.5171 H   0  0  0  0  0  0  0  0  0  0  0  0  # atno 8008 bound_to 7997
  156.3004  140.2355  156.4299 H   0  0  0  0  0  0  0  0  0  0  0  0  # atno 8009 bound_to 7997
  154.8244  140.0421  157.1422 H   0  0  0  0  0  0  0  0  0  0  0  0  # atno 8010 bound_to 7997
  139.4837  144.5402  151.7577 H   0  0  0  0  0  0  0  0  0  0  0  0  # atno 10167 bound_to 10162
  156.0040  130.5100  150.6046 H   0  0  0  0  0  0  0  0  0  0  0  0  # atno 10718 bound_to 10713
  153.6075  135.3436  155.2967 H   0  0  0  0  0  0  0  0  0  0  0  0  # atno 10763 bound_to 10752
  154.8625  135.4242  154.2345 H   0  0  0  0  0  0  0  0  0  0  0  0  # atno 10764 bound_to 10752
  153.3188  135.7037  153.7121 H   0  0  0  0  0  0  0  0  0  0  0  0  # atno 10765 bound_to 10752
  139.8979  134.8269  156.2547 H   0  0  0  0  0  0  0  0  0  0  0  0  # atno 11005 bound_to 11000
  146.0255  139.3288  143.0787 LP  0  0  0  0  0  0  0  0  0  0  0  0  # atno 17320 bound_to 7965
  145.8517  140.9525  143.0746 LP  0  0  0  0  0  0  0  0  0  0  0  0  # atno 17321 bound_to 7965
  140.4941  144.1267  150.5956 LP  0  0  0  0  0  0  0  0  0  0  0  0  # atno 17342 bound_to 10162
  140.4138  143.2644  151.9800 LP  0  0  0  0  0  0  0  0  0  0  0  0  # atno 17343 bound_to 10162
  157.3889  131.0792  151.1411 LP  0  0  0  0  0  0  0  0  0  0  0  0  # atno 17370 bound_to 10713
  157.2110  130.6438  149.5774 LP  0  0  0  0  0  0  0  0  0  0  0  0  # atno 17371 bound_to 10713
  141.0201  133.7046  156.1254 LP  0  0  0  0  0  0  0  0  0  0  0  0  # atno 17394 bound_to 11000
  140.7246  134.4321  157.5572 LP  0  0  0  0  0  0  0  0  0  0  0  0  # atno 17395 bound_to 11000

$$$$
