AV-unprocessed.smi:1074|AV-procd|sdf|4692|dock6
  -GOLD-   22720 3213D 1   1.00000     0.00000
 Structure written by MMmdl.
 44 45  0  0  0  0  0  0  0  0  1 V2000
  151.0515  137.2571  155.6728 C   0  0  0  0  0  0  0  0  0  0  0  0
  150.2888  138.4853  155.8349 N   0  0  0  0  0  0  0  0  0  0  0  0
  150.6698  139.6808  155.3610 C   0  0  0  0  0  0  0  0  0  0  0  0
  151.7155  139.8440  154.7322 O   0  0  0  0  0  0  0  0  0  0  0  0
  149.7229  140.8620  155.6466 C   0  0  2  0  0  0  0  0  0  0  0  0
  148.5622  140.4853  156.5974 C   0  0  0  0  0  0  0  0  0  0  0  0
  147.4344  139.6877  155.9152 C   0  0  0  0  0  0  0  0  0  0  0  0
  146.9117  140.4097  154.6579 C   0  0  2  0  0  0  0  0  0  0  0  0
  145.8955  139.6055  153.9865 N   0  0  0  0  0  0  0  0  0  0  0  0
  146.0339  138.3220  153.6253 C   0  0  0  0  0  0  0  0  0  0  0  0
  147.0648  137.6752  153.8063 O   0  0  0  0  0  0  0  0  0  0  0  0
  144.9121  137.8642  153.0428 N   0  0  0  0  0  0  0  0  0  0  0  0
  144.6080  136.5607  152.5611 C   0  0  0  0  0  0  0  0  0  0  0  0
  143.3507  135.9209  152.6858 C   0  0  0  0  0  0  0  0  0  0  0  0
  143.1866  134.6309  152.1461 C   0  0  0  0  0  0  0  0  0  0  0  0
  144.2764  134.0182  151.4968 C   0  0  0  0  0  0  0  0  0  0  0  0
  144.1054  132.7551  150.9680 O   0  0  0  0  0  0  0  0  0  0  0  0
  145.2037  132.1505  150.2939 C   0  0  0  0  0  0  0  0  0  0  0  0
  145.4823  134.6248  151.3712 N   0  0  0  0  0  0  0  0  0  0  0  0
  145.6329  135.8610  151.8909 C   0  0  0  0  0  0  0  0  0  0  0  0
  148.0605  140.7059  153.6781 C   0  0  0  0  0  0  0  0  0  0  0  0
  149.1831  141.5150  154.3531 C   0  0  0  0  0  0  0  0  0  0  0  0
  150.5385  136.4335  156.1691 H   0  0  0  0  0  0  0  0  0  0  0  0
  152.0445  137.3551  156.1133 H   0  0  0  0  0  0  0  0  0  0  0  0
  151.1617  137.0047  154.6176 H   0  0  0  0  0  0  0  0  0  0  0  0
  149.4184  138.4251  156.3434 H   0  0  0  0  0  0  0  0  0  0  0  0
  150.3183  141.6193  156.1598 H   0  0  0  0  0  0  0  0  0  0  0  0
  148.9417  139.9234  157.4520 H   0  0  0  0  0  0  0  0  0  0  0  0
  148.1393  141.4015  157.0114 H   0  0  0  0  0  0  0  0  0  0  0  0
  147.7859  138.6899  155.6527 H   0  0  0  0  0  0  0  0  0  0  0  0
  146.6201  139.5407  156.6256 H   0  0  0  0  0  0  0  0  0  0  0  0
  146.4712  141.3627  154.9578 H   0  0  0  0  0  0  0  0  0  0  0  0
  145.0161  140.0610  153.7914 H   0  0  0  0  0  0  0  0  0  0  0  0
  144.1720  138.5417  152.9309 H   0  0  0  0  0  0  0  0  0  0  0  0
  142.5070  136.3839  153.1711 H   0  0  0  0  0  0  0  0  0  0  0  0
  142.2378  134.1212  152.2265 H   0  0  0  0  0  0  0  0  0  0  0  0
  144.9089  131.1635  149.9378 H   0  0  0  0  0  0  0  0  0  0  0  0
  146.0576  132.0206  150.9603 H   0  0  0  0  0  0  0  0  0  0  0  0
  145.5117  132.7364  149.4265 H   0  0  0  0  0  0  0  0  0  0  0  0
  146.6088  136.3071  151.7651 H   0  0  0  0  0  0  0  0  0  0  0  0
  148.4599  139.7736  153.2777 H   0  0  0  0  0  0  0  0  0  0  0  0
  147.6804  141.2625  152.8207 H   0  0  0  0  0  0  0  0  0  0  0  0
  148.8035  142.5089  154.5938 H   0  0  0  0  0  0  0  0  0  0  0  0
  149.9961  141.6731  153.6431 H   0  0  0  0  0  0  0  0  0  0  0  0
  1  2  1  0  0  0  0
  1 23  1  0  0  0  0
  1 24  1  0  0  0  0
  1 25  1  0  0  0  0
  2  3  1  0  0  0  0
  2 26  1  0  0  0  0
  3  4  2  0  0  0  0
  3  5  1  0  0  0  0
  5 22  1  0  0  0  0
  5  6  1  0  0  0  0
  5 27  1  0  0  0  0
  6  7  1  0  0  0  0
  6 28  1  0  0  0  0
  6 29  1  0  0  0  0
  7  8  1  0  0  0  0
  7 30  1  0  0  0  0
  7 31  1  0  0  0  0
  8  9  1  0  0  0  0
  8 21  1  0  0  0  0
  8 32  1  0  0  0  0
  9 10  1  0  0  0  0
  9 33  1  0  0  0  0
 10 11  2  0  0  0  0
 10 12  1  0  0  0  0
 12 13  1  0  0  0  0
 12 34  1  0  0  0  0
 13 20  1  0  0  0  0
 13 14  2  0  0  0  0
 14 15  1  0  0  0  0
 14 35  1  0  0  0  0
 15 16  2  0  0  0  0
 15 36  1  0  0  0  0
 16 17  1  0  0  0  0
 16 19  1  0  0  0  0
 17 18  1  0  0  0  0
 18 37  1  0  0  0  0
 18 38  1  0  0  0  0
 18 39  1  0  0  0  0
 19 20  2  0  0  0  0
 20 40  1  0  0  0  0
 21 22  1  0  0  0  0
 21 41  1  0  0  0  0
 21 42  1  0  0  0  0
 22 43  1  0  0  0  0
 22 44  1  0  0  0  0
M  END
> <s_m_source_file>
AV-unprocessed.smi

> <i_m_source_file_index>
1074

> <i_lp_mmshare_version>
43012

> <i_f3d_flags>
0

> <s_epik_input>
W0NIM11bTkhdQyg9TylbQ0BASF0xW0NIMl1bQ0gyXVtDQEhdKFtDSDJdW0NIMl0xKVtOSF1DKD1PKVtOSF1jMltjSF1bY0hdYyhPW0NIM10pbltjSF0y

> <s_epik_cmdline>
J2VwaWtfcHl0aG9uJywgJy1waCcsICc3LjAnLCAnLXRuJywgJzgnLCAnLW1hJywgJzIwMCcsICctbWV0YWxfYmluZGluZycsICctaW1hZScsICc8aW5maWxlLm1hZT4nLCAnLW9tYWUnLCAnPG91dGZpbGUubWFlPic=

> <r_lp_tautomer_probability>
1

> <r_epik_Ionization_Penalty>
9.85099e-05

> <r_epik_Ionization_Penalty_Charging>
0

> <r_epik_Ionization_Penalty_Neutral>
9.85099e-05

> <r_epik_State_Penalty>
-0

> <r_epik_Charging_Adjusted_Penalty>
0

> <i_epik_Tot_Q>
0

> <i_epik_Tot_abs_Q>
0

> <r_epik_Metal_State_Penalty>
-0

> <b_epik_Metal_Only>
0

> <s_lp_Force_Field>
OPLS_2005

> <r_lp_Energy>
10.6819

> <b_lp_Chiralities_Consistent>
1

> <s_lp_Variant>
AV-unprocessed.smi:1074-2

> <Gold.Version>
5.8.1

> <Gold.Id.Protein>
6NUR|6NUR_protein|mol2

> <Gold.PLP.Fitness>
40.8018

> <Gold.PLP.PLP>
-29.8675

> <Gold.PLP.part.hbond>
-3.0000

> <Gold.PLP.part.metal>
0.0000

> <Gold.PLP.part.buried>
-3.7759

> <Gold.PLP.part.nonpolar>
-24.0056

> <Gold.PLP.part.repulsive>
1.1332

> <Gold.PLP.ligand.clash>
0.0008

> <Gold.PLP.ligand.torsion>
0.4383

> <Gold.PLP.Chemscore.Hbond>
2.9200

> <Gold.PLP.Chemscore.CHOScore>
1.0000

> <Gold.PLP.Chemscore.Metal>
0.0000

> <Gold.Chemscore.Hbonds>
donor molecule, donor type, donor heavy atom, donor atom, acceptor molecule, acceptor atom, score
      L1  H     9    33       P1 10175  0.94
      L1  H    12    34       P1 10175  0.96
      P1  H  7989  7998       L1     4  1.00
      L1  C    20    40       P1  7948  1.00

> <Gold.PLP.Chemscore.Internal.Correction>
0.0517

> <Gold.Rescore>
     Score         DG    S(hbond)    S(metal)    S(lipo)     H(rot)  DE(clash)    DE(int)     intcor
     15.58     -18.52       2.91        0.00      63.88       1.62       0.15       2.79       ----

> <Gold.Chemscore.Fitness>
15.5815

> <Gold.Chemscore.DG>
-18.5197

> <Gold.Chemscore.ZeroCoef>
-5.4800

> <Gold.Chemscore.Hbond>
2.9116

> <Gold.Chemscore.Metal>
0.0000

> <Gold.Chemscore.Lipo>
63.8839

> <Gold.Chemscore.Internal_Hbond>
0.0000

> <Gold.Chemscore.DEClash>
0.1490

> <Gold.Chemscore.DEInternal>
2.7891

> <Gold.Chemscore.Rot>
1.6248

> <Gold.Chemscore.Internal.Correction>
   9.000000E+99

> <Gold.Chemscore.Hbonds>
donor molecule, donor type, donor heavy atom, donor atom, acceptor molecule, acceptor atom, score
      L1  H     9    33       P1 10175  0.91
      L1  H    12    34       P1 10175  0.87
      P1  H  7989  7998       L1     4  0.90

> <Gold.Chemscore.Hbond.Weighted>
-9.7247

> <Gold.Chemscore.Metal.Weighted>
-0.0000

> <Gold.Chemscore.Lipo.Weighted>
-7.4744

> <Gold.Chemscore.Internal_Hbond.Weighted>
0.0000

> <Gold.Chemscore.DEClash.Weighted>
0.1490

> <Gold.Chemscore.DEInternal.Weighted>
2.7891

> <Gold.Chemscore.Rot.Weighted>
4.1595

> <Gold.Chemscore.Internal.Correction.Weighted>
   9.000000E+99

> <Gold.Protein.RotatedTorsions>
[ 6907 6896 6895 6894 ] final -145.63 input  -60.11 | X-H torsion
[ 7974 7965 7964 7962 ] final   59.16 input  175.53 | X-H torsion
[ 8008 7997 7996 7995 ] final -129.06 input   59.86 | X-H torsion
[ 10167 10162 10161 10158 ] final -160.74 input  -65.29 | X-H torsion
[ 10718 10713 10712 10709 ] final -169.35 input   66.30 | X-H torsion
[ 10763 10752 10751 10750 ] final   54.97 input  -60.55 | X-H torsion
[ 11005 11000 10999 10996 ] final  -11.22 input  -57.11 | X-H torsion

> <Gold.Protein.ActiveResidues>
 VAL166  LYS551  ARG553  GLY616  TRP617  ASP618  TYR619  PRO620  LYS621  CYS622 
 ASP623  PHE694  ASN695  SER759  ASP760  ASP761  ALA762  ILE779  LEU786  VAL792 
 PHE793  MET794  SER795  GLU796  ALA797  LYS798  CYS799  TRP800  GLU811  SER814 

> <Gold.Protein.RotatedAtoms>
  151.1304  133.5041  159.2599 H   0  0  0  0  0  0  0  0  0  0  0  0  # atno 6907 bound_to 6896
  151.1764  135.0341  159.8783 H   0  0  0  0  0  0  0  0  0  0  0  0  # atno 6908 bound_to 6896
  152.5459  134.1161  159.8432 H   0  0  0  0  0  0  0  0  0  0  0  0  # atno 6909 bound_to 6896
  145.9102  139.3648  143.0540 H   0  0  0  0  0  0  0  0  0  0  0  0  # atno 7974 bound_to 7965
  155.2730  140.0441  157.3008 H   0  0  0  0  0  0  0  0  0  0  0  0  # atno 8008 bound_to 7997
  154.5642  140.2355  155.8257 H   0  0  0  0  0  0  0  0  0  0  0  0  # atno 8009 bound_to 7997
  156.2072  140.3009  155.9660 H   0  0  0  0  0  0  0  0  0  0  0  0  # atno 8010 bound_to 7997
  139.6517  144.0072  152.2166 H   0  0  0  0  0  0  0  0  0  0  0  0  # atno 10167 bound_to 10162
  156.7102  130.9230  151.3088 H   0  0  0  0  0  0  0  0  0  0  0  0  # atno 10718 bound_to 10713
  152.9811  135.5727  154.4991 H   0  0  0  0  0  0  0  0  0  0  0  0  # atno 10763 bound_to 10752
  154.4513  135.2778  155.1781 H   0  0  0  0  0  0  0  0  0  0  0  0  # atno 10764 bound_to 10752
  154.3407  135.6230  153.5649 H   0  0  0  0  0  0  0  0  0  0  0  0  # atno 10765 bound_to 10752
  140.7529  133.8577  155.9060 H   0  0  0  0  0  0  0  0  0  0  0  0  # atno 11005 bound_to 11000
  145.8681  140.9436  143.0665 LP  0  0  0  0  0  0  0  0  0  0  0  0  # atno 17320 bound_to 7965
  144.6742  140.0619  143.7476 LP  0  0  0  0  0  0  0  0  0  0  0  0  # atno 17321 bound_to 7965
  139.9788  144.6443  150.7920 LP  0  0  0  0  0  0  0  0  0  0  0  0  # atno 17342 bound_to 10162
  140.7540  143.3020  151.3057 LP  0  0  0  0  0  0  0  0  0  0  0  0  # atno 17343 bound_to 10162
  157.6939  130.9262  150.0590 LP  0  0  0  0  0  0  0  0  0  0  0  0  # atno 17370 bound_to 10713
  156.1666  130.3645  149.9223 LP  0  0  0  0  0  0  0  0  0  0  0  0  # atno 17371 bound_to 10713
  140.9734  134.1501  157.4557 LP  0  0  0  0  0  0  0  0  0  0  0  0  # atno 17394 bound_to 11000
  139.8784  134.9986  156.5910 LP  0  0  0  0  0  0  0  0  0  0  0  0  # atno 17395 bound_to 11000

$$$$
