AV-unprocessed.smi:34|AV-procd|sdf|241|dock10
  -GOLD-   2262015593D 1   1.00000     0.00000
 Structure written by MMmdl.
 54 58  0  0  0  0  0  0  0  0  2 V2000
  150.9954  140.1311  157.2475 O   0  0  0  0  0  0  0  0  0  0  0  0
  150.9213  141.3262  156.9533 C   0  0  0  0  0  0  0  0  0  0  0  0
  150.4351  141.8724  155.8098 N   0  5  0  0  0  0  0  0  0  0  0  0
  149.2900  141.4123  155.2835 C   0  0  0  0  0  0  0  0  0  0  0  0
  149.1147  141.3935  153.9373 N   0  0  0  0  0  0  0  0  0  0  0  0
  147.9727  140.9366  153.4096 C   0  0  0  0  0  0  0  0  0  0  0  0
  146.8898  140.4600  154.0326 N   0  0  0  0  0  0  0  0  0  0  0  0
  147.0526  140.4835  155.3873 C   0  0  0  0  0  0  0  0  0  0  0  0
  148.2085  140.9446  156.0800 C   0  0  0  0  0  0  0  0  0  0  0  0
  148.0342  140.8321  157.4515 N   0  0  0  0  0  0  0  0  0  0  0  0
  146.8098  140.3139  157.5268 C   0  0  0  0  0  0  0  0  0  0  0  0
  146.1678  140.0672  156.3656 N   0  0  0  0  0  0  0  0  0  0  0  0
  144.7981  139.5058  156.1343 C   0  0  2  0  0  0  0  0  0  0  0  0
  143.9050  140.0980  157.0355 O   0  0  0  0  0  0  0  0  0  0  0  0
  143.4043  139.1389  157.9632 C   0  0  2  0  0  0  0  0  0  0  0  0
  144.2320  139.1842  159.2582 C   0  0  0  0  0  0  0  0  0  0  0  0
  143.8107  138.1424  160.1233 O   0  0  0  0  0  0  0  0  0  0  0  0
  144.7144  137.4693  160.8609 C   0  0  0  0  0  0  0  0  0  0  0  0
  145.9235  137.7087  160.8440 O   0  0  0  0  0  0  0  0  0  0  0  0
  144.0974  136.4010  161.6993 C   0  0  0  0  0  0  0  0  0  0  0  0
  144.9126  135.3658  162.2139 C   0  0  0  0  0  0  0  0  0  0  0  0
  144.3572  134.3413  163.0050 C   0  0  0  0  0  0  0  0  0  0  0  0
  142.9796  134.3393  163.2914 C   0  0  0  0  0  0  0  0  0  0  0  0
  142.1579  135.3636  162.7856 C   0  0  0  0  0  0  0  0  0  0  0  0
  142.7115  136.3890  161.9943 C   0  0  0  0  0  0  0  0  0  0  0  0
  143.5004  137.8111  157.2096 C   0  0  1  0  0  0  0  0  0  0  0  0
  142.4266  137.6676  156.4310 F   0  0  0  0  0  0  0  0  0  0  0  0
  144.7355  137.9753  156.3418 C   0  0  2  0  0  0  0  0  0  0  0  0
  145.8688  137.4125  156.9801 O   0  0  0  0  0  0  0  0  0  0  0  0
  151.4799  142.3447  157.9116 C   0  0  0  0  0  0  0  0  0  0  0  0
  151.6484  143.6835  157.4901 C   0  0  0  0  0  0  0  0  0  0  0  0
  152.1952  144.6460  158.3609 C   0  0  0  0  0  0  0  0  0  0  0  0
  152.5873  144.2785  159.6614 C   0  0  0  0  0  0  0  0  0  0  0  0
  152.4364  142.9462  160.0887 C   0  0  0  0  0  0  0  0  0  0  0  0
  151.8910  141.9828  159.2181 C   0  0  0  0  0  0  0  0  0  0  0  0
  147.9197  140.9536  152.3312 H   0  0  0  0  0  0  0  0  0  0  0  0
  146.3580  140.1042  158.4846 H   0  0  0  0  0  0  0  0  0  0  0  0
  144.5484  139.8126  155.1178 H   0  0  0  0  0  0  0  0  0  0  0  0
  142.3671  139.3787  158.2010 H   0  0  0  0  0  0  0  0  0  0  0  0
  145.2967  139.0855  159.0445 H   0  0  0  0  0  0  0  0  0  0  0  0
  144.0872  140.1440  159.7557 H   0  0  0  0  0  0  0  0  0  0  0  0
  145.9729  135.3457  162.0064 H   0  0  0  0  0  0  0  0  0  0  0  0
  144.9896  133.5557  163.3917 H   0  0  0  0  0  0  0  0  0  0  0  0
  142.5539  133.5534  163.8974 H   0  0  0  0  0  0  0  0  0  0  0  0
  141.1002  135.3633  163.0043 H   0  0  0  0  0  0  0  0  0  0  0  0
  142.0521  137.1589  161.6209 H   0  0  0  0  0  0  0  0  0  0  0  0
  143.5322  136.9363  157.8608 H   0  0  0  0  0  0  0  0  0  0  0  0
  144.6172  137.4838  155.3754 H   0  0  0  0  0  0  0  0  0  0  0  0
  146.1792  136.6891  156.4562 H   0  0  0  0  0  0  0  0  0  0  0  0
  151.3548  143.9822  156.4942 H   0  0  0  0  0  0  0  0  0  0  0  0
  152.3153  145.6665  158.0289 H   0  0  0  0  0  0  0  0  0  0  0  0
  153.0073  145.0162  160.3289 H   0  0  0  0  0  0  0  0  0  0  0  0
  152.7430  142.6604  161.0841 H   0  0  0  0  0  0  0  0  0  0  0  0
  151.7954  140.9633  159.5629 H   0  0  0  0  0  0  0  0  0  0  0  0
  1  2  2  0  0  0  0
  2  3  1  0  0  0  0
  2 30  1  0  0  0  0
  3  4  1  0  0  0  0
  4  9  1  0  0  0  0
  4  5  2  0  0  0  0
  5  6  1  0  0  0  0
  6  7  2  0  0  0  0
  6 36  1  0  0  0  0
  7  8  1  0  0  0  0
  8 12  1  0  0  0  0
  8  9  2  0  0  0  0
  9 10  1  0  0  0  0
 10 11  2  0  0  0  0
 11 12  1  0  0  0  0
 11 37  1  0  0  0  0
 12 13  1  0  0  0  0
 13 28  1  0  0  0  0
 13 14  1  0  0  0  0
 13 38  1  0  0  0  0
 14 15  1  0  0  0  0
 15 16  1  0  0  0  0
 15 26  1  0  0  0  0
 15 39  1  0  0  0  0
 16 17  1  0  0  0  0
 16 40  1  0  0  0  0
 16 41  1  0  0  0  0
 17 18  1  0  0  0  0
 18 19  2  0  0  0  0
 18 20  1  0  0  0  0
 20 25  1  0  0  0  0
 20 21  2  0  0  0  0
 21 22  1  0  0  0  0
 21 42  1  0  0  0  0
 22 23  2  0  0  0  0
 22 43  1  0  0  0  0
 23 24  1  0  0  0  0
 23 44  1  0  0  0  0
 24 25  2  0  0  0  0
 24 45  1  0  0  0  0
 25 46  1  0  0  0  0
 26 27  1  0  0  0  0
 26 28  1  0  0  0  0
 26 47  1  0  0  0  0
 28 29  1  0  0  0  0
 28 48  1  0  0  0  0
 29 49  1  0  0  0  0
 30 35  1  0  0  0  0
 30 31  2  0  0  0  0
 31 32  1  0  0  0  0
 31 50  1  0  0  0  0
 32 33  2  0  0  0  0
 32 51  1  0  0  0  0
 33 34  1  0  0  0  0
 33 52  1  0  0  0  0
 34 35  2  0  0  0  0
 34 53  1  0  0  0  0
 35 54  1  0  0  0  0
M  CHG  1   3  -1
M  END
> <s_m_source_file>
AV-unprocessed.smi

> <i_m_source_file_index>
34

> <i_lp_mmshare_version>
43012

> <i_f3d_flags>
0

> <s_epik_input>
W2NIXTFbY0hdW2NIXVtjSF1bY0hdYzFDKD1PKVtOSF1jKG5bY0hdbjIpYyhjMjMpbltjSF1uM1tDQEBIXTRPW0NASF0oW0NAQEhdKEYpW0NASF00W09IXSlbQ0gyXU9DKD1PKWM1W2NIXVtjSF1bY0hdW2NIXVtjSF01

> <s_epik_cmdline>
J2VwaWtfcHl0aG9uJywgJy1waCcsICc3LjAnLCAnLXRuJywgJzgnLCAnLW1hJywgJzIwMCcsICctbWV0YWxfYmluZGluZycsICctaW1hZScsICc8aW5maWxlLm1hZT4nLCAnLW9tYWUnLCAnPG91dGZpbGUubWFlPic=

> <r_lp_tautomer_probability>
1

> <r_epik_Ionization_Penalty>
4.33227

> <r_epik_Ionization_Penalty_Charging>
3.41027

> <r_epik_Ionization_Penalty_Neutral>
0.922001

> <r_epik_State_Penalty>
3.41358

> <r_epik_Charging_Adjusted_Penalty>
6.82385

> <i_epik_Tot_Q>
-1

> <i_epik_Tot_abs_Q>
1

> <r_epik_Metal_State_Penalty>
0.496292

> <b_epik_Metal_Only>
1

> <s_epik_Chemistry_Notes>
This compound has an ester and may undergo hydrolysis at high or low pH. This compound contains an acetal/aminal-like group ( X-CH(R)-Y where X, Y are N, S, or O) that may be acid/base labile, releasing an aldehyde.

> <s_lp_Force_Field>
OPLS_2005

> <r_lp_Energy>
50.7645

> <b_lp_Chiralities_Consistent>
1

> <s_lp_Variant>
AV-unprocessed.smi:34-27

> <Gold.Version>
5.8.1

> <Gold.Id.Protein>
6NUR|6NUR_protein|mol2

> <Gold.PLP.Fitness>
51.7132

> <Gold.PLP.PLP>
-46.9216

> <Gold.PLP.part.hbond>
-2.5557

> <Gold.PLP.part.metal>
0.0000

> <Gold.PLP.part.buried>
-6.7677

> <Gold.PLP.part.nonpolar>
-38.3759

> <Gold.PLP.part.repulsive>
0.4753

> <Gold.PLP.ligand.clash>
0.0000

> <Gold.PLP.ligand.torsion>
1.4636

> <Gold.PLP.Chemscore.Hbond>
1.7360

> <Gold.PLP.Chemscore.CHOScore>
0.7953

> <Gold.PLP.Chemscore.Metal>
0.0000

> <Gold.Chemscore.Hbonds>
donor molecule, donor type, donor heavy atom, donor atom, acceptor molecule, acceptor atom, score
      P1  H  6934  6947       L1    19  1.00
      P1  H  8011  8017       L1     5  0.71
      L1  C     6    36       P1  7957  0.80

> <Gold.PLP.Chemscore.Internal.Correction>
0.1250

> <Gold.Rescore>
     Score         DG    S(hbond)    S(metal)    S(lipo)     H(rot)  DE(clash)    DE(int)     intcor
     13.59     -16.09       1.41        0.00     109.51       2.69       0.18       2.32       ----

> <Gold.Chemscore.Fitness>
13.5904

> <Gold.Chemscore.DG>
-16.0930

> <Gold.Chemscore.ZeroCoef>
-5.4800

> <Gold.Chemscore.Hbond>
1.4067

> <Gold.Chemscore.Metal>
0.0000

> <Gold.Chemscore.Lipo>
109.5051

> <Gold.Chemscore.Internal_Hbond>
0.0000

> <Gold.Chemscore.DEClash>
0.1798

> <Gold.Chemscore.DEInternal>
2.3228

> <Gold.Chemscore.Rot>
2.6944

> <Gold.Chemscore.Internal.Correction>
   9.000000E+99

> <Gold.Chemscore.Hbonds>
donor molecule, donor type, donor heavy atom, donor atom, acceptor molecule, acceptor atom, score
      P1  H  6934  6947       L1    19  0.99
      P1  H  8011  8017       L1     5  0.15

> <Gold.Chemscore.Hbond.Weighted>
-4.6984

> <Gold.Chemscore.Metal.Weighted>
-0.0000

> <Gold.Chemscore.Lipo.Weighted>
-12.8121

> <Gold.Chemscore.Internal_Hbond.Weighted>
0.0000

> <Gold.Chemscore.DEClash.Weighted>
0.1798

> <Gold.Chemscore.DEInternal.Weighted>
2.3228

> <Gold.Chemscore.Rot.Weighted>
6.8975

> <Gold.Chemscore.Internal.Correction.Weighted>
   9.000000E+99

> <Gold.Protein.RotatedTorsions>
[ 6907 6896 6895 6894 ] final    8.93 input  -60.11 | X-H torsion
[ 7974 7965 7964 7962 ] final   24.66 input  175.53 | X-H torsion
[ 8008 7997 7996 7995 ] final   38.81 input   59.86 | X-H torsion
[ 10167 10162 10161 10158 ] final -124.49 input  -65.29 | X-H torsion
[ 10718 10713 10712 10709 ] final -140.99 input   66.30 | X-H torsion
[ 10763 10752 10751 10750 ] final -176.88 input  -60.55 | X-H torsion
[ 11005 11000 10999 10996 ] final  -86.66 input  -57.11 | X-H torsion

> <Gold.Protein.ActiveResidues>
 VAL166  LYS551  ARG553  GLY616  TRP617  ASP618  TYR619  PRO620  LYS621  CYS622 
 ASP623  PHE694  ASN695  SER759  ASP760  ASP761  ALA762  ILE779  LEU786  VAL792 
 PHE793  MET794  SER795  GLU796  ALA797  LYS798  CYS799  TRP800  GLU811  SER814 

> <Gold.Protein.RotatedAtoms>
  151.7139  135.0907  160.0272 H   0  0  0  0  0  0  0  0  0  0  0  0  # atno 6907 bound_to 6896
  152.3644  133.6334  159.6048 H   0  0  0  0  0  0  0  0  0  0  0  0  # atno 6908 bound_to 6896
  150.7627  133.9288  159.3462 H   0  0  0  0  0  0  0  0  0  0  0  0  # atno 6909 bound_to 6896
  146.1926  139.7573  142.8820 H   0  0  0  0  0  0  0  0  0  0  0  0  # atno 7974 bound_to 7965
  155.2263  140.3335  155.4309 H   0  0  0  0  0  0  0  0  0  0  0  0  # atno 8008 bound_to 7997
  156.2313  140.1852  156.7281 H   0  0  0  0  0  0  0  0  0  0  0  0  # atno 8009 bound_to 7997
  154.5983  140.0627  156.9319 H   0  0  0  0  0  0  0  0  0  0  0  0  # atno 8010 bound_to 7997
  139.9922  143.5629  152.2337 H   0  0  0  0  0  0  0  0  0  0  0  0  # atno 10167 bound_to 10162
  156.3288  130.7575  151.1688 H   0  0  0  0  0  0  0  0  0  0  0  0  # atno 10718 bound_to 10713
  154.5669  135.2824  155.0865 H   0  0  0  0  0  0  0  0  0  0  0  0  # atno 10763 bound_to 10752
  154.2252  135.6384  153.5161 H   0  0  0  0  0  0  0  0  0  0  0  0  # atno 10764 bound_to 10752
  153.0046  135.5524  154.6281 H   0  0  0  0  0  0  0  0  0  0  0  0  # atno 10765 bound_to 10752
  141.1627  133.7467  156.9194 H   0  0  0  0  0  0  0  0  0  0  0  0  # atno 11005 bound_to 11000
  145.3743  141.0348  143.3213 LP  0  0  0  0  0  0  0  0  0  0  0  0  # atno 17320 bound_to 7965
  144.8517  139.5311  143.6853 LP  0  0  0  0  0  0  0  0  0  0  0  0  # atno 17321 bound_to 7965
  139.6332  144.7647  151.2493 LP  0  0  0  0  0  0  0  0  0  0  0  0  # atno 17342 bound_to 10162
  140.7450  143.6444  150.8306 LP  0  0  0  0  0  0  0  0  0  0  0  0  # atno 17343 bound_to 10162
  157.7426  131.0487  150.5009 LP  0  0  0  0  0  0  0  0  0  0  0  0  # atno 17370 bound_to 10713
  156.5172  130.4153  149.6270 LP  0  0  0  0  0  0  0  0  0  0  0  0  # atno 17371 bound_to 10713
  140.1462  134.9261  157.2532 LP  0  0  0  0  0  0  0  0  0  0  0  0  # atno 17394 bound_to 11000
  140.2778  134.3386  155.7353 LP  0  0  0  0  0  0  0  0  0  0  0  0  # atno 17395 bound_to 11000

$$$$
