#       Name:                AV-unprocessed.smi:2807
#       Creating user name   scv26
#       Creation time:       Fri Mar 27 15:26:12 2020


#       File generated by GOLD software.
#

@<TRIPOS>MOLECULE
AV-unprocessed.smi:2807
    37    38     1
SMALL
NO_CHARGES


@<TRIPOS>ATOM
      1 ****         0.2034   2.4711   1.2516 O.2            1 S1                 0.0000
      2 ****         0.6132   1.3043   1.2321 C.2            1 S1                 0.0000
      3 ****        -0.0862   0.1348   1.1731 N.pl3          1 S1                -1.0000
      4 ****        -1.5395   0.0560   1.0382 C.3            1 S1                 0.0000
      5 ****        -1.9813   0.1976  -0.4244 C.3            1 S1                 0.0000
      6 ****        -3.3382  -0.5180  -0.5156 C.3            1 S1                 0.0000
      7 ****        -3.4389  -1.4214   0.7249 C.3            1 S1                 0.0000
      8 ****        -2.0716  -1.3315   1.4180 C.3            1 S1                 0.0000
      9 ****        -2.1853  -1.4940   2.8171 O.3            1 S1                 0.0000
     10 ****         2.1369   1.0591   1.2481 C.3            1 S1                 0.0000
     11 ****         2.7559   2.1965   1.5746 F              1 S1                 0.0000
     12 ****         2.4345   0.1561   2.1885 F              1 S1                 0.0000
     13 ****         2.6297   0.6153  -0.1291 C.ar           1 S1                 0.0000
     14 ****         2.7022   1.5390  -1.1969 C.ar           1 S1                 0.0000
     15 ****         3.1371   1.0847  -2.4563 C.ar           1 S1                 0.0000
     16 ****         3.4866  -0.2707  -2.6049 C.ar           1 S1                 0.0000
     17 ****         3.3859  -1.1141  -1.4810 C.ar           1 S1                 0.0000
     18 ****         2.9710  -0.6884  -0.2694 N.ar           1 S1                 0.0000
     19 ****        -2.0606   0.8078   1.6351 H              1 S1                 0.0000
     20 ****        -2.0395   1.2397  -0.7401 H              1 S1                 0.0000
     21 ****        -1.2706  -0.3037  -1.0844 H              1 S1                 0.0000
     22 ****        -4.1587   0.2014  -0.5247 H              1 S1                 0.0000
     23 ****        -3.4079  -1.0965  -1.4377 H              1 S1                 0.0000
     24 ****        -4.2353  -1.0547   1.3765 H              1 S1                 0.0000
     25 ****        -3.6888  -2.4506   0.4639 H              1 S1                 0.0000
     26 ****        -1.4189  -2.1101   1.0186 H              1 S1                 0.0000
     27 ****        -2.6199  -0.7310   3.1656 H              1 S1                 0.0000
     28 ****         2.4176   2.5711  -1.0540 H              1 S1                 0.0000
     29 ****         3.1980   1.7634  -3.2940 H              1 S1                 0.0000
     30 ****         3.8218  -0.6553  -3.5565 H              1 S1                 0.0000
     31 ****         3.6460  -2.1594  -1.5574 H              1 S1                 0.0000
     32 ****        -0.7787   2.6567   1.2221 LP             1 S1                 0.0000
     33 ****         0.8543   3.2290   1.2969 LP             1 S1                 0.0000
     34 ****         0.4272  -0.7218   1.2254 LP             1 S1                 0.0000
     35 ****        -1.2758  -1.5816   3.2235 LP             1 S1                 0.0000
     36 ****        -2.7218  -2.3128   3.0211 LP             1 S1                 0.0000
     37 ****         2.9169  -1.3189   0.5049 LP             1 S1                 0.0000
@<TRIPOS>BOND
    1    1    2 2     
    2    2    3 1     
    3    2   10 1     
    4    3    4 1     
    5    4    8 1     
    6    4    5 1     
    7    4   19 1     
    8    5    6 1     
    9    5   20 1     
   10    5   21 1     
   11    6    7 1     
   12    6   22 1     
   13    6   23 1     
   14    7    8 1     
   15    7   24 1     
   16    7   25 1     
   17    8    9 1     
   18    8   26 1     
   19    9   27 1     
   20   10   11 1     
   21   10   12 1     
   22   10   13 1     
   23   13   18 ar    
   24   13   14 ar    
   25   14   15 ar    
   26   14   28 1     
   27   15   16 ar    
   28   15   29 1     
   29   16   17 ar    
   30   16   30 1     
   31   17   18 ar    
   32   17   31 1     
   33    1   32 1     
   34    1   33 1     
   35    3   34 1     
   36    9   35 1     
   37    9   36 1     
   38   18   37 1     
@<TRIPOS>SUBSTRUCTURE
      1 S1             1
@<TRIPOS>SET
LONE_PAIRS      STATIC     ATOMS    <user>   **** ""
6 32 33 34 35 36 37
DONOR_HYDROGENS      STATIC     ATOMS    <user>   **** ""
1 27
ATOM$BLUE        STATIC     ATOMS    COLORGROUP SYSTEM
6 32 33 34 35 36 37
ATOM$RED        STATIC     ATOMS    COLORGROUP SYSTEM
1 27
