AV-unprocessed.smi:1487|AV-procd|sdf|6011|dock1
  -GOLD-   22720 6113D 1   1.00000     0.00000
 Structure written by MMmdl.
 48 50  0  0  0  0  0  0  0  0  2 V2000
  152.7626  143.0542  161.3139 C   0  0  0  0  0  0  0  0  0  0  0  0
  152.1955  142.6269  159.9717 C   0  0  0  0  0  0  0  0  0  0  0  0
  152.7278  141.4842  159.3336 C   0  0  0  0  0  0  0  0  0  0  0  0
  152.2275  141.0526  158.0857 C   0  0  0  0  0  0  0  0  0  0  0  0
  152.5949  139.9785  157.2934 N   0  0  0  0  0  0  0  0  0  0  0  0
  151.7637  140.1076  156.2642 C   0  0  0  0  0  0  0  0  0  0  0  0
  150.9030  141.1433  156.2924 N   0  0  0  0  0  0  0  0  0  0  0  0
  149.9131  141.4812  155.2850 C   0  0  0  0  0  0  0  0  0  0  0  0
  148.8319  140.3940  155.1369 C   0  0  2  0  0  0  0  0  0  0  0  0
  148.4125  139.9740  156.4212 O   0  0  0  0  0  0  0  0  0  0  0  0
  149.3566  139.1667  154.3665 C   0  0  0  0  0  0  0  0  0  0  0  0
  148.2718  138.4343  153.6647 N   0  3  1  0  0  0  0  0  0  0  0  0
  147.4880  137.5446  154.5616 C   0  0  0  0  0  0  0  0  0  0  0  0
  146.5041  136.6824  153.7563 C   0  0  0  0  0  0  0  0  0  0  0  0
  145.5647  137.5599  152.9167 C   0  0  0  0  0  0  0  0  0  0  0  0
  146.3607  138.5477  152.0469 C   0  0  2  0  0  0  0  0  0  0  0  0
  147.0192  137.8640  150.9991 O   0  0  0  0  0  0  0  0  0  0  0  0
  147.3920  139.3375  152.8768 C   0  0  0  0  0  0  0  0  0  0  0  0
  151.1719  141.8017  157.4880 C   0  0  0  0  0  0  0  0  0  0  0  0
  150.6356  142.9418  158.1122 C   0  0  0  0  0  0  0  0  0  0  0  0
  151.1464  143.3586  159.3593 C   0  0  0  0  0  0  0  0  0  0  0  0
  150.5586  144.5891  160.0272 C   0  0  0  0  0  0  0  0  0  0  0  0
  153.5291  142.3609  161.6614 H   0  0  0  0  0  0  0  0  0  0  0  0
  151.9769  143.0881  162.0689 H   0  0  0  0  0  0  0  0  0  0  0  0
  153.2150  144.0433  161.2387 H   0  0  0  0  0  0  0  0  0  0  0  0
  153.5276  140.9273  159.7994 H   0  0  0  0  0  0  0  0  0  0  0  0
  151.7832  139.4107  155.4390 H   0  0  0  0  0  0  0  0  0  0  0  0
  149.4562  142.4315  155.5649 H   0  0  0  0  0  0  0  0  0  0  0  0
  150.4214  141.6499  154.3345 H   0  0  0  0  0  0  0  0  0  0  0  0
  147.9736  140.8272  154.6239 H   0  0  0  0  0  0  0  0  0  0  0  0
  148.4871  140.7047  157.0170 H   0  0  0  0  0  0  0  0  0  0  0  0
  150.1163  139.4624  153.6413 H   0  0  0  0  0  0  0  0  0  0  0  0
  149.8577  138.5048  155.0749 H   0  0  0  0  0  0  0  0  0  0  0  0
  148.1524  136.8898  155.1242 H   0  0  0  0  0  0  0  0  0  0  0  0
  146.9472  138.1470  155.2935 H   0  0  0  0  0  0  0  0  0  0  0  0
  147.0588  136.0043  153.1063 H   0  0  0  0  0  0  0  0  0  0  0  0
  145.9211  136.0543  154.4303 H   0  0  0  0  0  0  0  0  0  0  0  0
  144.9143  136.9397  152.2985 H   0  0  0  0  0  0  0  0  0  0  0  0
  144.9094  138.1204  153.5848 H   0  0  0  0  0  0  0  0  0  0  0  0
  145.6686  139.2491  151.5796 H   0  0  0  0  0  0  0  0  0  0  0  0
  147.5216  137.1543  151.3704 H   0  0  0  0  0  0  0  0  0  0  0  0
  146.8760  140.0139  153.5603 H   0  0  0  0  0  0  0  0  0  0  0  0
  147.9930  139.9612  152.2129 H   0  0  0  0  0  0  0  0  0  0  0  0
  149.8376  143.4917  157.6355 H   0  0  0  0  0  0  0  0  0  0  0  0
  149.7884  145.0485  159.4070 H   0  0  0  0  0  0  0  0  0  0  0  0
  151.3333  145.3352  160.2056 H   0  0  0  0  0  0  0  0  0  0  0  0
  150.1055  144.3245  160.9827 H   0  0  0  0  0  0  0  0  0  0  0  0
  148.7297  137.8412  152.9864 H   0  0  0  0  0  0  0  0  0  0  0  0
  1  2  1  0  0  0  0
  1 23  1  0  0  0  0
  1 24  1  0  0  0  0
  1 25  1  0  0  0  0
  2 21  1  0  0  0  0
  2  3  2  0  0  0  0
  3  4  1  0  0  0  0
  3 26  1  0  0  0  0
  4 19  2  0  0  0  0
  4  5  1  0  0  0  0
  5  6  2  0  0  0  0
  6  7  1  0  0  0  0
  6 27  1  0  0  0  0
  7  8  1  0  0  0  0
  7 19  1  0  0  0  0
  8  9  1  0  0  0  0
  8 28  1  0  0  0  0
  8 29  1  0  0  0  0
  9 10  1  0  0  0  0
  9 11  1  0  0  0  0
  9 30  1  0  0  0  0
 10 31  1  0  0  0  0
 11 12  1  0  0  0  0
 11 32  1  0  0  0  0
 11 33  1  0  0  0  0
 12 18  1  0  0  0  0
 12 13  1  0  0  0  0
 12 48  1  0  0  0  0
 13 14  1  0  0  0  0
 13 34  1  0  0  0  0
 13 35  1  0  0  0  0
 14 15  1  0  0  0  0
 14 36  1  0  0  0  0
 14 37  1  0  0  0  0
 15 16  1  0  0  0  0
 15 38  1  0  0  0  0
 15 39  1  0  0  0  0
 16 17  1  0  0  0  0
 16 18  1  0  0  0  0
 16 40  1  0  0  0  0
 17 41  1  0  0  0  0
 18 42  1  0  0  0  0
 18 43  1  0  0  0  0
 19 20  1  0  0  0  0
 20 21  2  0  0  0  0
 20 44  1  0  0  0  0
 21 22  1  0  0  0  0
 22 45  1  0  0  0  0
 22 46  1  0  0  0  0
 22 47  1  0  0  0  0
M  CHG  1  12   1
M  END
> <s_m_source_file>
AV-unprocessed.smi

> <i_m_source_file_index>
1487

> <i_lp_mmshare_version>
43012

> <i_f3d_flags>
0

> <s_epik_input>
W0NIM11jKFtjSF0xKWMoW0NIM10pW2NIXWMoYzEyKW4oW2NIXW4yKVtDSDJdW0NASF0oW09IXSlbQ0gyXU4zW0NIMl1bQ0gyXVtDSDJdW0NAQEhdKFtPSF0pW0NIMl0z

> <s_epik_cmdline>
J2VwaWtfcHl0aG9uJywgJy1waCcsICc3LjAnLCAnLXRuJywgJzgnLCAnLW1hJywgJzIwMCcsICctbWV0YWxfYmluZGluZycsICctaW1hZScsICc8aW5maWxlLm1hZT4nLCAnLW9tYWUnLCAnPG91dGZpbGUubWFlPic=

> <r_epik_Ionization_Penalty>
0.0940186

> <r_epik_Ionization_Penalty_Charging>
0.00679686

> <r_epik_Ionization_Penalty_Neutral>
0.0872218

> <r_epik_State_Penalty>
0.0799311

> <r_epik_Charging_Adjusted_Penalty>
0.086728

> <i_epik_Tot_Q>
1

> <i_epik_Tot_abs_Q>
1

> <r_epik_Metal_State_Penalty>
7.95545e-05

> <b_epik_Metal_Only>
0

> <s_lp_Force_Field>
OPLS_2005

> <r_lp_Energy>
22.5409

> <b_lp_Chiralities_Consistent>
1

> <s_lp_Variant>
AV-unprocessed.smi:1487-5

> <Gold.Version>
5.8.1

> <Gold.Id.Protein>
6NUR|6NUR_protein|mol2

> <Gold.PLP.Fitness>
56.2169

> <Gold.PLP.PLP>
-43.1828

> <Gold.PLP.part.hbond>
-4.0112

> <Gold.PLP.part.metal>
0.0000

> <Gold.PLP.part.buried>
-2.2559

> <Gold.PLP.part.nonpolar>
-37.3417

> <Gold.PLP.part.repulsive>
0.0159

> <Gold.PLP.ligand.clash>
0.0000

> <Gold.PLP.ligand.torsion>
0.5672

> <Gold.PLP.Chemscore.Hbond>
4.6920

> <Gold.PLP.Chemscore.CHOScore>
0.0000

> <Gold.PLP.Chemscore.Metal>
0.0000

> <Gold.Chemscore.Hbonds>
donor molecule, donor type, donor heavy atom, donor atom, acceptor molecule, acceptor atom, score
      L1  H    12    48       P1  7948  2.00
      L1  H    17    41       P1  7948  1.00
      P1  H  7954  7966       L1    17  0.20
      P1  H  7997  8010       L1     5  1.00

> <Gold.PLP.Chemscore.Internal.Correction>
0.0923

> <Gold.Rescore>
     Score         DG    S(hbond)    S(metal)    S(lipo)     H(rot)  DE(clash)    DE(int)     intcor
     20.31     -21.27       2.67        0.00     117.18       2.67       0.26       0.70       ----

> <Gold.Chemscore.Fitness>
20.3050

> <Gold.Chemscore.DG>
-21.2667

> <Gold.Chemscore.ZeroCoef>
-5.4800

> <Gold.Chemscore.Hbond>
2.6691

> <Gold.Chemscore.Metal>
0.0000

> <Gold.Chemscore.Lipo>
117.1810

> <Gold.Chemscore.Internal_Hbond>
0.0000

> <Gold.Chemscore.DEClash>
0.2640

> <Gold.Chemscore.DEInternal>
0.6977

> <Gold.Chemscore.Rot>
2.6712

> <Gold.Chemscore.Internal.Correction>
   9.000000E+99

> <Gold.Chemscore.Hbonds>
donor molecule, donor type, donor heavy atom, donor atom, acceptor molecule, acceptor atom, score
      L1  H    12    48       P1  7948  0.98
      L1  H    17    41       P1  7948  0.99
      P1  H  7997  8010       L1     5  0.67

> <Gold.Chemscore.Hbond.Weighted>
-8.9149

> <Gold.Chemscore.Metal.Weighted>
-0.0000

> <Gold.Chemscore.Lipo.Weighted>
-13.7102

> <Gold.Chemscore.Internal_Hbond.Weighted>
0.0000

> <Gold.Chemscore.DEClash.Weighted>
0.2640

> <Gold.Chemscore.DEInternal.Weighted>
0.6977

> <Gold.Chemscore.Rot.Weighted>
6.8383

> <Gold.Chemscore.Internal.Correction.Weighted>
   9.000000E+99

> <Gold.Protein.RotatedTorsions>
[ 6907 6896 6895 6894 ] final   -8.15 input  -60.11 | X-H torsion
[ 7974 7965 7964 7962 ] final   27.65 input  175.53 | X-H torsion
[ 8008 7997 7996 7995 ] final   47.48 input   59.86 | X-H torsion
[ 10167 10162 10161 10158 ] final   63.19 input  -65.29 | X-H torsion
[ 10718 10713 10712 10709 ] final   82.14 input   66.30 | X-H torsion
[ 10763 10752 10751 10750 ] final  -91.30 input  -60.55 | X-H torsion
[ 11005 11000 10999 10996 ] final   99.28 input  -57.11 | X-H torsion

> <Gold.Protein.ActiveResidues>
 VAL166  LYS551  ARG553  GLY616  TRP617  ASP618  TYR619  PRO620  LYS621  CYS622 
 ASP623  PHE694  ASN695  SER759  ASP760  ASP761  ALA762  ILE779  LEU786  VAL792 
 PHE793  MET794  SER795  GLU796  ALA797  LYS798  CYS799  TRP800  GLU811  SER814 

> <Gold.Protein.RotatedAtoms>
  151.4383  135.1017  159.9662 H   0  0  0  0  0  0  0  0  0  0  0  0  # atno 6907 bound_to 6896
  152.4932  133.8553  159.7233 H   0  0  0  0  0  0  0  0  0  0  0  0  # atno 6908 bound_to 6896
  150.9106  133.6943  159.2883 H   0  0  0  0  0  0  0  0  0  0  0  0  # atno 6909 bound_to 6896
  146.1773  139.7163  142.8925 H   0  0  0  0  0  0  0  0  0  0  0  0  # atno 7974 bound_to 7965
  155.3697  140.3423  155.4243 H   0  0  0  0  0  0  0  0  0  0  0  0  # atno 8008 bound_to 7997
  156.1669  140.1619  156.8549 H   0  0  0  0  0  0  0  0  0  0  0  0  # atno 8009 bound_to 7997
  154.5194  140.0770  156.8125 H   0  0  0  0  0  0  0  0  0  0  0  0  # atno 8010 bound_to 7997
  140.1357  144.4601  150.6839 H   0  0  0  0  0  0  0  0  0  0  0  0  # atno 10167 bound_to 10162
  157.6850  131.0034  150.2330 H   0  0  0  0  0  0  0  0  0  0  0  0  # atno 10718 bound_to 10713
  154.6747  135.5273  153.8184 H   0  0  0  0  0  0  0  0  0  0  0  0  # atno 10763 bound_to 10752
  153.0524  135.6537  154.0670 H   0  0  0  0  0  0  0  0  0  0  0  0  # atno 10764 bound_to 10752
  154.0565  135.2965  155.3312 H   0  0  0  0  0  0  0  0  0  0  0  0  # atno 10765 bound_to 10752
  139.8771  134.9088  156.4583 H   0  0  0  0  0  0  0  0  0  0  0  0  # atno 11005 bound_to 11000
  145.4176  141.0403  143.2982 LP  0  0  0  0  0  0  0  0  0  0  0  0  # atno 17320 bound_to 7965
  144.8256  139.5715  143.6967 LP  0  0  0  0  0  0  0  0  0  0  0  0  # atno 17321 bound_to 7965
  140.6790  143.2318  151.5432 LP  0  0  0  0  0  0  0  0  0  0  0  0  # atno 17342 bound_to 10162
  139.5497  144.2428  152.1508 LP  0  0  0  0  0  0  0  0  0  0  0  0  # atno 17343 bound_to 10162
  156.2959  130.3752  149.7797 LP  0  0  0  0  0  0  0  0  0  0  0  0  # atno 17370 bound_to 10713
  156.5442  130.8313  151.3279 LP  0  0  0  0  0  0  0  0  0  0  0  0  # atno 17371 bound_to 10713
  140.8882  133.7867  155.9542 LP  0  0  0  0  0  0  0  0  0  0  0  0  # atno 17394 bound_to 11000
  140.8781  134.2644  157.5158 LP  0  0  0  0  0  0  0  0  0  0  0  0  # atno 17395 bound_to 11000

$$$$
