AV-unprocessed.smi:564|AV-procd|sdf|2950|dock4
  -GOLD-   2262023453D 1   1.00000     0.00000
 Structure written by MMmdl.
 50 51  0  0  0  0  0  0  0  0  2 V2000
  153.1570  137.7066  156.6156 C   0  0  0  0  0  0  0  0  0  0  0  0
  152.2406  138.8829  156.4326 C   0  0  0  0  0  0  0  0  0  0  0  0
  152.4140  139.9602  157.1793 N   0  0  0  0  0  0  0  0  0  0  0  0
  151.4521  140.8157  156.7796 N   0  0  0  0  0  0  0  0  0  0  0  0
  151.3522  142.1182  157.4089 C   0  0  0  0  0  0  0  0  0  0  0  0
  150.6752  140.2816  155.7707 C   0  0  0  0  0  0  0  0  0  0  0  0
  149.5435  141.0359  155.1504 C   0  0  0  0  0  0  0  0  0  0  0  0
  151.1604  139.0273  155.5127 C   0  0  0  0  0  0  0  0  0  0  0  0
  150.6851  138.0280  154.4875 C   0  0  0  0  0  0  0  0  0  0  0  0
  150.3581  136.7153  155.1966 C   0  0  0  0  0  0  0  0  0  0  0  0
  150.6175  136.5754  156.3911 O   0  0  0  0  0  0  0  0  0  0  0  0
  149.7411  135.7802  154.4581 N   0  0  0  0  0  0  0  0  0  0  0  0
  149.1807  134.5358  154.9745 C   0  0  0  0  0  0  0  0  0  0  0  0
  147.6396  134.4883  154.8604 C   0  0  0  0  0  0  0  0  0  0  0  0
  147.1439  134.5999  153.4563 N   0  3  1  0  0  0  0  0  0  0  0  0
  147.1738  133.2753  152.7728 C   0  0  0  0  0  0  0  0  0  0  0  0
  146.7874  133.3766  151.2917 C   0  0  0  0  0  0  0  0  0  0  0  0
  145.4009  134.0010  151.1450 C   0  0  0  0  0  0  0  0  0  0  0  0
  145.3881  135.3653  151.8368 C   0  0  0  0  0  0  0  0  0  0  0  0
  145.8136  135.2780  153.3198 C   0  0  2  0  0  0  0  0  0  0  0  0
  145.8026  136.7042  153.9090 C   0  0  0  0  0  0  0  0  0  0  0  0
  153.8282  137.5994  155.7638 H   0  0  0  0  0  0  0  0  0  0  0  0
  152.5899  136.7805  156.7115 H   0  0  0  0  0  0  0  0  0  0  0  0
  153.7727  137.8091  157.5101 H   0  0  0  0  0  0  0  0  0  0  0  0
  150.3606  142.2396  157.8453 H   0  0  0  0  0  0  0  0  0  0  0  0
  151.5125  142.8982  156.6645 H   0  0  0  0  0  0  0  0  0  0  0  0
  152.0997  142.2247  158.1963 H   0  0  0  0  0  0  0  0  0  0  0  0
  149.2041  140.5543  154.2334 H   0  0  0  0  0  0  0  0  0  0  0  0
  149.8420  142.0535  154.8974 H   0  0  0  0  0  0  0  0  0  0  0  0
  148.6965  141.0915  155.8341 H   0  0  0  0  0  0  0  0  0  0  0  0
  149.7998  138.3820  153.9584 H   0  0  0  0  0  0  0  0  0  0  0  0
  151.4425  137.8470  153.7238 H   0  0  0  0  0  0  0  0  0  0  0  0
  149.5904  135.9771  153.4789 H   0  0  0  0  0  0  0  0  0  0  0  0
  149.6258  133.7133  154.4149 H   0  0  0  0  0  0  0  0  0  0  0  0
  149.4873  134.3916  156.0115 H   0  0  0  0  0  0  0  0  0  0  0  0
  147.2490  133.5825  155.3259 H   0  0  0  0  0  0  0  0  0  0  0  0
  147.2698  135.3111  155.4659 H   0  0  0  0  0  0  0  0  0  0  0  0
  148.1706  132.8404  152.8356 H   0  0  0  0  0  0  0  0  0  0  0  0
  146.4985  132.5882  153.2852 H   0  0  0  0  0  0  0  0  0  0  0  0
  147.5228  133.9762  150.7551 H   0  0  0  0  0  0  0  0  0  0  0  0
  146.8004  132.3872  150.8337 H   0  0  0  0  0  0  0  0  0  0  0  0
  145.1451  134.1099  150.0905 H   0  0  0  0  0  0  0  0  0  0  0  0
  144.6468  133.3493  151.5880 H   0  0  0  0  0  0  0  0  0  0  0  0
  146.0556  136.0419  151.3036 H   0  0  0  0  0  0  0  0  0  0  0  0
  144.3902  135.7980  151.7578 H   0  0  0  0  0  0  0  0  0  0  0  0
  145.0735  134.6792  153.8532 H   0  0  0  0  0  0  0  0  0  0  0  0
  144.8960  137.2378  153.6221 H   0  0  0  0  0  0  0  0  0  0  0  0
  146.6518  137.2874  153.5526 H   0  0  0  0  0  0  0  0  0  0  0  0
  145.8186  136.7082  154.9982 H   0  0  0  0  0  0  0  0  0  0  0  0
  147.8031  135.1922  152.9711 H   0  0  0  0  0  0  0  0  0  0  0  0
  1  2  1  0  0  0  0
  1 22  1  0  0  0  0
  1 23  1  0  0  0  0
  1 24  1  0  0  0  0
  2  8  1  0  0  0  0
  2  3  2  0  0  0  0
  3  4  1  0  0  0  0
  4  5  1  0  0  0  0
  4  6  1  0  0  0  0
  5 25  1  0  0  0  0
  5 26  1  0  0  0  0
  5 27  1  0  0  0  0
  6  7  1  0  0  0  0
  6  8  2  0  0  0  0
  7 28  1  0  0  0  0
  7 29  1  0  0  0  0
  7 30  1  0  0  0  0
  8  9  1  0  0  0  0
  9 10  1  0  0  0  0
  9 31  1  0  0  0  0
  9 32  1  0  0  0  0
 10 11  2  0  0  0  0
 10 12  1  0  0  0  0
 12 13  1  0  0  0  0
 12 33  1  0  0  0  0
 13 14  1  0  0  0  0
 13 34  1  0  0  0  0
 13 35  1  0  0  0  0
 14 15  1  0  0  0  0
 14 36  1  0  0  0  0
 14 37  1  0  0  0  0
 15 20  1  0  0  0  0
 15 16  1  0  0  0  0
 15 50  1  0  0  0  0
 16 17  1  0  0  0  0
 16 38  1  0  0  0  0
 16 39  1  0  0  0  0
 17 18  1  0  0  0  0
 17 40  1  0  0  0  0
 17 41  1  0  0  0  0
 18 19  1  0  0  0  0
 18 42  1  0  0  0  0
 18 43  1  0  0  0  0
 19 20  1  0  0  0  0
 19 44  1  0  0  0  0
 19 45  1  0  0  0  0
 20 21  1  0  0  0  0
 20 46  1  0  0  0  0
 21 47  1  0  0  0  0
 21 48  1  0  0  0  0
 21 49  1  0  0  0  0
M  CHG  1  15   1
M  END
> <s_m_source_file>
AV-unprocessed.smi

> <i_m_source_file_index>
564

> <i_lp_mmshare_version>
43012

> <i_f3d_flags>
0

> <s_epik_input>
W0NIM11jMW5uKFtDSDNdKWMoW0NIM10pYzFbQ0gyXUMoPU8pW05IXVtDSDJdW0NIMl1OMltDSDJdW0NIMl1bQ0gyXVtDSDJdW0NASF0yW0NIM10=

> <s_epik_cmdline>
J2VwaWtfcHl0aG9uJywgJy1waCcsICc3LjAnLCAnLXRuJywgJzgnLCAnLW1hJywgJzIwMCcsICctbWV0YWxfYmluZGluZycsICctaW1hZScsICc8aW5maWxlLm1hZT4nLCAnLW9tYWUnLCAnPG91dGZpbGUubWFlPic=

> <r_lp_tautomer_probability>
1

> <r_epik_Ionization_Penalty>
0.00456826

> <r_epik_Ionization_Penalty_Charging>
0.00240401

> <r_epik_Ionization_Penalty_Neutral>
0.00216425

> <r_epik_State_Penalty>
-0

> <r_epik_Charging_Adjusted_Penalty>
0.00240401

> <i_epik_Tot_Q>
1

> <i_epik_Tot_abs_Q>
1

> <r_epik_Metal_State_Penalty>
-0

> <b_epik_Metal_Only>
0

> <s_lp_Force_Field>
OPLS_2005

> <r_lp_Energy>
16.3925

> <b_lp_Chiralities_Consistent>
1

> <s_lp_Variant>
AV-unprocessed.smi:564-4

> <Gold.Version>
5.8.1

> <Gold.Id.Protein>
6NUR|6NUR_protein|mol2

> <Gold.PLP.Fitness>
44.7893

> <Gold.PLP.PLP>
-35.1070

> <Gold.PLP.part.hbond>
-3.9333

> <Gold.PLP.part.metal>
0.0000

> <Gold.PLP.part.buried>
-2.7414

> <Gold.PLP.part.nonpolar>
-29.7127

> <Gold.PLP.part.repulsive>
0.0774

> <Gold.PLP.ligand.clash>
0.0000

> <Gold.PLP.ligand.torsion>
0.4279

> <Gold.PLP.Chemscore.Hbond>
3.5000

> <Gold.PLP.Chemscore.CHOScore>
0.0000

> <Gold.PLP.Chemscore.Metal>
0.0000

> <Gold.Chemscore.Hbonds>
donor molecule, donor type, donor heavy atom, donor atom, acceptor molecule, acceptor atom, score
      L1  H    12    33       P1  7948  1.00
      L1  H    15    50       P1  7948  2.00
      P1  H  7997  8009       L1     3  0.63

> <Gold.PLP.Chemscore.Internal.Correction>
0.0381

> <Gold.Rescore>
     Score         DG    S(hbond)    S(metal)    S(lipo)     H(rot)  DE(clash)    DE(int)     intcor
     13.21     -16.21       1.57        0.00      82.18       1.61       0.16       2.84       ----

> <Gold.Chemscore.Fitness>
13.2072

> <Gold.Chemscore.DG>
-16.2099

> <Gold.Chemscore.ZeroCoef>
-5.4800

> <Gold.Chemscore.Hbond>
1.5711

> <Gold.Chemscore.Metal>
0.0000

> <Gold.Chemscore.Lipo>
82.1779

> <Gold.Chemscore.Internal_Hbond>
0.0000

> <Gold.Chemscore.DEClash>
0.1629

> <Gold.Chemscore.DEInternal>
2.8398

> <Gold.Chemscore.Rot>
1.6142

> <Gold.Chemscore.Internal.Correction>
   9.000000E+99

> <Gold.Chemscore.Hbonds>
donor molecule, donor type, donor heavy atom, donor atom, acceptor molecule, acceptor atom, score
      L1  H    12    33       P1  7948  0.26
      L1  H    15    50       P1  7948  1.00
      P1  H  7997  8009       L1     3  0.05

> <Gold.Chemscore.Hbond.Weighted>
-5.2475

> <Gold.Chemscore.Metal.Weighted>
-0.0000

> <Gold.Chemscore.Lipo.Weighted>
-9.6148

> <Gold.Chemscore.Internal_Hbond.Weighted>
0.0000

> <Gold.Chemscore.DEClash.Weighted>
0.1629

> <Gold.Chemscore.DEInternal.Weighted>
2.8398

> <Gold.Chemscore.Rot.Weighted>
4.1324

> <Gold.Chemscore.Internal.Correction.Weighted>
   9.000000E+99

> <Gold.Protein.RotatedTorsions>
[ 6907 6896 6895 6894 ] final -103.75 input  -60.11 | X-H torsion
[ 7974 7965 7964 7962 ] final   43.26 input  175.53 | X-H torsion
[ 8008 7997 7996 7995 ] final  174.98 input   59.86 | X-H torsion
[ 10167 10162 10161 10158 ] final   36.07 input  -65.29 | X-H torsion
[ 10718 10713 10712 10709 ] final -133.69 input   66.30 | X-H torsion
[ 10763 10752 10751 10750 ] final   82.64 input  -60.55 | X-H torsion
[ 11005 11000 10999 10996 ] final   61.50 input  -57.11 | X-H torsion

> <Gold.Protein.ActiveResidues>
 VAL166  LYS551  ARG553  GLY616  TRP617  ASP618  TYR619  PRO620  LYS621  CYS622 
 ASP623  PHE694  ASN695  SER759  ASP760  ASP761  ALA762  ILE779  LEU786  VAL792 
 PHE793  MET794  SER795  GLU796  ALA797  LYS798  CYS799  TRP800  GLU811  SER814 

> <Gold.Protein.RotatedAtoms>
  150.7255  134.0382  159.3756 H   0  0  0  0  0  0  0  0  0  0  0  0  # atno 6907 bound_to 6896
  151.8354  135.0605  160.0451 H   0  0  0  0  0  0  0  0  0  0  0  0  # atno 6908 bound_to 6896
  152.2902  133.5518  159.5589 H   0  0  0  0  0  0  0  0  0  0  0  0  # atno 6909 bound_to 6896
  146.0670  139.5207  142.9622 H   0  0  0  0  0  0  0  0  0  0  0  0  # atno 7974 bound_to 7965
  156.0918  140.1420  156.9582 H   0  0  0  0  0  0  0  0  0  0  0  0  # atno 8008 bound_to 7997
  154.4646  140.0931  156.7034 H   0  0  0  0  0  0  0  0  0  0  0  0  # atno 8009 bound_to 7997
  155.4907  140.3448  155.4356 H   0  0  0  0  0  0  0  0  0  0  0  0  # atno 8010 bound_to 7997
  140.4162  144.1523  150.6143 H   0  0  0  0  0  0  0  0  0  0  0  0  # atno 10167 bound_to 10162
  156.2476  130.7133  151.1019 H   0  0  0  0  0  0  0  0  0  0  0  0  # atno 10718 bound_to 10713
  153.1220  135.4721  154.9212 H   0  0  0  0  0  0  0  0  0  0  0  0  # atno 10763 bound_to 10752
  154.7585  135.3125  154.8426 H   0  0  0  0  0  0  0  0  0  0  0  0  # atno 10764 bound_to 10752
  153.8989  135.6877  153.4810 H   0  0  0  0  0  0  0  0  0  0  0  0  # atno 10765 bound_to 10752
  140.0157  134.6229  155.9714 H   0  0  0  0  0  0  0  0  0  0  0  0  # atno 11005 bound_to 11000
  145.6459  141.0274  143.1787 LP  0  0  0  0  0  0  0  0  0  0  0  0  # atno 17320 bound_to 7965
  144.7208  139.8035  143.7382 LP  0  0  0  0  0  0  0  0  0  0  0  0  # atno 17321 bound_to 7965
  140.4583  143.2459  151.9254 LP  0  0  0  0  0  0  0  0  0  0  0  0  # atno 17342 bound_to 10162
  139.4782  144.5493  151.8411 LP  0  0  0  0  0  0  0  0  0  0  0  0  # atno 17343 bound_to 10162
  157.7201  131.0686  150.6170 LP  0  0  0  0  0  0  0  0  0  0  0  0  # atno 17370 bound_to 10713
  156.6247  130.4415  149.5809 LP  0  0  0  0  0  0  0  0  0  0  0  0  # atno 17371 bound_to 10713
  141.1741  133.6539  156.4761 LP  0  0  0  0  0  0  0  0  0  0  0  0  # atno 17394 bound_to 11000
  140.4476  134.6958  157.5023 LP  0  0  0  0  0  0  0  0  0  0  0  0  # atno 17395 bound_to 11000

$$$$
