AV-unprocessed.smi:910|AV-procd|sdf|4132|dock1
  -GOLD-   22720 2 33D 1   1.00000     0.00000
 Structure written by MMmdl.
 45 46  0  0  0  0  0  0  0  0  2 V2000
  144.3867  134.8082  162.6592 C   0  0  0  0  0  0  0  0  0  0  0  0
  145.6841  135.0874  161.9685 C   0  0  0  0  0  0  0  0  0  0  0  0
  146.0379  136.3578  161.5398 N   0  0  0  0  0  0  0  0  0  0  0  0
  147.2396  136.2296  160.9742 C   0  0  0  0  0  0  0  0  0  0  0  0
  147.9689  137.2154  160.4272 N   0  5  0  0  0  0  0  0  0  0  0  0
  148.9713  136.9170  159.5704 C   0  0  0  0  0  0  0  0  0  0  0  0
  149.2500  135.7986  159.1317 O   0  0  0  0  0  0  0  0  0  0  0  0
  149.6968  137.9813  159.1983 N   0  0  0  0  0  0  0  0  0  0  0  0
  150.8390  137.9644  158.2903 C   0  0  0  0  0  0  0  0  0  0  0  0
  151.9959  138.8228  158.8198 C   0  0  0  0  0  0  0  0  0  0  0  0
  152.1471  139.9619  157.9845 O   0  0  0  0  0  0  0  0  0  0  0  0
  151.7652  141.1904  158.5900 C   0  0  2  0  0  0  0  0  0  0  0  0
  151.1742  142.1318  157.5185 C   0  0  0  0  0  0  0  0  0  0  0  0
  150.8655  143.5210  158.0965 C   0  0  0  0  0  0  0  0  0  0  0  0
  152.1137  144.1416  158.7390 C   0  0  0  0  0  0  0  0  0  0  0  0
  152.7055  143.2103  159.8077 C   0  0  0  0  0  0  0  0  0  0  0  0
  153.0225  141.8126  159.2387 C   0  0  1  0  0  0  0  0  0  0  0  0
  153.6104  140.9046  160.3312 C   0  0  0  0  0  0  0  0  0  0  0  0
  147.6930  134.9444  161.0197 O   0  0  0  0  0  0  0  0  0  0  0  0
  146.7047  134.2346  161.6451 C   0  0  0  0  0  0  0  0  0  0  0  0
  146.9127  132.7719  161.8440 C   0  0  0  0  0  0  0  0  0  0  0  0
  144.5469  134.5659  163.7097 H   0  0  0  0  0  0  0  0  0  0  0  0
  143.8709  133.9654  162.1989 H   0  0  0  0  0  0  0  0  0  0  0  0
  143.7171  135.6678  162.6161 H   0  0  0  0  0  0  0  0  0  0  0  0
  149.4372  138.8765  159.5856 H   0  0  0  0  0  0  0  0  0  0  0  0
  151.1731  136.9377  158.1333 H   0  0  0  0  0  0  0  0  0  0  0  0
  150.5148  138.3351  157.3178 H   0  0  0  0  0  0  0  0  0  0  0  0
  151.8122  139.1096  159.8555 H   0  0  0  0  0  0  0  0  0  0  0  0
  152.9170  138.2390  158.8051 H   0  0  0  0  0  0  0  0  0  0  0  0
  151.0244  141.0118  159.3722 H   0  0  0  0  0  0  0  0  0  0  0  0
  151.8788  142.2304  156.6917 H   0  0  0  0  0  0  0  0  0  0  0  0
  150.2627  141.7109  157.0949 H   0  0  0  0  0  0  0  0  0  0  0  0
  150.4876  144.1751  157.3104 H   0  0  0  0  0  0  0  0  0  0  0  0
  150.0722  143.4393  158.8406 H   0  0  0  0  0  0  0  0  0  0  0  0
  152.8617  144.3406  157.9705 H   0  0  0  0  0  0  0  0  0  0  0  0
  151.8629  145.1051  159.1838 H   0  0  0  0  0  0  0  0  0  0  0  0
  153.6098  143.6592  160.2200 H   0  0  0  0  0  0  0  0  0  0  0  0
  152.0024  143.1181  160.6369 H   0  0  0  0  0  0  0  0  0  0  0  0
  153.7805  141.9310  158.4627 H   0  0  0  0  0  0  0  0  0  0  0  0
  152.8920  140.7336  161.1334 H   0  0  0  0  0  0  0  0  0  0  0  0
  154.5029  141.3495  160.7716 H   0  0  0  0  0  0  0  0  0  0  0  0
  153.8963  139.9326  159.9290 H   0  0  0  0  0  0  0  0  0  0  0  0
  146.1374  132.1998  161.3345 H   0  0  0  0  0  0  0  0  0  0  0  0
  146.8796  132.5193  162.9037 H   0  0  0  0  0  0  0  0  0  0  0  0
  147.8795  132.4564  161.4511 H   0  0  0  0  0  0  0  0  0  0  0  0
  1 22  1  0  0  0  0
  1 23  1  0  0  0  0
  1 24  1  0  0  0  0
  1  2  1  0  0  0  0
  2  3  1  0  0  0  0
  2 20  2  0  0  0  0
  3  4  2  0  0  0  0
  4 19  1  0  0  0  0
  4  5  1  0  0  0  0
  5  6  1  0  0  0  0
  6  8  1  0  0  0  0
  6  7  2  0  0  0  0
  8  9  1  0  0  0  0
  8 25  1  0  0  0  0
  9 10  1  0  0  0  0
  9 26  1  0  0  0  0
  9 27  1  0  0  0  0
 10 11  1  0  0  0  0
 10 28  1  0  0  0  0
 10 29  1  0  0  0  0
 11 12  1  0  0  0  0
 12 17  1  0  0  0  0
 12 13  1  0  0  0  0
 12 30  1  0  0  0  0
 13 14  1  0  0  0  0
 13 31  1  0  0  0  0
 13 32  1  0  0  0  0
 14 15  1  0  0  0  0
 14 33  1  0  0  0  0
 14 34  1  0  0  0  0
 15 16  1  0  0  0  0
 15 35  1  0  0  0  0
 15 36  1  0  0  0  0
 16 17  1  0  0  0  0
 16 37  1  0  0  0  0
 16 38  1  0  0  0  0
 17 18  1  0  0  0  0
 17 39  1  0  0  0  0
 18 40  1  0  0  0  0
 18 41  1  0  0  0  0
 18 42  1  0  0  0  0
 19 20  1  0  0  0  0
 20 21  1  0  0  0  0
 21 43  1  0  0  0  0
 21 44  1  0  0  0  0
 21 45  1  0  0  0  0
M  CHG  1   5  -1
M  END
> <s_m_source_file>
AV-unprocessed.smi

> <i_m_source_file_index>
910

> <i_lp_mmshare_version>
43012

> <i_f3d_flags>
0

> <s_epik_input>
W0NIM11jMW5jKG9jMVtDSDNdKVtOSF1DKD1PKVtOSF1bQ0gyXVtDSDJdT1tDQEBIXTJbQ0gyXVtDSDJdW0NIMl1bQ0gyXVtDQEhdMltDSDNd

> <s_epik_cmdline>
J2VwaWtfcHl0aG9uJywgJy1waCcsICc3LjAnLCAnLXRuJywgJzgnLCAnLW1hJywgJzIwMCcsICctbWV0YWxfYmluZGluZycsICctaW1hZScsICc8aW5maWxlLm1hZT4nLCAnLW9tYWUnLCAnPG91dGZpbGUubWFlPic=

> <r_lp_tautomer_probability>
0.107061

> <r_epik_Ionization_Penalty>
10.1763

> <r_epik_Ionization_Penalty_Charging>
7.13067

> <r_epik_Ionization_Penalty_Neutral>
3.04564

> <r_epik_State_Penalty>
5.57927

> <r_epik_Charging_Adjusted_Penalty>
12.7099

> <i_epik_Tot_Q>
-1

> <i_epik_Tot_abs_Q>
1

> <r_epik_Metal_State_Penalty>
1.52303

> <b_epik_Metal_Only>
1

> <s_lp_Force_Field>
OPLS_2005

> <r_lp_Energy>
4.71476

> <b_lp_Chiralities_Consistent>
1

> <s_lp_Variant>
AV-unprocessed.smi:910-17

> <Gold.Version>
5.8.1

> <Gold.Id.Protein>
6NUR|6NUR_protein|mol2

> <Gold.PLP.Fitness>
49.7917

> <Gold.PLP.PLP>
-40.2919

> <Gold.PLP.part.hbond>
-3.0000

> <Gold.PLP.part.metal>
0.0000

> <Gold.PLP.part.buried>
-5.7932

> <Gold.PLP.part.nonpolar>
-33.4148

> <Gold.PLP.part.repulsive>
1.2052

> <Gold.PLP.ligand.clash>
0.0000

> <Gold.PLP.ligand.torsion>
1.3238

> <Gold.PLP.Chemscore.Hbond>
4.0024

> <Gold.PLP.Chemscore.CHOScore>
0.0000

> <Gold.PLP.Chemscore.Metal>
0.0000

> <Gold.Chemscore.Hbonds>
donor molecule, donor type, donor heavy atom, donor atom, acceptor molecule, acceptor atom, score
      P1  H  6896  6907       L1     7  1.00
      P1  H  6931  6943       L1     5  1.24
      P1  H  6934  6947       L1     5  1.54

> <Gold.PLP.Chemscore.Internal.Correction>
0.1401

> <Gold.Rescore>
     Score         DG    S(hbond)    S(metal)    S(lipo)     H(rot)  DE(clash)    DE(int)     intcor
     16.15     -19.70       1.76        0.00     106.53       1.62       0.49       3.06       ----

> <Gold.Chemscore.Fitness>
16.1487

> <Gold.Chemscore.DG>
-19.6988

> <Gold.Chemscore.ZeroCoef>
-5.4800

> <Gold.Chemscore.Hbond>
1.7647

> <Gold.Chemscore.Metal>
0.0000

> <Gold.Chemscore.Lipo>
106.5284

> <Gold.Chemscore.Internal_Hbond>
0.0000

> <Gold.Chemscore.DEClash>
0.4909

> <Gold.Chemscore.DEInternal>
3.0592

> <Gold.Chemscore.Rot>
1.6169

> <Gold.Chemscore.Internal.Correction>
   9.000000E+99

> <Gold.Chemscore.Hbonds>
donor molecule, donor type, donor heavy atom, donor atom, acceptor molecule, acceptor atom, score
      P1  H  6896  6907       L1     7  0.99
      P1  H  6931  6943       L1     5  0.12
      P1  H  6934  6947       L1     5  0.57

> <Gold.Chemscore.Hbond.Weighted>
-5.8943

> <Gold.Chemscore.Metal.Weighted>
-0.0000

> <Gold.Chemscore.Lipo.Weighted>
-12.4638

> <Gold.Chemscore.Internal_Hbond.Weighted>
0.0000

> <Gold.Chemscore.DEClash.Weighted>
0.4909

> <Gold.Chemscore.DEInternal.Weighted>
3.0592

> <Gold.Chemscore.Rot.Weighted>
4.1393

> <Gold.Chemscore.Internal.Correction.Weighted>
   9.000000E+99

> <Gold.Protein.RotatedTorsions>
[ 6907 6896 6895 6894 ] final  -53.14 input  -60.11 | X-H torsion
[ 7974 7965 7964 7962 ] final  160.28 input  175.53 | X-H torsion
[ 8008 7997 7996 7995 ] final   23.15 input   59.86 | X-H torsion
[ 10167 10162 10161 10158 ] final  -12.15 input  -65.29 | X-H torsion
[ 10718 10713 10712 10709 ] final -125.04 input   66.30 | X-H torsion
[ 10763 10752 10751 10750 ] final   74.29 input  -60.55 | X-H torsion
[ 11005 11000 10999 10996 ] final  -20.57 input  -57.11 | X-H torsion

> <Gold.Protein.ActiveResidues>
 VAL166  LYS551  ARG553  GLY616  TRP617  ASP618  TYR619  PRO620  LYS621  CYS622 
 ASP623  PHE694  ASN695  SER759  ASP760  ASP761  ALA762  ILE779  LEU786  VAL792 
 PHE793  MET794  SER795  GLU796  ALA797  LYS798  CYS799  TRP800  GLU811  SER814 

> <Gold.Protein.RotatedAtoms>
  150.8453  134.7760  159.6965 H   0  0  0  0  0  0  0  0  0  0  0  0  # atno 6907 bound_to 6896
  152.4531  134.5346  159.9831 H   0  0  0  0  0  0  0  0  0  0  0  0  # atno 6908 bound_to 6896
  151.5478  133.3384  159.2983 H   0  0  0  0  0  0  0  0  0  0  0  0  # atno 6909 bound_to 6896
  144.7745  139.7735  143.6284 H   0  0  0  0  0  0  0  0  0  0  0  0  # atno 7974 bound_to 7965
  154.9765  140.3096  155.4965 H   0  0  0  0  0  0  0  0  0  0  0  0  # atno 8008 bound_to 7997
  156.2959  140.2274  156.4801 H   0  0  0  0  0  0  0  0  0  0  0  0  # atno 8009 bound_to 7997
  154.7828  140.0445  157.1129 H   0  0  0  0  0  0  0  0  0  0  0  0  # atno 8010 bound_to 7997
  140.7155  143.5562  150.9245 H   0  0  0  0  0  0  0  0  0  0  0  0  # atno 10167 bound_to 10162
  156.1640  130.6621  151.0089 H   0  0  0  0  0  0  0  0  0  0  0  0  # atno 10718 bound_to 10713
  153.0577  135.5031  154.8020 H   0  0  0  0  0  0  0  0  0  0  0  0  # atno 10763 bound_to 10752
  154.6833  135.2972  154.9585 H   0  0  0  0  0  0  0  0  0  0  0  0  # atno 10764 bound_to 10752
  154.0364  135.6723  153.4838 H   0  0  0  0  0  0  0  0  0  0  0  0  # atno 10765 bound_to 10752
  140.8477  133.7879  155.9931 H   0  0  0  0  0  0  0  0  0  0  0  0  # atno 11005 bound_to 11000
  146.1915  139.5158  142.9802 LP  0  0  0  0  0  0  0  0  0  0  0  0  # atno 17320 bound_to 7965
  145.6226  141.0320  143.1907 LP  0  0  0  0  0  0  0  0  0  0  0  0  # atno 17321 bound_to 7965
  139.9287  143.6518  152.3081 LP  0  0  0  0  0  0  0  0  0  0  0  0  # atno 17342 bound_to 10162
  139.6962  144.7641  151.1353 LP  0  0  0  0  0  0  0  0  0  0  0  0  # atno 17343 bound_to 10162
  157.6754  131.0851  150.7508 LP  0  0  0  0  0  0  0  0  0  0  0  0  # atno 17370 bound_to 10713
  156.7569  130.4786  149.5445 LP  0  0  0  0  0  0  0  0  0  0  0  0  # atno 17371 bound_to 10713
  140.8825  134.2594  157.5137 LP  0  0  0  0  0  0  0  0  0  0  0  0  # atno 17394 bound_to 11000
  139.8703  134.9622  156.4420 LP  0  0  0  0  0  0  0  0  0  0  0  0  # atno 17395 bound_to 11000

$$$$
