AV-unprocessed.smi:249|AV-procd|sdf|1927|dock2
  -GOLD-   2262021 43D 1   1.00000     0.00000
 Structure written by MMmdl.
 64 67  0  0  0  0  0  0  0  0  2 V2000
  147.3603  128.4544  152.7305 C   0  0  0  0  0  0  0  0  0  0  0  0
  146.3081  129.5706  152.8383 C   0  0  0  0  0  0  0  0  0  0  0  0
  146.6634  130.8035  152.0767 N   0  3  1  0  0  0  0  0  0  0  0  0
  145.4921  131.3521  151.3333 C   0  0  0  0  0  0  0  0  0  0  0  0
  145.8635  132.5763  150.4819 C   0  0  0  0  0  0  0  0  0  0  0  0
  146.4614  133.7004  151.3439 C   0  0  1  0  0  0  0  0  0  0  0  0
  145.4708  134.2893  152.2601 N   0  0  0  0  0  0  0  0  0  0  0  0
  144.0671  134.2108  151.8676 C   0  0  0  0  0  0  0  0  0  0  0  0
  145.7631  135.5283  152.7144 C   0  0  0  0  0  0  0  0  0  0  0  0
  145.0430  136.5606  152.2111 N   0  0  0  0  0  0  0  0  0  0  0  0
  145.2828  137.8067  152.6311 C   0  0  0  0  0  0  0  0  0  0  0  0
  146.1790  138.2287  153.5262 N   0  0  0  0  0  0  0  0  0  0  0  0
  146.9086  137.1901  154.0265 C   0  0  0  0  0  0  0  0  0  0  0  0
  146.7692  135.8182  153.6775 C   0  0  0  0  0  0  0  0  0  0  0  0
  147.6846  135.0504  154.3867 N   0  0  0  0  0  0  0  0  0  0  0  0
  148.3329  135.9207  155.1122 C   0  0  0  0  0  0  0  0  0  0  0  0
  147.9324  137.2284  154.9564 N   0  0  0  0  0  0  0  0  0  0  0  0
  148.4813  138.3887  155.6342 C   0  0  0  0  0  0  0  0  0  0  0  0
  149.2721  139.3413  154.6951 C   0  0  1  0  0  0  0  0  0  0  0  0
  148.4350  140.5415  154.1874 C   0  0  0  0  0  0  0  0  0  0  0  0
  149.0767  141.2293  153.1329 O   0  0  0  0  0  0  0  0  0  0  0  0
  150.6039  139.8467  155.3116 C   0  0  1  0  0  0  0  0  0  0  0  0
  150.4956  140.8319  156.4744 C   0  0  0  0  0  0  0  0  0  0  0  0
  151.6869  140.4802  157.3719 C   0  0  0  0  0  0  0  0  0  0  0  0
  152.4625  139.5518  156.6255 O   0  0  0  0  0  0  0  0  0  0  0  0
  151.5621  138.7816  155.8478 C   0  0  0  0  0  0  0  0  0  0  0  0
  147.6882  133.0942  152.0596 C   0  0  0  0  0  0  0  0  0  0  0  0
  147.3353  131.8526  152.9114 C   0  0  2  0  0  0  0  0  0  0  0  0
  148.6209  131.3486  153.5993 C   0  0  0  0  0  0  0  0  0  0  0  0
  147.1355  127.6527  153.4341 H   0  0  0  0  0  0  0  0  0  0  0  0
  148.3585  128.8256  152.9644 H   0  0  0  0  0  0  0  0  0  0  0  0
  147.3859  128.0029  151.7392 H   0  0  0  0  0  0  0  0  0  0  0  0
  145.3319  129.2041  152.5173 H   0  0  0  0  0  0  0  0  0  0  0  0
  146.2219  129.7946  153.8990 H   0  0  0  0  0  0  0  0  0  0  0  0
  145.0820  130.6007  150.6606 H   0  0  0  0  0  0  0  0  0  0  0  0
  144.6993  131.6075  152.0382 H   0  0  0  0  0  0  0  0  0  0  0  0
  146.5908  132.2767  149.7261 H   0  0  0  0  0  0  0  0  0  0  0  0
  144.9945  132.9260  149.9244 H   0  0  0  0  0  0  0  0  0  0  0  0
  146.8045  134.4918  150.6768 H   0  0  0  0  0  0  0  0  0  0  0  0
  143.4426  134.9001  152.4389 H   0  0  0  0  0  0  0  0  0  0  0  0
  143.6824  133.2062  152.0427 H   0  0  0  0  0  0  0  0  0  0  0  0
  143.9482  134.4440  150.8088 H   0  0  0  0  0  0  0  0  0  0  0  0
  144.6684  138.5762  152.1873 H   0  0  0  0  0  0  0  0  0  0  0  0
  149.1300  135.6327  155.7820 H   0  0  0  0  0  0  0  0  0  0  0  0
  147.6603  138.9134  156.1210 H   0  0  0  0  0  0  0  0  0  0  0  0
  149.1205  138.0152  156.4327 H   0  0  0  0  0  0  0  0  0  0  0  0
  149.5592  138.7592  153.8177 H   0  0  0  0  0  0  0  0  0  0  0  0
  147.4454  140.2156  153.8649 H   0  0  0  0  0  0  0  0  0  0  0  0
  148.2813  141.2677  154.9861 H   0  0  0  0  0  0  0  0  0  0  0  0
  148.9839  140.7201  152.3420 H   0  0  0  0  0  0  0  0  0  0  0  0
  151.1537  140.3594  154.5202 H   0  0  0  0  0  0  0  0  0  0  0  0
  150.5559  141.8598  156.1146 H   0  0  0  0  0  0  0  0  0  0  0  0
  149.5649  140.7368  157.0324 H   0  0  0  0  0  0  0  0  0  0  0  0
  152.2786  141.3545  157.6440 H   0  0  0  0  0  0  0  0  0  0  0  0
  151.3441  140.0029  158.2910 H   0  0  0  0  0  0  0  0  0  0  0  0
  151.0719  138.0574  156.4981 H   0  0  0  0  0  0  0  0  0  0  0  0
  152.0781  138.2406  155.0540 H   0  0  0  0  0  0  0  0  0  0  0  0
  148.4251  132.8085  151.3071 H   0  0  0  0  0  0  0  0  0  0  0  0
  148.1890  133.8448  152.6719 H   0  0  0  0  0  0  0  0  0  0  0  0
  146.6370  132.1556  153.6928 H   0  0  0  0  0  0  0  0  0  0  0  0
  149.1616  132.1734  154.0649 H   0  0  0  0  0  0  0  0  0  0  0  0
  149.2965  130.8759  152.8857 H   0  0  0  0  0  0  0  0  0  0  0  0
  148.4145  130.6385  154.3993 H   0  0  0  0  0  0  0  0  0  0  0  0
  147.3397  130.5247  151.3803 H   0  0  0  0  0  0  0  0  0  0  0  0
  1  2  1  0  0  0  0
  1 30  1  0  0  0  0
  1 31  1  0  0  0  0
  1 32  1  0  0  0  0
  2  3  1  0  0  0  0
  2 33  1  0  0  0  0
  2 34  1  0  0  0  0
  3 28  1  0  0  0  0
  3  4  1  0  0  0  0
  3 64  1  0  0  0  0
  4  5  1  0  0  0  0
  4 35  1  0  0  0  0
  4 36  1  0  0  0  0
  5  6  1  0  0  0  0
  5 37  1  0  0  0  0
  5 38  1  0  0  0  0
  6  7  1  0  0  0  0
  6 27  1  0  0  0  0
  6 39  1  0  0  0  0
  7  8  1  0  0  0  0
  7  9  1  0  0  0  0
  8 40  1  0  0  0  0
  8 41  1  0  0  0  0
  8 42  1  0  0  0  0
  9 14  1  0  0  0  0
  9 10  2  0  0  0  0
 10 11  1  0  0  0  0
 11 12  2  0  0  0  0
 11 43  1  0  0  0  0
 12 13  1  0  0  0  0
 13 17  1  0  0  0  0
 13 14  2  0  0  0  0
 14 15  1  0  0  0  0
 15 16  2  0  0  0  0
 16 17  1  0  0  0  0
 16 44  1  0  0  0  0
 17 18  1  0  0  0  0
 18 19  1  0  0  0  0
 18 45  1  0  0  0  0
 18 46  1  0  0  0  0
 19 20  1  0  0  0  0
 19 22  1  0  0  0  0
 19 47  1  0  0  0  0
 20 21  1  0  0  0  0
 20 48  1  0  0  0  0
 20 49  1  0  0  0  0
 21 50  1  0  0  0  0
 22 26  1  0  0  0  0
 22 23  1  0  0  0  0
 22 51  1  0  0  0  0
 23 24  1  0  0  0  0
 23 52  1  0  0  0  0
 23 53  1  0  0  0  0
 24 25  1  0  0  0  0
 24 54  1  0  0  0  0
 24 55  1  0  0  0  0
 25 26  1  0  0  0  0
 26 56  1  0  0  0  0
 26 57  1  0  0  0  0
 27 28  1  0  0  0  0
 27 58  1  0  0  0  0
 27 59  1  0  0  0  0
 28 29  1  0  0  0  0
 28 60  1  0  0  0  0
 29 61  1  0  0  0  0
 29 62  1  0  0  0  0
 29 63  1  0  0  0  0
M  CHG  1   3   1
M  END
> <s_m_source_file>
AV-unprocessed.smi

> <i_m_source_file_index>
249

> <i_lp_mmshare_version>
43012

> <i_f3d_flags>
0

> <s_epik_input>
W0NIM11bQ0gyXU4xW0NIMl1bQ0gyXVtDQEhdKFtDSDJdW0NASF0xW0NIM10pTihbQ0gzXSljKG5bY0hdbjIpYyhjMjMpbltjSF1uM1tDSDJdW0NASF0oW0NIMl1bT0hdKVtDQEBIXTRbQ0gyXVtDSDJdT1tDSDJdNA==

> <s_epik_cmdline>
J2VwaWtfcHl0aG9uJywgJy1waCcsICc3LjAnLCAnLXRuJywgJzgnLCAnLW1hJywgJzIwMCcsICctbWV0YWxfYmluZGluZycsICctaW1hZScsICc8aW5maWxlLm1hZT4nLCAnLW9tYWUnLCAnPG91dGZpbGUubWFlPic=

> <r_lp_tautomer_probability>
1

> <r_epik_Ionization_Penalty>
0.00294688

> <r_epik_Ionization_Penalty_Charging>
0.00169971

> <r_epik_Ionization_Penalty_Neutral>
0.00124717

> <r_epik_State_Penalty>
-0

> <r_epik_Charging_Adjusted_Penalty>
0.00169971

> <i_epik_Tot_Q>
1

> <i_epik_Tot_abs_Q>
1

> <r_epik_Metal_State_Penalty>
-0

> <b_epik_Metal_Only>
0

> <s_lp_Force_Field>
OPLS_2005

> <r_lp_Energy>
57.5801

> <b_lp_Chiralities_Consistent>
1

> <s_lp_Variant>
AV-unprocessed.smi:249-30

> <Gold.Version>
5.8.1

> <Gold.Id.Protein>
6NUR|6NUR_protein|mol2

> <Gold.PLP.Fitness>
49.6475

> <Gold.PLP.PLP>
-37.6481

> <Gold.PLP.part.hbond>
-4.4770

> <Gold.PLP.part.metal>
0.0000

> <Gold.PLP.part.buried>
0.6464

> <Gold.PLP.part.nonpolar>
-34.5596

> <Gold.PLP.part.repulsive>
1.1587

> <Gold.PLP.ligand.clash>
0.0000

> <Gold.PLP.ligand.torsion>
2.4308

> <Gold.PLP.Chemscore.Hbond>
3.5011

> <Gold.PLP.Chemscore.CHOScore>
1.8656

> <Gold.PLP.Chemscore.Metal>
0.0000

> <Gold.Chemscore.Hbonds>
donor molecule, donor type, donor heavy atom, donor atom, acceptor molecule, acceptor atom, score
      L1  H     3    64       P1 10747  1.00
      L1  H    21    50       P1  7957  0.89
      P1  H  7997  8010       L1    25  1.00
      P1  H  8011  8017       L1    21  0.55
      L1  C    11    43       P1 10171  0.92
      L1  C    11    43       P1 10175  1.00

> <Gold.PLP.Chemscore.Internal.Correction>
0.7607

> <Gold.Rescore>
     Score         DG    S(hbond)    S(metal)    S(lipo)     H(rot)  DE(clash)    DE(int)     intcor
     16.45     -19.31       2.96        0.00      97.20       2.90       0.36       2.50       ----

> <Gold.Chemscore.Fitness>
16.4491

> <Gold.Chemscore.DG>
-19.3108

> <Gold.Chemscore.ZeroCoef>
-5.4800

> <Gold.Chemscore.Hbond>
2.9592

> <Gold.Chemscore.Metal>
0.0000

> <Gold.Chemscore.Lipo>
97.2019

> <Gold.Chemscore.Internal_Hbond>
0.0000

> <Gold.Chemscore.DEClash>
0.3613

> <Gold.Chemscore.DEInternal>
2.5005

> <Gold.Chemscore.Rot>
2.9006

> <Gold.Chemscore.Internal.Correction>
   9.000000E+99

> <Gold.Chemscore.Hbonds>
donor molecule, donor type, donor heavy atom, donor atom, acceptor molecule, acceptor atom, score
      L1  H     3    64       P1 10747  0.94
      L1  H    21    50       P1  7957  0.82
      P1  H  7997  8010       L1    25  0.84
      P1  H  8011  8017       L1    21  0.03

> <Gold.Chemscore.Hbond.Weighted>
-9.8838

> <Gold.Chemscore.Metal.Weighted>
-0.0000

> <Gold.Chemscore.Lipo.Weighted>
-11.3726

> <Gold.Chemscore.Internal_Hbond.Weighted>
0.0000

> <Gold.Chemscore.DEClash.Weighted>
0.3613

> <Gold.Chemscore.DEInternal.Weighted>
2.5005

> <Gold.Chemscore.Rot.Weighted>
7.4256

> <Gold.Chemscore.Internal.Correction.Weighted>
   9.000000E+99

> <Gold.Protein.RotatedTorsions>
[ 6907 6896 6895 6894 ] final  159.44 input  -60.11 | X-H torsion
[ 7974 7965 7964 7962 ] final    6.74 input  175.53 | X-H torsion
[ 8008 7997 7996 7995 ] final   75.15 input   59.86 | X-H torsion
[ 10167 10162 10161 10158 ] final  146.82 input  -65.29 | X-H torsion
[ 10718 10713 10712 10709 ] final  -79.60 input   66.30 | X-H torsion
[ 10763 10752 10751 10750 ] final -102.62 input  -60.55 | X-H torsion
[ 11005 11000 10999 10996 ] final -165.10 input  -57.11 | X-H torsion

> <Gold.Protein.ActiveResidues>
 VAL166  LYS551  ARG553  GLY616  TRP617  ASP618  TYR619  PRO620  LYS621  CYS622 
 ASP623  PHE694  ASN695  SER759  ASP760  ASP761  ALA762  ILE779  LEU786  VAL792 
 PHE793  MET794  SER795  GLU796  ALA797  LYS798  CYS799  TRP800  GLU811  SER814 

> <Gold.Protein.RotatedAtoms>
  151.9855  133.3772  159.4123 H   0  0  0  0  0  0  0  0  0  0  0  0  # atno 6907 bound_to 6896
  150.6929  134.3993  159.5121 H   0  0  0  0  0  0  0  0  0  0  0  0  # atno 6908 bound_to 6896
  152.1718  134.8827  160.0584 H   0  0  0  0  0  0  0  0  0  0  0  0  # atno 6909 bound_to 6896
  146.2432  140.0188  142.8400 H   0  0  0  0  0  0  0  0  0  0  0  0  # atno 7974 bound_to 7965
  155.8088  140.3474  155.5445 H   0  0  0  0  0  0  0  0  0  0  0  0  # atno 8008 bound_to 7997
  155.8462  140.0949  157.1724 H   0  0  0  0  0  0  0  0  0  0  0  0  # atno 8009 bound_to 7997
  154.4006  140.1385  156.3776 H   0  0  0  0  0  0  0  0  0  0  0  0  # atno 8010 bound_to 7997
  139.4900  144.5801  151.6889 H   0  0  0  0  0  0  0  0  0  0  0  0  # atno 10167 bound_to 10162
  156.0089  130.4550  150.3673 H   0  0  0  0  0  0  0  0  0  0  0  0  # atno 10718 bound_to 10713
  154.7747  135.4854  153.9720 H   0  0  0  0  0  0  0  0  0  0  0  0  # atno 10763 bound_to 10752
  153.1413  135.6773  153.9030 H   0  0  0  0  0  0  0  0  0  0  0  0  # atno 10764 bound_to 10752
  153.8703  135.3144  155.3420 H   0  0  0  0  0  0  0  0  0  0  0  0  # atno 10765 bound_to 10752
  140.5794  134.5157  157.5176 H   0  0  0  0  0  0  0  0  0  0  0  0  # atno 11005 bound_to 11000
  145.1260  140.9490  143.4572 LP  0  0  0  0  0  0  0  0  0  0  0  0  # atno 17320 bound_to 7965
  145.0434  139.3241  143.5965 LP  0  0  0  0  0  0  0  0  0  0  0  0  # atno 17321 bound_to 7965
  140.5405  144.0586  150.6086 LP  0  0  0  0  0  0  0  0  0  0  0  0  # atno 17342 bound_to 10162
  140.3607  143.2910  152.0387 LP  0  0  0  0  0  0  0  0  0  0  0  0  # atno 17343 bound_to 10162
  157.1759  131.0380  151.2772 LP  0  0  0  0  0  0  0  0  0  0  0  0  # atno 17370 bound_to 10713
  157.4188  130.7426  149.6897 LP  0  0  0  0  0  0  0  0  0  0  0  0  # atno 17371 bound_to 10713
  139.9324  134.7938  156.0894 LP  0  0  0  0  0  0  0  0  0  0  0  0  # atno 17394 bound_to 11000
  141.1006  133.6679  156.2745 LP  0  0  0  0  0  0  0  0  0  0  0  0  # atno 17395 bound_to 11000

$$$$
