AV-unprocessed.smi:725|AV-procd|sdf|3508|dock10
  -GOLD-   22720 0503D 1   1.00000     0.00000
 Structure written by MMmdl.
 47 48  0  0  0  0  0  0  0  0  1 V2000
  153.9920  137.2038  165.2723 C   0  0  0  0  0  0  0  0  0  0  0  0
  154.4802  137.1364  163.8210 C   0  0  0  0  0  0  0  0  0  0  0  0
  155.1391  138.4522  163.3628 C   0  0  0  0  0  0  0  0  0  0  0  0
  155.7842  138.4234  161.9529 C   0  0  1  0  0  0  0  0  0  0  0  0
  156.9246  137.3910  161.8462 C   0  0  0  0  0  0  0  0  0  0  0  0
  154.7885  138.0495  161.0204 O   0  0  0  0  0  0  0  0  0  0  0  0
  156.2503  139.8361  161.5221 C   0  0  0  0  0  0  0  0  0  0  0  0
  155.1675  140.8164  161.5126 N   0  0  0  0  0  0  0  0  0  0  0  0
  154.2620  140.9707  160.5335 C   0  0  0  0  0  0  0  0  0  0  0  0
  154.2295  140.2728  159.5196 O   0  0  0  0  0  0  0  0  0  0  0  0
  153.2447  142.0558  160.7717 C   0  0  0  0  0  0  0  0  0  0  0  0
  153.3848  142.9000  161.8980 C   0  0  0  0  0  0  0  0  0  0  0  0
  152.4683  143.9466  162.1007 C   0  0  0  0  0  0  0  0  0  0  0  0
  151.4399  144.1204  161.1594 C   0  0  0  0  0  0  0  0  0  0  0  0
  151.2896  143.3296  160.0783 N   0  0  0  0  0  0  0  0  0  0  0  0
  152.1657  142.3142  159.8742 C   0  0  0  0  0  0  0  0  0  0  0  0
  151.9302  141.4973  158.7501 N   0  0  0  0  0  0  0  0  0  0  0  0
  151.1691  142.0713  157.6455 C   0  0  0  0  0  0  0  0  0  0  0  0
  151.2349  141.1353  156.4268 C   0  0  0  0  0  0  0  0  0  0  0  0
  150.7712  139.8387  156.7941 O   0  0  0  0  0  0  0  0  0  0  0  0
  151.5658  139.2563  157.8236 C   0  0  0  0  0  0  0  0  0  0  0  0
  151.5131  140.1403  159.0812 C   0  0  0  0  0  0  0  0  0  0  0  0
  153.5345  136.2609  165.5722 H   0  0  0  0  0  0  0  0  0  0  0  0
  153.2474  137.9898  165.4013 H   0  0  0  0  0  0  0  0  0  0  0  0
  154.8165  137.4059  165.9564 H   0  0  0  0  0  0  0  0  0  0  0  0
  155.1865  136.3113  163.7303 H   0  0  0  0  0  0  0  0  0  0  0  0
  153.6352  136.8947  163.1759 H   0  0  0  0  0  0  0  0  0  0  0  0
  154.3901  139.2453  163.3916 H   0  0  0  0  0  0  0  0  0  0  0  0
  155.8927  138.7299  164.1006 H   0  0  0  0  0  0  0  0  0  0  0  0
  157.6897  137.5628  162.6036 H   0  0  0  0  0  0  0  0  0  0  0  0
  157.4106  137.4396  160.8710 H   0  0  0  0  0  0  0  0  0  0  0  0
  156.5635  136.3702  161.9726 H   0  0  0  0  0  0  0  0  0  0  0  0
  155.2095  137.6429  160.2783 H   0  0  0  0  0  0  0  0  0  0  0  0
  157.0711  140.1785  162.1552 H   0  0  0  0  0  0  0  0  0  0  0  0
  156.6553  139.7978  160.5101 H   0  0  0  0  0  0  0  0  0  0  0  0
  155.1044  141.4284  162.3130 H   0  0  0  0  0  0  0  0  0  0  0  0
  154.1938  142.7599  162.6007 H   0  0  0  0  0  0  0  0  0  0  0  0
  152.5566  144.6046  162.9526 H   0  0  0  0  0  0  0  0  0  0  0  0
  150.7182  144.9152  161.2769 H   0  0  0  0  0  0  0  0  0  0  0  0
  150.1301  142.2121  157.9464 H   0  0  0  0  0  0  0  0  0  0  0  0
  151.5707  143.0519  157.3871 H   0  0  0  0  0  0  0  0  0  0  0  0
  150.6105  141.5221  155.6215 H   0  0  0  0  0  0  0  0  0  0  0  0
  152.2531  141.0725  156.0394 H   0  0  0  0  0  0  0  0  0  0  0  0
  151.1840  138.2602  158.0473 H   0  0  0  0  0  0  0  0  0  0  0  0
  152.5940  139.1340  157.4790 H   0  0  0  0  0  0  0  0  0  0  0  0
  152.1488  139.7170  159.8591 H   0  0  0  0  0  0  0  0  0  0  0  0
  150.4977  140.1664  159.4785 H   0  0  0  0  0  0  0  0  0  0  0  0
  1  2  1  0  0  0  0
  1 23  1  0  0  0  0
  1 24  1  0  0  0  0
  1 25  1  0  0  0  0
  2  3  1  0  0  0  0
  2 26  1  0  0  0  0
  2 27  1  0  0  0  0
  3  4  1  0  0  0  0
  3 28  1  0  0  0  0
  3 29  1  0  0  0  0
  4  5  1  0  0  0  0
  4  6  1  0  0  0  0
  4  7  1  0  0  0  0
  5 30  1  0  0  0  0
  5 31  1  0  0  0  0
  5 32  1  0  0  0  0
  6 33  1  0  0  0  0
  7  8  1  0  0  0  0
  7 34  1  0  0  0  0
  7 35  1  0  0  0  0
  8  9  1  0  0  0  0
  8 36  1  0  0  0  0
  9 10  2  0  0  0  0
  9 11  1  0  0  0  0
 11 16  1  0  0  0  0
 11 12  2  0  0  0  0
 12 13  1  0  0  0  0
 12 37  1  0  0  0  0
 13 14  2  0  0  0  0
 13 38  1  0  0  0  0
 14 15  1  0  0  0  0
 14 39  1  0  0  0  0
 15 16  2  0  0  0  0
 16 17  1  0  0  0  0
 17 22  1  0  0  0  0
 17 18  1  0  0  0  0
 18 19  1  0  0  0  0
 18 40  1  0  0  0  0
 18 41  1  0  0  0  0
 19 20  1  0  0  0  0
 19 42  1  0  0  0  0
 19 43  1  0  0  0  0
 20 21  1  0  0  0  0
 21 22  1  0  0  0  0
 21 44  1  0  0  0  0
 21 45  1  0  0  0  0
 22 46  1  0  0  0  0
 22 47  1  0  0  0  0
M  END
> <s_m_source_file>
AV-unprocessed.smi

> <i_m_source_file_index>
725

> <i_lp_mmshare_version>
43012

> <i_f3d_flags>
0

> <s_epik_input>
W0NIM11bQ0gyXVtDSDJdW0NAQF0oW0NIM10pKFtPSF0pW0NIMl1bTkhdQyg9TyljMVtjSF1bY0hdW2NIXW5jMU4yW0NIMl1bQ0gyXU9bQ0gyXVtDSDJdMg==

> <s_epik_cmdline>
J2VwaWtfcHl0aG9uJywgJy1waCcsICc3LjAnLCAnLXRuJywgJzgnLCAnLW1hJywgJzIwMCcsICctbWV0YWxfYmluZGluZycsICctaW1hZScsICc8aW5maWxlLm1hZT4nLCAnLW9tYWUnLCAnPG91dGZpbGUubWFlPic=

> <r_lp_tautomer_probability>
1

> <r_epik_Ionization_Penalty>
1.23446e-05

> <r_epik_Ionization_Penalty_Charging>
0

> <r_epik_Ionization_Penalty_Neutral>
1.23446e-05

> <r_epik_State_Penalty>
-0

> <r_epik_Charging_Adjusted_Penalty>
0

> <i_epik_Tot_Q>
0

> <i_epik_Tot_abs_Q>
0

> <r_epik_Metal_State_Penalty>
-0

> <b_epik_Metal_Only>
0

> <s_lp_Force_Field>
OPLS_2005

> <r_lp_Energy>
26.7516

> <b_lp_Chiralities_Consistent>
1

> <s_lp_Variant>
AV-unprocessed.smi:725-1

> <Gold.Version>
5.8.1

> <Gold.Id.Protein>
6NUR|6NUR_protein|mol2

> <Gold.PLP.Fitness>
42.9599

> <Gold.PLP.PLP>
-41.7019

> <Gold.PLP.part.hbond>
-1.0614

> <Gold.PLP.part.metal>
0.0000

> <Gold.PLP.part.buried>
-5.1181

> <Gold.PLP.part.nonpolar>
-34.0162

> <Gold.PLP.part.repulsive>
0.0563

> <Gold.PLP.ligand.clash>
0.0000

> <Gold.PLP.ligand.torsion>
0.5708

> <Gold.PLP.Chemscore.Hbond>
0.7040

> <Gold.PLP.Chemscore.CHOScore>
0.0000

> <Gold.PLP.Chemscore.Metal>
0.0000

> <Gold.PLP.Chemscore.Internal.Correction>
0.2877

> <Gold.Rescore>
     Score         DG    S(hbond)    S(metal)    S(lipo)     H(rot)  DE(clash)    DE(int)     intcor
      9.49     -14.47       0.63        0.00     106.86       2.19       0.09       4.88       ----

> <Gold.Chemscore.Fitness>
9.4942

> <Gold.Chemscore.DG>
-14.4687

> <Gold.Chemscore.ZeroCoef>
-5.4800

> <Gold.Chemscore.Hbond>
0.6289

> <Gold.Chemscore.Metal>
0.0000

> <Gold.Chemscore.Lipo>
106.8647

> <Gold.Chemscore.Internal_Hbond>
0.0000

> <Gold.Chemscore.DEClash>
0.0940

> <Gold.Chemscore.DEInternal>
4.8805

> <Gold.Chemscore.Rot>
2.1933

> <Gold.Chemscore.Internal.Correction>
   9.000000E+99

> <Gold.Chemscore.Hbond.Weighted>
-2.1004

> <Gold.Chemscore.Metal.Weighted>
-0.0000

> <Gold.Chemscore.Lipo.Weighted>
-12.5032

> <Gold.Chemscore.Internal_Hbond.Weighted>
0.0000

> <Gold.Chemscore.DEClash.Weighted>
0.0940

> <Gold.Chemscore.DEInternal.Weighted>
4.8805

> <Gold.Chemscore.Rot.Weighted>
5.6149

> <Gold.Chemscore.Internal.Correction.Weighted>
   9.000000E+99

> <Gold.Protein.RotatedTorsions>
[ 6907 6896 6895 6894 ] final  -45.91 input  -60.11 | X-H torsion
[ 7974 7965 7964 7962 ] final  -20.37 input  175.53 | X-H torsion
[ 8008 7997 7996 7995 ] final  156.87 input   59.86 | X-H torsion
[ 10167 10162 10161 10158 ] final   85.44 input  -65.29 | X-H torsion
[ 10718 10713 10712 10709 ] final -139.88 input   66.30 | X-H torsion
[ 10763 10752 10751 10750 ] final   51.72 input  -60.55 | X-H torsion
[ 11005 11000 10999 10996 ] final  133.02 input  -57.11 | X-H torsion

> <Gold.Protein.ActiveResidues>
 VAL166  LYS551  ARG553  GLY616  TRP617  ASP618  TYR619  PRO620  LYS621  CYS622 
 ASP623  PHE694  ASN695  SER759  ASP760  ASP761  ALA762  ILE779  LEU786  VAL792 
 PHE793  MET794  SER795  GLU796  ALA797  LYS798  CYS799  TRP800  GLU811  SER814 

> <Gold.Protein.RotatedAtoms>
  150.9169  134.8586  159.7462 H   0  0  0  0  0  0  0  0  0  0  0  0  # atno 6907 bound_to 6896
  152.4973  134.4276  159.9511 H   0  0  0  0  0  0  0  0  0  0  0  0  # atno 6908 bound_to 6896
  151.4314  133.3630  159.2804 H   0  0  0  0  0  0  0  0  0  0  0  0  # atno 6909 bound_to 6896
  146.1791  140.4193  142.8501 H   0  0  0  0  0  0  0  0  0  0  0  0  # atno 7974 bound_to 7965
  156.2397  140.1901  156.7021 H   0  0  0  0  0  0  0  0  0  0  0  0  # atno 8008 bound_to 7997
  154.6174  140.0613  156.9598 H   0  0  0  0  0  0  0  0  0  0  0  0  # atno 8009 bound_to 7997
  155.1917  140.3285  155.4360 H   0  0  0  0  0  0  0  0  0  0  0  0  # atno 8010 bound_to 7997
  139.8977  144.6348  150.8670 H   0  0  0  0  0  0  0  0  0  0  0  0  # atno 10167 bound_to 10162
  156.3159  130.7507  151.1594 H   0  0  0  0  0  0  0  0  0  0  0  0  # atno 10718 bound_to 10713
  152.9786  135.5836  154.4462 H   0  0  0  0  0  0  0  0  0  0  0  0  # atno 10763 bound_to 10752
  154.4057  135.2769  155.2070 H   0  0  0  0  0  0  0  0  0  0  0  0  # atno 10764 bound_to 10752
  154.3882  135.6131  153.5882 H   0  0  0  0  0  0  0  0  0  0  0  0  # atno 10765 bound_to 10752
  139.9826  134.9543  156.9665 H   0  0  0  0  0  0  0  0  0  0  0  0  # atno 11005 bound_to 11000
  144.8286  140.6669  143.6306 LP  0  0  0  0  0  0  0  0  0  0  0  0  # atno 17320 bound_to 7965
  145.4126  139.1577  143.4117 LP  0  0  0  0  0  0  0  0  0  0  0  0  # atno 17321 bound_to 7965
  140.7713  143.3460  151.2109 LP  0  0  0  0  0  0  0  0  0  0  0  0  # atno 17342 bound_to 10162
  139.7053  143.9466  152.2924 LP  0  0  0  0  0  0  0  0  0  0  0  0  # atno 17343 bound_to 10162
  157.7401  131.0521  150.5187 LP  0  0  0  0  0  0  0  0  0  0  0  0  # atno 17370 bound_to 10713
  156.5332  130.4190  149.6191 LP  0  0  0  0  0  0  0  0  0  0  0  0  # atno 17371 bound_to 10713
  140.5067  134.1043  155.7261 LP  0  0  0  0  0  0  0  0  0  0  0  0  # atno 17394 bound_to 11000
  141.1495  133.8994  157.2132 LP  0  0  0  0  0  0  0  0  0  0  0  0  # atno 17395 bound_to 11000

$$$$
