AV-unprocessed.smi:72|AV-procd|sdf|707|dock9
  -GOLD-   2262017 23D 1   1.00000     0.00000
 Structure written by MMmdl.
 30 31  0  0  0  0  0  0  0  0  2 V2000
  144.3642  139.1850  154.7663 N   0  0  0  0  0  0  0  0  0  0  0  0
  145.7126  139.4709  154.8149 C   0  0  0  0  0  0  0  0  0  0  0  0
  146.2631  140.1566  153.7469 N   0  3  0  0  0  0  0  0  0  0  0  0
  147.5513  140.5085  153.6419 C   0  0  0  0  0  0  0  0  0  0  0  0
  148.3834  140.1917  154.6102 N   0  0  0  0  0  0  0  0  0  0  0  0
  149.8345  140.5776  154.5031 C   0  0  2  0  0  0  0  0  0  0  0  0
  150.5897  139.4229  154.6941 O   0  0  0  0  0  0  0  0  0  0  0  0
  151.7807  139.7738  155.3859 C   0  0  2  0  0  0  0  0  0  0  0  0
  152.4858  138.5321  155.9604 C   0  0  0  0  0  0  0  0  0  0  0  0
  153.3890  138.9132  156.9759 O   0  0  0  0  0  0  0  0  0  0  0  0
  151.3074  140.8392  156.3864 C   0  0  2  0  0  0  0  0  0  0  0  0
  150.7701  140.2418  157.5547 O   0  0  0  0  0  0  0  0  0  0  0  0
  150.2570  141.6016  155.5779 C   0  0  2  0  0  0  0  0  0  0  0  0
  149.2025  142.1227  156.3712 O   0  0  0  0  0  0  0  0  0  0  0  0
  147.9138  139.4857  155.7475 C   0  0  0  0  0  0  0  0  0  0  0  0
  148.6819  139.1700  156.6552 O   0  0  0  0  0  0  0  0  0  0  0  0
  146.5483  139.1653  155.7689 N   0  0  0  0  0  0  0  0  0  0  0  0
  150.0137  140.9378  153.4898 H   0  0  0  0  0  0  0  0  0  0  0  0
  152.4413  140.2476  154.6567 H   0  0  0  0  0  0  0  0  0  0  0  0
  152.1266  141.4911  156.6919 H   0  0  0  0  0  0  0  0  0  0  0  0
  150.7373  142.4316  155.0576 H   0  0  0  0  0  0  0  0  0  0  0  0
  143.8778  138.6893  155.5001 H   0  0  0  0  0  0  0  0  0  0  0  0
  143.7591  139.4419  153.9996 H   0  0  0  0  0  0  0  0  0  0  0  0
  147.8967  141.0471  152.7690 H   0  0  0  0  0  0  0  0  0  0  0  0
  151.7742  137.8050  156.3518 H   0  0  0  0  0  0  0  0  0  0  0  0
  153.0498  138.0297  155.1741 H   0  0  0  0  0  0  0  0  0  0  0  0
  152.8977  139.2831  157.6938 H   0  0  0  0  0  0  0  0  0  0  0  0
  151.4689  140.1128  158.1760 H   0  0  0  0  0  0  0  0  0  0  0  0
  149.0009  142.9945  156.0648 H   0  0  0  0  0  0  0  0  0  0  0  0
  145.6430  140.4091  152.9906 H   0  0  0  0  0  0  0  0  0  0  0  0
  1  2  1  0  0  0  0
  1 22  1  0  0  0  0
  1 23  1  0  0  0  0
  2 17  2  0  0  0  0
  2  3  1  0  0  0  0
  3  4  2  0  0  0  0
  3 30  1  0  0  0  0
  4  5  1  0  0  0  0
  4 24  1  0  0  0  0
  5  6  1  0  0  0  0
  5 15  1  0  0  0  0
  6 18  1  0  0  0  0
  6 13  1  0  0  0  0
  6  7  1  0  0  0  0
  7  8  1  0  0  0  0
  8 19  1  0  0  0  0
  8  9  1  0  0  0  0
  8 11  1  0  0  0  0
  9 10  1  0  0  0  0
  9 25  1  0  0  0  0
  9 26  1  0  0  0  0
 10 27  1  0  0  0  0
 11 20  1  0  0  0  0
 11 12  1  0  0  0  0
 11 13  1  0  0  0  0
 12 28  1  0  0  0  0
 13 21  1  0  0  0  0
 13 14  1  0  0  0  0
 14 29  1  0  0  0  0
 15 16  2  0  0  0  0
 15 17  1  0  0  0  0
M  CHG  1   3   1
M  END
> <s_m_source_file>
AV-unprocessed.smi

> <i_m_source_file_index>
72

> <i_lp_mmshare_version>
43012

> <i_f3d_flags>
0

> <s_epik_input>
W05IMl1jMW5bY0hdbihjKD1PKW4xKVtDQEBIXTJPW0NASF0oW0NIMl1bT0hdKVtDQEBIXShbT0hdKVtDQEhdMltPSF0=

> <s_epik_cmdline>
J2VwaWtfcHl0aG9uJywgJy1waCcsICc3LjAnLCAnLXRuJywgJzgnLCAnLW1hJywgJzIwMCcsICctbWV0YWxfYmluZGluZycsICctaW1hZScsICc8aW5maWxlLm1hZT4nLCAnLW9tYWUnLCAnPG91dGZpbGUubWFlPic=

> <r_lp_tautomer_probability>
4.77166e-05

> <r_epik_Ionization_Penalty>
0.104979

> <r_epik_Ionization_Penalty_Charging>
0.0999619

> <r_epik_Ionization_Penalty_Neutral>
0.00501745

> <r_epik_State_Penalty>
2.51541

> <r_epik_Charging_Adjusted_Penalty>
2.61537

> <i_epik_Tot_Q>
1

> <i_epik_Tot_abs_Q>
1

> <r_epik_Metal_State_Penalty>
3.53763

> <b_epik_Metal_Only>
0

> <s_epik_Chemistry_Notes>
This compound contains an acetal/aminal-like group ( X-CH(R)-Y where X, Y are N, S, or O) that may be acid/base labile, releasing an aldehyde.

> <s_lp_Force_Field>
OPLS_2005

> <r_lp_Energy>
39.1051

> <b_lp_Chiralities_Consistent>
1

> <s_lp_Variant>
AV-unprocessed.smi:72-45

> <Gold.Version>
5.8.1

> <Gold.Id.Protein>
6NUR|6NUR_protein|mol2

> <Gold.PLP.Fitness>
37.2975

> <Gold.PLP.PLP>
-21.2232

> <Gold.PLP.part.hbond>
-4.5457

> <Gold.PLP.part.metal>
0.0000

> <Gold.PLP.part.buried>
0.5491

> <Gold.PLP.part.nonpolar>
-16.9587

> <Gold.PLP.part.repulsive>
0.1211

> <Gold.PLP.ligand.clash>
0.0000

> <Gold.PLP.ligand.torsion>
0.2289

> <Gold.PLP.Chemscore.Hbond>
4.6089

> <Gold.PLP.Chemscore.CHOScore>
0.8497

> <Gold.PLP.Chemscore.Metal>
0.0000

> <Gold.Chemscore.Hbonds>
donor molecule, donor type, donor heavy atom, donor atom, acceptor molecule, acceptor atom, score
      L1  H     1    23       P1 10175  0.88
      L1  H     3    30       P1 10175  1.73
      L1  H    14    29       P1  8028  1.00
      P1  H  7997  8009       L1    10  1.00
      L1  C     4    24       P1  7957  0.83

> <Gold.PLP.Chemscore.Internal.Correction>
0.1563

> <Gold.Rescore>
     Score         DG    S(hbond)    S(metal)    S(lipo)     H(rot)  DE(clash)    DE(int)     intcor
      5.61      -9.93       3.47        0.00      28.09       4.08       0.36       3.95       ----

> <Gold.Chemscore.Fitness>
5.6125

> <Gold.Chemscore.DG>
-9.9270

> <Gold.Chemscore.ZeroCoef>
-5.4800

> <Gold.Chemscore.Hbond>
3.4733

> <Gold.Chemscore.Metal>
0.0000

> <Gold.Chemscore.Lipo>
28.0899

> <Gold.Chemscore.Internal_Hbond>
0.0000

> <Gold.Chemscore.DEClash>
0.3619

> <Gold.Chemscore.DEInternal>
3.9527

> <Gold.Chemscore.Rot>
4.0783

> <Gold.Chemscore.Internal.Correction>
   9.000000E+99

> <Gold.Chemscore.Hbonds>
donor molecule, donor type, donor heavy atom, donor atom, acceptor molecule, acceptor atom, score
      L1  H     1    23       P1 10175  0.87
      L1  H     3    30       P1 10175  0.72
      L1  H    14    29       P1  8028  1.00
      P1  H  7997  8009       L1    10  0.24

> <Gold.Chemscore.Hbond.Weighted>
-11.6009

> <Gold.Chemscore.Metal.Weighted>
-0.0000

> <Gold.Chemscore.Lipo.Weighted>
-3.2865

> <Gold.Chemscore.Internal_Hbond.Weighted>
0.0000

> <Gold.Chemscore.DEClash.Weighted>
0.3619

> <Gold.Chemscore.DEInternal.Weighted>
3.9527

> <Gold.Chemscore.Rot.Weighted>
10.4404

> <Gold.Chemscore.Internal.Correction.Weighted>
   9.000000E+99

> <Gold.Protein.RotatedTorsions>
[ 6907 6896 6895 6894 ] final -114.08 input  -60.11 | X-H torsion
[ 7974 7965 7964 7962 ] final  153.24 input  175.53 | X-H torsion
[ 8008 7997 7996 7995 ] final  171.02 input   59.86 | X-H torsion
[ 10167 10162 10161 10158 ] final  163.27 input  -65.29 | X-H torsion
[ 10718 10713 10712 10709 ] final -131.84 input   66.30 | X-H torsion
[ 10763 10752 10751 10750 ] final   94.68 input  -60.55 | X-H torsion
[ 11005 11000 10999 10996 ] final  -17.65 input  -57.11 | X-H torsion

> <Gold.Protein.ActiveResidues>
 VAL166  LYS551  ARG553  GLY616  TRP617  ASP618  TYR619  PRO620  LYS621  CYS622 
 ASP623  PHE694  ASN695  SER759  ASP760  ASP761  ALA762  ILE779  LEU786  VAL792 
 PHE793  MET794  SER795  GLU796  ALA797  LYS798  CYS799  TRP800  GLU811  SER814 

> <Gold.Protein.RotatedAtoms>
  150.7876  133.8852  159.3297 H   0  0  0  0  0  0  0  0  0  0  0  0  # atno 6907 bound_to 6896
  151.6698  135.0976  160.0205 H   0  0  0  0  0  0  0  0  0  0  0  0  # atno 6908 bound_to 6896
  152.3943  133.6686  159.6299 H   0  0  0  0  0  0  0  0  0  0  0  0  # atno 6909 bound_to 6896
  144.8168  139.6775  143.6118 H   0  0  0  0  0  0  0  0  0  0  0  0  # atno 7974 bound_to 7965
  156.1310  140.1522  156.9065 H   0  0  0  0  0  0  0  0  0  0  0  0  # atno 8008 bound_to 7997
  154.4909  140.0851  156.7632 H   0  0  0  0  0  0  0  0  0  0  0  0  # atno 8009 bound_to 7997
  155.4255  140.3425  155.4277 H   0  0  0  0  0  0  0  0  0  0  0  0  # atno 8010 bound_to 7997
  139.4871  144.4353  151.9019 H   0  0  0  0  0  0  0  0  0  0  0  0  # atno 10167 bound_to 10162
  156.2285  130.7023  151.0833 H   0  0  0  0  0  0  0  0  0  0  0  0  # atno 10718 bound_to 10713
  153.2445  135.4281  155.0732 H   0  0  0  0  0  0  0  0  0  0  0  0  # atno 10763 bound_to 10752
  154.8355  135.3410  154.6602 H   0  0  0  0  0  0  0  0  0  0  0  0  # atno 10764 bound_to 10752
  153.7025  135.7027  153.5116 H   0  0  0  0  0  0  0  0  0  0  0  0  # atno 10765 bound_to 10752
  140.8190  133.8083  155.9639 H   0  0  0  0  0  0  0  0  0  0  0  0  # atno 11005 bound_to 11000
  146.2471  139.6121  142.9452 LP  0  0  0  0  0  0  0  0  0  0  0  0  # atno 17320 bound_to 7965
  145.5197  141.0432  143.2442 LP  0  0  0  0  0  0  0  0  0  0  0  0  # atno 17321 bound_to 7965
  140.3803  144.2745  150.5909 LP  0  0  0  0  0  0  0  0  0  0  0  0  # atno 17342 bound_to 10162
  140.5239  143.2259  151.8345 LP  0  0  0  0  0  0  0  0  0  0  0  0  # atno 17343 bound_to 10162
  157.7122  131.0728  150.6460 LP  0  0  0  0  0  0  0  0  0  0  0  0  # atno 17370 bound_to 10713
  156.6526  130.4489  149.5714 LP  0  0  0  0  0  0  0  0  0  0  0  0  # atno 17371 bound_to 10713
  140.9119  134.2250  157.4980 LP  0  0  0  0  0  0  0  0  0  0  0  0  # atno 17394 bound_to 11000
  139.8709  134.9754  156.4881 LP  0  0  0  0  0  0  0  0  0  0  0  0  # atno 17395 bound_to 11000

$$$$
