AV-unprocessed.smi:2377|AV-procd|sdf|9448|dock7
  -GOLD-   2272013 83D 1   1.00000     0.00000
 Structure written by MMmdl.
 23 23  0  0  0  0  0  0  0  0  1 V2000
  151.3384  138.7178  154.7685 C   0  0  0  0  0  0  0  0  0  0  0  0
  150.9374  140.1104  154.9215 N   0  0  0  0  0  0  0  0  0  0  0  0
  151.2492  140.6575  156.2396 C   0  0  0  0  0  0  0  0  0  0  0  0
  150.9228  142.1599  156.3246 C   0  0  1  0  0  0  0  0  0  0  0  0
  149.5207  142.3087  156.2458 O   0  0  0  0  0  0  0  0  0  0  0  0
  151.4934  142.8111  157.5760 C   0  0  0  0  0  0  0  0  0  0  0  0
  152.0271  142.0259  158.6195 C   0  0  0  0  0  0  0  0  0  0  0  0
  152.5383  142.6690  159.7631 C   0  0  0  0  0  0  0  0  0  0  0  0
  152.4926  144.0760  159.8176 C   0  0  0  0  0  0  0  0  0  0  0  0
  151.9828  144.8398  158.8282 N   0  0  0  0  0  0  0  0  0  0  0  0
  151.4944  144.2148  157.7351 C   0  0  0  0  0  0  0  0  0  0  0  0
  151.1004  138.3572  153.7679 H   0  0  0  0  0  0  0  0  0  0  0  0
  150.8222  138.0792  155.4859 H   0  0  0  0  0  0  0  0  0  0  0  0
  152.4118  138.5994  154.9193 H   0  0  0  0  0  0  0  0  0  0  0  0
  149.9413  140.1983  154.7483 H   0  0  0  0  0  0  0  0  0  0  0  0
  150.6757  140.1237  156.9987 H   0  0  0  0  0  0  0  0  0  0  0  0
  152.3017  140.4910  156.4731 H   0  0  0  0  0  0  0  0  0  0  0  0
  151.3396  142.6604  155.4492 H   0  0  0  0  0  0  0  0  0  0  0  0
  149.3297  143.1108  155.7838 H   0  0  0  0  0  0  0  0  0  0  0  0
  152.0447  140.9483  158.5487 H   0  0  0  0  0  0  0  0  0  0  0  0
  152.9540  142.0979  160.5800 H   0  0  0  0  0  0  0  0  0  0  0  0
  152.8754  144.6016  160.6799 H   0  0  0  0  0  0  0  0  0  0  0  0
  151.0912  144.8551  156.9642 H   0  0  0  0  0  0  0  0  0  0  0  0
  1  2  1  0  0  0  0
  1 12  1  0  0  0  0
  1 13  1  0  0  0  0
  1 14  1  0  0  0  0
  2  3  1  0  0  0  0
  2 15  1  0  0  0  0
  3  4  1  0  0  0  0
  3 16  1  0  0  0  0
  3 17  1  0  0  0  0
  4  5  1  0  0  0  0
  4  6  1  0  0  0  0
  4 18  1  0  0  0  0
  5 19  1  0  0  0  0
  6 11  1  0  0  0  0
  6  7  2  0  0  0  0
  7  8  1  0  0  0  0
  7 20  1  0  0  0  0
  8  9  2  0  0  0  0
  8 21  1  0  0  0  0
  9 10  1  0  0  0  0
  9 22  1  0  0  0  0
 10 11  2  0  0  0  0
 11 23  1  0  0  0  0
M  END
> <s_m_source_file>
AV-unprocessed.smi

> <i_m_source_file_index>
2377

> <i_lp_mmshare_version>
43012

> <i_f3d_flags>
0

> <s_epik_input>
W0NIM11bTkhdW0NIMl1bQ0BIXShbT0hdKWMxW2NIXVtjSF1bY0hdbltjSF0x

> <s_epik_cmdline>
J2VwaWtfcHl0aG9uJywgJy1waCcsICc3LjAnLCAnLXRuJywgJzgnLCAnLW1hJywgJzIwMCcsICctbWV0YWxfYmluZGluZycsICctaW1hZScsICc8aW5maWxlLm1hZT4nLCAnLW9tYWUnLCAnPG91dGZpbGUubWFlPic=

> <r_epik_Ionization_Penalty>
2.4626

> <r_epik_Ionization_Penalty_Charging>
0

> <r_epik_Ionization_Penalty_Neutral>
2.4626

> <r_epik_State_Penalty>
2.6219

> <r_epik_Charging_Adjusted_Penalty>
2.6219

> <i_epik_Tot_Q>
0

> <i_epik_Tot_abs_Q>
0

> <r_epik_Metal_State_Penalty>
2.61964

> <b_epik_Metal_Only>
0

> <s_lp_Force_Field>
OPLS_2005

> <r_lp_Energy>
6.69751

> <b_lp_Chiralities_Consistent>
1

> <s_lp_Variant>
AV-unprocessed.smi:2377-4

> <Gold.Version>
5.8.1

> <Gold.Id.Protein>
6NUR|6NUR_protein|mol2

> <Gold.PLP.Fitness>
37.0806

> <Gold.PLP.PLP>
-28.5419

> <Gold.PLP.part.hbond>
-2.0000

> <Gold.PLP.part.metal>
0.0000

> <Gold.PLP.part.buried>
-5.2908

> <Gold.PLP.part.nonpolar>
-21.3910

> <Gold.PLP.part.repulsive>
0.0535

> <Gold.PLP.ligand.clash>
0.0000

> <Gold.PLP.ligand.torsion>
0.2352

> <Gold.PLP.Chemscore.Hbond>
2.0000

> <Gold.PLP.Chemscore.CHOScore>
1.0000

> <Gold.PLP.Chemscore.Metal>
0.0000

> <Gold.Chemscore.Hbonds>
donor molecule, donor type, donor heavy atom, donor atom, acceptor molecule, acceptor atom, score
      L1  H     5    19       P1  8028  1.00
      P1  H  7989  7998       L1     2  1.00
      L1  C    11    23       P1  8028  1.00

> <Gold.PLP.Chemscore.Internal.Correction>
0.0091

> <Gold.Rescore>
     Score         DG    S(hbond)    S(metal)    S(lipo)     H(rot)  DE(clash)    DE(int)     intcor
     13.81     -14.01       1.29        0.00      78.38       1.94       0.03       0.17       ----

> <Gold.Chemscore.Fitness>
13.8103

> <Gold.Chemscore.DG>
-14.0083

> <Gold.Chemscore.ZeroCoef>
-5.4800

> <Gold.Chemscore.Hbond>
1.2920

> <Gold.Chemscore.Metal>
0.0000

> <Gold.Chemscore.Lipo>
78.3754

> <Gold.Chemscore.Internal_Hbond>
0.0000

> <Gold.Chemscore.DEClash>
0.0293

> <Gold.Chemscore.DEInternal>
0.1687

> <Gold.Chemscore.Rot>
1.9363

> <Gold.Chemscore.Internal.Correction>
   9.000000E+99

> <Gold.Chemscore.Hbonds>
donor molecule, donor type, donor heavy atom, donor atom, acceptor molecule, acceptor atom, score
      L1  H     5    19       P1  8028  0.98
      P1  H  7989  7998       L1     2  0.13

> <Gold.Chemscore.Hbond.Weighted>
-4.3154

> <Gold.Chemscore.Metal.Weighted>
-0.0000

> <Gold.Chemscore.Lipo.Weighted>
-9.1699

> <Gold.Chemscore.Internal_Hbond.Weighted>
0.0000

> <Gold.Chemscore.DEClash.Weighted>
0.0293

> <Gold.Chemscore.DEInternal.Weighted>
0.1687

> <Gold.Chemscore.Rot.Weighted>
4.9570

> <Gold.Chemscore.Internal.Correction.Weighted>
   9.000000E+99

> <Gold.Protein.RotatedTorsions>
[ 6907 6896 6895 6894 ] final   -4.99 input  -60.11 | X-H torsion
[ 7974 7965 7964 7962 ] final -170.75 input  175.53 | X-H torsion
[ 8008 7997 7996 7995 ] final   80.35 input   59.86 | X-H torsion
[ 10167 10162 10161 10158 ] final  104.30 input  -65.29 | X-H torsion
[ 10718 10713 10712 10709 ] final -160.88 input   66.30 | X-H torsion
[ 10763 10752 10751 10750 ] final   -5.45 input  -60.55 | X-H torsion
[ 11005 11000 10999 10996 ] final -170.92 input  -57.11 | X-H torsion

> <Gold.Protein.ActiveResidues>
 VAL166  LYS551  ARG553  GLY616  TRP617  ASP618  TYR619  PRO620  LYS621  CYS622 
 ASP623  PHE694  ASN695  SER759  ASP760  ASP761  ALA762  ILE779  LEU786  VAL792 
 PHE793  MET794  SER795  GLU796  ALA797  LYS798  CYS799  TRP800  GLU811  SER814 

> <Gold.Protein.RotatedAtoms>
  151.4888  135.1056  159.9797 H   0  0  0  0  0  0  0  0  0  0  0  0  # atno 6907 bound_to 6896
  152.4749  133.8112  159.7015 H   0  0  0  0  0  0  0  0  0  0  0  0  # atno 6908 bound_to 6896
  150.8781  133.7348  159.2966 H   0  0  0  0  0  0  0  0  0  0  0  0  # atno 6909 bound_to 6896
  144.7166  140.2026  143.6336 H   0  0  0  0  0  0  0  0  0  0  0  0  # atno 7974 bound_to 7965
  155.8822  140.3443  155.5896 H   0  0  0  0  0  0  0  0  0  0  0  0  # atno 8008 bound_to 7997
  155.7706  140.0845  157.2129 H   0  0  0  0  0  0  0  0  0  0  0  0  # atno 8009 bound_to 7997
  154.4025  140.1519  156.2925 H   0  0  0  0  0  0  0  0  0  0  0  0  # atno 8010 bound_to 7997
  139.7189  144.7062  151.0905 H   0  0  0  0  0  0  0  0  0  0  0  0  # atno 10167 bound_to 10162
  156.5884  130.8759  151.2883 H   0  0  0  0  0  0  0  0  0  0  0  0  # atno 10718 bound_to 10713
  153.3986  135.7004  153.6442 H   0  0  0  0  0  0  0  0  0  0  0  0  # atno 10763 bound_to 10752
  153.4985  135.3657  155.2528 H   0  0  0  0  0  0  0  0  0  0  0  0  # atno 10764 bound_to 10752
  154.8708  135.4106  154.3317 H   0  0  0  0  0  0  0  0  0  0  0  0  # atno 10765 bound_to 10752
  140.5140  134.5773  157.5028 H   0  0  0  0  0  0  0  0  0  0  0  0  # atno 11005 bound_to 11000
  145.8666  139.2250  143.1685 LP  0  0  0  0  0  0  0  0  0  0  0  0  # atno 17320 bound_to 7965
  146.0124  140.8423  142.9964 LP  0  0  0  0  0  0  0  0  0  0  0  0  # atno 17321 bound_to 7965
  140.7749  143.5193  150.9556 LP  0  0  0  0  0  0  0  0  0  0  0  0  # atno 17342 bound_to 10162
  139.8879  143.6990  152.3149 LP  0  0  0  0  0  0  0  0  0  0  0  0  # atno 17343 bound_to 10162
  157.7309  130.9693  150.1857 LP  0  0  0  0  0  0  0  0  0  0  0  0  # atno 17370 bound_to 10713
  156.2571  130.3706  149.8170 LP  0  0  0  0  0  0  0  0  0  0  0  0  # atno 17371 bound_to 10713
  139.9642  134.7400  156.0172 LP  0  0  0  0  0  0  0  0  0  0  0  0  # atno 17394 bound_to 11000
  141.1370  133.6573  156.3621 LP  0  0  0  0  0  0  0  0  0  0  0  0  # atno 17395 bound_to 11000

$$$$
