AV-unprocessed.smi:1229|AV-procd|sdf|5150|dock3
  -GOLD-   22720 4223D 1   1.00000     0.00000
 Structure written by MMmdl.
 46 47  0  0  0  0  0  0  0  0  2 V2000
  147.4528  132.9912  152.4856 C   0  0  0  0  0  0  0  0  0  0  0  0
  146.0815  133.0152  151.8300 C   0  0  0  0  0  0  0  0  0  0  0  0
  145.4150  131.7967  151.5801 C   0  0  0  0  0  0  0  0  0  0  0  0
  144.1473  131.8202  150.9741 C   0  0  0  0  0  0  0  0  0  0  0  0
  143.5969  133.0695  150.6401 C   0  0  0  0  0  0  0  0  0  0  0  0
  144.2270  134.2387  150.8746 N   0  0  0  0  0  0  0  0  0  0  0  0
  145.4511  134.2336  151.4602 C   0  0  0  0  0  0  0  0  0  0  0  0
  146.1750  135.4279  151.7370 N   0  0  0  0  0  0  0  0  0  0  0  0
  145.6977  136.6709  151.9255 C   0  0  0  0  0  0  0  0  0  0  0  0
  144.5096  136.9935  151.8960 O   0  0  0  0  0  0  0  0  0  0  0  0
  146.6908  137.5448  152.1485 N   0  0  0  0  0  0  0  0  0  0  0  0
  146.5087  138.9728  152.3919 C   0  0  0  0  0  0  0  0  0  0  0  0
  146.6237  139.3230  153.8900 C   0  0  2  0  0  0  0  0  0  0  0  0
  145.3658  139.7984  154.3281 O   0  0  0  0  0  0  0  0  0  0  0  0
  147.6565  140.4418  154.1344 C   0  0  0  0  0  0  0  0  0  0  0  0
  148.8627  139.9526  154.8505 N   0  3  0  0  0  0  0  0  0  0  0  0
  149.8331  141.0414  155.1351 C   0  0  0  0  0  0  0  0  0  0  0  0
  150.9958  140.5354  156.0062 C   0  0  0  0  0  0  0  0  0  0  0  0
  151.6949  139.3366  155.3520 C   0  0  0  0  0  0  0  0  0  0  0  0
  150.6690  138.2415  155.0328 C   0  0  0  0  0  0  0  0  0  0  0  0
  149.5187  138.7988  154.1778 C   0  0  0  0  0  0  0  0  0  0  0  0
  147.7656  131.9723  152.7149 H   0  0  0  0  0  0  0  0  0  0  0  0
  147.4408  133.5556  153.4185 H   0  0  0  0  0  0  0  0  0  0  0  0
  148.1996  133.4300  151.8233 H   0  0  0  0  0  0  0  0  0  0  0  0
  145.8667  130.8530  151.8489 H   0  0  0  0  0  0  0  0  0  0  0  0
  143.6113  130.9049  150.7702 H   0  0  0  0  0  0  0  0  0  0  0  0
  142.6253  133.1327  150.1728 H   0  0  0  0  0  0  0  0  0  0  0  0
  147.1766  135.3201  151.7943 H   0  0  0  0  0  0  0  0  0  0  0  0
  147.6389  137.1979  152.1584 H   0  0  0  0  0  0  0  0  0  0  0  0
  147.2662  139.5134  151.8215 H   0  0  0  0  0  0  0  0  0  0  0  0
  145.5465  139.2908  151.9879 H   0  0  0  0  0  0  0  0  0  0  0  0
  146.8878  138.4343  154.4619 H   0  0  0  0  0  0  0  0  0  0  0  0
  144.9626  140.2770  153.6190 H   0  0  0  0  0  0  0  0  0  0  0  0
  147.9645  140.8953  153.1910 H   0  0  0  0  0  0  0  0  0  0  0  0
  147.1764  141.2365  154.7082 H   0  0  0  0  0  0  0  0  0  0  0  0
  150.2124  141.4484  154.1964 H   0  0  0  0  0  0  0  0  0  0  0  0
  149.3299  141.8575  155.6552 H   0  0  0  0  0  0  0  0  0  0  0  0
  151.7134  141.3391  156.1744 H   0  0  0  0  0  0  0  0  0  0  0  0
  150.6178  140.2477  156.9882 H   0  0  0  0  0  0  0  0  0  0  0  0
  152.1932  139.6545  154.4352 H   0  0  0  0  0  0  0  0  0  0  0  0
  152.4714  138.9464  156.0107 H   0  0  0  0  0  0  0  0  0  0  0  0
  151.1553  137.4163  154.5117 H   0  0  0  0  0  0  0  0  0  0  0  0
  150.2696  137.8293  155.9604 H   0  0  0  0  0  0  0  0  0  0  0  0
  148.7990  138.0022  153.9937 H   0  0  0  0  0  0  0  0  0  0  0  0
  149.8960  139.1115  153.2027 H   0  0  0  0  0  0  0  0  0  0  0  0
  148.5382  139.6262  155.7497 H   0  0  0  0  0  0  0  0  0  0  0  0
  1  2  1  0  0  0  0
  1 22  1  0  0  0  0
  1 23  1  0  0  0  0
  1 24  1  0  0  0  0
  2  7  1  0  0  0  0
  2  3  2  0  0  0  0
  3  4  1  0  0  0  0
  3 25  1  0  0  0  0
  4  5  2  0  0  0  0
  4 26  1  0  0  0  0
  5  6  1  0  0  0  0
  5 27  1  0  0  0  0
  6  7  2  0  0  0  0
  7  8  1  0  0  0  0
  8  9  1  0  0  0  0
  8 28  1  0  0  0  0
  9 10  2  0  0  0  0
  9 11  1  0  0  0  0
 11 12  1  0  0  0  0
 11 29  1  0  0  0  0
 12 13  1  0  0  0  0
 12 30  1  0  0  0  0
 12 31  1  0  0  0  0
 13 14  1  0  0  0  0
 13 15  1  0  0  0  0
 13 32  1  0  0  0  0
 14 33  1  0  0  0  0
 15 16  1  0  0  0  0
 15 34  1  0  0  0  0
 15 35  1  0  0  0  0
 16 21  1  0  0  0  0
 16 17  1  0  0  0  0
 16 46  1  0  0  0  0
 17 18  1  0  0  0  0
 17 36  1  0  0  0  0
 17 37  1  0  0  0  0
 18 19  1  0  0  0  0
 18 38  1  0  0  0  0
 18 39  1  0  0  0  0
 19 20  1  0  0  0  0
 19 40  1  0  0  0  0
 19 41  1  0  0  0  0
 20 21  1  0  0  0  0
 20 42  1  0  0  0  0
 20 43  1  0  0  0  0
 21 44  1  0  0  0  0
 21 45  1  0  0  0  0
M  CHG  1  16   1
M  END
> <s_m_source_file>
AV-unprocessed.smi

> <i_m_source_file_index>
1229

> <i_lp_mmshare_version>
43012

> <i_f3d_flags>
0

> <s_epik_input>
W0NIM11jMVtjSF1bY0hdW2NIXW5jMVtOSF1DKD1PKVtOSF1bQ0gyXVtDQEhdKFtPSF0pW0NIMl1OMltDSDJdW0NIMl1bQ0gyXVtDSDJdW0NIMl0y

> <s_epik_cmdline>
J2VwaWtfcHl0aG9uJywgJy1waCcsICc3LjAnLCAnLXRuJywgJzgnLCAnLW1hJywgJzIwMCcsICctbWV0YWxfYmluZGluZycsICctaW1hZScsICc8aW5maWxlLm1hZT4nLCAnLW9tYWUnLCAnPG91dGZpbGUubWFlPic=

> <r_epik_Ionization_Penalty>
0.00511007

> <r_epik_Ionization_Penalty_Charging>
0.00506051

> <r_epik_Ionization_Penalty_Neutral>
4.95577e-05

> <r_epik_State_Penalty>
0.00368188

> <r_epik_Charging_Adjusted_Penalty>
0.0087424

> <i_epik_Tot_Q>
1

> <i_epik_Tot_abs_Q>
1

> <r_epik_Metal_State_Penalty>
-0

> <b_epik_Metal_Only>
0

> <s_lp_Force_Field>
OPLS_2005

> <r_lp_Energy>
20.9384

> <b_lp_Chiralities_Consistent>
1

> <s_lp_Variant>
AV-unprocessed.smi:1229-1

> <Gold.Version>
5.8.1

> <Gold.Id.Protein>
6NUR|6NUR_protein|mol2

> <Gold.PLP.Fitness>
47.3975

> <Gold.PLP.PLP>
-38.8575

> <Gold.PLP.part.hbond>
-2.9283

> <Gold.PLP.part.metal>
0.0000

> <Gold.PLP.part.buried>
-3.6495

> <Gold.PLP.part.nonpolar>
-34.5055

> <Gold.PLP.part.repulsive>
2.4228

> <Gold.PLP.ligand.clash>
0.0000

> <Gold.PLP.ligand.torsion>
1.7063

> <Gold.PLP.Chemscore.Hbond>
2.9440

> <Gold.PLP.Chemscore.CHOScore>
0.9923

> <Gold.PLP.Chemscore.Metal>
0.0000

> <Gold.Chemscore.Hbonds>
donor molecule, donor type, donor heavy atom, donor atom, acceptor molecule, acceptor atom, score
      L1  H     8    28       P1  7948  0.94
      L1  H    11    29       P1  7948  1.00
      L1  H    14    33       P1 10175  1.00
      L1  C     5    27       P1 10186  1.00

> <Gold.PLP.Chemscore.Internal.Correction>
0.1437

> <Gold.Rescore>
     Score         DG    S(hbond)    S(metal)    S(lipo)     H(rot)  DE(clash)    DE(int)     intcor
     16.34     -19.70       2.95        0.00      88.03       2.31       0.47       2.89       ----

> <Gold.Chemscore.Fitness>
16.3420

> <Gold.Chemscore.DG>
-19.7040

> <Gold.Chemscore.ZeroCoef>
-5.4800

> <Gold.Chemscore.Hbond>
2.9453

> <Gold.Chemscore.Metal>
0.0000

> <Gold.Chemscore.Lipo>
88.0263

> <Gold.Chemscore.Internal_Hbond>
0.0000

> <Gold.Chemscore.DEClash>
0.4743

> <Gold.Chemscore.DEInternal>
2.8877

> <Gold.Chemscore.Rot>
2.3095

> <Gold.Chemscore.Internal.Correction>
   9.000000E+99

> <Gold.Chemscore.Hbonds>
donor molecule, donor type, donor heavy atom, donor atom, acceptor molecule, acceptor atom, score
      L1  H     8    28       P1  7948  0.90
      L1  H    11    29       P1  7948  0.99
      L1  H    14    33       P1 10175  0.95

> <Gold.Chemscore.Hbond.Weighted>
-9.8374

> <Gold.Chemscore.Metal.Weighted>
-0.0000

> <Gold.Chemscore.Lipo.Weighted>
-10.2991

> <Gold.Chemscore.Internal_Hbond.Weighted>
0.0000

> <Gold.Chemscore.DEClash.Weighted>
0.4743

> <Gold.Chemscore.DEInternal.Weighted>
2.8877

> <Gold.Chemscore.Rot.Weighted>
5.9124

> <Gold.Chemscore.Internal.Correction.Weighted>
   9.000000E+99

> <Gold.Protein.RotatedTorsions>
[ 6907 6896 6895 6894 ] final  118.78 input  -60.11 | X-H torsion
[ 7974 7965 7964 7962 ] final  128.83 input  175.53 | X-H torsion
[ 8008 7997 7996 7995 ] final   44.96 input   59.86 | X-H torsion
[ 10167 10162 10161 10158 ] final -102.55 input  -65.29 | X-H torsion
[ 10718 10713 10712 10709 ] final  -22.11 input   66.30 | X-H torsion
[ 10763 10752 10751 10750 ] final  111.47 input  -60.55 | X-H torsion
[ 11005 11000 10999 10996 ] final   58.79 input  -57.11 | X-H torsion

> <Gold.Protein.ActiveResidues>
 VAL166  LYS551  ARG553  GLY616  TRP617  ASP618  TYR619  PRO620  LYS621  CYS622 
 ASP623  PHE694  ASN695  SER759  ASP760  ASP761  ALA762  ILE779  LEU786  VAL792 
 PHE793  MET794  SER795  GLU796  ALA797  LYS798  CYS799  TRP800  GLU811  SER814 

> <Gold.Protein.RotatedAtoms>
  152.4519  133.7646  159.6765 H   0  0  0  0  0  0  0  0  0  0  0  0  # atno 6907 bound_to 6896
  150.8434  133.7890  159.3058 H   0  0  0  0  0  0  0  0  0  0  0  0  # atno 6908 bound_to 6896
  151.5508  135.1070  160.0001 H   0  0  0  0  0  0  0  0  0  0  0  0  # atno 6909 bound_to 6896
  145.0353  139.4010  143.5129 H   0  0  0  0  0  0  0  0  0  0  0  0  # atno 7974 bound_to 7965
  155.3279  140.3401  155.4240 H   0  0  0  0  0  0  0  0  0  0  0  0  # atno 8008 bound_to 7997
  156.1876  140.1686  156.8191 H   0  0  0  0  0  0  0  0  0  0  0  0  # atno 8009 bound_to 7997
  154.5404  140.0726  156.8484 H   0  0  0  0  0  0  0  0  0  0  0  0  # atno 8010 bound_to 7997
  140.2295  143.3617  152.0899 H   0  0  0  0  0  0  0  0  0  0  0  0  # atno 10167 bound_to 10162
  156.5090  130.4605  149.6658 H   0  0  0  0  0  0  0  0  0  0  0  0  # atno 10718 bound_to 10713
  153.4639  135.3716  155.2353 H   0  0  0  0  0  0  0  0  0  0  0  0  # atno 10763 bound_to 10752
  154.8757  135.3915  154.3892 H   0  0  0  0  0  0  0  0  0  0  0  0  # atno 10764 bound_to 10752
  153.4470  135.7085  153.6197 H   0  0  0  0  0  0  0  0  0  0  0  0  # atno 10765 bound_to 10752
  140.0351  134.5954  155.9454 H   0  0  0  0  0  0  0  0  0  0  0  0  # atno 11005 bound_to 11000
  146.3503  139.9925  142.8684 LP  0  0  0  0  0  0  0  0  0  0  0  0  # atno 17320 bound_to 7965
  145.1717  140.9724  143.4317 LP  0  0  0  0  0  0  0  0  0  0  0  0  # atno 17321 bound_to 7965
  139.5115  144.6902  151.5781 LP  0  0  0  0  0  0  0  0  0  0  0  0  # atno 17342 bound_to 10162
  140.6196  143.9284  150.6515 LP  0  0  0  0  0  0  0  0  0  0  0  0  # atno 17343 bound_to 10162
  156.3259  130.7305  151.2226 LP  0  0  0  0  0  0  0  0  0  0  0  0  # atno 17370 bound_to 10713
  157.7453  131.0443  150.4787 LP  0  0  0  0  0  0  0  0  0  0  0  0  # atno 17371 bound_to 10713
  141.1853  133.6554  156.5192 LP  0  0  0  0  0  0  0  0  0  0  0  0  # atno 17394 bound_to 11000
  140.4160  134.7229  157.4863 LP  0  0  0  0  0  0  0  0  0  0  0  0  # atno 17395 bound_to 11000

$$$$
