AV-unprocessed.smi:1633|AV-procd|sdf|6534|dock5
  -GOLD-   22720 7213D 1   1.00000     0.00000
 Structure written by MMmdl.
 52 54  0  0  0  0  0  0  0  0  3 V2000
  144.7211  133.4978  156.1352 C   0  0  0  0  0  0  0  0  0  0  0  0
  146.0010  133.0390  155.4329 C   0  0  0  0  0  0  0  0  0  0  0  0
  146.3467  131.8658  155.5697 O   0  0  0  0  0  0  0  0  0  0  0  0
  146.7065  133.9270  154.6921 N   0  0  0  0  0  0  0  0  0  0  0  0
  147.9664  133.5828  154.0268 C   0  0  0  0  0  0  0  0  0  0  0  0
  149.1145  134.3768  154.6756 C   0  0  0  0  0  0  0  0  0  0  0  0
  148.8459  135.8395  154.6526 N   0  3  0  0  0  0  0  0  0  0  0  0
  149.9595  136.6246  155.2456 C   0  0  0  0  0  0  0  0  0  0  0  0
  149.7887  138.1461  155.0579 C   0  0  2  0  0  0  0  0  0  0  0  0
  149.7380  138.4279  153.6730 O   0  0  0  0  0  0  0  0  0  0  0  0
  150.9473  138.9327  155.7025 C   0  0  0  0  0  0  0  0  0  0  0  0
  150.5976  140.3305  155.9969 N   0  0  0  0  0  0  0  0  0  0  0  0
  149.7928  141.1864  155.3093 C   0  0  0  0  0  0  0  0  0  0  0  0
  149.7775  142.3689  155.9841 N   0  3  0  0  0  0  0  0  0  0  0  0
  150.5824  142.2678  157.1205 C   0  0  0  0  0  0  0  0  0  0  0  0
  150.8809  143.1981  158.1087 C   0  0  0  0  0  0  0  0  0  0  0  0
  151.7474  142.7831  159.1447 C   0  0  0  0  0  0  0  0  0  0  0  0
  152.0995  143.7780  160.2376 C   0  0  0  0  0  0  0  0  0  0  0  0
  152.2800  141.4682  159.1680 C   0  0  0  0  0  0  0  0  0  0  0  0
  153.2095  141.0322  160.2879 C   0  0  0  0  0  0  0  0  0  0  0  0
  151.9627  140.5359  158.1541 C   0  0  0  0  0  0  0  0  0  0  0  0
  151.1101  140.9617  157.1377 C   0  0  0  0  0  0  0  0  0  0  0  0
  147.5078  136.1837  155.2086 C   0  0  0  0  0  0  0  0  0  0  0  0
  146.3947  135.3522  154.5453 C   0  0  0  0  0  0  0  0  0  0  0  0
  144.9336  134.2979  156.8448 H   0  0  0  0  0  0  0  0  0  0  0  0
  144.2706  132.6735  156.6893 H   0  0  0  0  0  0  0  0  0  0  0  0
  143.9869  133.8504  155.4103 H   0  0  0  0  0  0  0  0  0  0  0  0
  148.1915  132.5160  154.0653 H   0  0  0  0  0  0  0  0  0  0  0  0
  147.8899  133.8317  152.9673 H   0  0  0  0  0  0  0  0  0  0  0  0
  149.2526  134.0512  155.7082 H   0  0  0  0  0  0  0  0  0  0  0  0
  150.0452  134.1651  154.1478 H   0  0  0  0  0  0  0  0  0  0  0  0
  150.0507  136.3765  156.3041 H   0  0  0  0  0  0  0  0  0  0  0  0
  150.9009  136.3255  154.7817 H   0  0  0  0  0  0  0  0  0  0  0  0
  148.8554  138.4830  155.5078 H   0  0  0  0  0  0  0  0  0  0  0  0
  149.4795  137.6421  153.2153 H   0  0  0  0  0  0  0  0  0  0  0  0
  151.2257  138.4695  156.6498 H   0  0  0  0  0  0  0  0  0  0  0  0
  151.8417  138.9081  155.0793 H   0  0  0  0  0  0  0  0  0  0  0  0
  149.2599  140.9676  154.3950 H   0  0  0  0  0  0  0  0  0  0  0  0
  150.4706  144.1973  158.0860 H   0  0  0  0  0  0  0  0  0  0  0  0
  151.7473  143.4225  161.2062 H   0  0  0  0  0  0  0  0  0  0  0  0
  151.6438  144.7514  160.0535 H   0  0  0  0  0  0  0  0  0  0  0  0
  153.1787  143.9223  160.2928 H   0  0  0  0  0  0  0  0  0  0  0  0
  153.4850  139.9815  160.1923 H   0  0  0  0  0  0  0  0  0  0  0  0
  152.7297  141.1617  161.2583 H   0  0  0  0  0  0  0  0  0  0  0  0
  154.1273  141.6208  160.2728 H   0  0  0  0  0  0  0  0  0  0  0  0
  152.3736  139.5376  158.1723 H   0  0  0  0  0  0  0  0  0  0  0  0
  147.5064  136.0070  156.2857 H   0  0  0  0  0  0  0  0  0  0  0  0
  147.2944  137.2414  155.0609 H   0  0  0  0  0  0  0  0  0  0  0  0
  146.3350  135.5929  153.4827 H   0  0  0  0  0  0  0  0  0  0  0  0
  145.4295  135.6364  154.9618 H   0  0  0  0  0  0  0  0  0  0  0  0
  148.8203  136.0917  153.6743 H   0  0  0  0  0  0  0  0  0  0  0  0
  149.2532  143.1833  155.6900 H   0  0  0  0  0  0  0  0  0  0  0  0
  1  2  1  0  0  0  0
  1 25  1  0  0  0  0
  1 26  1  0  0  0  0
  1 27  1  0  0  0  0
  2  3  2  0  0  0  0
  2  4  1  0  0  0  0
  4 24  1  0  0  0  0
  4  5  1  0  0  0  0
  5  6  1  0  0  0  0
  5 28  1  0  0  0  0
  5 29  1  0  0  0  0
  6  7  1  0  0  0  0
  6 30  1  0  0  0  0
  6 31  1  0  0  0  0
  7  8  1  0  0  0  0
  7 23  1  0  0  0  0
  7 51  1  0  0  0  0
  8  9  1  0  0  0  0
  8 32  1  0  0  0  0
  8 33  1  0  0  0  0
  9 10  1  0  0  0  0
  9 11  1  0  0  0  0
  9 34  1  0  0  0  0
 10 35  1  0  0  0  0
 11 12  1  0  0  0  0
 11 36  1  0  0  0  0
 11 37  1  0  0  0  0
 12 22  1  0  0  0  0
 12 13  1  0  0  0  0
 13 14  2  0  0  0  0
 13 38  1  0  0  0  0
 14 15  1  0  0  0  0
 14 52  1  0  0  0  0
 15 22  2  0  0  0  0
 15 16  1  0  0  0  0
 16 17  2  0  0  0  0
 16 39  1  0  0  0  0
 17 18  1  0  0  0  0
 17 19  1  0  0  0  0
 18 40  1  0  0  0  0
 18 41  1  0  0  0  0
 18 42  1  0  0  0  0
 19 20  1  0  0  0  0
 19 21  2  0  0  0  0
 20 43  1  0  0  0  0
 20 44  1  0  0  0  0
 20 45  1  0  0  0  0
 21 22  1  0  0  0  0
 21 46  1  0  0  0  0
 23 24  1  0  0  0  0
 23 47  1  0  0  0  0
 23 48  1  0  0  0  0
 24 49  1  0  0  0  0
 24 50  1  0  0  0  0
M  CHG  1   7   1
M  CHG  1  14   1
M  END
> <s_m_source_file>
AV-unprocessed.smi

> <i_m_source_file_index>
1633

> <i_lp_mmshare_version>
43012

> <i_f3d_flags>
0

> <s_epik_input>
W0NIM11DKD1PKU4xW0NIMl1bQ0gyXU4oW0NIMl1bQ0gyXTEpW0NIMl1bQ0BIXShbT0hdKVtDSDJdbihbY0hdbjIpYyhjMjMpW2NIXWMoW0NIM10pYyhbY0hdMylbQ0gzXQ==

> <s_epik_cmdline>
J2VwaWtfcHl0aG9uJywgJy1waCcsICc3LjAnLCAnLXRuJywgJzgnLCAnLW1hJywgJzIwMCcsICctbWV0YWxfYmluZGluZycsICctaW1hZScsICc8aW5maWxlLm1hZT4nLCAnLW9tYWUnLCAnPG91dGZpbGUubWFlPic=

> <r_epik_Ionization_Penalty>
1.18448

> <r_epik_Ionization_Penalty_Charging>
1.18447

> <r_epik_Ionization_Penalty_Neutral>
4.53746e-06

> <r_epik_State_Penalty>
1.28566

> <r_epik_Charging_Adjusted_Penalty>
2.47013

> <i_epik_Tot_Q>
2

> <i_epik_Tot_abs_Q>
2

> <r_epik_Metal_State_Penalty>
5.30076

> <b_epik_Metal_Only>
0

> <s_lp_Force_Field>
OPLS_2005

> <r_lp_Energy>
52.9318

> <b_lp_Chiralities_Consistent>
1

> <s_lp_Variant>
AV-unprocessed.smi:1633-3

> <Gold.Version>
5.8.1

> <Gold.Id.Protein>
6NUR|6NUR_protein|mol2

> <Gold.PLP.Fitness>
57.2482

> <Gold.PLP.PLP>
-43.3748

> <Gold.PLP.part.hbond>
-4.0000

> <Gold.PLP.part.metal>
0.0000

> <Gold.PLP.part.buried>
-4.4458

> <Gold.PLP.part.nonpolar>
-35.8567

> <Gold.PLP.part.repulsive>
0.2022

> <Gold.PLP.ligand.clash>
0.0000

> <Gold.PLP.ligand.torsion>
0.5793

> <Gold.PLP.Chemscore.Hbond>
5.0000

> <Gold.PLP.Chemscore.CHOScore>
0.0000

> <Gold.PLP.Chemscore.Metal>
0.0000

> <Gold.Chemscore.Hbonds>
donor molecule, donor type, donor heavy atom, donor atom, acceptor molecule, acceptor atom, score
      L1  H     7    51       P1  7948  2.00
      L1  H    10    35       P1  7948  1.00
      L1  H    14    52       P1  8028  2.00

> <Gold.PLP.Chemscore.Internal.Correction>
0.0318

> <Gold.Rescore>
     Score         DG    S(hbond)    S(metal)    S(lipo)     H(rot)  DE(clash)    DE(int)     intcor
     21.14     -21.71       2.89        0.00     104.74       2.22       0.02       0.55       ----

> <Gold.Chemscore.Fitness>
21.1358

> <Gold.Chemscore.DG>
-21.7089

> <Gold.Chemscore.ZeroCoef>
-5.4800

> <Gold.Chemscore.Hbond>
2.8897

> <Gold.Chemscore.Metal>
0.0000

> <Gold.Chemscore.Lipo>
104.7417

> <Gold.Chemscore.Internal_Hbond>
0.0000

> <Gold.Chemscore.DEClash>
0.0189

> <Gold.Chemscore.DEInternal>
0.5542

> <Gold.Chemscore.Rot>
2.2178

> <Gold.Chemscore.Internal.Correction>
   9.000000E+99

> <Gold.Chemscore.Hbonds>
donor molecule, donor type, donor heavy atom, donor atom, acceptor molecule, acceptor atom, score
      L1  H     7    51       P1  7948  1.00
      L1  H    10    35       P1  7948  0.88
      L1  H    14    52       P1  8028  0.96

> <Gold.Chemscore.Hbond.Weighted>
-9.6516

> <Gold.Chemscore.Metal.Weighted>
-0.0000

> <Gold.Chemscore.Lipo.Weighted>
-12.2548

> <Gold.Chemscore.Internal_Hbond.Weighted>
0.0000

> <Gold.Chemscore.DEClash.Weighted>
0.0189

> <Gold.Chemscore.DEInternal.Weighted>
0.5542

> <Gold.Chemscore.Rot.Weighted>
5.6775

> <Gold.Chemscore.Internal.Correction.Weighted>
   9.000000E+99

> <Gold.Protein.RotatedTorsions>
[ 6907 6896 6895 6894 ] final   82.69 input  -60.11 | X-H torsion
[ 7974 7965 7964 7962 ] final  119.58 input  175.53 | X-H torsion
[ 8008 7997 7996 7995 ] final   91.40 input   59.86 | X-H torsion
[ 10167 10162 10161 10158 ] final   -9.25 input  -65.29 | X-H torsion
[ 10718 10713 10712 10709 ] final  -68.00 input   66.30 | X-H torsion
[ 10763 10752 10751 10750 ] final  -57.64 input  -60.55 | X-H torsion
[ 11005 11000 10999 10996 ] final  -87.71 input  -57.11 | X-H torsion

> <Gold.Protein.ActiveResidues>
 VAL166  LYS551  ARG553  GLY616  TRP617  ASP618  TYR619  PRO620  LYS621  CYS622 
 ASP623  PHE694  ASN695  SER759  ASP760  ASP761  ALA762  ILE779  LEU786  VAL792 
 PHE793  MET794  SER795  GLU796  ALA797  LYS798  CYS799  TRP800  GLU811  SER814 

> <Gold.Protein.RotatedAtoms>
  152.5306  134.3011  159.9078 H   0  0  0  0  0  0  0  0  0  0  0  0  # atno 6907 bound_to 6896
  151.2962  133.4136  159.2644 H   0  0  0  0  0  0  0  0  0  0  0  0  # atno 6908 bound_to 6896
  151.0158  134.9448  159.8089 H   0  0  0  0  0  0  0  0  0  0  0  0  # atno 6909 bound_to 6896
  145.1415  139.3265  143.4613 H   0  0  0  0  0  0  0  0  0  0  0  0  # atno 7974 bound_to 7965
  156.0233  140.3338  155.7062 H   0  0  0  0  0  0  0  0  0  0  0  0  # atno 8008 bound_to 7997
  155.5991  140.0654  157.2755 H   0  0  0  0  0  0  0  0  0  0  0  0  # atno 8009 bound_to 7997
  154.4324  140.1813  156.1142 H   0  0  0  0  0  0  0  0  0  0  0  0  # atno 8010 bound_to 7997
  140.7082  143.5879  150.8924 H   0  0  0  0  0  0  0  0  0  0  0  0  # atno 10167 bound_to 10162
  156.0528  130.4287  150.1937 H   0  0  0  0  0  0  0  0  0  0  0  0  # atno 10718 bound_to 10713
  154.2257  135.6370  153.5159 H   0  0  0  0  0  0  0  0  0  0  0  0  # atno 10763 bound_to 10752
  152.9959  135.5507  154.6067 H   0  0  0  0  0  0  0  0  0  0  0  0  # atno 10764 bound_to 10752
  154.5538  135.2903  155.0958 H   0  0  0  0  0  0  0  0  0  0  0  0  # atno 10765 bound_to 10752
  141.1613  133.7527  156.9345 H   0  0  0  0  0  0  0  0  0  0  0  0  # atno 11005 bound_to 11000
  146.3504  140.1454  142.8593 LP  0  0  0  0  0  0  0  0  0  0  0  0  # atno 17320 bound_to 7965
  145.0527  140.9030  143.4985 LP  0  0  0  0  0  0  0  0  0  0  0  0  # atno 17321 bound_to 7965
  139.9604  143.6170  152.3004 LP  0  0  0  0  0  0  0  0  0  0  0  0  # atno 17342 bound_to 10162
  139.6721  144.7660  151.1765 LP  0  0  0  0  0  0  0  0  0  0  0  0  # atno 17343 bound_to 10162
  157.0018  130.9924  151.3389 LP  0  0  0  0  0  0  0  0  0  0  0  0  # atno 17370 bound_to 10713
  157.5470  130.8157  149.8098 LP  0  0  0  0  0  0  0  0  0  0  0  0  # atno 17371 bound_to 10713
  140.1363  134.9323  157.2406 LP  0  0  0  0  0  0  0  0  0  0  0  0  # atno 17394 bound_to 11000
  140.2891  134.3261  155.7320 LP  0  0  0  0  0  0  0  0  0  0  0  0  # atno 17395 bound_to 11000

$$$$
