#       Name:                AV-unprocessed.smi:1808
#       Creating user name   scv26
#       Creation time:       Fri Mar 27 08:56:31 2020


#       File generated by GOLD software.
#

@<TRIPOS>MOLECULE
AV-unprocessed.smi:1808
    33    34     1
SMALL
NO_CHARGES


@<TRIPOS>ATOM
      1 ****        -0.2529   1.8280   0.2798 O.2            1 S1                 0.0000
      2 ****        -0.7616   0.8551   0.8376 C.2            1 S1                 0.0000
      3 ****        -0.0579  -0.2025   1.2654 N.am           1 S1                 0.0000
      4 ****         1.3859  -0.3579   1.1289 C.3            1 S1                 0.0000
      5 ****         1.7765  -0.8136  -0.2871 C.3            1 S1                 0.0000
      6 ****         3.2849  -0.9669  -0.4942 C.3            1 S1                 0.0000
      7 ****         3.4089  -2.0948  -1.5103 C.3            1 S1                 0.0000
      8 ****         1.9742  -2.5896  -1.6991 C.3            1 S1                 0.0000
      9 ****         1.2878  -2.1199  -0.5499 O.3            1 S1                 0.0000
     10 ****        -2.0719   0.7050   1.0988 N.am           1 S1                 0.0000
     11 ****        -3.1345   1.5979   0.8008 C.2            1 S1                 0.0000
     12 ****        -2.9828   2.7693   0.1717 N.2            1 S1                 0.0000
     13 ****        -4.1980   3.4397   0.0110 C.2            1 S1                 0.0000
     14 ****        -5.2725   2.7598   0.5283 C.2            1 S1                 0.0000
     15 ****        -4.7984   1.2404   1.2398 S.3            1 S1                 0.0000
     16 ****        -0.5555  -0.9603   1.7095 H              1 S1                 0.0000
     17 ****         1.8827   0.5825   1.3736 H              1 S1                 0.0000
     18 ****         1.7243  -1.0876   1.8649 H              1 S1                 0.0000
     19 ****         1.3754  -0.1295  -1.0377 H              1 S1                 0.0000
     20 ****         3.7462  -0.0399  -0.8359 H              1 S1                 0.0000
     21 ****         3.7741  -1.2594   0.4357 H              1 S1                 0.0000
     22 ****         3.8410  -1.7585  -2.4533 H              1 S1                 0.0000
     23 ****         4.0437  -2.8885  -1.1146 H              1 S1                 0.0000
     24 ****         1.5275  -2.1458  -2.5903 H              1 S1                 0.0000
     25 ****         1.9103  -3.6741  -1.7890 H              1 S1                 0.0000
     26 ****        -2.3407  -0.1477   1.5669 H              1 S1                 0.0000
     27 ****        -4.2066   4.3993  -0.4844 H              1 S1                 0.0000
     28 ****        -6.3099   3.0595   0.5330 H              1 S1                 0.0000
     29 ****         0.7347   1.8560   0.1255 LP             1 S1                 0.0000
     30 ****        -0.8274   2.5900  -0.0189 LP             1 S1                 0.0000
     31 ****         0.3036  -2.0908  -0.7244 LP             1 S1                 0.0000
     32 ****         1.4705  -2.7193   0.2294 LP             1 S1                 0.0000
     33 ****        -2.1031   3.1232  -0.1460 LP             1 S1                 0.0000
@<TRIPOS>BOND
    1    1    2 2     
    2    2    3 am    
    3    2   10 am    
    4    3    4 1     
    5    3   16 1     
    6    4    5 1     
    7    4   17 1     
    8    4   18 1     
    9    5    9 1     
   10    5    6 1     
   11    5   19 1     
   12    6    7 1     
   13    6   20 1     
   14    6   21 1     
   15    7    8 1     
   16    7   22 1     
   17    7   23 1     
   18    8    9 1     
   19    8   24 1     
   20    8   25 1     
   21   10   11 1     
   22   10   26 1     
   23   11   15 1     
   24   11   12 2     
   25   12   13 1     
   26   13   14 2     
   27   13   27 1     
   28   14   15 1     
   29   14   28 1     
   30    1   29 1     
   31    1   30 1     
   32    9   31 1     
   33    9   32 1     
   34   12   33 1     
@<TRIPOS>SUBSTRUCTURE
      1 S1             1
@<TRIPOS>SET
LONE_PAIRS      STATIC     ATOMS    <user>   **** ""
5 29 30 31 32 33
DONOR_HYDROGENS      STATIC     ATOMS    <user>   **** ""
2 16 26
ATOM$BLUE        STATIC     ATOMS    COLORGROUP SYSTEM
5 29 30 31 32 33
ATOM$RED        STATIC     ATOMS    COLORGROUP SYSTEM
2 16 26
