AV-unprocessed.smi:276|AV-procd|sdf|2075|dock8
  -GOLD-   2262021333D 1   1.00000     0.00000
 Structure written by MMmdl.
 57 61  0  0  0  0  0  0  0  0  1 V2000
  150.4399  141.5897  157.5009 C   0  0  0  0  0  0  0  0  0  0  0  0
  149.3025  141.1334  156.7903 O   0  0  0  0  0  0  0  0  0  0  0  0
  149.4002  141.3530  155.3898 C   0  0  1  0  0  0  0  0  0  0  0  0
  150.1431  140.2227  154.6602 C   0  0  0  0  0  0  0  0  0  0  0  0
  148.7942  139.5052  154.4537 C   0  0  1  0  0  0  0  0  0  0  0  0
  148.5455  138.5140  155.5102 N   0  0  0  0  0  0  0  0  0  0  0  0
  149.6731  137.6569  155.8617 C   0  0  0  0  0  0  0  0  0  0  0  0
  147.4327  137.7646  155.3554 C   0  0  0  0  0  0  0  0  0  0  0  0
  147.0350  137.0225  156.4185 N   0  0  0  0  0  0  0  0  0  0  0  0
  145.9360  136.2672  156.3312 C   0  0  0  0  0  0  0  0  0  0  0  0
  145.1140  136.1052  155.2920 N   0  0  0  0  0  0  0  0  0  0  0  0
  145.5243  136.8365  154.2164 C   0  0  0  0  0  0  0  0  0  0  0  0
  146.6640  137.6865  154.1597 C   0  0  0  0  0  0  0  0  0  0  0  0
  146.7641  138.2621  152.8986 N   0  0  0  0  0  0  0  0  0  0  0  0
  145.7421  137.7789  152.2466 C   0  0  0  0  0  0  0  0  0  0  0  0
  144.9499  136.9081  152.9600 N   0  0  0  0  0  0  0  0  0  0  0  0
  143.7647  136.2199  152.4816 C   0  0  0  0  0  0  0  0  0  0  0  0
  143.8710  134.6816  152.5695 C   0  0  1  0  0  0  0  0  0  0  0  0
  142.6505  134.2127  153.1074 O   0  0  0  0  0  0  0  0  0  0  0  0
  144.1367  133.9705  151.2220 C   0  0  2  0  0  0  0  0  0  0  0  0
  143.9965  132.4457  151.2806 C   0  0  0  0  0  0  0  0  0  0  0  0
  144.9015  131.9975  150.1572 C   0  0  0  0  0  0  0  0  0  0  0  0
  146.0583  132.9771  150.2980 C   0  0  0  0  0  0  0  0  0  0  0  0
  145.4779  134.1846  150.7793 O   0  0  0  0  0  0  0  0  0  0  0  0
  148.1285  140.8929  154.6564 C   0  0  0  0  0  0  0  0  0  0  0  0
  147.6728  141.6981  153.4266 C   0  0  0  0  0  0  0  0  0  0  0  0
  146.6301  142.3759  154.3187 C   0  0  0  0  0  0  0  0  0  0  0  0
  146.7211  141.1528  155.2321 C   0  0  0  0  0  0  0  0  0  0  0  0
  150.3092  141.3910  158.5644 H   0  0  0  0  0  0  0  0  0  0  0  0
  150.5758  142.6644  157.3739 H   0  0  0  0  0  0  0  0  0  0  0  0
  151.3469  141.0810  157.1735 H   0  0  0  0  0  0  0  0  0  0  0  0
  149.7229  142.3612  155.1248 H   0  0  0  0  0  0  0  0  0  0  0  0
  150.5778  140.5584  153.7175 H   0  0  0  0  0  0  0  0  0  0  0  0
  150.8854  139.6976  155.2604 H   0  0  0  0  0  0  0  0  0  0  0  0
  148.6858  139.1132  153.4421 H   0  0  0  0  0  0  0  0  0  0  0  0
  149.3611  136.7851  156.4394 H   0  0  0  0  0  0  0  0  0  0  0  0
  150.3936  138.2034  156.4690 H   0  0  0  0  0  0  0  0  0  0  0  0
  150.1821  137.3033  154.9643 H   0  0  0  0  0  0  0  0  0  0  0  0
  145.6793  135.7125  157.2215 H   0  0  0  0  0  0  0  0  0  0  0  0
  145.5439  138.0385  151.2170 H   0  0  0  0  0  0  0  0  0  0  0  0
  142.9132  136.5723  153.0653 H   0  0  0  0  0  0  0  0  0  0  0  0
  143.5834  136.5264  151.4505 H   0  0  0  0  0  0  0  0  0  0  0  0
  144.6593  134.4130  153.2735 H   0  0  0  0  0  0  0  0  0  0  0  0
  142.8235  133.4269  153.6029 H   0  0  0  0  0  0  0  0  0  0  0  0
  143.4680  134.3592  150.4523 H   0  0  0  0  0  0  0  0  0  0  0  0
  144.3700  132.0611  152.2309 H   0  0  0  0  0  0  0  0  0  0  0  0
  142.9669  132.1083  151.1579 H   0  0  0  0  0  0  0  0  0  0  0  0
  145.2114  130.9557  150.2425 H   0  0  0  0  0  0  0  0  0  0  0  0
  144.4048  132.1329  149.1953 H   0  0  0  0  0  0  0  0  0  0  0  0
  146.7739  132.6181  151.0389 H   0  0  0  0  0  0  0  0  0  0  0  0
  146.5902  133.1356  149.3599 H   0  0  0  0  0  0  0  0  0  0  0  0
  148.4224  142.3704  153.0082 H   0  0  0  0  0  0  0  0  0  0  0  0
  147.2223  141.0707  152.6555 H   0  0  0  0  0  0  0  0  0  0  0  0
  147.0025  143.2858  154.7924 H   0  0  0  0  0  0  0  0  0  0  0  0
  145.6564  142.5281  153.8524 H   0  0  0  0  0  0  0  0  0  0  0  0
  145.9841  140.3986  154.9557 H   0  0  0  0  0  0  0  0  0  0  0  0
  146.6871  141.3745  156.2989 H   0  0  0  0  0  0  0  0  0  0  0  0
  1  2  1  0  0  0  0
  1 29  1  0  0  0  0
  1 30  1  0  0  0  0
  1 31  1  0  0  0  0
  2  3  1  0  0  0  0
  3 25  1  0  0  0  0
  3  4  1  0  0  0  0
  3 32  1  0  0  0  0
  4  5  1  0  0  0  0
  4 33  1  0  0  0  0
  4 34  1  0  0  0  0
  5  6  1  0  0  0  0
  5 25  1  0  0  0  0
  5 35  1  0  0  0  0
  6  7  1  0  0  0  0
  6  8  1  0  0  0  0
  7 36  1  0  0  0  0
  7 37  1  0  0  0  0
  7 38  1  0  0  0  0
  8 13  1  0  0  0  0
  8  9  2  0  0  0  0
  9 10  1  0  0  0  0
 10 11  2  0  0  0  0
 10 39  1  0  0  0  0
 11 12  1  0  0  0  0
 12 16  1  0  0  0  0
 12 13  2  0  0  0  0
 13 14  1  0  0  0  0
 14 15  2  0  0  0  0
 15 16  1  0  0  0  0
 15 40  1  0  0  0  0
 16 17  1  0  0  0  0
 17 18  1  0  0  0  0
 17 41  1  0  0  0  0
 17 42  1  0  0  0  0
 18 19  1  0  0  0  0
 18 20  1  0  0  0  0
 18 43  1  0  0  0  0
 19 44  1  0  0  0  0
 20 24  1  0  0  0  0
 20 21  1  0  0  0  0
 20 45  1  0  0  0  0
 21 22  1  0  0  0  0
 21 46  1  0  0  0  0
 21 47  1  0  0  0  0
 22 23  1  0  0  0  0
 22 48  1  0  0  0  0
 22 49  1  0  0  0  0
 23 24  1  0  0  0  0
 23 50  1  0  0  0  0
 23 51  1  0  0  0  0
 25 28  1  0  0  0  0
 25 26  1  0  0  0  0
 26 27  1  0  0  0  0
 26 52  1  0  0  0  0
 26 53  1  0  0  0  0
 27 28  1  0  0  0  0
 27 54  1  0  0  0  0
 27 55  1  0  0  0  0
 28 56  1  0  0  0  0
 28 57  1  0  0  0  0
M  END
> <s_m_source_file>
AV-unprocessed.smi

> <i_m_source_file_index>
276

> <i_lp_mmshare_version>
43012

> <i_f3d_flags>
0

> <s_epik_input>
W0NIMl0xW0NIMl1bQ0gyXUMxMltDQEhdKE9bQ0gzXSlbQ0gyXVtDQEhdMk4oW0NIM10pYyhuW2NIXW4zKWMoYzM0KW5bY0hdbjRbQ0gyXVtDQEhdKFtPSF0pW0NAQEhdNVtDSDJdW0NIMl1bQ0gyXU81

> <s_epik_cmdline>
J2VwaWtfcHl0aG9uJywgJy1waCcsICc3LjAnLCAnLXRuJywgJzgnLCAnLW1hJywgJzIwMCcsICctbWV0YWxfYmluZGluZycsICctaW1hZScsICc8aW5maWxlLm1hZT4nLCAnLW9tYWUnLCAnPG91dGZpbGUubWFlPic=

> <r_lp_tautomer_probability>
1

> <r_epik_Ionization_Penalty>
0.00204117

> <r_epik_Ionization_Penalty_Charging>
0

> <r_epik_Ionization_Penalty_Neutral>
0.00204117

> <r_epik_State_Penalty>
0.00127401

> <r_epik_Charging_Adjusted_Penalty>
0.00127401

> <i_epik_Tot_Q>
0

> <i_epik_Tot_abs_Q>
0

> <r_epik_Metal_State_Penalty>
-0

> <b_epik_Metal_Only>
0

> <s_lp_Force_Field>
OPLS_2005

> <r_lp_Energy>
56.2402

> <b_lp_Chiralities_Consistent>
1

> <s_lp_Variant>
AV-unprocessed.smi:276-6

> <Gold.Version>
5.8.1

> <Gold.Id.Protein>
6NUR|6NUR_protein|mol2

> <Gold.PLP.Fitness>
39.9735

> <Gold.PLP.PLP>
-36.3036

> <Gold.PLP.part.hbond>
-1.0000

> <Gold.PLP.part.metal>
0.0000

> <Gold.PLP.part.buried>
-4.8068

> <Gold.PLP.part.nonpolar>
-31.3037

> <Gold.PLP.part.repulsive>
0.5367

> <Gold.PLP.ligand.clash>
0.0000

> <Gold.PLP.ligand.torsion>
1.5441

> <Gold.PLP.Chemscore.Hbond>
1.0000

> <Gold.PLP.Chemscore.CHOScore>
1.0000

> <Gold.PLP.Chemscore.Metal>
0.0000

> <Gold.Chemscore.Hbonds>
donor molecule, donor type, donor heavy atom, donor atom, acceptor molecule, acceptor atom, score
      L1  H    19    44       P1 10957  0.98
      L1  C    15    40       P1 10171  1.00

> <Gold.PLP.Chemscore.Internal.Correction>
0.7580

> <Gold.Rescore>
     Score         DG    S(hbond)    S(metal)    S(lipo)     H(rot)  DE(clash)    DE(int)     intcor
      8.89     -12.11       1.00        0.00      87.64       2.72       0.38       2.83       ----

> <Gold.Chemscore.Fitness>
8.8946

> <Gold.Chemscore.DG>
-12.1053

> <Gold.Chemscore.ZeroCoef>
-5.4800

> <Gold.Chemscore.Hbond>
0.9962

> <Gold.Chemscore.Metal>
0.0000

> <Gold.Chemscore.Lipo>
87.6409

> <Gold.Chemscore.Internal_Hbond>
0.0000

> <Gold.Chemscore.DEClash>
0.3821

> <Gold.Chemscore.DEInternal>
2.8286

> <Gold.Chemscore.Rot>
2.7172

> <Gold.Chemscore.Internal.Correction>
   9.000000E+99

> <Gold.Chemscore.Hbonds>
donor molecule, donor type, donor heavy atom, donor atom, acceptor molecule, acceptor atom, score
      L1  H    19    44       P1 10957  0.92

> <Gold.Chemscore.Hbond.Weighted>
-3.3273

> <Gold.Chemscore.Metal.Weighted>
-0.0000

> <Gold.Chemscore.Lipo.Weighted>
-10.2540

> <Gold.Chemscore.Internal_Hbond.Weighted>
0.0000

> <Gold.Chemscore.DEClash.Weighted>
0.3821

> <Gold.Chemscore.DEInternal.Weighted>
2.8286

> <Gold.Chemscore.Rot.Weighted>
6.9560

> <Gold.Chemscore.Internal.Correction.Weighted>
   9.000000E+99

> <Gold.Protein.RotatedTorsions>
[ 6907 6896 6895 6894 ] final   55.00 input  -60.11 | X-H torsion
[ 7974 7965 7964 7962 ] final -110.08 input  175.53 | X-H torsion
[ 8008 7997 7996 7995 ] final  175.49 input   59.86 | X-H torsion
[ 10167 10162 10161 10158 ] final  -59.29 input  -65.29 | X-H torsion
[ 10718 10713 10712 10709 ] final  -44.57 input   66.30 | X-H torsion
[ 10763 10752 10751 10750 ] final -107.11 input  -60.55 | X-H torsion
[ 11005 11000 10999 10996 ] final   48.68 input  -57.11 | X-H torsion

> <Gold.Protein.ActiveResidues>
 VAL166  LYS551  ARG553  GLY616  TRP617  ASP618  TYR619  PRO620  LYS621  CYS622 
 ASP623  PHE694  ASN695  SER759  ASP760  ASP761  ALA762  ILE779  LEU786  VAL792 
 PHE793  MET794  SER795  GLU796  ALA797  LYS798  CYS799  TRP800  GLU811  SER814 

> <Gold.Protein.RotatedAtoms>
  152.3495  134.7025  160.0240 H   0  0  0  0  0  0  0  0  0  0  0  0  # atno 6907 bound_to 6896
  151.7383  133.3315  159.3367 H   0  0  0  0  0  0  0  0  0  0  0  0  # atno 6908 bound_to 6896
  150.7531  134.6234  159.6192 H   0  0  0  0  0  0  0  0  0  0  0  0  # atno 6909 bound_to 6896
  145.1726  140.8933  143.3526 H   0  0  0  0  0  0  0  0  0  0  0  0  # atno 7974 bound_to 7965
  156.0864  140.1407  156.9647 H   0  0  0  0  0  0  0  0  0  0  0  0  # atno 8008 bound_to 7997
  154.4615  140.0941  156.6955 H   0  0  0  0  0  0  0  0  0  0  0  0  # atno 8009 bound_to 7997
  155.4991  140.3450  155.4370 H   0  0  0  0  0  0  0  0  0  0  0  0  # atno 8010 bound_to 7997
  140.6144  143.2397  151.5632 H   0  0  0  0  0  0  0  0  0  0  0  0  # atno 10167 bound_to 10162
  156.2372  130.4177  149.8803 H   0  0  0  0  0  0  0  0  0  0  0  0  # atno 10718 bound_to 10713
  154.8055  135.4687  154.0381 H   0  0  0  0  0  0  0  0  0  0  0  0  # atno 10763 bound_to 10752
  153.1853  135.6847  153.8430 H   0  0  0  0  0  0  0  0  0  0  0  0  # atno 10764 bound_to 10752
  153.7966  135.3235  155.3362 H   0  0  0  0  0  0  0  0  0  0  0  0  # atno 10765 bound_to 10752
  140.1169  134.4880  155.8630 H   0  0  0  0  0  0  0  0  0  0  0  0  # atno 11005 bound_to 11000
  145.0217  139.3418  143.6069 LP  0  0  0  0  0  0  0  0  0  0  0  0  # atno 17320 bound_to 7965
  146.3466  139.9520  142.8728 LP  0  0  0  0  0  0  0  0  0  0  0  0  # atno 17321 bound_to 7965
  139.5387  144.2709  152.1305 LP  0  0  0  0  0  0  0  0  0  0  0  0  # atno 17342 bound_to 10162
  140.1915  144.4747  150.6477 LP  0  0  0  0  0  0  0  0  0  0  0  0  # atno 17343 bound_to 10162
  156.6397  130.8699  151.3511 LP  0  0  0  0  0  0  0  0  0  0  0  0  # atno 17370 bound_to 10713
  157.7160  130.9497  150.1256 LP  0  0  0  0  0  0  0  0  0  0  0  0  # atno 17371 bound_to 10713
  141.2143  133.6747  156.6814 LP  0  0  0  0  0  0  0  0  0  0  0  0  # atno 17394 bound_to 11000
  140.3016  134.8159  157.4102 LP  0  0  0  0  0  0  0  0  0  0  0  0  # atno 17395 bound_to 11000

$$$$
