#       Name:                AV-unprocessed.smi:408
#       Creating user name   scv26
#       Creation time:       Thu Mar 26 22:45:27 2020


#       File generated by GOLD software.
#

@<TRIPOS>MOLECULE
AV-unprocessed.smi:408
    46    47     1
SMALL
NO_CHARGES


@<TRIPOS>ATOM
      1 ****        -2.5162  -0.6700   0.6443 C.3            1 S1                 0.0000
      2 ****        -1.8494   0.4282  -0.2004 C.3            1 S1                 0.0000
      3 ****        -2.1086   1.8100   0.4176 C.3            1 S1                 0.0000
      4 ****        -2.3150   0.3897  -1.6734 C.3            1 S1                 0.0000
      5 ****        -1.8662  -0.8461  -2.4781 C.3            1 S1                 0.0000
      6 ****        -0.4172  -0.8753  -2.6397 N.am           1 S1                 0.0000
      7 ****         0.4294  -1.7058  -2.0104 C.2            1 S1                 0.0000
      8 ****         0.0651  -2.6278  -1.2811 O.2            1 S1                 0.0000
      9 ****         1.9203  -1.4315  -2.2172 C.3            1 S1                 0.0000
     10 ****         2.3127  -0.2072  -1.4422 C.2            1 S1                 0.0000
     11 ****         2.2044   1.0982  -1.8488 C.2            1 S1                 0.0000
     12 ****         2.6893   2.2042  -0.5970 S.3            1 S1                 0.0000
     13 ****         3.0456   0.8370   0.4583 C.2            1 S1                 0.0000
     14 ****         3.4928   0.9469   1.7223 N.pl3          1 S1                -1.0000
     15 ****         2.6726   0.9100   2.8094 C.2            1 S1                 0.0000
     16 ****         3.0270   1.1082   3.9704 O.2            1 S1                 0.0000
     17 ****         1.2347   0.5876   2.5097 C.3            1 S1                 0.0000
     18 ****         0.3878  -0.0373   3.6023 C.3            1 S1                 0.0000
     19 ****         0.8666  -0.8815   2.4499 C.3            1 S1                 0.0000
     20 ****         2.8269  -0.3348  -0.1498 N.2            1 S1                 0.0000
     21 ****        -3.6033  -0.5942   0.6074 H              1 S1                 0.0000
     22 ****        -2.2168  -0.5969   1.6899 H              1 S1                 0.0000
     23 ****        -2.2369  -1.6654   0.2999 H              1 S1                 0.0000
     24 ****        -0.7711   0.2705  -0.1675 H              1 S1                 0.0000
     25 ****        -3.1704   2.0569   0.4075 H              1 S1                 0.0000
     26 ****        -1.5780   2.5901  -0.1288 H              1 S1                 0.0000
     27 ****        -1.7673   1.8481   1.4526 H              1 S1                 0.0000
     28 ****        -3.4031   0.4583  -1.7065 H              1 S1                 0.0000
     29 ****        -1.9492   1.2804  -2.1865 H              1 S1                 0.0000
     30 ****        -2.2435  -1.7649  -2.0278 H              1 S1                 0.0000
     31 ****        -2.3048  -0.8018  -3.4750 H              1 S1                 0.0000
     32 ****        -0.0154  -0.1536  -3.2203 H              1 S1                 0.0000
     33 ****         2.4985  -2.2989  -1.8961 H              1 S1                 0.0000
     34 ****         2.1217  -1.2993  -3.2808 H              1 S1                 0.0000
     35 ****         1.8456   1.4762  -2.7942 H              1 S1                 0.0000
     36 ****         0.7158   1.2675   1.8360 H              1 S1                 0.0000
     37 ****         0.8383  -0.2270   4.5748 H              1 S1                 0.0000
     38 ****        -0.6638   0.2403   3.6293 H              1 S1                 0.0000
     39 ****         0.1534  -1.1771   1.6848 H              1 S1                 0.0000
     40 ****         1.6481  -1.6116   2.6536 H              1 S1                 0.0000
     41 ****        -0.9100  -2.7909  -1.1306 LP             1 S1                 0.0000
     42 ****         0.7441  -3.2138  -0.8389 LP             1 S1                 0.0000
     43 ****         4.4750   1.0612   1.8712 LP             1 S1                 0.0000
     44 ****         3.9841   1.3156   4.1726 LP             1 S1                 0.0000
     45 ****         2.3580   1.0619   4.7123 LP             1 S1                 0.0000
     46 ****         3.0139  -1.2180   0.2803 LP             1 S1                 0.0000
@<TRIPOS>BOND
    1    1    2 1     
    2    1   21 1     
    3    1   22 1     
    4    1   23 1     
    5    2    3 1     
    6    2    4 1     
    7    2   24 1     
    8    3   25 1     
    9    3   26 1     
   10    3   27 1     
   11    4    5 1     
   12    4   28 1     
   13    4   29 1     
   14    5    6 1     
   15    5   30 1     
   16    5   31 1     
   17    6    7 am    
   18    6   32 1     
   19    7    8 2     
   20    7    9 1     
   21    9   10 1     
   22    9   33 1     
   23    9   34 1     
   24   10   20 1     
   25   10   11 2     
   26   11   12 1     
   27   11   35 1     
   28   12   13 1     
   29   13   14 1     
   30   13   20 2     
   31   14   15 1     
   32   15   16 2     
   33   15   17 1     
   34   17   19 1     
   35   17   18 1     
   36   17   36 1     
   37   18   19 1     
   38   18   37 1     
   39   18   38 1     
   40   19   39 1     
   41   19   40 1     
   42    8   41 1     
   43    8   42 1     
   44   14   43 1     
   45   16   44 1     
   46   16   45 1     
   47   20   46 1     
@<TRIPOS>SUBSTRUCTURE
      1 S1             1
@<TRIPOS>SET
LONE_PAIRS      STATIC     ATOMS    <user>   **** ""
6 41 42 43 44 45 46
DONOR_HYDROGENS      STATIC     ATOMS    <user>   **** ""
1 32
ATOM$BLUE        STATIC     ATOMS    COLORGROUP SYSTEM
6 41 42 43 44 45 46
ATOM$RED        STATIC     ATOMS    COLORGROUP SYSTEM
1 32
