AV-unprocessed.smi:330|AV-procd|sdf|2349|dock2
  -GOLD-   2262022263D 1   1.00000     0.00000
 Structure written by MMmdl.
 36 38  0  0  0  0  0  0  0  0  1 V2000
  152.0463  144.0119  161.1154 C   0  0  0  0  0  0  0  0  0  0  0  0
  152.7636  142.6826  160.9535 C   0  0  0  0  0  0  0  0  0  0  0  0
  153.4492  142.0463  161.9090 C   0  0  0  0  0  0  0  0  0  0  0  0
  154.1125  140.5246  161.3653 S   0  0  0  0  0  0  0  0  0  0  0  0
  153.3985  140.7863  159.7336 C   0  0  0  0  0  0  0  0  0  0  0  0
  153.5260  139.9808  158.8128 O   0  0  0  0  0  0  0  0  0  0  0  0
  152.7207  142.0054  159.7267 N   0  0  0  0  0  0  0  0  0  0  0  0
  152.0302  142.5259  158.5394 C   0  0  0  0  0  0  0  0  0  0  0  0
  151.0914  141.5029  157.8863 C   0  0  0  0  0  0  0  0  0  0  0  0
  150.3238  140.8203  158.5663 O   0  0  0  0  0  0  0  0  0  0  0  0
  151.1728  141.4098  156.5503 N   0  0  0  0  0  0  0  0  0  0  0  0
  150.3854  140.5136  155.7102 C   0  0  0  0  0  0  0  0  0  0  0  0
  151.2517  139.5278  154.9442 C   0  0  0  0  0  0  0  0  0  0  0  0
  150.6884  138.2273  154.4209 C   0  0  0  0  0  0  0  0  0  0  0  0
  151.6838  138.2173  155.5586 C   0  0  0  0  0  0  0  0  0  0  0  0
  149.4912  141.2848  154.7569 C   0  0  0  0  0  0  0  0  0  0  0  0
  148.0696  141.6303  155.1302 C   0  0  0  0  0  0  0  0  0  0  0  0
  148.3408  140.6163  154.0417 C   0  0  0  0  0  0  0  0  0  0  0  0
  151.9196  144.2479  162.1723 H   0  0  0  0  0  0  0  0  0  0  0  0
  151.0545  143.9924  160.6637 H   0  0  0  0  0  0  0  0  0  0  0  0
  152.6256  144.8134  160.6566 H   0  0  0  0  0  0  0  0  0  0  0  0
  153.5989  142.3856  162.9233 H   0  0  0  0  0  0  0  0  0  0  0  0
  151.4747  143.4317  158.7839 H   0  0  0  0  0  0  0  0  0  0  0  0
  152.7661  142.8325  157.7944 H   0  0  0  0  0  0  0  0  0  0  0  0
  151.8335  142.0082  156.0762 H   0  0  0  0  0  0  0  0  0  0  0  0
  149.7236  139.9325  156.3558 H   0  0  0  0  0  0  0  0  0  0  0  0
  151.9867  140.0096  154.3018 H   0  0  0  0  0  0  0  0  0  0  0  0
  149.6558  137.9828  154.6617 H   0  0  0  0  0  0  0  0  0  0  0  0
  151.0335  137.8864  153.4471 H   0  0  0  0  0  0  0  0  0  0  0  0
  152.6927  137.8719  155.3431 H   0  0  0  0  0  0  0  0  0  0  0  0
  151.3083  137.9707  156.5497 H   0  0  0  0  0  0  0  0  0  0  0  0
  150.0223  142.0427  154.1835 H   0  0  0  0  0  0  0  0  0  0  0  0
  147.6900  141.2582  156.0799 H   0  0  0  0  0  0  0  0  0  0  0  0
  147.6948  142.6062  154.8283 H   0  0  0  0  0  0  0  0  0  0  0  0
  148.1460  140.9160  153.0142 H   0  0  0  0  0  0  0  0  0  0  0  0
  148.1331  139.5730  154.2707 H   0  0  0  0  0  0  0  0  0  0  0  0
  1  2  1  0  0  0  0
  1 19  1  0  0  0  0
  1 20  1  0  0  0  0
  1 21  1  0  0  0  0
  2  7  1  0  0  0  0
  2  3  2  0  0  0  0
  3  4  1  0  0  0  0
  3 22  1  0  0  0  0
  4  5  1  0  0  0  0
  5  6  2  0  0  0  0
  5  7  1  0  0  0  0
  7  8  1  0  0  0  0
  8  9  1  0  0  0  0
  8 23  1  0  0  0  0
  8 24  1  0  0  0  0
  9 10  2  0  0  0  0
  9 11  1  0  0  0  0
 11 12  1  0  0  0  0
 11 25  1  0  0  0  0
 12 13  1  0  0  0  0
 12 16  1  0  0  0  0
 12 26  1  0  0  0  0
 13 15  1  0  0  0  0
 13 14  1  0  0  0  0
 13 27  1  0  0  0  0
 14 15  1  0  0  0  0
 14 28  1  0  0  0  0
 14 29  1  0  0  0  0
 15 30  1  0  0  0  0
 15 31  1  0  0  0  0
 16 18  1  0  0  0  0
 16 17  1  0  0  0  0
 16 32  1  0  0  0  0
 17 18  1  0  0  0  0
 17 33  1  0  0  0  0
 17 34  1  0  0  0  0
 18 35  1  0  0  0  0
 18 36  1  0  0  0  0
M  END
> <s_m_source_file>
AV-unprocessed.smi

> <i_m_source_file_index>
330

> <i_lp_mmshare_version>
43012

> <i_f3d_flags>
0

> <s_epik_input>
W0NIM11jMVtjSF1zYyg9TyluMVtDSDJdQyg9TylbTkhdW0NIXShbQ0hdMltDSDJdW0NIMl0yKVtDSF0zW0NIMl1bQ0gyXTM=

> <s_epik_cmdline>
J2VwaWtfcHl0aG9uJywgJy1waCcsICc3LjAnLCAnLXRuJywgJzgnLCAnLW1hJywgJzIwMCcsICctbWV0YWxfYmluZGluZycsICctaW1hZScsICc8aW5maWxlLm1hZT4nLCAnLW9tYWUnLCAnPG91dGZpbGUubWFlPic=

> <r_lp_tautomer_probability>
1

> <r_epik_Ionization_Penalty>
1.36851e-06

> <r_epik_Ionization_Penalty_Charging>
1.26835e-06

> <r_epik_Ionization_Penalty_Neutral>
1.00162e-07

> <r_epik_State_Penalty>
-0

> <r_epik_Charging_Adjusted_Penalty>
1.26835e-06

> <i_epik_Tot_Q>
0

> <i_epik_Tot_abs_Q>
0

> <r_epik_Metal_State_Penalty>
-0

> <b_epik_Metal_Only>
0

> <s_lp_Force_Field>
OPLS_2005

> <r_lp_Energy>
27.3766

> <b_lp_Chiralities_Consistent>
1

> <s_lp_Variant>
AV-unprocessed.smi:330-1

> <Gold.Version>
5.8.1

> <Gold.Id.Protein>
6NUR|6NUR_protein|mol2

> <Gold.PLP.Fitness>
45.7936

> <Gold.PLP.PLP>
-43.4047

> <Gold.PLP.part.hbond>
-1.0000

> <Gold.PLP.part.metal>
0.0000

> <Gold.PLP.part.buried>
-0.4671

> <Gold.PLP.part.nonpolar>
-41.1398

> <Gold.PLP.part.repulsive>
0.1089

> <Gold.PLP.ligand.clash>
0.0000

> <Gold.PLP.ligand.torsion>
1.3775

> <Gold.PLP.Chemscore.Hbond>
0.9920

> <Gold.PLP.Chemscore.CHOScore>
0.0000

> <Gold.PLP.Chemscore.Metal>
0.0000

> <Gold.Chemscore.Hbonds>
donor molecule, donor type, donor heavy atom, donor atom, acceptor molecule, acceptor atom, score
      P1  H  7997  8008       L1     6  0.93

> <Gold.PLP.Chemscore.Internal.Correction>
2.1678

> <Gold.Rescore>
     Score         DG    S(hbond)    S(metal)    S(lipo)     H(rot)  DE(clash)    DE(int)     intcor
     14.86     -16.34       0.95        0.00     102.51       1.69       0.15       1.33       ----

> <Gold.Chemscore.Fitness>
14.8621

> <Gold.Chemscore.DG>
-16.3374

> <Gold.Chemscore.ZeroCoef>
-5.4800

> <Gold.Chemscore.Hbond>
0.9530

> <Gold.Chemscore.Metal>
0.0000

> <Gold.Chemscore.Lipo>
102.5076

> <Gold.Chemscore.Internal_Hbond>
0.0000

> <Gold.Chemscore.DEClash>
0.1459

> <Gold.Chemscore.DEInternal>
1.3295

> <Gold.Chemscore.Rot>
1.6871

> <Gold.Chemscore.Internal.Correction>
   9.000000E+99

> <Gold.Chemscore.Hbonds>
donor molecule, donor type, donor heavy atom, donor atom, acceptor molecule, acceptor atom, score
      P1  H  7997  8008       L1     6  0.84

> <Gold.Chemscore.Hbond.Weighted>
-3.1830

> <Gold.Chemscore.Metal.Weighted>
-0.0000

> <Gold.Chemscore.Lipo.Weighted>
-11.9934

> <Gold.Chemscore.Internal_Hbond.Weighted>
0.0000

> <Gold.Chemscore.DEClash.Weighted>
0.1459

> <Gold.Chemscore.DEInternal.Weighted>
1.3295

> <Gold.Chemscore.Rot.Weighted>
4.3189

> <Gold.Chemscore.Internal.Correction.Weighted>
   9.000000E+99

> <Gold.Protein.RotatedTorsions>
[ 6907 6896 6895 6894 ] final  169.53 input  -60.11 | X-H torsion
[ 7974 7965 7964 7962 ] final   83.15 input  175.53 | X-H torsion
[ 8008 7997 7996 7995 ] final -105.43 input   59.86 | X-H torsion
[ 10167 10162 10161 10158 ] final -163.97 input  -65.29 | X-H torsion
[ 10718 10713 10712 10709 ] final  106.35 input   66.30 | X-H torsion
[ 10763 10752 10751 10750 ] final  159.08 input  -60.55 | X-H torsion
[ 11005 11000 10999 10996 ] final  169.42 input  -57.11 | X-H torsion

> <Gold.Protein.ActiveResidues>
 VAL166  LYS551  ARG553  GLY616  TRP617  ASP618  TYR619  PRO620  LYS621  CYS622 
 ASP623  PHE694  ASN695  SER759  ASP760  ASP761  ALA762  ILE779  LEU786  VAL792 
 PHE793  MET794  SER795  GLU796  ALA797  LYS798  CYS799  TRP800  GLU811  SER814 

> <Gold.Protein.RotatedAtoms>
  151.8305  133.3408  159.3611 H   0  0  0  0  0  0  0  0  0  0  0  0  # atno 6907 bound_to 6896
  150.7266  134.5487  159.5793 H   0  0  0  0  0  0  0  0  0  0  0  0  # atno 6908 bound_to 6896
  152.2939  134.7690  160.0423 H   0  0  0  0  0  0  0  0  0  0  0  0  # atno 6909 bound_to 6896
  145.6157  139.2376  143.2167 H   0  0  0  0  0  0  0  0  0  0  0  0  # atno 7974 bound_to 7965
  154.8997  140.0413  157.1886 H   0  0  0  0  0  0  0  0  0  0  0  0  # atno 8008 bound_to 7997
  154.8456  140.2921  155.5610 H   0  0  0  0  0  0  0  0  0  0  0  0  # atno 8009 bound_to 7997
  156.2994  140.2474  156.3406 H   0  0  0  0  0  0  0  0  0  0  0  0  # atno 8010 bound_to 7997
  139.6283  144.0489  152.1994 H   0  0  0  0  0  0  0  0  0  0  0  0  # atno 10167 bound_to 10162
  157.6671  131.0849  150.5994 H   0  0  0  0  0  0  0  0  0  0  0  0  # atno 10718 bound_to 10713
  154.2261  135.2780  155.2907 H   0  0  0  0  0  0  0  0  0  0  0  0  # atno 10763 bound_to 10752
  154.5662  135.5632  153.7056 H   0  0  0  0  0  0  0  0  0  0  0  0  # atno 10764 bound_to 10752
  153.0030  135.6310  154.2402 H   0  0  0  0  0  0  0  0  0  0  0  0  # atno 10765 bound_to 10752
  140.2976  134.7622  157.3889 H   0  0  0  0  0  0  0  0  0  0  0  0  # atno 11005 bound_to 11000
  146.1470  140.6979  142.9340 LP  0  0  0  0  0  0  0  0  0  0  0  0  # atno 17320 bound_to 7965
  144.7251  140.4500  143.6979 LP  0  0  0  0  0  0  0  0  0  0  0  0  # atno 17321 bound_to 7965
  140.0148  144.6197  150.7617 LP  0  0  0  0  0  0  0  0  0  0  0  0  # atno 17342 bound_to 10162
  140.7424  143.2832  151.3539 LP  0  0  0  0  0  0  0  0  0  0  0  0  # atno 17343 bound_to 10162
  156.6294  130.4428  149.5792 LP  0  0  0  0  0  0  0  0  0  0  0  0  # atno 17370 bound_to 10713
  156.2293  130.6785  151.1448 LP  0  0  0  0  0  0  0  0  0  0  0  0  # atno 17371 bound_to 10713
  140.1139  134.5309  155.8242 LP  0  0  0  0  0  0  0  0  0  0  0  0  # atno 17394 bound_to 11000
  141.2134  133.6733  156.6740 LP  0  0  0  0  0  0  0  0  0  0  0  0  # atno 17395 bound_to 11000

$$$$
