AV-unprocessed.smi:2504|AV-procd|sdf|9849|dock9
  -GOLD-   2272013483D 1   1.00000     0.00000
 Structure written by MMmdl.
 46 48  0  0  0  0  0  0  0  0  1 V2000
  152.4221  140.2622  155.1588 O   0  0  0  0  0  0  0  0  0  0  0  0
  151.3657  139.8742  155.6591 C   0  0  0  0  0  0  0  0  0  0  0  0
  150.8032  140.5273  156.9401 C   0  0  0  0  0  0  0  0  0  0  0  0
  150.6035  142.0541  156.8314 C   0  0  0  0  0  0  0  0  0  0  0  0
  150.8530  142.5897  158.2391 C   0  0  0  0  0  0  0  0  0  0  0  0
  151.9834  141.7108  158.7639 C   0  0  0  0  0  0  0  0  0  0  0  0
  151.7029  140.3209  158.1829 C   0  0  0  0  0  0  0  0  0  0  0  0
  150.5801  138.9050  155.0273 N   0  0  0  0  0  0  0  0  0  0  0  0
  151.1673  137.7393  154.3833 C   0  0  0  0  0  0  0  0  0  0  0  0
  149.8405  137.0398  154.7082 C   0  0  0  0  0  0  0  0  0  0  0  0
  150.0145  135.3483  155.4297 S   0  0  0  0  0  0  0  0  0  0  0  0
  151.4381  135.0518  155.6531 O   0  0  0  0  0  0  0  0  0  0  0  0
  149.0528  135.1986  156.5325 O   0  0  0  0  0  0  0  0  0  0  0  0
  149.4725  134.3472  154.1374 N   0  0  0  0  0  0  0  0  0  0  0  0
  148.7190  133.1393  154.4712 C   0  0  0  0  0  0  0  0  0  0  0  0
  147.2121  133.4351  154.5180 C   0  0  0  0  0  0  0  0  0  0  0  0
  146.6146  133.6831  153.1441 C   0  0  0  0  0  0  0  0  0  0  0  0
  145.6333  134.6773  152.9517 C   0  0  0  0  0  0  0  0  0  0  0  0
  145.1146  134.8774  151.6579 C   0  0  0  0  0  0  0  0  0  0  0  0
  145.6012  134.0726  150.6085 C   0  0  0  0  0  0  0  0  0  0  0  0
  146.5396  133.1167  150.7809 N   0  0  0  0  0  0  0  0  0  0  0  0
  147.0299  132.9297  152.0251 C   0  0  0  0  0  0  0  0  0  0  0  0
  149.6037  138.1208  155.7690 C   0  0  0  0  0  0  0  0  0  0  0  0
  149.8285  140.0825  157.1448 H   0  0  0  0  0  0  0  0  0  0  0  0
  151.3291  142.5081  156.1546 H   0  0  0  0  0  0  0  0  0  0  0  0
  149.6086  142.3151  156.4688 H   0  0  0  0  0  0  0  0  0  0  0  0
  151.1061  143.6502  158.2475 H   0  0  0  0  0  0  0  0  0  0  0  0
  149.9612  142.4520  158.8525 H   0  0  0  0  0  0  0  0  0  0  0  0
  152.9373  142.0802  158.3848 H   0  0  0  0  0  0  0  0  0  0  0  0
  152.0390  141.7060  159.8530 H   0  0  0  0  0  0  0  0  0  0  0  0
  151.1725  139.7131  158.9169 H   0  0  0  0  0  0  0  0  0  0  0  0
  152.6395  139.8061  157.9635 H   0  0  0  0  0  0  0  0  0  0  0  0
  151.3573  137.8683  153.3175 H   0  0  0  0  0  0  0  0  0  0  0  0
  152.0318  137.3415  154.9171 H   0  0  0  0  0  0  0  0  0  0  0  0
  149.1080  137.0640  153.8996 H   0  0  0  0  0  0  0  0  0  0  0  0
  148.9766  134.8980  153.4366 H   0  0  0  0  0  0  0  0  0  0  0  0
  148.9262  132.3716  153.7251 H   0  0  0  0  0  0  0  0  0  0  0  0
  149.0636  132.7559  155.4323 H   0  0  0  0  0  0  0  0  0  0  0  0
  146.6850  132.6102  154.9997 H   0  0  0  0  0  0  0  0  0  0  0  0
  147.0321  134.3133  155.1392 H   0  0  0  0  0  0  0  0  0  0  0  0
  145.2855  135.2776  153.7797 H   0  0  0  0  0  0  0  0  0  0  0  0
  144.3624  135.6301  151.4736 H   0  0  0  0  0  0  0  0  0  0  0  0
  145.2264  134.2001  149.6036 H   0  0  0  0  0  0  0  0  0  0  0  0
  147.7820  132.1611  152.1283 H   0  0  0  0  0  0  0  0  0  0  0  0
  149.9417  137.8359  156.7676 H   0  0  0  0  0  0  0  0  0  0  0  0
  148.5994  138.5451  155.7692 H   0  0  0  0  0  0  0  0  0  0  0  0
  1  2  2  0  0  0  0
  2  3  1  0  0  0  0
  2  8  1  0  0  0  0
  3  7  1  0  0  0  0
  3  4  1  0  0  0  0
  3 24  1  0  0  0  0
  4  5  1  0  0  0  0
  4 25  1  0  0  0  0
  4 26  1  0  0  0  0
  5  6  1  0  0  0  0
  5 27  1  0  0  0  0
  5 28  1  0  0  0  0
  6  7  1  0  0  0  0
  6 29  1  0  0  0  0
  6 30  1  0  0  0  0
  7 31  1  0  0  0  0
  7 32  1  0  0  0  0
  8 23  1  0  0  0  0
  8  9  1  0  0  0  0
  9 10  1  0  0  0  0
  9 33  1  0  0  0  0
  9 34  1  0  0  0  0
 10 11  1  0  0  0  0
 10 23  1  0  0  0  0
 10 35  1  0  0  0  0
 11 12  2  0  0  0  0
 11 13  2  0  0  0  0
 11 14  1  0  0  0  0
 14 15  1  0  0  0  0
 14 36  1  0  0  0  0
 15 16  1  0  0  0  0
 15 37  1  0  0  0  0
 15 38  1  0  0  0  0
 16 17  1  0  0  0  0
 16 39  1  0  0  0  0
 16 40  1  0  0  0  0
 17 22  1  0  0  0  0
 17 18  2  0  0  0  0
 18 19  1  0  0  0  0
 18 41  1  0  0  0  0
 19 20  2  0  0  0  0
 19 42  1  0  0  0  0
 20 21  1  0  0  0  0
 20 43  1  0  0  0  0
 21 22  2  0  0  0  0
 22 44  1  0  0  0  0
 23 45  1  0  0  0  0
 23 46  1  0  0  0  0
M  END
> <s_m_source_file>
AV-unprocessed.smi

> <i_m_source_file_index>
2504

> <i_lp_mmshare_version>
43012

> <i_f3d_flags>
0

> <s_epik_input>
W0NIMl0xW0NIMl1bQ0gyXVtDSDJdW0NIXTFDKD1PKU4yW0NIMl1bQ0hdKFtDSDJdMilTKD1PKSg9TylbTkhdW0NIMl1bQ0gyXWMzW2NIXVtjSF1bY0hdbltjSF0z

> <s_epik_cmdline>
J2VwaWtfcHl0aG9uJywgJy1waCcsICc3LjAnLCAnLXRuJywgJzgnLCAnLW1hJywgJzIwMCcsICctbWV0YWxfYmluZGluZycsICctaW1hZScsICc8aW5maWxlLm1hZT4nLCAnLW9tYWUnLCAnPG91dGZpbGUubWFlPic=

> <r_epik_Ionization_Penalty>
0.0107611

> <r_epik_Ionization_Penalty_Charging>
0

> <r_epik_Ionization_Penalty_Neutral>
0.0107611

> <r_epik_State_Penalty>
0.00821942

> <r_epik_Charging_Adjusted_Penalty>
0.00821942

> <i_epik_Tot_Q>
0

> <i_epik_Tot_abs_Q>
0

> <r_epik_Metal_State_Penalty>
0.0376733

> <b_epik_Metal_Only>
0

> <s_lp_Force_Field>
OPLS_2005

> <r_lp_Energy>
34.3459

> <b_lp_Chiralities_Consistent>
1

> <s_lp_Variant>
AV-unprocessed.smi:2504-1

> <Gold.Version>
5.8.1

> <Gold.Id.Protein>
6NUR|6NUR_protein|mol2

> <Gold.PLP.Fitness>
46.5129

> <Gold.PLP.PLP>
-33.2029

> <Gold.PLP.part.hbond>
-4.0000

> <Gold.PLP.part.metal>
0.0000

> <Gold.PLP.part.buried>
0.8156

> <Gold.PLP.part.nonpolar>
-30.2416

> <Gold.PLP.part.repulsive>
0.2969

> <Gold.PLP.ligand.clash>
0.0000

> <Gold.PLP.ligand.torsion>
2.1466

> <Gold.PLP.Chemscore.Hbond>
3.3011

> <Gold.PLP.Chemscore.CHOScore>
2.0000

> <Gold.PLP.Chemscore.Metal>
0.0000

> <Gold.Chemscore.Hbonds>
donor molecule, donor type, donor heavy atom, donor atom, acceptor molecule, acceptor atom, score
      L1  H    14    36       P1  7948  1.00
      P1  H  7989  7998       L1     1  0.46
      P1  H  7997  8008       L1     1  0.70
      P1  H 10752 10763       L1    12  0.93
      L1  C    20    43       P1  7921  1.00
      L1  C    22    44       P1 10747  0.91

> <Gold.PLP.Chemscore.Internal.Correction>
1.7000

> <Gold.Rescore>
     Score         DG    S(hbond)    S(metal)    S(lipo)     H(rot)  DE(clash)    DE(int)     intcor
     15.73     -18.40       2.56        0.00      77.92       1.85       0.57       2.11       ----

> <Gold.Chemscore.Fitness>
15.7271

> <Gold.Chemscore.DG>
-18.4000

> <Gold.Chemscore.ZeroCoef>
-5.4800

> <Gold.Chemscore.Hbond>
2.5562

> <Gold.Chemscore.Metal>
0.0000

> <Gold.Chemscore.Lipo>
77.9216

> <Gold.Chemscore.Internal_Hbond>
0.0000

> <Gold.Chemscore.DEClash>
0.5661

> <Gold.Chemscore.DEInternal>
2.1067

> <Gold.Chemscore.Rot>
1.8494

> <Gold.Chemscore.Internal.Correction>
   9.000000E+99

> <Gold.Chemscore.Hbonds>
donor molecule, donor type, donor heavy atom, donor atom, acceptor molecule, acceptor atom, score
      L1  H    14    36       P1  7948  0.23
      P1  H  7989  7998       L1     1  0.08
      P1  H  7997  8008       L1     1  0.68
      P1  H 10752 10763       L1    12  0.91

> <Gold.Chemscore.Hbond.Weighted>
-8.5377

> <Gold.Chemscore.Metal.Weighted>
-0.0000

> <Gold.Chemscore.Lipo.Weighted>
-9.1168

> <Gold.Chemscore.Internal_Hbond.Weighted>
0.0000

> <Gold.Chemscore.DEClash.Weighted>
0.5661

> <Gold.Chemscore.DEInternal.Weighted>
2.1067

> <Gold.Chemscore.Rot.Weighted>
4.7346

> <Gold.Chemscore.Internal.Correction.Weighted>
   9.000000E+99

> <Gold.Protein.RotatedTorsions>
[ 6907 6896 6895 6894 ] final  122.56 input  -60.11 | X-H torsion
[ 7974 7965 7964 7962 ] final  -92.74 input  175.53 | X-H torsion
[ 8008 7997 7996 7995 ] final  -27.23 input   59.86 | X-H torsion
[ 10167 10162 10161 10158 ] final  -57.27 input  -65.29 | X-H torsion
[ 10718 10713 10712 10709 ] final    1.73 input   66.30 | X-H torsion
[ 10763 10752 10751 10750 ] final   75.04 input  -60.55 | X-H torsion
[ 11005 11000 10999 10996 ] final -171.72 input  -57.11 | X-H torsion

> <Gold.Protein.ActiveResidues>
 VAL166  LYS551  ARG553  GLY616  TRP617  ASP618  TYR619  PRO620  LYS621  CYS622 
 ASP623  PHE694  ASN695  SER759  ASP760  ASP761  ALA762  ILE779  LEU786  VAL792 
 PHE793  MET794  SER795  GLU796  ALA797  LYS798  CYS799  TRP800  GLU811  SER814 

> <Gold.Protein.RotatedAtoms>
  152.4233  133.7152  159.6501 H   0  0  0  0  0  0  0  0  0  0  0  0  # atno 6907 bound_to 6896
  150.8109  133.8413  159.3189 H   0  0  0  0  0  0  0  0  0  0  0  0  # atno 6908 bound_to 6896
  151.6123  135.1041  160.0135 H   0  0  0  0  0  0  0  0  0  0  0  0  # atno 6909 bound_to 6896
  145.3958  140.9532  143.2315 H   0  0  0  0  0  0  0  0  0  0  0  0  # atno 7974 bound_to 7965
  154.4387  140.1878  156.0900 H   0  0  0  0  0  0  0  0  0  0  0  0  # atno 8008 bound_to 7997
  156.0373  140.3324  155.7178 H   0  0  0  0  0  0  0  0  0  0  0  0  # atno 8009 bound_to 7997
  155.5752  140.0616  157.2788 H   0  0  0  0  0  0  0  0  0  0  0  0  # atno 8010 bound_to 7997
  140.6268  143.2442  151.5343 H   0  0  0  0  0  0  0  0  0  0  0  0  # atno 10167 bound_to 10162
  156.8526  130.5559  149.5668 H   0  0  0  0  0  0  0  0  0  0  0  0  # atno 10718 bound_to 10713
  153.0627  135.5003  154.8131 H   0  0  0  0  0  0  0  0  0  0  0  0  # atno 10763 bound_to 10752
  154.6907  135.2984  154.9485 H   0  0  0  0  0  0  0  0  0  0  0  0  # atno 10764 bound_to 10752
  154.0241  135.6738  153.4827 H   0  0  0  0  0  0  0  0  0  0  0  0  # atno 10765 bound_to 10752
  140.5050  134.5857  157.5000 H   0  0  0  0  0  0  0  0  0  0  0  0  # atno 11005 bound_to 11000
  144.8408  139.5475  143.6901 LP  0  0  0  0  0  0  0  0  0  0  0  0  # atno 17320 bound_to 7965
  146.2776  139.6792  142.9252 LP  0  0  0  0  0  0  0  0  0  0  0  0  # atno 17321 bound_to 7965
  139.5487  144.2452  152.1491 LP  0  0  0  0  0  0  0  0  0  0  0  0  # atno 17342 bound_to 10162
  140.1686  144.4958  150.6592 LP  0  0  0  0  0  0  0  0  0  0  0  0  # atno 17343 bound_to 10162
  156.0820  130.5828  150.9580 LP  0  0  0  0  0  0  0  0  0  0  0  0  # atno 17370 bound_to 10713
  157.6295  131.0922  150.8469 LP  0  0  0  0  0  0  0  0  0  0  0  0  # atno 17371 bound_to 10713
  139.9691  134.7322  156.0077 LP  0  0  0  0  0  0  0  0  0  0  0  0  # atno 17394 bound_to 11000
  141.1415  133.6564  156.3745 LP  0  0  0  0  0  0  0  0  0  0  0  0  # atno 17395 bound_to 11000

$$$$
