AV-unprocessed.smi:1999|AV-procd|sdf|8095|dock5
  -GOLD-   2272010313D 1   1.00000     0.00000
 Structure written by MMmdl.
 39 40  0  0  0  0  0  0  0  0  2 V2000
  143.8605  134.8852  151.7325 C   0  0  0  0  0  0  0  0  0  0  0  0
  144.8951  135.9487  151.5896 C   0  0  0  0  0  0  0  0  0  0  0  0
  145.4861  136.2264  150.4211 N   0  0  0  0  0  0  0  0  0  0  0  0
  146.4154  137.2511  150.5321 N   0  0  0  0  0  0  0  0  0  0  0  0
  146.4965  137.7184  151.7854 C   0  0  0  0  0  0  0  0  0  0  0  0
  147.3742  138.7618  152.1824 N   0  0  0  0  0  0  0  0  0  0  0  0
  147.2325  139.6227  153.2052 C   0  0  0  0  0  0  0  0  0  0  0  0
  146.3074  139.6169  154.0174 O   0  0  0  0  0  0  0  0  0  0  0  0
  148.2338  140.5153  153.2330 N   0  0  0  0  0  0  0  0  0  0  0  0
  148.4128  141.5781  154.2237 C   0  0  1  0  0  0  0  0  0  0  0  0
  147.0866  142.3326  154.3879 C   0  0  0  0  0  0  0  0  0  0  0  0
  148.9066  141.0167  155.5782 C   0  0  0  0  0  0  0  0  0  0  0  0
  149.1692  142.0726  156.5889 N   0  3  0  0  0  0  0  0  0  0  0  0
  148.2154  142.0567  157.7246 C   0  0  0  0  0  0  0  0  0  0  0  0
  148.5050  143.2298  158.6752 C   0  0  0  0  0  0  0  0  0  0  0  0
  149.8493  143.1476  159.1333 O   0  0  0  0  0  0  0  0  0  0  0  0
  150.7836  143.2356  158.0642 C   0  0  0  0  0  0  0  0  0  0  0  0
  150.5647  142.0685  157.0859 C   0  0  0  0  0  0  0  0  0  0  0  0
  145.4387  136.9318  152.9443 S   0  0  0  0  0  0  0  0  0  0  0  0
  143.0869  135.0086  150.9742 H   0  0  0  0  0  0  0  0  0  0  0  0
  143.3944  134.9380  152.7167 H   0  0  0  0  0  0  0  0  0  0  0  0
  144.3168  133.9024  151.6134 H   0  0  0  0  0  0  0  0  0  0  0  0
  148.2000  138.8710  151.6123 H   0  0  0  0  0  0  0  0  0  0  0  0
  148.9485  140.4397  152.5238 H   0  0  0  0  0  0  0  0  0  0  0  0
  149.1391  142.2983  153.8445 H   0  0  0  0  0  0  0  0  0  0  0  0
  147.1899  143.1588  155.0917 H   0  0  0  0  0  0  0  0  0  0  0  0
  146.2975  141.6774  154.7588 H   0  0  0  0  0  0  0  0  0  0  0  0
  146.7526  142.7520  153.4381 H   0  0  0  0  0  0  0  0  0  0  0  0
  148.1923  140.2974  155.9821 H   0  0  0  0  0  0  0  0  0  0  0  0
  149.8267  140.4586  155.3975 H   0  0  0  0  0  0  0  0  0  0  0  0
  147.1900  142.1283  157.3634 H   0  0  0  0  0  0  0  0  0  0  0  0
  148.2989  141.1113  158.2627 H   0  0  0  0  0  0  0  0  0  0  0  0
  148.3328  144.1865  158.1789 H   0  0  0  0  0  0  0  0  0  0  0  0
  147.8350  143.1915  159.5344 H   0  0  0  0  0  0  0  0  0  0  0  0
  150.6809  144.1951  157.5543 H   0  0  0  0  0  0  0  0  0  0  0  0
  151.7933  143.1991  158.4735 H   0  0  0  0  0  0  0  0  0  0  0  0
  150.7762  141.1182  157.5788 H   0  0  0  0  0  0  0  0  0  0  0  0
  151.2577  142.1595  156.2488 H   0  0  0  0  0  0  0  0  0  0  0  0
  149.0425  142.9562  156.1150 H   0  0  0  0  0  0  0  0  0  0  0  0
  1  2  1  0  0  0  0
  1 20  1  0  0  0  0
  1 21  1  0  0  0  0
  1 22  1  0  0  0  0
  2 19  1  0  0  0  0
  2  3  2  0  0  0  0
  3  4  1  0  0  0  0
  4  5  2  0  0  0  0
  5  6  1  0  0  0  0
  5 19  1  0  0  0  0
  6  7  1  0  0  0  0
  6 23  1  0  0  0  0
  7  8  2  0  0  0  0
  7  9  1  0  0  0  0
  9 10  1  0  0  0  0
  9 24  1  0  0  0  0
 10 11  1  0  0  0  0
 10 12  1  0  0  0  0
 10 25  1  0  0  0  0
 11 26  1  0  0  0  0
 11 27  1  0  0  0  0
 11 28  1  0  0  0  0
 12 13  1  0  0  0  0
 12 29  1  0  0  0  0
 12 30  1  0  0  0  0
 13 18  1  0  0  0  0
 13 14  1  0  0  0  0
 13 39  1  0  0  0  0
 14 15  1  0  0  0  0
 14 31  1  0  0  0  0
 14 32  1  0  0  0  0
 15 16  1  0  0  0  0
 15 33  1  0  0  0  0
 15 34  1  0  0  0  0
 16 17  1  0  0  0  0
 17 18  1  0  0  0  0
 17 35  1  0  0  0  0
 17 36  1  0  0  0  0
 18 37  1  0  0  0  0
 18 38  1  0  0  0  0
M  CHG  1  13   1
M  END
> <s_m_source_file>
AV-unprocessed.smi

> <i_m_source_file_index>
1999

> <i_lp_mmshare_version>
43012

> <i_f3d_flags>
0

> <s_epik_input>
W0NIM11jMW5uYyhzMSlbTkhdQyg9TylbTkhdW0NASF0oW0NIM10pW0NIMl1OMltDSDJdW0NIMl1PW0NIMl1bQ0gyXTI=

> <s_epik_cmdline>
J2VwaWtfcHl0aG9uJywgJy1waCcsICc3LjAnLCAnLXRuJywgJzgnLCAnLW1hJywgJzIwMCcsICctbWV0YWxfYmluZGluZycsICctaW1hZScsICc8aW5maWxlLm1hZT4nLCAnLW9tYWUnLCAnPG91dGZpbGUubWFlPic=

> <r_lp_tautomer_probability>
1

> <r_epik_Ionization_Penalty>
0.701298

> <r_epik_Ionization_Penalty_Charging>
0.695697

> <r_epik_Ionization_Penalty_Neutral>
0.00560124

> <r_epik_State_Penalty>
0.717972

> <r_epik_Charging_Adjusted_Penalty>
1.41367

> <i_epik_Tot_Q>
1

> <i_epik_Tot_abs_Q>
1

> <r_epik_Metal_State_Penalty>
1.07748

> <b_epik_Metal_Only>
0

> <s_lp_Force_Field>
OPLS_2005

> <r_lp_Energy>
20.3005

> <b_lp_Chiralities_Consistent>
1

> <s_lp_Variant>
AV-unprocessed.smi:1999-4

> <Gold.Version>
5.8.1

> <Gold.Id.Protein>
6NUR|6NUR_protein|mol2

> <Gold.PLP.Fitness>
40.0101

> <Gold.PLP.PLP>
-27.5552

> <Gold.PLP.part.hbond>
-5.4271

> <Gold.PLP.part.metal>
0.0000

> <Gold.PLP.part.buried>
-2.4094

> <Gold.PLP.part.nonpolar>
-24.0250

> <Gold.PLP.part.repulsive>
4.3354

> <Gold.PLP.ligand.clash>
0.0000

> <Gold.PLP.ligand.torsion>
1.0354

> <Gold.PLP.Chemscore.Hbond>
4.8256

> <Gold.PLP.Chemscore.CHOScore>
0.0000

> <Gold.PLP.Chemscore.Metal>
0.0000

> <Gold.Chemscore.Hbonds>
donor molecule, donor type, donor heavy atom, donor atom, acceptor molecule, acceptor atom, score
      L1  H     6    23       P1  7957  0.91
      L1  H     9    24       P1  7957  1.00
      L1  H    13    39       P1  8028  2.00
      P1  H  7954  7966       L1     4  0.87

> <Gold.PLP.Chemscore.Internal.Correction>
0.0489

> <Gold.Rescore>
     Score         DG    S(hbond)    S(metal)    S(lipo)     H(rot)  DE(clash)    DE(int)     intcor
     13.38     -18.88       3.34        0.00      54.92       1.63       3.02       2.48       ----

> <Gold.Chemscore.Fitness>
13.3782

> <Gold.Chemscore.DG>
-18.8792

> <Gold.Chemscore.ZeroCoef>
-5.4800

> <Gold.Chemscore.Hbond>
3.3384

> <Gold.Chemscore.Metal>
0.0000

> <Gold.Chemscore.Lipo>
54.9248

> <Gold.Chemscore.Internal_Hbond>
0.0000

> <Gold.Chemscore.DEClash>
3.0197

> <Gold.Chemscore.DEInternal>
2.4813

> <Gold.Chemscore.Rot>
1.6317

> <Gold.Chemscore.Internal.Correction>
   9.000000E+99

> <Gold.Chemscore.Hbonds>
donor molecule, donor type, donor heavy atom, donor atom, acceptor molecule, acceptor atom, score
      L1  H     6    23       P1  7957  0.67
      L1  H     9    24       P1  7957  0.95
      L1  H    13    39       P1  8028  1.00
      P1  H  7954  7966       L1     4  0.19

> <Gold.Chemscore.Hbond.Weighted>
-11.1503

> <Gold.Chemscore.Metal.Weighted>
-0.0000

> <Gold.Chemscore.Lipo.Weighted>
-6.4262

> <Gold.Chemscore.Internal_Hbond.Weighted>
0.0000

> <Gold.Chemscore.DEClash.Weighted>
3.0197

> <Gold.Chemscore.DEInternal.Weighted>
2.4813

> <Gold.Chemscore.Rot.Weighted>
4.1773

> <Gold.Chemscore.Internal.Correction.Weighted>
   9.000000E+99

> <Gold.Protein.RotatedTorsions>
[ 6907 6896 6895 6894 ] final  -26.71 input  -60.11 | X-H torsion
[ 7974 7965 7964 7962 ] final -172.12 input  175.53 | X-H torsion
[ 8008 7997 7996 7995 ] final  -56.67 input   59.86 | X-H torsion
[ 10167 10162 10161 10158 ] final -150.99 input  -65.29 | X-H torsion
[ 10718 10713 10712 10709 ] final   71.18 input   66.30 | X-H torsion
[ 10763 10752 10751 10750 ] final -138.27 input  -60.55 | X-H torsion
[ 11005 11000 10999 10996 ] final   69.41 input  -57.11 | X-H torsion

> <Gold.Protein.ActiveResidues>
 VAL166  LYS551  ARG553  GLY616  TRP617  ASP618  TYR619  PRO620  LYS621  CYS622 
 ASP623  PHE694  ASN695  SER759  ASP760  ASP761  ALA762  ILE779  LEU786  VAL792 
 PHE793  MET794  SER795  GLU796  ALA797  LYS798  CYS799  TRP800  GLU811  SER814 

> <Gold.Protein.RotatedAtoms>
  151.1571  135.0255  159.8693 H   0  0  0  0  0  0  0  0  0  0  0  0  # atno 6907 bound_to 6896
  152.5452  134.1322  159.8454 H   0  0  0  0  0  0  0  0  0  0  0  0  # atno 6908 bound_to 6896
  151.1413  133.4923  159.2629 H   0  0  0  0  0  0  0  0  0  0  0  0  # atno 6909 bound_to 6896
  144.7149  140.1820  143.6357 H   0  0  0  0  0  0  0  0  0  0  0  0  # atno 7974 bound_to 7965
  154.4239  140.1124  156.5675 H   0  0  0  0  0  0  0  0  0  0  0  0  # atno 8008 bound_to 7997
  155.6247  140.3495  155.4644 H   0  0  0  0  0  0  0  0  0  0  0  0  # atno 8009 bound_to 7997
  155.9996  140.1196  157.0550 H   0  0  0  0  0  0  0  0  0  0  0  0  # atno 8010 bound_to 7997
  139.7306  143.8814  152.2533 H   0  0  0  0  0  0  0  0  0  0  0  0  # atno 10167 bound_to 10162
  157.6438  130.9515  150.0753 H   0  0  0  0  0  0  0  0  0  0  0  0  # atno 10718 bound_to 10713
  154.8641  135.3617  154.5357 H   0  0  0  0  0  0  0  0  0  0  0  0  # atno 10763 bound_to 10752
  153.5981  135.7013  153.5400 H   0  0  0  0  0  0  0  0  0  0  0  0  # atno 10764 bound_to 10752
  153.3315  135.4123  155.1460 H   0  0  0  0  0  0  0  0  0  0  0  0  # atno 10765 bound_to 10752
  139.9655  134.6988  156.0554 H   0  0  0  0  0  0  0  0  0  0  0  0  # atno 11005 bound_to 11000
  145.8847  139.2342  143.1584 LP  0  0  0  0  0  0  0  0  0  0  0  0  # atno 17320 bound_to 7965
  145.9961  140.8561  143.0042 LP  0  0  0  0  0  0  0  0  0  0  0  0  # atno 17321 bound_to 7965
  139.8736  144.7055  150.8959 LP  0  0  0  0  0  0  0  0  0  0  0  0  # atno 17342 bound_to 10162
  140.7770  143.3718  151.1635 LP  0  0  0  0  0  0  0  0  0  0  0  0  # atno 17343 bound_to 10162
  156.1745  130.3647  149.9119 LP  0  0  0  0  0  0  0  0  0  0  0  0  # atno 17370 bound_to 10713
  156.7086  130.8961  151.3607 LP  0  0  0  0  0  0  0  0  0  0  0  0  # atno 17371 bound_to 10713
  141.1335  133.6580  156.3528 LP  0  0  0  0  0  0  0  0  0  0  0  0  # atno 17394 bound_to 11000
  140.5405  134.6125  157.5378 LP  0  0  0  0  0  0  0  0  0  0  0  0  # atno 17395 bound_to 11000

$$$$
