#       Name:                AV-unprocessed.smi:470
#       Creating user name   scv26
#       Creation time:       Thu Mar 26 23:07:00 2020


#       File generated by GOLD software.
#

@<TRIPOS>MOLECULE
AV-unprocessed.smi:470
    38    39     1
SMALL
NO_CHARGES


@<TRIPOS>ATOM
      1 ****        -3.1552  -0.6339   1.6600 N.am           1 S1                 0.0000
      2 ****        -2.8833  -0.5214   2.9635 C.2            1 S1                 0.0000
      3 ****        -3.5179   0.2274   3.7038 O.2            1 S1                 0.0000
      4 ****        -1.7444  -1.3799   3.5199 C.3            1 S1                 0.0000
      5 ****        -0.4274  -0.9444   2.9456 C.2            1 S1                 0.0000
      6 ****         0.3988   0.0386   3.4256 C.2            1 S1                 0.0000
      7 ****         1.8212   0.2213   2.4402 S.3            1 S1                 0.0000
      8 ****         1.2335  -1.0544   1.3721 C.2            1 S1                 0.0000
      9 ****         1.8746  -1.5038   0.2795 N.pl3          1 S1                -1.0000
     10 ****         1.6673  -1.0405  -0.9863 C.2            1 S1                 0.0000
     11 ****         2.2652  -1.4495  -1.9797 O.2            1 S1                 0.0000
     12 ****         0.6028   0.0839  -1.1653 C.3            1 S1                 0.0000
     13 ****         1.2143   1.4962  -0.9860 C.3            1 S1                 0.0000
     14 ****         1.8563   2.0418  -2.2492 C.2            1 S1                 0.0000
     15 ****         1.6086   1.5595  -3.4779 C.2            1 S1                 0.0000
     16 ****         0.6640   0.4048  -3.7536 C.3            1 S1                 0.0000
     17 ****        -0.1600  -0.0039  -2.5120 C.3            1 S1                 0.0000
     18 ****         0.0740  -1.5671   1.7991 N.2            1 S1                 0.0000
     19 ****        -3.8848  -0.0715   1.2474 H              1 S1                 0.0000
     20 ****        -2.6147  -1.2678   1.0886 H              1 S1                 0.0000
     21 ****        -1.7303  -1.3014   4.6077 H              1 S1                 0.0000
     22 ****        -1.9429  -2.4275   3.2898 H              1 S1                 0.0000
     23 ****         0.2559   0.6660   4.2925 H              1 S1                 0.0000
     24 ****        -0.1737  -0.0339  -0.4111 H              1 S1                 0.0000
     25 ****         0.4445   2.1989  -0.6665 H              1 S1                 0.0000
     26 ****         1.9692   1.4927  -0.2000 H              1 S1                 0.0000
     27 ****         2.5287   2.8784  -2.1283 H              1 S1                 0.0000
     28 ****         2.1043   1.9946  -4.3330 H              1 S1                 0.0000
     29 ****        -0.0086   0.6810  -4.5658 H              1 S1                 0.0000
     30 ****         1.2543  -0.4352  -4.1192 H              1 S1                 0.0000
     31 ****        -0.5670  -1.0059  -2.6545 H              1 S1                 0.0000
     32 ****        -1.0263   0.6555  -2.4471 H              1 S1                 0.0000
     33 ****        -4.2664   0.7786   3.3351 LP             1 S1                 0.0000
     34 ****        -3.2856   0.2854   4.6747 LP             1 S1                 0.0000
     35 ****         2.5515  -2.2293   0.4036 LP             1 S1                 0.0000
     36 ****         2.9545  -2.1680  -1.8878 LP             1 S1                 0.0000
     37 ****         2.0621  -1.0635  -2.8796 LP             1 S1                 0.0000
     38 ****        -0.3905  -2.3249   1.3409 LP             1 S1                 0.0000
@<TRIPOS>BOND
    1    1    2 am    
    2    1   19 1     
    3    1   20 1     
    4    2    3 2     
    5    2    4 1     
    6    4    5 1     
    7    4   21 1     
    8    4   22 1     
    9    5   18 1     
   10    5    6 2     
   11    6    7 1     
   12    6   23 1     
   13    7    8 1     
   14    8    9 1     
   15    8   18 2     
   16    9   10 1     
   17   10   11 2     
   18   10   12 1     
   19   12   17 1     
   20   12   13 1     
   21   12   24 1     
   22   13   14 1     
   23   13   25 1     
   24   13   26 1     
   25   14   15 2     
   26   14   27 1     
   27   15   16 1     
   28   15   28 1     
   29   16   17 1     
   30   16   29 1     
   31   16   30 1     
   32   17   31 1     
   33   17   32 1     
   34    3   33 1     
   35    3   34 1     
   36    9   35 1     
   37   11   36 1     
   38   11   37 1     
   39   18   38 1     
@<TRIPOS>SUBSTRUCTURE
      1 S1             1
@<TRIPOS>SET
LONE_PAIRS      STATIC     ATOMS    <user>   **** ""
6 33 34 35 36 37 38
DONOR_HYDROGENS      STATIC     ATOMS    <user>   **** ""
2 19 20
ATOM$BLUE        STATIC     ATOMS    COLORGROUP SYSTEM
6 33 34 35 36 37 38
ATOM$RED        STATIC     ATOMS    COLORGROUP SYSTEM
2 19 20
