AV-unprocessed.smi:1217|AV-procd|sdf|5103|dock1
  -GOLD-   22720 4153D 1   1.00000     0.00000
 Structure written by MMmdl.
 34 35  0  0  0  0  0  0  0  0  1 V2000
  148.2647  140.8334  153.8345 C   0  0  0  0  0  0  0  0  0  0  0  0
  147.4993  141.3110  155.0774 C   0  0  1  0  0  0  0  0  0  0  0  0
  148.3597  142.2142  155.8407 N   0  0  0  0  0  0  0  0  0  0  0  0
  149.2383  141.8511  156.7874 C   0  0  0  0  0  0  0  0  0  0  0  0
  149.4222  140.6843  157.1351 O   0  0  0  0  0  0  0  0  0  0  0  0
  149.8723  142.9223  157.2960 N   0  0  0  0  0  0  0  0  0  0  0  0
  150.8587  142.9565  158.3175 C   0  0  0  0  0  0  0  0  0  0  0  0
  151.4597  144.2185  158.5280 C   0  0  0  0  0  0  0  0  0  0  0  0
  152.4506  144.3575  159.5192 C   0  0  0  0  0  0  0  0  0  0  0  0
  152.8153  143.2299  160.2760 C   0  0  0  0  0  0  0  0  0  0  0  0
  152.1675  142.0109  160.0035 C   0  0  0  0  0  0  0  0  0  0  0  0
  151.2181  141.8752  159.0539 N   0  0  0  0  0  0  0  0  0  0  0  0
  146.1766  142.0116  154.7030 C   0  0  2  0  0  0  0  0  0  0  0  0
  146.3132  143.1649  153.7057 C   0  0  0  0  0  0  0  0  0  0  0  0
  145.0768  143.9789  154.0076 C   0  0  0  0  0  0  0  0  0  0  0  0
  144.9933  143.8606  155.5259 C   0  0  0  0  0  0  0  0  0  0  0  0
  145.5802  142.6040  155.8553 O   0  0  0  0  0  0  0  0  0  0  0  0
  147.6733  140.1239  153.2554 H   0  0  0  0  0  0  0  0  0  0  0  0
  149.1924  140.3329  154.1139 H   0  0  0  0  0  0  0  0  0  0  0  0
  148.5193  141.6665  153.1785 H   0  0  0  0  0  0  0  0  0  0  0  0
  147.2641  140.4287  155.6753 H   0  0  0  0  0  0  0  0  0  0  0  0
  148.2769  143.1973  155.6275 H   0  0  0  0  0  0  0  0  0  0  0  0
  149.6158  143.8189  156.9102 H   0  0  0  0  0  0  0  0  0  0  0  0
  151.1672  145.0750  157.9383 H   0  0  0  0  0  0  0  0  0  0  0  0
  152.9217  145.3133  159.6953 H   0  0  0  0  0  0  0  0  0  0  0  0
  153.5706  143.2970  161.0448 H   0  0  0  0  0  0  0  0  0  0  0  0
  152.4178  141.1213  160.5620 H   0  0  0  0  0  0  0  0  0  0  0  0
  145.4677  141.2840  154.3036 H   0  0  0  0  0  0  0  0  0  0  0  0
  147.2065  143.7544  153.9174 H   0  0  0  0  0  0  0  0  0  0  0  0
  146.3615  142.8297  152.6692 H   0  0  0  0  0  0  0  0  0  0  0  0
  145.1450  145.0110  153.6627 H   0  0  0  0  0  0  0  0  0  0  0  0
  144.2032  143.5183  153.5440 H   0  0  0  0  0  0  0  0  0  0  0  0
  145.5774  144.6489  156.0020 H   0  0  0  0  0  0  0  0  0  0  0  0
  143.9689  143.9303  155.8921 H   0  0  0  0  0  0  0  0  0  0  0  0
  1  2  1  0  0  0  0
  1 18  1  0  0  0  0
  1 19  1  0  0  0  0
  1 20  1  0  0  0  0
  2  3  1  0  0  0  0
  2 13  1  0  0  0  0
  2 21  1  0  0  0  0
  3  4  1  0  0  0  0
  3 22  1  0  0  0  0
  4  5  2  0  0  0  0
  4  6  1  0  0  0  0
  6  7  1  0  0  0  0
  6 23  1  0  0  0  0
  7 12  1  0  0  0  0
  7  8  2  0  0  0  0
  8  9  1  0  0  0  0
  8 24  1  0  0  0  0
  9 10  2  0  0  0  0
  9 25  1  0  0  0  0
 10 11  1  0  0  0  0
 10 26  1  0  0  0  0
 11 12  2  0  0  0  0
 11 27  1  0  0  0  0
 13 17  1  0  0  0  0
 13 14  1  0  0  0  0
 13 28  1  0  0  0  0
 14 15  1  0  0  0  0
 14 29  1  0  0  0  0
 14 30  1  0  0  0  0
 15 16  1  0  0  0  0
 15 31  1  0  0  0  0
 15 32  1  0  0  0  0
 16 17  1  0  0  0  0
 16 33  1  0  0  0  0
 16 34  1  0  0  0  0
M  END
> <s_m_source_file>
AV-unprocessed.smi

> <i_m_source_file_index>
1217

> <i_lp_mmshare_version>
43012

> <i_f3d_flags>
0

> <s_epik_input>
TzFbQ0gyXVtDSDJdW0NIMl1bQ0BIXTFbQ0BIXShbQ0gzXSlbTkhdQyg9TylbTkhdYzJbY0hdW2NIXVtjSF1bY0hdbjI=

> <s_epik_cmdline>
J2VwaWtfcHl0aG9uJywgJy1waCcsICc3LjAnLCAnLXRuJywgJzgnLCAnLW1hJywgJzIwMCcsICctbWV0YWxfYmluZGluZycsICctaW1hZScsICc8aW5maWxlLm1hZT4nLCAnLW9tYWUnLCAnPG91dGZpbGUubWFlPic=

> <r_lp_tautomer_probability>
1

> <r_epik_Ionization_Penalty>
4.51768e-05

> <r_epik_Ionization_Penalty_Charging>
0

> <r_epik_Ionization_Penalty_Neutral>
4.51768e-05

> <r_epik_State_Penalty>
-0

> <r_epik_Charging_Adjusted_Penalty>
0

> <i_epik_Tot_Q>
0

> <i_epik_Tot_abs_Q>
0

> <r_epik_Metal_State_Penalty>
-0

> <b_epik_Metal_Only>
0

> <s_lp_Force_Field>
OPLS_2005

> <r_lp_Energy>
19.7673

> <b_lp_Chiralities_Consistent>
1

> <s_lp_Variant>
AV-unprocessed.smi:1217-2

> <Gold.Version>
5.8.1

> <Gold.Id.Protein>
6NUR|6NUR_protein|mol2

> <Gold.PLP.Fitness>
40.5124

> <Gold.PLP.PLP>
-35.3872

> <Gold.PLP.part.hbond>
-2.0000

> <Gold.PLP.part.metal>
0.0000

> <Gold.PLP.part.buried>
-3.9893

> <Gold.PLP.part.nonpolar>
-29.9520

> <Gold.PLP.part.repulsive>
0.2500

> <Gold.PLP.ligand.clash>
0.0000

> <Gold.PLP.ligand.torsion>
0.4458

> <Gold.PLP.Chemscore.Hbond>
2.0000

> <Gold.PLP.Chemscore.CHOScore>
0.0000

> <Gold.PLP.Chemscore.Metal>
0.0000

> <Gold.Chemscore.Hbonds>
donor molecule, donor type, donor heavy atom, donor atom, acceptor molecule, acceptor atom, score
      L1  H     3    22       P1  8028  1.00
      L1  H     6    23       P1  8028  1.00

> <Gold.PLP.Chemscore.Internal.Correction>
0.0168

> <Gold.Rescore>
     Score         DG    S(hbond)    S(metal)    S(lipo)     H(rot)  DE(clash)    DE(int)     intcor
     16.58     -18.27       1.93        0.00      81.50       1.25       0.03       1.66       ----

> <Gold.Chemscore.Fitness>
16.5785

> <Gold.Chemscore.DG>
-18.2708

> <Gold.Chemscore.ZeroCoef>
-5.4800

> <Gold.Chemscore.Hbond>
1.9333

> <Gold.Chemscore.Metal>
0.0000

> <Gold.Chemscore.Lipo>
81.4987

> <Gold.Chemscore.Internal_Hbond>
0.0000

> <Gold.Chemscore.DEClash>
0.0276

> <Gold.Chemscore.DEInternal>
1.6647

> <Gold.Chemscore.Rot>
1.2506

> <Gold.Chemscore.Internal.Correction>
   9.000000E+99

> <Gold.Chemscore.Hbonds>
donor molecule, donor type, donor heavy atom, donor atom, acceptor molecule, acceptor atom, score
      L1  H     3    22       P1  8028  0.88
      L1  H     6    23       P1  8028  0.87

> <Gold.Chemscore.Hbond.Weighted>
-6.4571

> <Gold.Chemscore.Metal.Weighted>
-0.0000

> <Gold.Chemscore.Lipo.Weighted>
-9.5353

> <Gold.Chemscore.Internal_Hbond.Weighted>
0.0000

> <Gold.Chemscore.DEClash.Weighted>
0.0276

> <Gold.Chemscore.DEInternal.Weighted>
1.6647

> <Gold.Chemscore.Rot.Weighted>
3.2016

> <Gold.Chemscore.Internal.Correction.Weighted>
   9.000000E+99

> <Gold.Protein.RotatedTorsions>
[ 6907 6896 6895 6894 ] final  170.14 input  -60.11 | X-H torsion
[ 7974 7965 7964 7962 ] final   12.30 input  175.53 | X-H torsion
[ 8008 7997 7996 7995 ] final -144.84 input   59.86 | X-H torsion
[ 10167 10162 10161 10158 ] final  -41.04 input  -65.29 | X-H torsion
[ 10718 10713 10712 10709 ] final  -65.78 input   66.30 | X-H torsion
[ 10763 10752 10751 10750 ] final    3.00 input  -60.55 | X-H torsion
[ 11005 11000 10999 10996 ] final   14.75 input  -57.11 | X-H torsion

> <Gold.Protein.ActiveResidues>
 VAL166  LYS551  ARG553  GLY616  TRP617  ASP618  TYR619  PRO620  LYS621  CYS622 
 ASP623  PHE694  ASN695  SER759  ASP760  ASP761  ALA762  ILE779  LEU786  VAL792 
 PHE793  MET794  SER795  GLU796  ALA797  LYS798  CYS799  TRP800  GLU811  SER814 

> <Gold.Protein.RotatedAtoms>
  151.8208  133.3394  159.3583 H   0  0  0  0  0  0  0  0  0  0  0  0  # atno 6907 bound_to 6896
  150.7295  134.5575  159.5835 H   0  0  0  0  0  0  0  0  0  0  0  0  # atno 6908 bound_to 6896
  152.3007  134.7615  160.0409 H   0  0  0  0  0  0  0  0  0  0  0  0  # atno 6909 bound_to 6896
  146.2354  139.9357  142.8490 H   0  0  0  0  0  0  0  0  0  0  0  0  # atno 7974 bound_to 7965
  155.5335  140.0602  157.2884 H   0  0  0  0  0  0  0  0  0  0  0  0  # atno 8008 bound_to 7997
  154.4476  140.1931  156.0563 H   0  0  0  0  0  0  0  0  0  0  0  0  # atno 8009 bound_to 7997
  156.0635  140.3269  155.7494 H   0  0  0  0  0  0  0  0  0  0  0  0  # atno 8010 bound_to 7997
  140.7015  143.3118  151.3009 H   0  0  0  0  0  0  0  0  0  0  0  0  # atno 10167 bound_to 10162
  156.0650  130.4252  150.1613 H   0  0  0  0  0  0  0  0  0  0  0  0  # atno 10718 bound_to 10713
  153.2886  135.6946  153.7315 H   0  0  0  0  0  0  0  0  0  0  0  0  # atno 10763 bound_to 10752
  153.6275  135.3416  155.3031 H   0  0  0  0  0  0  0  0  0  0  0  0  # atno 10764 bound_to 10752
  154.8517  135.4401  154.1962 H   0  0  0  0  0  0  0  0  0  0  0  0  # atno 10765 bound_to 10752
  140.4660  134.1079  155.7724 H   0  0  0  0  0  0  0  0  0  0  0  0  # atno 11005 bound_to 11000
  145.2001  140.9850  143.4161 LP  0  0  0  0  0  0  0  0  0  0  0  0  # atno 17320 bound_to 7965
  144.9781  139.3811  143.6275 LP  0  0  0  0  0  0  0  0  0  0  0  0  # atno 17321 bound_to 7965
  139.6543  144.0305  152.2649 LP  0  0  0  0  0  0  0  0  0  0  0  0  # atno 17342 bound_to 10162
  139.9851  144.6401  150.7865 LP  0  0  0  0  0  0  0  0  0  0  0  0  # atno 17343 bound_to 10162
  156.9674  130.9824  151.3466 LP  0  0  0  0  0  0  0  0  0  0  0  0  # atno 17370 bound_to 10713
  157.5685  130.8294  149.8360 LP  0  0  0  0  0  0  0  0  0  0  0  0  # atno 17371 bound_to 10713
  141.1599  133.8813  157.1876 LP  0  0  0  0  0  0  0  0  0  0  0  0  # atno 17394 bound_to 11000
  139.9915  135.0063  156.9985 LP  0  0  0  0  0  0  0  0  0  0  0  0  # atno 17395 bound_to 11000

$$$$
