AV-unprocessed.smi:20|AV-procd|sdf|120|dock1
  -GOLD-   2262015293D 1   1.00000     0.00000
 Structure written by MMmdl.
 57 61  0  0  0  0  0  0  0  0  1 V2000
  151.7527  130.6530  156.1080 O   0  0  0  0  0  0  0  0  0  0  0  0
  150.9757  131.4677  155.6158 C   0  0  0  0  0  0  0  0  0  0  0  0
  150.8917  132.9215  156.0474 C   0  0  0  0  0  0  0  0  0  0  0  0
  149.5553  133.4023  155.4314 C   0  0  1  0  0  0  0  0  0  0  0  0
  148.3820  133.2842  156.4412 C   0  0  0  0  0  0  0  0  0  0  0  0
  148.4556  134.3535  157.5458 C   0  0  0  0  0  0  0  0  0  0  0  0
  148.5819  135.7606  156.9458 C   0  0  0  0  0  0  0  0  0  0  0  0
  149.6964  135.8204  156.0032 N   0  0  0  0  0  0  0  0  0  0  0  0
  150.1335  137.0725  155.7185 C   0  0  0  0  0  0  0  0  0  0  0  0
  150.2991  137.4571  154.4245 N   0  0  0  0  0  0  0  0  0  0  0  0
  150.7276  138.6895  154.1361 C   0  0  0  0  0  0  0  0  0  0  0  0
  151.0481  139.6783  154.9726 N   0  0  0  0  0  0  0  0  0  0  0  0
  150.8879  139.2972  156.2719 C   0  0  0  0  0  0  0  0  0  0  0  0
  150.4387  138.0265  156.7295 C   0  0  0  0  0  0  0  0  0  0  0  0
  150.4164  138.0054  158.1194 N   0  0  0  0  0  0  0  0  0  0  0  0
  150.8237  139.1966  158.4637 C   0  0  0  0  0  0  0  0  0  0  0  0
  151.1373  140.0330  157.4168 N   0  0  0  0  0  0  0  0  0  0  0  0
  151.6241  141.3975  157.5149 C   0  0  0  0  0  0  0  0  0  0  0  0
  151.9553  141.8446  158.9635 C   0  0  1  0  0  0  0  0  0  0  0  0
  153.4456  141.6193  159.3280 C   0  0  0  0  0  0  0  0  0  0  0  0
  153.8456  140.2802  159.1216 O   0  0  0  0  0  0  0  0  0  0  0  0
  151.5544  143.3277  159.1766 C   0  0  1  0  0  0  0  0  0  0  0  0
  152.0012  143.9328  160.4972 C   0  0  0  0  0  0  0  0  0  0  0  0
  151.8985  145.4261  160.2158 C   0  0  0  0  0  0  0  0  0  0  0  0
  152.2734  145.5731  158.8529 O   0  0  0  0  0  0  0  0  0  0  0  0
  152.1898  144.3160  158.1877 C   0  0  0  0  0  0  0  0  0  0  0  0
  149.6328  134.8536  154.9061 C   0  0  0  0  0  0  0  0  0  0  0  0
  149.3432  132.4038  154.2684 C   0  0  0  0  0  0  0  0  0  0  0  0
  150.0975  131.2246  154.6461 N   0  0  0  0  0  0  0  0  0  0  0  0
  150.9357  133.0157  157.1317 H   0  0  0  0  0  0  0  0  0  0  0  0
  151.7449  133.4555  155.6273 H   0  0  0  0  0  0  0  0  0  0  0  0
  147.4358  133.4055  155.9123 H   0  0  0  0  0  0  0  0  0  0  0  0
  148.3531  132.2896  156.8883 H   0  0  0  0  0  0  0  0  0  0  0  0
  147.5671  134.2991  158.1753 H   0  0  0  0  0  0  0  0  0  0  0  0
  149.3038  134.1620  158.2030 H   0  0  0  0  0  0  0  0  0  0  0  0
  147.6644  136.0213  156.4164 H   0  0  0  0  0  0  0  0  0  0  0  0
  148.6950  136.4875  157.7496 H   0  0  0  0  0  0  0  0  0  0  0  0
  150.8290  138.9151  153.0848 H   0  0  0  0  0  0  0  0  0  0  0  0
  150.9178  139.4973  159.4973 H   0  0  0  0  0  0  0  0  0  0  0  0
  152.5063  141.4979  156.8814 H   0  0  0  0  0  0  0  0  0  0  0  0
  150.8604  142.0416  157.0790 H   0  0  0  0  0  0  0  0  0  0  0  0
  151.3491  141.2469  159.6465 H   0  0  0  0  0  0  0  0  0  0  0  0
  154.0902  142.2879  158.7565 H   0  0  0  0  0  0  0  0  0  0  0  0
  153.6325  141.8311  160.3795 H   0  0  0  0  0  0  0  0  0  0  0  0
  154.7708  140.2702  158.9290 H   0  0  0  0  0  0  0  0  0  0  0  0
  150.4689  143.4207  159.1099 H   0  0  0  0  0  0  0  0  0  0  0  0
  151.3829  143.6303  161.3426 H   0  0  0  0  0  0  0  0  0  0  0  0
  153.0359  143.6628  160.7132 H   0  0  0  0  0  0  0  0  0  0  0  0
  150.8684  145.7650  160.3340 H   0  0  0  0  0  0  0  0  0  0  0  0
  152.5312  146.0228  160.8729 H   0  0  0  0  0  0  0  0  0  0  0  0
  153.2010  144.0059  157.9221 H   0  0  0  0  0  0  0  0  0  0  0  0
  151.6142  144.4088  157.2667 H   0  0  0  0  0  0  0  0  0  0  0  0
  150.5037  134.9632  154.2577 H   0  0  0  0  0  0  0  0  0  0  0  0
  148.7550  135.0740  154.2966 H   0  0  0  0  0  0  0  0  0  0  0  0
  148.2935  132.1633  154.0960 H   0  0  0  0  0  0  0  0  0  0  0  0
  149.7539  132.7862  153.3328 H   0  0  0  0  0  0  0  0  0  0  0  0
  149.9719  130.3264  154.2017 H   0  0  0  0  0  0  0  0  0  0  0  0
  1  2  2  0  0  0  0
  2 29  1  0  0  0  0
  2  3  1  0  0  0  0
  3  4  1  0  0  0  0
  3 30  1  0  0  0  0
  3 31  1  0  0  0  0
  4 27  1  0  0  0  0
  4  5  1  0  0  0  0
  4 28  1  0  0  0  0
  5  6  1  0  0  0  0
  5 32  1  0  0  0  0
  5 33  1  0  0  0  0
  6  7  1  0  0  0  0
  6 34  1  0  0  0  0
  6 35  1  0  0  0  0
  7  8  1  0  0  0  0
  7 36  1  0  0  0  0
  7 37  1  0  0  0  0
  8  9  1  0  0  0  0
  8 27  1  0  0  0  0
  9 14  1  0  0  0  0
  9 10  2  0  0  0  0
 10 11  1  0  0  0  0
 11 12  2  0  0  0  0
 11 38  1  0  0  0  0
 12 13  1  0  0  0  0
 13 17  1  0  0  0  0
 13 14  2  0  0  0  0
 14 15  1  0  0  0  0
 15 16  2  0  0  0  0
 16 17  1  0  0  0  0
 16 39  1  0  0  0  0
 17 18  1  0  0  0  0
 18 19  1  0  0  0  0
 18 40  1  0  0  0  0
 18 41  1  0  0  0  0
 19 20  1  0  0  0  0
 19 22  1  0  0  0  0
 19 42  1  0  0  0  0
 20 21  1  0  0  0  0
 20 43  1  0  0  0  0
 20 44  1  0  0  0  0
 21 45  1  0  0  0  0
 22 26  1  0  0  0  0
 22 23  1  0  0  0  0
 22 46  1  0  0  0  0
 23 24  1  0  0  0  0
 23 47  1  0  0  0  0
 23 48  1  0  0  0  0
 24 25  1  0  0  0  0
 24 49  1  0  0  0  0
 24 50  1  0  0  0  0
 25 26  1  0  0  0  0
 26 51  1  0  0  0  0
 26 52  1  0  0  0  0
 27 53  1  0  0  0  0
 27 54  1  0  0  0  0
 28 29  1  0  0  0  0
 28 55  1  0  0  0  0
 28 56  1  0  0  0  0
 29 57  1  0  0  0  0
M  END
> <s_m_source_file>
AV-unprocessed.smi

> <i_m_source_file_index>
20

> <i_lp_mmshare_version>
43012

> <i_f3d_flags>
0

> <s_epik_input>
W0NIMl0xW05IXUMoPU8pW0NIMl1bQ0BAXTEyW0NIMl1bQ0gyXVtDSDJdTihbQ0gyXTIpYyhuW2NIXW4zKWMoYzM0KW5bY0hdbjRbQ0gyXVtDQEhdKFtDSDJdW09IXSlbQ0BASF01W0NIMl1bQ0gyXU9bQ0gyXTU=

> <s_epik_cmdline>
J2VwaWtfcHl0aG9uJywgJy1waCcsICc3LjAnLCAnLXRuJywgJzgnLCAnLW1hJywgJzIwMCcsICctbWV0YWxfYmluZGluZycsICctaW1hZScsICc8aW5maWxlLm1hZT4nLCAnLW9tYWUnLCAnPG91dGZpbGUubWFlPic=

> <r_lp_tautomer_probability>
1

> <r_epik_Ionization_Penalty>
0.0019697

> <r_epik_Ionization_Penalty_Charging>
0

> <r_epik_Ionization_Penalty_Neutral>
0.0019697

> <r_epik_State_Penalty>
0.00113613

> <r_epik_Charging_Adjusted_Penalty>
0.00113613

> <i_epik_Tot_Q>
0

> <i_epik_Tot_abs_Q>
0

> <r_epik_Metal_State_Penalty>
-0

> <b_epik_Metal_Only>
0

> <s_lp_Force_Field>
OPLS_2005

> <r_lp_Energy>
57.3449

> <b_lp_Chiralities_Consistent>
1

> <s_lp_Variant>
AV-unprocessed.smi:20-8

> <Gold.Version>
5.8.1

> <Gold.Id.Protein>
6NUR|6NUR_protein|mol2

> <Gold.PLP.Fitness>
47.9798

> <Gold.PLP.PLP>
-44.1371

> <Gold.PLP.part.hbond>
-2.6457

> <Gold.PLP.part.metal>
0.0000

> <Gold.PLP.part.buried>
-6.2289

> <Gold.PLP.part.nonpolar>
-34.7413

> <Gold.PLP.part.repulsive>
0.5057

> <Gold.PLP.ligand.clash>
0.0000

> <Gold.PLP.ligand.torsion>
0.8110

> <Gold.PLP.Chemscore.Hbond>
0.6500

> <Gold.PLP.Chemscore.CHOScore>
1.0000

> <Gold.PLP.Chemscore.Metal>
0.0000

> <Gold.Chemscore.Hbonds>
donor molecule, donor type, donor heavy atom, donor atom, acceptor molecule, acceptor atom, score
      P1  H  7989  7998       L1    12  0.65
      L1  C    11    38       P1  7957  1.00

> <Gold.PLP.Chemscore.Internal.Correction>
0.5147

> <Gold.Rescore>
     Score         DG    S(hbond)    S(metal)    S(lipo)     H(rot)  DE(clash)    DE(int)     intcor
      9.15     -10.12       0.00        0.00      99.56       2.74       0.03       0.94       ----

> <Gold.Chemscore.Fitness>
9.1485

> <Gold.Chemscore.DG>
-10.1193

> <Gold.Chemscore.ZeroCoef>
-5.4800

> <Gold.Chemscore.Hbond>
0.0028

> <Gold.Chemscore.Metal>
0.0000

> <Gold.Chemscore.Lipo>
99.5578

> <Gold.Chemscore.Internal_Hbond>
0.0000

> <Gold.Chemscore.DEClash>
0.0324

> <Gold.Chemscore.DEInternal>
0.9384

> <Gold.Chemscore.Rot>
2.7415

> <Gold.Chemscore.Internal.Correction>
   9.000000E+99

> <Gold.Chemscore.Hbonds>
donor molecule, donor type, donor heavy atom, donor atom, acceptor molecule, acceptor atom, score
      P1  H  7989  7998       L1    12  0.05

> <Gold.Chemscore.Hbond.Weighted>
-0.0092

> <Gold.Chemscore.Metal.Weighted>
-0.0000

> <Gold.Chemscore.Lipo.Weighted>
-11.6483

> <Gold.Chemscore.Internal_Hbond.Weighted>
0.0000

> <Gold.Chemscore.DEClash.Weighted>
0.0324

> <Gold.Chemscore.DEInternal.Weighted>
0.9384

> <Gold.Chemscore.Rot.Weighted>
7.0182

> <Gold.Chemscore.Internal.Correction.Weighted>
   9.000000E+99

> <Gold.Protein.RotatedTorsions>
[ 6907 6896 6895 6894 ] final  172.58 input  -60.11 | X-H torsion
[ 7974 7965 7964 7962 ] final  163.49 input  175.53 | X-H torsion
[ 8008 7997 7996 7995 ] final   63.93 input   59.86 | X-H torsion
[ 10167 10162 10161 10158 ] final  -44.85 input  -65.29 | X-H torsion
[ 10718 10713 10712 10709 ] final  179.63 input   66.30 | X-H torsion
[ 10763 10752 10751 10750 ] final  -19.05 input  -60.55 | X-H torsion
[ 11005 11000 10999 10996 ] final  -26.83 input  -57.11 | X-H torsion

> <Gold.Protein.ActiveResidues>
 VAL166  LYS551  ARG553  GLY616  TRP617  ASP618  TYR619  PRO620  LYS621  CYS622 
 ASP623  PHE694  ASN695  SER759  ASP760  ASP761  ALA762  ILE779  LEU786  VAL792 
 PHE793  MET794  SER795  GLU796  ALA797  LYS798  CYS799  TRP800  GLU811  SER814 

> <Gold.Protein.RotatedAtoms>
  151.7820  133.3350  159.3474 H   0  0  0  0  0  0  0  0  0  0  0  0  # atno 6907 bound_to 6896
  150.7423  134.5922  159.6002 H   0  0  0  0  0  0  0  0  0  0  0  0  # atno 6908 bound_to 6896
  152.3269  134.7310  160.0351 H   0  0  0  0  0  0  0  0  0  0  0  0  # atno 6909 bound_to 6896
  144.7587  139.8190  143.6340 H   0  0  0  0  0  0  0  0  0  0  0  0  # atno 7974 bound_to 7965
  155.6380  140.3496  155.4705 H   0  0  0  0  0  0  0  0  0  0  0  0  # atno 8008 bound_to 7997
  155.9949  140.1201  157.0626 H   0  0  0  0  0  0  0  0  0  0  0  0  # atno 8009 bound_to 7997
  154.4230  140.1112  156.5603 H   0  0  0  0  0  0  0  0  0  0  0  0  # atno 8010 bound_to 7997
  140.6881  143.2909  151.3554 H   0  0  0  0  0  0  0  0  0  0  0  0  # atno 10167 bound_to 10162
  156.8730  130.9790  151.3071 H   0  0  0  0  0  0  0  0  0  0  0  0  # atno 10718 bound_to 10713
  153.5987  135.7000  153.5393 H   0  0  0  0  0  0  0  0  0  0  0  0  # atno 10763 bound_to 10752
  153.3115  135.4100  155.1340 H   0  0  0  0  0  0  0  0  0  0  0  0  # atno 10764 bound_to 10752
  154.8587  135.3673  154.5522 H   0  0  0  0  0  0  0  0  0  0  0  0  # atno 10765 bound_to 10752
  140.9064  133.7489  156.0612 H   0  0  0  0  0  0  0  0  0  0  0  0  # atno 11005 bound_to 11000
  146.1627  139.4747  142.9978 LP  0  0  0  0  0  0  0  0  0  0  0  0  # atno 17320 bound_to 7965
  145.6691  141.0221  143.1667 LP  0  0  0  0  0  0  0  0  0  0  0  0  # atno 17321 bound_to 7965
  139.6257  144.0818  152.2432 LP  0  0  0  0  0  0  0  0  0  0  0  0  # atno 17342 bound_to 10162
  140.0277  144.6105  150.7514 LP  0  0  0  0  0  0  0  0  0  0  0  0  # atno 17343 bound_to 10162
  157.6185  130.8637  149.9068 LP  0  0  0  0  0  0  0  0  0  0  0  0  # atno 17370 bound_to 10713
  156.0717  130.3684  150.0762 LP  0  0  0  0  0  0  0  0  0  0  0  0  # atno 17371 bound_to 10713
  140.8165  134.3339  157.5395 LP  0  0  0  0  0  0  0  0  0  0  0  0  # atno 17394 bound_to 11000
  139.8750  134.9284  156.3451 LP  0  0  0  0  0  0  0  0  0  0  0  0  # atno 17395 bound_to 11000

$$$$
