AV-unprocessed.smi:3219|AV-procd|sdf|12295|dock8
  -GOLD-   2272018133D 1   1.00000     0.00000
 Structure written by MMmdl.
 41 42  0  0  0  0  0  0  0  0  2 V2000
  152.3390  144.7764  160.9472 C   0  0  0  0  0  0  0  0  0  0  0  0
  152.6510  143.3785  160.5187 C   0  0  0  0  0  0  0  0  0  0  0  0
  152.4684  142.7459  159.3174 C   0  0  0  0  0  0  0  0  0  0  0  0
  151.8848  143.2808  158.0353 C   0  0  0  0  0  0  0  0  0  0  0  0
  150.5878  142.5577  157.6426 C   0  0  0  0  0  0  0  0  0  0  0  0
  150.3945  142.5472  156.1788 N   0  3  0  0  0  0  0  0  0  0  0  0
  149.3418  141.6227  155.7144 C   0  0  0  0  0  0  0  0  0  0  0  0
  149.7509  140.1529  155.9201 C   0  0  2  0  0  0  0  0  0  0  0  0
  151.2857  139.9656  155.8593 C   0  0  0  0  0  0  0  0  0  0  0  0
  151.6958  138.5065  155.7684 C   0  0  0  0  0  0  0  0  0  0  0  0
  150.8436  137.5163  155.4558 C   0  0  0  0  0  0  0  0  0  0  0  0
  149.3753  137.7463  155.1517 C   0  0  0  0  0  0  0  0  0  0  0  0
  149.0594  139.2319  154.8961 C   0  0  0  0  0  0  0  0  0  0  0  0
  152.9661  141.4327  159.5497 C   0  0  0  0  0  0  0  0  0  0  0  0
  153.4210  141.2657  160.7782 N   0  0  0  0  0  0  0  0  0  0  0  0
  153.2249  142.4585  161.3762 N   0  0  0  0  0  0  0  0  0  0  0  0
  153.6129  142.6307  162.7627 C   0  0  0  0  0  0  0  0  0  0  0  0
  151.9934  145.3815  160.1096 H   0  0  0  0  0  0  0  0  0  0  0  0
  153.2215  145.2614  161.3649 H   0  0  0  0  0  0  0  0  0  0  0  0
  151.5584  144.7816  161.7081 H   0  0  0  0  0  0  0  0  0  0  0  0
  151.6724  144.3457  158.1360 H   0  0  0  0  0  0  0  0  0  0  0  0
  152.6018  143.2078  157.2172 H   0  0  0  0  0  0  0  0  0  0  0  0
  150.6049  141.5324  158.0147 H   0  0  0  0  0  0  0  0  0  0  0  0
  149.7360  143.0539  158.1095 H   0  0  0  0  0  0  0  0  0  0  0  0
  150.1553  143.4816  155.8797 H   0  0  0  0  0  0  0  0  0  0  0  0
  148.4283  141.8345  156.2719 H   0  0  0  0  0  0  0  0  0  0  0  0
  149.1247  141.8122  154.6623 H   0  0  0  0  0  0  0  0  0  0  0  0
  149.4094  139.8446  156.9100 H   0  0  0  0  0  0  0  0  0  0  0  0
  151.7012  140.4804  154.9922 H   0  0  0  0  0  0  0  0  0  0  0  0
  151.7523  140.4039  156.7422 H   0  0  0  0  0  0  0  0  0  0  0  0
  152.7350  138.2796  155.9575 H   0  0  0  0  0  0  0  0  0  0  0  0
  151.1947  136.4952  155.4208 H   0  0  0  0  0  0  0  0  0  0  0  0
  149.0905  137.1520  154.2831 H   0  0  0  0  0  0  0  0  0  0  0  0
  148.7927  137.3751  155.9953 H   0  0  0  0  0  0  0  0  0  0  0  0
  147.9790  139.3800  154.9144 H   0  0  0  0  0  0  0  0  0  0  0  0
  149.3879  139.5024  153.8916 H   0  0  0  0  0  0  0  0  0  0  0  0
  153.0125  140.6009  158.8622 H   0  0  0  0  0  0  0  0  0  0  0  0
  152.7496  142.9480  163.3481 H   0  0  0  0  0  0  0  0  0  0  0  0
  154.3916  143.3902  162.8341 H   0  0  0  0  0  0  0  0  0  0  0  0
  153.9934  141.6958  163.1767 H   0  0  0  0  0  0  0  0  0  0  0  0
  151.2675  142.2832  155.7449 H   0  0  0  0  0  0  0  0  0  0  0  0
  1  2  1  0  0  0  0
  1 18  1  0  0  0  0
  1 19  1  0  0  0  0
  1 20  1  0  0  0  0
  2 16  1  0  0  0  0
  2  3  2  0  0  0  0
  3  4  1  0  0  0  0
  3 14  1  0  0  0  0
  4  5  1  0  0  0  0
  4 21  1  0  0  0  0
  4 22  1  0  0  0  0
  5  6  1  0  0  0  0
  5 23  1  0  0  0  0
  5 24  1  0  0  0  0
  6  7  1  0  0  0  0
  6 25  1  0  0  0  0
  6 41  1  0  0  0  0
  7  8  1  0  0  0  0
  7 26  1  0  0  0  0
  7 27  1  0  0  0  0
  8 13  1  0  0  0  0
  8  9  1  0  0  0  0
  8 28  1  0  0  0  0
  9 10  1  0  0  0  0
  9 29  1  0  0  0  0
  9 30  1  0  0  0  0
 10 11  2  0  0  0  0
 10 31  1  0  0  0  0
 11 12  1  0  0  0  0
 11 32  1  0  0  0  0
 12 13  1  0  0  0  0
 12 33  1  0  0  0  0
 12 34  1  0  0  0  0
 13 35  1  0  0  0  0
 13 36  1  0  0  0  0
 14 15  2  0  0  0  0
 14 37  1  0  0  0  0
 15 16  1  0  0  0  0
 16 17  1  0  0  0  0
 17 38  1  0  0  0  0
 17 39  1  0  0  0  0
 17 40  1  0  0  0  0
M  CHG  1   6   1
M  END
> <s_m_source_file>
AV-unprocessed.smi

> <i_m_source_file_index>
3219

> <i_lp_mmshare_version>
43012

> <i_f3d_flags>
0

> <s_epik_input>
W0NIM11uMW5bY0hdYyhjMVtDSDNdKVtDSDJdW0NIMl1bTkhdW0NIMl1bQ0BASF0yW0NIMl1bQ0hdPVtDSF1bQ0gyXVtDSDJdMg==

> <s_epik_cmdline>
J2VwaWtfcHl0aG9uJywgJy1waCcsICc3LjAnLCAnLXRuJywgJzgnLCAnLW1hJywgJzIwMCcsICctbWV0YWxfYmluZGluZycsICctaW1hZScsICc8aW5maWxlLm1hZT4nLCAnLW9tYWUnLCAnPG91dGZpbGUubWFlPic=

> <r_lp_tautomer_probability>
1

> <r_epik_Ionization_Penalty>
0.000661401

> <r_epik_Ionization_Penalty_Charging>
0.00057791

> <r_epik_Ionization_Penalty_Neutral>
8.34914e-05

> <r_epik_State_Penalty>
-0

> <r_epik_Charging_Adjusted_Penalty>
0.00057791

> <i_epik_Tot_Q>
1

> <i_epik_Tot_abs_Q>
1

> <r_epik_Metal_State_Penalty>
-0

> <b_epik_Metal_Only>
0

> <s_lp_Force_Field>
OPLS_2005

> <r_lp_Energy>
9.86252

> <b_lp_Chiralities_Consistent>
1

> <s_lp_Variant>
AV-unprocessed.smi:3219-1

> <Gold.Version>
5.8.1

> <Gold.Id.Protein>
6NUR|6NUR_protein|mol2

> <Gold.PLP.Fitness>
50.7929

> <Gold.PLP.PLP>
-46.0121

> <Gold.PLP.part.hbond>
-1.0000

> <Gold.PLP.part.metal>
0.0000

> <Gold.PLP.part.buried>
-2.0634

> <Gold.PLP.part.nonpolar>
-43.1899

> <Gold.PLP.part.repulsive>
0.1353

> <Gold.PLP.ligand.clash>
0.0117

> <Gold.PLP.ligand.torsion>
0.6135

> <Gold.PLP.Chemscore.Hbond>
2.0000

> <Gold.PLP.Chemscore.CHOScore>
0.0000

> <Gold.PLP.Chemscore.Metal>
0.0000

> <Gold.Chemscore.Hbonds>
donor molecule, donor type, donor heavy atom, donor atom, acceptor molecule, acceptor atom, score
      L1  H     6    25       P1  8028  1.95

> <Gold.PLP.Chemscore.Internal.Correction>
0.0194

> <Gold.Rescore>
     Score         DG    S(hbond)    S(metal)    S(lipo)     H(rot)  DE(clash)    DE(int)     intcor
     18.74     -19.55       1.00        0.00     123.64       1.46       0.15       0.66       ----

> <Gold.Chemscore.Fitness>
18.7368

> <Gold.Chemscore.DG>
-19.5489

> <Gold.Chemscore.ZeroCoef>
-5.4800

> <Gold.Chemscore.Hbond>
1.0000

> <Gold.Chemscore.Metal>
0.0000

> <Gold.Chemscore.Lipo>
123.6387

> <Gold.Chemscore.Internal_Hbond>
0.0000

> <Gold.Chemscore.DEClash>
0.1522

> <Gold.Chemscore.DEInternal>
0.6599

> <Gold.Chemscore.Rot>
1.4597

> <Gold.Chemscore.Internal.Correction>
   9.000000E+99

> <Gold.Chemscore.Hbonds>
donor molecule, donor type, donor heavy atom, donor atom, acceptor molecule, acceptor atom, score
      L1  H     6    25       P1  8028  0.93

> <Gold.Chemscore.Hbond.Weighted>
-3.3399

> <Gold.Chemscore.Metal.Weighted>
-0.0000

> <Gold.Chemscore.Lipo.Weighted>
-14.4657

> <Gold.Chemscore.Internal_Hbond.Weighted>
0.0000

> <Gold.Chemscore.DEClash.Weighted>
0.1522

> <Gold.Chemscore.DEInternal.Weighted>
0.6599

> <Gold.Chemscore.Rot.Weighted>
3.7368

> <Gold.Chemscore.Internal.Correction.Weighted>
   9.000000E+99

> <Gold.Protein.RotatedTorsions>
[ 6907 6896 6895 6894 ] final   89.17 input  -60.11 | X-H torsion
[ 7974 7965 7964 7962 ] final   85.31 input  175.53 | X-H torsion
[ 8008 7997 7996 7995 ] final  -30.23 input   59.86 | X-H torsion
[ 10167 10162 10161 10158 ] final  179.22 input  -65.29 | X-H torsion
[ 10718 10713 10712 10709 ] final  171.95 input   66.30 | X-H torsion
[ 10763 10752 10751 10750 ] final  -35.45 input  -60.55 | X-H torsion
[ 11005 11000 10999 10996 ] final  -53.66 input  -57.11 | X-H torsion

> <Gold.Protein.ActiveResidues>
 VAL166  LYS551  ARG553  GLY616  TRP617  ASP618  TYR619  PRO620  LYS621  CYS622 
 ASP623  PHE694  ASN695  SER759  ASP760  ASP761  ALA762  ILE779  LEU786  VAL792 
 PHE793  MET794  SER795  GLU796  ALA797  LYS798  CYS799  TRP800  GLU811  SER814 

> <Gold.Protein.RotatedAtoms>
  152.5433  134.2007  159.8710 H   0  0  0  0  0  0  0  0  0  0  0  0  # atno 6907 bound_to 6896
  151.1996  133.4612  159.2603 H   0  0  0  0  0  0  0  0  0  0  0  0  # atno 6908 bound_to 6896
  151.1002  134.9980  159.8500 H   0  0  0  0  0  0  0  0  0  0  0  0  # atno 6909 bound_to 6896
  145.5872  139.2333  143.2320 H   0  0  0  0  0  0  0  0  0  0  0  0  # atno 7974 bound_to 7965
  154.4258  140.1797  156.1374 H   0  0  0  0  0  0  0  0  0  0  0  0  # atno 8008 bound_to 7997
  156.0019  140.3359  155.6829 H   0  0  0  0  0  0  0  0  0  0  0  0  # atno 8009 bound_to 7997
  155.6231  140.0662  157.2663 H   0  0  0  0  0  0  0  0  0  0  0  0  # atno 8010 bound_to 7997
  139.5327  144.2587  152.0725 H   0  0  0  0  0  0  0  0  0  0  0  0  # atno 10167 bound_to 10162
  156.9861  131.0134  151.2869 H   0  0  0  0  0  0  0  0  0  0  0  0  # atno 10718 bound_to 10713
  153.8634  135.6838  153.4781 H   0  0  0  0  0  0  0  0  0  0  0  0  # atno 10763 bound_to 10752
  153.1329  135.4690  154.9374 H   0  0  0  0  0  0  0  0  0  0  0  0  # atno 10764 bound_to 10752
  154.7748  135.3250  154.8065 H   0  0  0  0  0  0  0  0  0  0  0  0  # atno 10765 bound_to 10752
  141.0987  133.6621  156.4205 H   0  0  0  0  0  0  0  0  0  0  0  0  # atno 11005 bound_to 11000
  146.1674  140.6698  142.9249 LP  0  0  0  0  0  0  0  0  0  0  0  0  # atno 17320 bound_to 7965
  144.7367  140.4829  143.6898 LP  0  0  0  0  0  0  0  0  0  0  0  0  # atno 17321 bound_to 7965
  140.2053  144.4617  150.6412 LP  0  0  0  0  0  0  0  0  0  0  0  0  # atno 17342 bound_to 10162
  140.6515  143.2226  151.6066 LP  0  0  0  0  0  0  0  0  0  0  0  0  # atno 17343 bound_to 10162
  157.5492  130.8171  149.8123 LP  0  0  0  0  0  0  0  0  0  0  0  0  # atno 17370 bound_to 10713
  156.0225  130.3790  150.1919 LP  0  0  0  0  0  0  0  0  0  0  0  0  # atno 17371 bound_to 10713
  140.5076  134.6426  157.5272 LP  0  0  0  0  0  0  0  0  0  0  0  0  # atno 17394 bound_to 11000
  139.9832  134.7104  155.9822 LP  0  0  0  0  0  0  0  0  0  0  0  0  # atno 17395 bound_to 11000

$$$$
