#       Name:                AV-unprocessed.smi:3285
#       Creating user name   scv26
#       Creation time:       Fri Mar 27 18:50:55 2020


#       File generated by GOLD software.
#

@<TRIPOS>MOLECULE
AV-unprocessed.smi:3285
    48    49     1
SMALL
NO_CHARGES


@<TRIPOS>ATOM
      1 ****        -3.1700   1.4413   3.7988 C.3            1 S1                 0.0000
      2 ****        -3.3787   1.7549   2.3452 C.2            1 S1                 0.0000
      3 ****        -3.7561   2.9729   1.9967 N.2            1 S1                 0.0000
      4 ****        -3.8679   2.9566   0.6038 O.3            1 S1                 0.0000
      5 ****        -3.5497   1.7143   0.1616 C.2            1 S1                 0.0000
      6 ****        -3.6067   1.5044  -1.3140 C.3            1 S1                 0.0000
      7 ****        -3.2260   0.9012   1.2141 C.2            1 S1                 0.0000
      8 ****        -2.8053  -0.5469   1.1948 C.3            1 S1                 0.0000
      9 ****        -1.2775  -0.7076   1.2183 C.3            1 S1                 0.0000
     10 ****        -0.6515  -0.0838   0.0326 N.4            1 S1                 1.0000
     11 ****         0.8272  -0.0576   0.0324 C.3            1 S1                 0.0000
     12 ****         1.3245   0.9678  -1.0016 C.3            1 S1                 0.0000
     13 ****         2.8605   1.0039  -1.0693 C.3            1 S1                 0.0000
     14 ****         3.4646  -0.3830  -1.3693 C.3            1 S1                 0.0000
     15 ****         3.2318  -0.7988  -2.8361 C.3            1 S1                 0.0000
     16 ****         2.9613  -1.4155  -0.3282 C.3            1 S1                 0.0000
     17 ****         3.5582  -2.8188  -0.5262 C.3            1 S1                 0.0000
     18 ****         1.4208  -1.4528  -0.2572 C.3            1 S1                 0.0000
     19 ****        -2.5874   0.5302   3.9318 H              1 S1                 0.0000
     20 ****        -4.1239   1.3025   4.3074 H              1 S1                 0.0000
     21 ****        -2.6375   2.2472   4.3046 H              1 S1                 0.0000
     22 ****        -3.3577   0.4767  -1.5777 H              1 S1                 0.0000
     23 ****        -2.9029   2.1621  -1.8240 H              1 S1                 0.0000
     24 ****        -4.6058   1.7169  -1.6947 H              1 S1                 0.0000
     25 ****        -3.2259  -1.0750   2.0512 H              1 S1                 0.0000
     26 ****        -3.2077  -1.0574   0.3192 H              1 S1                 0.0000
     27 ****        -0.8731  -0.2561   2.1253 H              1 S1                 0.0000
     28 ****        -1.0263  -1.7677   1.2486 H              1 S1                 0.0000
     29 ****        -0.9728  -0.5534  -0.8019 H              1 S1                 0.0000
     30 ****         1.1617   0.2735   1.0171 H              1 S1                 0.0000
     31 ****         0.9177   0.7328  -1.9858 H              1 S1                 0.0000
     32 ****         0.9507   1.9608  -0.7490 H              1 S1                 0.0000
     33 ****         3.1839   1.7279  -1.8181 H              1 S1                 0.0000
     34 ****         3.2485   1.3657  -0.1161 H              1 S1                 0.0000
     35 ****         4.5447  -0.2923  -1.2445 H              1 S1                 0.0000
     36 ****         2.1783  -0.9707  -3.0545 H              1 S1                 0.0000
     37 ****         3.7741  -1.7108  -3.0840 H              1 S1                 0.0000
     38 ****         3.5861  -0.0262  -3.5191 H              1 S1                 0.0000
     39 ****         3.3135  -1.0726   0.6461 H              1 S1                 0.0000
     40 ****         3.1926  -3.2895  -1.4389 H              1 S1                 0.0000
     41 ****         3.2964  -3.4742   0.3049 H              1 S1                 0.0000
     42 ****         4.6463  -2.7794  -0.5814 H              1 S1                 0.0000
     43 ****         1.1217  -2.1534   0.5224 H              1 S1                 0.0000
     44 ****         1.0135  -1.8451  -1.1897 H              1 S1                 0.0000
     45 ****        -0.9700   0.8744   0.0023 H              1 S1                 0.0000
     46 ****        -3.9267   3.7477   2.6055 LP             1 S1                 0.0000
     47 ****        -3.2407   3.6269   0.2071 LP             1 S1                 0.0000
     48 ****        -4.8058   3.1795   0.3380 LP             1 S1                 0.0000
@<TRIPOS>BOND
    1    1    2 1     
    2    1   19 1     
    3    1   20 1     
    4    1   21 1     
    5    2    7 1     
    6    2    3 2     
    7    3    4 1     
    8    4    5 1     
    9    5    6 1     
   10    5    7 2     
   11    6   22 1     
   12    6   23 1     
   13    6   24 1     
   14    7    8 1     
   15    8    9 1     
   16    8   25 1     
   17    8   26 1     
   18    9   10 1     
   19    9   27 1     
   20    9   28 1     
   21   10   11 1     
   22   10   29 1     
   23   10   45 1     
   24   11   18 1     
   25   11   12 1     
   26   11   30 1     
   27   12   13 1     
   28   12   31 1     
   29   12   32 1     
   30   13   14 1     
   31   13   33 1     
   32   13   34 1     
   33   14   15 1     
   34   14   16 1     
   35   14   35 1     
   36   15   36 1     
   37   15   37 1     
   38   15   38 1     
   39   16   17 1     
   40   16   18 1     
   41   16   39 1     
   42   17   40 1     
   43   17   41 1     
   44   17   42 1     
   45   18   43 1     
   46   18   44 1     
   47    3   46 1     
   48    4   47 1     
   49    4   48 1     
@<TRIPOS>SUBSTRUCTURE
      1 S1             1
@<TRIPOS>SET
LONE_PAIRS      STATIC     ATOMS    <user>   **** ""
3 46 47 48
DONOR_HYDROGENS      STATIC     ATOMS    <user>   **** ""
2 29 45
ATOM$BLUE        STATIC     ATOMS    COLORGROUP SYSTEM
3 46 47 48
ATOM$RED        STATIC     ATOMS    COLORGROUP SYSTEM
2 29 45
