AV-unprocessed.smi:1978|AV-procd|sdf|8005|dock10
  -GOLD-   2272010193D 1   1.00000     0.00000
 Structure written by MMmdl.
 44 45  0  0  0  0  0  0  0  0  3 V2000
  153.6548  141.5500  160.1236 C   0  0  0  0  0  0  0  0  0  0  0  0
  152.8178  141.2765  158.9209 C   0  0  0  0  0  0  0  0  0  0  0  0
  151.7707  141.9418  158.3490 C   0  0  0  0  0  0  0  0  0  0  0  0
  151.4401  141.1275  157.2314 C   0  0  0  0  0  0  0  0  0  0  0  0
  150.4691  141.3700  156.3376 N   0  5  0  0  0  0  0  0  0  0  0  0
  150.1212  140.4237  155.4363 C   0  0  0  0  0  0  0  0  0  0  0  0
  150.8827  139.8037  154.6904 O   0  0  0  0  0  0  0  0  0  0  0  0
  148.8057  140.1787  155.3967 N   0  0  0  0  0  0  0  0  0  0  0  0
  148.1576  139.2131  154.5192 C   0  0  0  0  0  0  0  0  0  0  0  0
  146.8489  139.7838  153.9260 C   0  0  1  0  0  0  0  0  0  0  0  0
  147.0623  141.1320  153.2064 C   0  0  0  0  0  0  0  0  0  0  0  0
  146.1254  138.8027  153.0537 N   0  3  1  0  0  0  0  0  0  0  0  0
  146.8319  138.4957  151.7751 C   0  0  0  0  0  0  0  0  0  0  0  0
  145.9286  137.7155  150.8087 C   0  0  0  0  0  0  0  0  0  0  0  0
  145.4376  136.4196  151.4576 C   0  0  0  0  0  0  0  0  0  0  0  0
  144.7417  136.7404  152.7843 C   0  0  0  0  0  0  0  0  0  0  0  0
  145.6551  137.5485  153.7321 C   0  0  2  0  0  0  0  0  0  0  0  0
  144.9057  137.8021  155.0560 C   0  0  0  0  0  0  0  0  0  0  0  0
  152.2288  140.0715  157.1242 N   0  0  0  0  0  0  0  0  0  0  0  0
  153.1110  140.1558  158.2080 O   0  0  0  0  0  0  0  0  0  0  0  0
  154.2709  142.4357  159.9701 H   0  0  0  0  0  0  0  0  0  0  0  0
  154.3167  140.7114  160.3417 H   0  0  0  0  0  0  0  0  0  0  0  0
  153.0276  141.7206  160.9986 H   0  0  0  0  0  0  0  0  0  0  0  0
  151.3114  142.8617  158.6785 H   0  0  0  0  0  0  0  0  0  0  0  0
  148.2147  140.7076  156.0215 H   0  0  0  0  0  0  0  0  0  0  0  0
  148.8560  138.9448  153.7258 H   0  0  0  0  0  0  0  0  0  0  0  0
  147.9595  138.3082  155.0942 H   0  0  0  0  0  0  0  0  0  0  0  0
  146.1921  140.0360  154.7561 H   0  0  0  0  0  0  0  0  0  0  0  0
  147.3481  141.9126  153.9121 H   0  0  0  0  0  0  0  0  0  0  0  0
  146.1482  141.4661  152.7148 H   0  0  0  0  0  0  0  0  0  0  0  0
  147.8516  141.0806  152.4570 H   0  0  0  0  0  0  0  0  0  0  0  0
  147.1498  139.4077  151.2733 H   0  0  0  0  0  0  0  0  0  0  0  0
  147.7340  137.9169  151.9775 H   0  0  0  0  0  0  0  0  0  0  0  0
  145.0757  138.3320  150.5211 H   0  0  0  0  0  0  0  0  0  0  0  0
  146.4717  137.4890  149.8906 H   0  0  0  0  0  0  0  0  0  0  0  0
  144.7540  135.8963  150.7882 H   0  0  0  0  0  0  0  0  0  0  0  0
  146.2802  135.7494  151.6330 H   0  0  0  0  0  0  0  0  0  0  0  0
  143.8268  137.3015  152.5877 H   0  0  0  0  0  0  0  0  0  0  0  0
  144.4341  135.8094  153.2618 H   0  0  0  0  0  0  0  0  0  0  0  0
  146.5275  136.9331  153.9562 H   0  0  0  0  0  0  0  0  0  0  0  0
  144.4678  136.8794  155.4377 H   0  0  0  0  0  0  0  0  0  0  0  0
  144.0952  138.5200  154.9251 H   0  0  0  0  0  0  0  0  0  0  0  0
  145.5679  138.1689  155.8400 H   0  0  0  0  0  0  0  0  0  0  0  0
  145.2798  139.2839  152.7834 H   0  0  0  0  0  0  0  0  0  0  0  0
  1  2  1  0  0  0  0
  1 21  1  0  0  0  0
  1 22  1  0  0  0  0
  1 23  1  0  0  0  0
  2 20  1  0  0  0  0
  2  3  2  0  0  0  0
  3  4  1  0  0  0  0
  3 24  1  0  0  0  0
  4  5  1  0  0  0  0
  4 19  2  0  0  0  0
  5  6  1  0  0  0  0
  6  7  2  0  0  0  0
  6  8  1  0  0  0  0
  8  9  1  0  0  0  0
  8 25  1  0  0  0  0
  9 10  1  0  0  0  0
  9 26  1  0  0  0  0
  9 27  1  0  0  0  0
 10 11  1  0  0  0  0
 10 12  1  0  0  0  0
 10 28  1  0  0  0  0
 11 29  1  0  0  0  0
 11 30  1  0  0  0  0
 11 31  1  0  0  0  0
 12 17  1  0  0  0  0
 12 13  1  0  0  0  0
 12 44  1  0  0  0  0
 13 14  1  0  0  0  0
 13 32  1  0  0  0  0
 13 33  1  0  0  0  0
 14 15  1  0  0  0  0
 14 34  1  0  0  0  0
 14 35  1  0  0  0  0
 15 16  1  0  0  0  0
 15 36  1  0  0  0  0
 15 37  1  0  0  0  0
 16 17  1  0  0  0  0
 16 38  1  0  0  0  0
 16 39  1  0  0  0  0
 17 18  1  0  0  0  0
 17 40  1  0  0  0  0
 18 41  1  0  0  0  0
 18 42  1  0  0  0  0
 18 43  1  0  0  0  0
 19 20  1  0  0  0  0
M  CHG  1   5  -1
M  CHG  1  12   1
M  END
> <s_m_source_file>
AV-unprocessed.smi

> <i_m_source_file_index>
1978

> <i_lp_mmshare_version>
43012

> <i_f3d_flags>
0

> <s_epik_input>
W0NIM11jMVtjSF1jKG5vMSlbTkhdQyg9TylbTkhdW0NIMl1bQ0BIXShbQ0gzXSlOMltDSDJdW0NIMl1bQ0gyXVtDSDJdW0NASF0yW0NIM10=

> <s_epik_cmdline>
J2VwaWtfcHl0aG9uJywgJy1waCcsICc3LjAnLCAnLXRuJywgJzgnLCAnLW1hJywgJzIwMCcsICctbWV0YWxfYmluZGluZycsICctaW1hZScsICc8aW5maWxlLm1hZT4nLCAnLW9tYWUnLCAnPG91dGZpbGUubWFlPic=

> <r_epik_Ionization_Penalty>
6.22372

> <r_epik_Ionization_Penalty_Charging>
6.22362

> <r_epik_Ionization_Penalty_Neutral>
9.65074e-05

> <r_epik_State_Penalty>
6.22363

> <r_epik_Charging_Adjusted_Penalty>
12.4472

> <i_epik_Tot_Q>
0

> <i_epik_Tot_abs_Q>
2

> <r_epik_Metal_State_Penalty>
2.16675

> <b_epik_Metal_Only>
1

> <s_lp_Force_Field>
OPLS_2005

> <r_lp_Energy>
11.9993

> <b_lp_Chiralities_Consistent>
1

> <s_lp_Variant>
AV-unprocessed.smi:1978-14

> <Gold.Version>
5.8.1

> <Gold.Id.Protein>
6NUR|6NUR_protein|mol2

> <Gold.PLP.Fitness>
38.6263

> <Gold.PLP.PLP>
-28.5775

> <Gold.PLP.part.hbond>
-3.5767

> <Gold.PLP.part.metal>
0.0000

> <Gold.PLP.part.buried>
2.3435

> <Gold.PLP.part.nonpolar>
-27.4678

> <Gold.PLP.part.repulsive>
0.1868

> <Gold.PLP.ligand.clash>
0.0000

> <Gold.PLP.ligand.torsion>
0.6593

> <Gold.PLP.Chemscore.Hbond>
3.7448

> <Gold.PLP.Chemscore.CHOScore>
0.0000

> <Gold.PLP.Chemscore.Metal>
0.0000

> <Gold.Chemscore.Hbonds>
donor molecule, donor type, donor heavy atom, donor atom, acceptor molecule, acceptor atom, score
      L1  H    12    44       P1 10175  2.00
      P1  H  7989  7998       L1     7  1.00
      P1  H  7997  8008       L1    20  0.71

> <Gold.PLP.Chemscore.Internal.Correction>
0.1331

> <Gold.Rescore>
     Score         DG    S(hbond)    S(metal)    S(lipo)     H(rot)  DE(clash)    DE(int)     intcor
     14.65     -18.96       2.45        0.00      78.40       1.52       2.33       1.98       ----

> <Gold.Chemscore.Fitness>
14.6485

> <Gold.Chemscore.DG>
-18.9590

> <Gold.Chemscore.ZeroCoef>
-5.4800

> <Gold.Chemscore.Hbond>
2.4536

> <Gold.Chemscore.Metal>
0.0000

> <Gold.Chemscore.Lipo>
78.3982

> <Gold.Chemscore.Internal_Hbond>
0.0000

> <Gold.Chemscore.DEClash>
2.3303

> <Gold.Chemscore.DEInternal>
1.9802

> <Gold.Chemscore.Rot>
1.5190

> <Gold.Chemscore.Internal.Correction>
   9.000000E+99

> <Gold.Chemscore.Hbonds>
donor molecule, donor type, donor heavy atom, donor atom, acceptor molecule, acceptor atom, score
      L1  H    12    44       P1 10175  0.95
      P1  H  7989  7998       L1     7  0.82
      P1  H  7997  8008       L1    20  0.13

> <Gold.Chemscore.Hbond.Weighted>
-8.1951

> <Gold.Chemscore.Metal.Weighted>
-0.0000

> <Gold.Chemscore.Lipo.Weighted>
-9.1726

> <Gold.Chemscore.Internal_Hbond.Weighted>
0.0000

> <Gold.Chemscore.DEClash.Weighted>
2.3303

> <Gold.Chemscore.DEInternal.Weighted>
1.9802

> <Gold.Chemscore.Rot.Weighted>
3.8886

> <Gold.Chemscore.Internal.Correction.Weighted>
   9.000000E+99

> <Gold.Protein.RotatedTorsions>
[ 6907 6896 6895 6894 ] final   56.53 input  -60.11 | X-H torsion
[ 7974 7965 7964 7962 ] final  -31.96 input  175.53 | X-H torsion
[ 8008 7997 7996 7995 ] final -102.56 input   59.86 | X-H torsion
[ 10167 10162 10161 10158 ] final  -91.41 input  -65.29 | X-H torsion
[ 10718 10713 10712 10709 ] final -143.89 input   66.30 | X-H torsion
[ 10763 10752 10751 10750 ] final   52.43 input  -60.55 | X-H torsion
[ 11005 11000 10999 10996 ] final   55.52 input  -57.11 | X-H torsion

> <Gold.Protein.ActiveResidues>
 VAL166  LYS551  ARG553  GLY616  TRP617  ASP618  TYR619  PRO620  LYS621  CYS622 
 ASP623  PHE694  ASN695  SER759  ASP760  ASP761  ALA762  ILE779  LEU786  VAL792 
 PHE793  MET794  SER795  GLU796  ALA797  LYS798  CYS799  TRP800  GLU811  SER814 

> <Gold.Protein.RotatedAtoms>
  152.3645  134.6824  160.0196 H   0  0  0  0  0  0  0  0  0  0  0  0  # atno 6907 bound_to 6896
  151.7136  133.3307  159.3305 H   0  0  0  0  0  0  0  0  0  0  0  0  # atno 6908 bound_to 6896
  150.7628  134.6444  159.6299 H   0  0  0  0  0  0  0  0  0  0  0  0  # atno 6909 bound_to 6896
  146.1027  140.5732  142.8813 H   0  0  0  0  0  0  0  0  0  0  0  0  # atno 7974 bound_to 7965
  154.8584  140.0428  157.1649 H   0  0  0  0  0  0  0  0  0  0  0  0  # atno 8008 bound_to 7997
  154.8867  140.2980  155.5373 H   0  0  0  0  0  0  0  0  0  0  0  0  # atno 8009 bound_to 7997
  156.2998  140.2401  156.3877 H   0  0  0  0  0  0  0  0  0  0  0  0  # atno 8010 bound_to 7997
  140.3451  143.2921  151.9790 H   0  0  0  0  0  0  0  0  0  0  0  0  # atno 10167 bound_to 10162
  156.3635  130.7750  151.1921 H   0  0  0  0  0  0  0  0  0  0  0  0  # atno 10718 bound_to 10713
  152.9789  135.5813  154.4577 H   0  0  0  0  0  0  0  0  0  0  0  0  # atno 10763 bound_to 10752
  154.4157  135.2771  155.2010 H   0  0  0  0  0  0  0  0  0  0  0  0  # atno 10764 bound_to 10752
  154.3780  135.6153  153.5829 H   0  0  0  0  0  0  0  0  0  0  0  0  # atno 10765 bound_to 10752
  140.0601  134.5615  155.9162 H   0  0  0  0  0  0  0  0  0  0  0  0  # atno 11005 bound_to 11000
  144.7446  140.5033  143.6845 LP  0  0  0  0  0  0  0  0  0  0  0  0  # atno 17320 bound_to 7965
  145.5822  139.1489  143.3229 LP  0  0  0  0  0  0  0  0  0  0  0  0  # atno 17321 bound_to 7965
  139.4834  144.6123  151.7410 LP  0  0  0  0  0  0  0  0  0  0  0  0  # atno 17342 bound_to 10162
  140.5272  144.0787  150.6041 LP  0  0  0  0  0  0  0  0  0  0  0  0  # atno 17343 bound_to 10162
  157.7476  131.0393  150.4544 LP  0  0  0  0  0  0  0  0  0  0  0  0  # atno 17370 bound_to 10713
  156.4759  130.4063  149.6490 LP  0  0  0  0  0  0  0  0  0  0  0  0  # atno 17371 bound_to 10713
  141.1969  133.6594  156.5716 LP  0  0  0  0  0  0  0  0  0  0  0  0  # atno 17394 bound_to 11000
  140.3784  134.7545  157.4645 LP  0  0  0  0  0  0  0  0  0  0  0  0  # atno 17395 bound_to 11000

$$$$
