#       Name:                AV-unprocessed.smi:3061
#       Creating user name   scv26
#       Creation time:       Fri Mar 27 17:08:28 2020


#       File generated by GOLD software.
#

@<TRIPOS>MOLECULE
AV-unprocessed.smi:3061
    41    42     1
SMALL
NO_CHARGES


@<TRIPOS>ATOM
      1 ****        -3.0751  -1.1479   1.3774 C.3            1 S1                 0.0000
      2 ****        -2.3994  -0.4400   0.1931 C.3            1 S1                 0.0000
      3 ****        -3.0378  -0.8480  -1.1486 C.3            1 S1                 0.0000
      4 ****        -2.5105  -0.0844  -2.2653 N.pl3          1 S1                 0.0000
      5 ****        -1.5844  -0.3992  -3.1723 C.2            1 S1                 0.0000
      6 ****        -1.3459   0.5648  -4.0505 N.2            1 S1                 0.0000
      7 ****        -2.2233   1.5089  -3.5964 C.2            1 S1                 0.0000
      8 ****        -2.9449   1.1702  -2.5279 N.2            1 S1                 0.0000
      9 ****        -0.9707  -0.7478   0.1797 N.am           1 S1                 0.0000
     10 ****        -0.0191  -0.0629   0.8318 C.2            1 S1                 0.0000
     11 ****        -0.2560   0.9089   1.5500 O.2            1 S1                 0.0000
     12 ****         1.4253  -0.5495   0.6376 C.3            1 S1                 0.0000
     13 ****         2.0559  -0.9997   1.9713 C.3            1 S1                 0.0000
     14 ****         3.1592   0.0152   2.2199 C.2            1 S1                 0.0000
     15 ****         3.8393   0.0255   3.2449 O.2            1 S1                 0.0000
     16 ****         3.2670   0.8652   1.1951 N.am           1 S1                 0.0000
     17 ****         4.2178   1.9642   1.0972 C.3            1 S1                 0.0000
     18 ****         2.3539   0.5646   0.1057 C.3            1 S1                 0.0000
     19 ****        -4.1406  -0.9195   1.4134 H              1 S1                 0.0000
     20 ****        -2.6407  -0.8320   2.3267 H              1 S1                 0.0000
     21 ****        -2.9693  -2.2309   1.3063 H              1 S1                 0.0000
     22 ****        -2.5378   0.6357   0.3193 H              1 S1                 0.0000
     23 ****        -2.8783  -1.9093  -1.3443 H              1 S1                 0.0000
     24 ****        -4.1178  -0.6968  -1.1141 H              1 S1                 0.0000
     25 ****        -1.0703  -1.3491  -3.1863 H              1 S1                 0.0000
     26 ****        -2.3328   2.4748  -4.0669 H              1 S1                 0.0000
     27 ****        -0.6819  -1.5356  -0.3817 H              1 S1                 0.0000
     28 ****         1.4270  -1.3840  -0.0660 H              1 S1                 0.0000
     29 ****         1.3549  -1.0100   2.8077 H              1 S1                 0.0000
     30 ****         2.4902  -1.9960   1.8844 H              1 S1                 0.0000
     31 ****         5.2378   1.5821   1.0456 H              1 S1                 0.0000
     32 ****         4.1392   2.6198   1.9654 H              1 S1                 0.0000
     33 ****         4.0345   2.5634   0.2048 H              1 S1                 0.0000
     34 ****         2.9225   0.2159  -0.7574 H              1 S1                 0.0000
     35 ****         1.8138   1.4633  -0.1984 H              1 S1                 0.0000
     36 ****        -0.7092   0.5929  -4.8211 LP             1 S1                 0.0000
     37 ****        -3.6341   1.7080  -2.0424 LP             1 S1                 0.0000
     38 ****        -1.1974   1.2242   1.6702 LP             1 S1                 0.0000
     39 ****         0.4929   1.3828   2.0130 LP             1 S1                 0.0000
     40 ****         3.6766  -0.6546   3.9597 LP             1 S1                 0.0000
     41 ****         4.5548   0.7140   3.3632 LP             1 S1                 0.0000
@<TRIPOS>BOND
    1    1    2 1     
    2    1   19 1     
    3    1   20 1     
    4    1   21 1     
    5    2    3 1     
    6    2    9 1     
    7    2   22 1     
    8    3    4 1     
    9    3   23 1     
   10    3   24 1     
   11    4    8 1     
   12    4    5 1     
   13    5    6 2     
   14    5   25 1     
   15    6    7 1     
   16    7    8 2     
   17    7   26 1     
   18    9   10 am    
   19    9   27 1     
   20   10   11 2     
   21   10   12 1     
   22   12   18 1     
   23   12   13 1     
   24   12   28 1     
   25   13   14 1     
   26   13   29 1     
   27   13   30 1     
   28   14   15 2     
   29   14   16 am    
   30   16   17 1     
   31   16   18 1     
   32   17   31 1     
   33   17   32 1     
   34   17   33 1     
   35   18   34 1     
   36   18   35 1     
   37    6   36 1     
   38    8   37 1     
   39   11   38 1     
   40   11   39 1     
   41   15   40 1     
   42   15   41 1     
@<TRIPOS>SUBSTRUCTURE
      1 S1             1
@<TRIPOS>SET
LONE_PAIRS      STATIC     ATOMS    <user>   **** ""
6 36 37 38 39 40 41
DONOR_HYDROGENS      STATIC     ATOMS    <user>   **** ""
1 27
ATOM$BLUE        STATIC     ATOMS    COLORGROUP SYSTEM
6 36 37 38 39 40 41
ATOM$RED        STATIC     ATOMS    COLORGROUP SYSTEM
1 27
