AV-unprocessed.smi:1800|AV-procd|sdf|7265|dock1
  -GOLD-   22720 8513D 1   1.00000     0.00000
 Structure written by MMmdl.
 35 36  0  0  0  0  0  0  0  0  2 V2000
  153.9911  139.8113  160.1169 C   0  0  0  0  0  0  0  0  0  0  0  0
  153.3465  140.9511  159.3160 C   0  0  2  0  0  0  0  0  0  0  0  0
  152.7577  142.0452  160.2433 C   0  0  0  0  0  0  0  0  0  0  0  0
  152.3037  143.2459  159.5463 N   0  0  0  0  0  0  0  0  0  0  0  0
  152.1854  144.5352  160.0311 C   0  0  0  0  0  0  0  0  0  0  0  0
  151.7106  145.3140  159.0151 C   0  0  0  0  0  0  0  0  0  0  0  0
  151.5545  144.4011  157.9353 C   0  0  0  0  0  0  0  0  0  0  0  0
  151.8934  143.1643  158.2588 N   0  0  0  0  0  0  0  0  0  0  0  0
  152.3009  140.3974  158.4665 N   0  5  0  0  0  0  0  0  0  0  0  0
  152.6429  139.1661  157.4677 S   0  0  0  0  0  0  0  0  0  0  0  0
  154.0529  138.7485  157.5436 O   0  0  0  0  0  0  0  0  0  0  0  0
  151.6310  138.0995  157.5387 O   0  0  0  0  0  0  0  0  0  0  0  0
  152.4182  140.0002  155.8225 C   0  0  0  0  0  0  0  0  0  0  0  0
  150.9526  140.3708  155.5742 C   0  0  0  0  0  0  0  0  0  0  0  0
  150.3073  139.0914  155.0373 C   0  0  0  0  0  0  0  0  0  0  0  0
  151.4271  138.3313  154.3118 C   0  0  0  0  0  0  0  0  0  0  0  0
  152.7392  139.0505  154.6607 C   0  0  0  0  0  0  0  0  0  0  0  0
  154.7922  140.1866  160.7541 H   0  0  0  0  0  0  0  0  0  0  0  0
  154.4241  139.0606  159.4545 H   0  0  0  0  0  0  0  0  0  0  0  0
  153.2638  139.3119  160.7584 H   0  0  0  0  0  0  0  0  0  0  0  0
  154.1408  141.4106  158.7259 H   0  0  0  0  0  0  0  0  0  0  0  0
  151.9302  141.6408  160.8294 H   0  0  0  0  0  0  0  0  0  0  0  0
  153.5144  142.3561  160.9644 H   0  0  0  0  0  0  0  0  0  0  0  0
  152.4563  144.7880  161.0456 H   0  0  0  0  0  0  0  0  0  0  0  0
  151.5086  146.3743  159.0394 H   0  0  0  0  0  0  0  0  0  0  0  0
  151.2015  144.5981  156.9339 H   0  0  0  0  0  0  0  0  0  0  0  0
  153.0497  140.8887  155.8149 H   0  0  0  0  0  0  0  0  0  0  0  0
  150.4441  140.7582  156.4570 H   0  0  0  0  0  0  0  0  0  0  0  0
  150.9043  141.1463  154.8089 H   0  0  0  0  0  0  0  0  0  0  0  0
  149.9369  138.4910  155.8693 H   0  0  0  0  0  0  0  0  0  0  0  0
  149.4593  139.3027  154.3856 H   0  0  0  0  0  0  0  0  0  0  0  0
  151.4531  137.2914  154.6394 H   0  0  0  0  0  0  0  0  0  0  0  0
  151.2687  138.3278  153.2331 H   0  0  0  0  0  0  0  0  0  0  0  0
  153.0638  139.6376  153.8011 H   0  0  0  0  0  0  0  0  0  0  0  0
  153.5468  138.3565  154.8955 H   0  0  0  0  0  0  0  0  0  0  0  0
  1  2  1  0  0  0  0
  1 18  1  0  0  0  0
  1 19  1  0  0  0  0
  1 20  1  0  0  0  0
  2  3  1  0  0  0  0
  2  9  1  0  0  0  0
  2 21  1  0  0  0  0
  3  4  1  0  0  0  0
  3 22  1  0  0  0  0
  3 23  1  0  0  0  0
  4  8  1  0  0  0  0
  4  5  1  0  0  0  0
  5  6  2  0  0  0  0
  5 24  1  0  0  0  0
  6  7  1  0  0  0  0
  6 25  1  0  0  0  0
  7  8  2  0  0  0  0
  7 26  1  0  0  0  0
  9 10  1  0  0  0  0
 10 11  2  0  0  0  0
 10 12  2  0  0  0  0
 10 13  1  0  0  0  0
 13 17  1  0  0  0  0
 13 14  1  0  0  0  0
 13 27  1  0  0  0  0
 14 15  1  0  0  0  0
 14 28  1  0  0  0  0
 14 29  1  0  0  0  0
 15 16  1  0  0  0  0
 15 30  1  0  0  0  0
 15 31  1  0  0  0  0
 16 17  1  0  0  0  0
 16 32  1  0  0  0  0
 16 33  1  0  0  0  0
 17 34  1  0  0  0  0
 17 35  1  0  0  0  0
M  CHG  1   9  -1
M  END
> <s_m_source_file>
AV-unprocessed.smi

> <i_m_source_file_index>
1800

> <i_lp_mmshare_version>
43012

> <i_f3d_flags>
0

> <s_epik_input>
bjFbY0hdW2NIXVtjSF1uMVtDSDJdW0NAQEhdKFtDSDNdKVtOSF1TKD1PKSg9TylbQ0hdMltDSDJdW0NIMl1bQ0gyXVtDSDJdMg==

> <s_epik_cmdline>
J2VwaWtfcHl0aG9uJywgJy1waCcsICc3LjAnLCAnLXRuJywgJzgnLCAnLW1hJywgJzIwMCcsICctbWV0YWxfYmluZGluZycsICctaW1hZScsICc8aW5maWxlLm1hZT4nLCAnLW9tYWUnLCAnPG91dGZpbGUubWFlPic=

> <r_lp_tautomer_probability>
1

> <r_epik_Ionization_Penalty>
6.58538

> <r_epik_Ionization_Penalty_Charging>
6.58536

> <r_epik_Ionization_Penalty_Neutral>
2.3841e-05

> <r_epik_State_Penalty>
6.58535

> <r_epik_Charging_Adjusted_Penalty>
13.1707

> <i_epik_Tot_Q>
-1

> <i_epik_Tot_abs_Q>
1

> <r_epik_Metal_State_Penalty>
2.50999

> <b_epik_Metal_Only>
1

> <s_lp_Force_Field>
OPLS_2005

> <r_lp_Energy>
15.5641

> <b_lp_Chiralities_Consistent>
1

> <s_lp_Variant>
AV-unprocessed.smi:1800-3

> <Gold.Version>
5.8.1

> <Gold.Id.Protein>
6NUR|6NUR_protein|mol2

> <Gold.PLP.Fitness>
45.5211

> <Gold.PLP.PLP>
-40.5089

> <Gold.PLP.part.hbond>
-1.0000

> <Gold.PLP.part.metal>
0.0000

> <Gold.PLP.part.buried>
-2.7718

> <Gold.PLP.part.nonpolar>
-36.3163

> <Gold.PLP.part.repulsive>
0.0404

> <Gold.PLP.ligand.clash>
0.0000

> <Gold.PLP.ligand.torsion>
1.0427

> <Gold.PLP.Chemscore.Hbond>
1.0000

> <Gold.PLP.Chemscore.CHOScore>
0.9975

> <Gold.PLP.Chemscore.Metal>
0.0000

> <Gold.Chemscore.Hbonds>
donor molecule, donor type, donor heavy atom, donor atom, acceptor molecule, acceptor atom, score
      P1  H  7997  8010       L1    11  0.83
      L1  C     7    26       P1  8028  0.81

> <Gold.PLP.Chemscore.Internal.Correction>
1.1052

> <Gold.Rescore>
     Score         DG    S(hbond)    S(metal)    S(lipo)     H(rot)  DE(clash)    DE(int)     intcor
     11.45     -16.07       0.86        0.00      99.07       1.51       0.05       4.58       ----

> <Gold.Chemscore.Fitness>
11.4465

> <Gold.Chemscore.DG>
-16.0707

> <Gold.Chemscore.ZeroCoef>
-5.4800

> <Gold.Chemscore.Hbond>
0.8613

> <Gold.Chemscore.Metal>
0.0000

> <Gold.Chemscore.Lipo>
99.0702

> <Gold.Chemscore.Internal_Hbond>
0.0000

> <Gold.Chemscore.DEClash>
0.0488

> <Gold.Chemscore.DEInternal>
4.5754

> <Gold.Chemscore.Rot>
1.5146

> <Gold.Chemscore.Internal.Correction>
   9.000000E+99

> <Gold.Chemscore.Hbonds>
donor molecule, donor type, donor heavy atom, donor atom, acceptor molecule, acceptor atom, score
      P1  H  7997  8010       L1    11  0.23

> <Gold.Chemscore.Hbond.Weighted>
-2.8768

> <Gold.Chemscore.Metal.Weighted>
-0.0000

> <Gold.Chemscore.Lipo.Weighted>
-11.5912

> <Gold.Chemscore.Internal_Hbond.Weighted>
0.0000

> <Gold.Chemscore.DEClash.Weighted>
0.0488

> <Gold.Chemscore.DEInternal.Weighted>
4.5754

> <Gold.Chemscore.Rot.Weighted>
3.8773

> <Gold.Chemscore.Internal.Correction.Weighted>
   9.000000E+99

> <Gold.Protein.RotatedTorsions>
[ 6907 6896 6895 6894 ] final  130.96 input  -60.11 | X-H torsion
[ 7974 7965 7964 7962 ] final -135.01 input  175.53 | X-H torsion
[ 8008 7997 7996 7995 ] final   23.69 input   59.86 | X-H torsion
[ 10167 10162 10161 10158 ] final   45.13 input  -65.29 | X-H torsion
[ 10718 10713 10712 10709 ] final -162.43 input   66.30 | X-H torsion
[ 10763 10752 10751 10750 ] final   31.86 input  -60.55 | X-H torsion
[ 11005 11000 10999 10996 ] final  130.34 input  -57.11 | X-H torsion

> <Gold.Protein.ActiveResidues>
 VAL166  LYS551  ARG553  GLY616  TRP617  ASP618  TYR619  PRO620  LYS621  CYS622 
 ASP623  PHE694  ASN695  SER759  ASP760  ASP761  ALA762  ILE779  LEU786  VAL792 
 PHE793  MET794  SER795  GLU796  ALA797  LYS798  CYS799  TRP800  GLU811  SER814 

> <Gold.Protein.RotatedAtoms>
  152.3474  133.6138  159.5919 H   0  0  0  0  0  0  0  0  0  0  0  0  # atno 6907 bound_to 6896
  150.7516  133.9628  159.3530 H   0  0  0  0  0  0  0  0  0  0  0  0  # atno 6908 bound_to 6896
  151.7484  135.0839  160.0378 H   0  0  0  0  0  0  0  0  0  0  0  0  # atno 6909 bound_to 6896
  144.9051  140.6823  143.5060 H   0  0  0  0  0  0  0  0  0  0  0  0  # atno 7974 bound_to 7965
  154.9849  140.3106  155.4931 H   0  0  0  0  0  0  0  0  0  0  0  0  # atno 8008 bound_to 7997
  156.2948  140.2260  156.4890 H   0  0  0  0  0  0  0  0  0  0  0  0  # atno 8009 bound_to 7997
  154.7756  140.0449  157.1074 H   0  0  0  0  0  0  0  0  0  0  0  0  # atno 8010 bound_to 7997
  140.3272  144.2632  150.6173 H   0  0  0  0  0  0  0  0  0  0  0  0  # atno 10167 bound_to 10162
  156.6103  130.8848  151.2935 H   0  0  0  0  0  0  0  0  0  0  0  0  # atno 10718 bound_to 10713
  153.0293  135.6428  154.1265 H   0  0  0  0  0  0  0  0  0  0  0  0  # atno 10763 bound_to 10752
  154.0990  135.2861  155.3257 H   0  0  0  0  0  0  0  0  0  0  0  0  # atno 10764 bound_to 10752
  154.6412  135.5459  153.7855 H   0  0  0  0  0  0  0  0  0  0  0  0  # atno 10765 bound_to 10752
  139.9667  134.9589  156.9280 H   0  0  0  0  0  0  0  0  0  0  0  0  # atno 11005 bound_to 11000
  145.3549  139.1696  143.4414 LP  0  0  0  0  0  0  0  0  0  0  0  0  # atno 17320 bound_to 7965
  146.3129  140.3605  142.8664 LP  0  0  0  0  0  0  0  0  0  0  0  0  # atno 17321 bound_to 7965
  140.5430  143.2220  151.8054 LP  0  0  0  0  0  0  0  0  0  0  0  0  # atno 17342 bound_to 10162
  139.4863  144.4576  151.9579 LP  0  0  0  0  0  0  0  0  0  0  0  0  # atno 17343 bound_to 10162
  157.7256  130.9618  150.1621 LP  0  0  0  0  0  0  0  0  0  0  0  0  # atno 17370 bound_to 10713
  156.2395  130.3689  149.8353 LP  0  0  0  0  0  0  0  0  0  0  0  0  # atno 17371 bound_to 10713
  140.5382  134.0746  155.7334 LP  0  0  0  0  0  0  0  0  0  0  0  0  # atno 17394 bound_to 11000
  141.1346  133.9243  157.2461 LP  0  0  0  0  0  0  0  0  0  0  0  0  # atno 17395 bound_to 11000

$$$$
