AV-unprocessed.smi:1605|AV-procd|sdf|6459|dock9
  -GOLD-   22720 7113D 1   1.00000     0.00000
 Structure written by MMmdl.
 50 52  0  0  0  0  0  0  0  0  1 V2000
  150.3268  135.6567  155.8621 C   0  0  0  0  0  0  0  0  0  0  0  0
  150.8605  136.0557  154.6090 O   0  0  0  0  0  0  0  0  0  0  0  0
  150.9963  137.4624  154.4515 C   0  0  0  0  0  0  0  0  0  0  0  0
  152.0310  138.0483  155.4322 C   0  0  0  0  0  0  0  0  0  0  0  0
  152.0110  139.5863  155.3879 C   0  0  0  0  0  0  0  0  0  0  0  0
  150.6903  140.1441  155.6861 N   0  0  0  0  0  0  0  0  0  0  0  0
  150.7354  141.6106  155.7186 C   0  0  0  0  0  0  0  0  0  0  0  0
  150.6660  142.2676  157.1157 C   0  0  2  0  0  0  0  0  0  0  0  0
  149.3576  142.1126  157.6289 O   0  0  0  0  0  0  0  0  0  0  0  0
  151.1095  143.7406  157.2048 C   0  0  0  0  0  0  0  0  0  0  0  0
  151.2977  144.1747  158.5774 N   0  0  0  0  0  0  0  0  0  0  0  0
  150.8331  145.3050  159.1440 C   0  0  0  0  0  0  0  0  0  0  0  0
  151.1249  145.5082  160.4256 N   0  0  0  0  0  0  0  0  0  0  0  0
  151.8639  144.3767  160.7257 C   0  0  0  0  0  0  0  0  0  0  0  0
  152.4751  143.9747  161.9335 C   0  0  0  0  0  0  0  0  0  0  0  0
  153.1916  142.7593  162.0137 C   0  0  0  0  0  0  0  0  0  0  0  0
  153.8331  142.3664  163.3327 C   0  0  0  0  0  0  0  0  0  0  0  0
  153.3043  141.9242  160.8730 C   0  0  0  0  0  0  0  0  0  0  0  0
  154.0671  140.6127  160.9366 C   0  0  0  0  0  0  0  0  0  0  0  0
  152.7009  142.3113  159.6581 C   0  0  0  0  0  0  0  0  0  0  0  0
  151.9907  143.5230  159.5912 C   0  0  0  0  0  0  0  0  0  0  0  0
  149.7304  139.6368  154.6989 C   0  0  0  0  0  0  0  0  0  0  0  0
  149.6249  138.1031  154.7186 C   0  0  0  0  0  0  0  0  0  0  0  0
  150.3054  134.5684  155.9156 H   0  0  0  0  0  0  0  0  0  0  0  0
  149.3063  136.0133  156.0010 H   0  0  0  0  0  0  0  0  0  0  0  0
  150.9412  136.0185  156.6875 H   0  0  0  0  0  0  0  0  0  0  0  0
  151.2886  137.6941  153.4255 H   0  0  0  0  0  0  0  0  0  0  0  0
  151.8112  137.7107  156.4459 H   0  0  0  0  0  0  0  0  0  0  0  0
  153.0337  137.6933  155.1954 H   0  0  0  0  0  0  0  0  0  0  0  0
  152.7377  139.9594  156.1107 H   0  0  0  0  0  0  0  0  0  0  0  0
  152.3467  139.9292  154.4079 H   0  0  0  0  0  0  0  0  0  0  0  0
  151.6679  141.9526  155.2666 H   0  0  0  0  0  0  0  0  0  0  0  0
  149.9500  142.0173  155.0800 H   0  0  0  0  0  0  0  0  0  0  0  0
  151.3188  141.6859  157.7678 H   0  0  0  0  0  0  0  0  0  0  0  0
  149.3496  142.4269  158.5203 H   0  0  0  0  0  0  0  0  0  0  0  0
  152.0495  143.8869  156.6715 H   0  0  0  0  0  0  0  0  0  0  0  0
  150.3692  144.3948  156.7434 H   0  0  0  0  0  0  0  0  0  0  0  0
  150.2456  146.0180  158.5842 H   0  0  0  0  0  0  0  0  0  0  0  0
  152.3878  144.6107  162.8021 H   0  0  0  0  0  0  0  0  0  0  0  0
  154.9107  142.2503  163.2140 H   0  0  0  0  0  0  0  0  0  0  0  0
  153.4196  141.4238  163.6928 H   0  0  0  0  0  0  0  0  0  0  0  0
  153.6612  143.1220  164.1000 H   0  0  0  0  0  0  0  0  0  0  0  0
  154.0574  140.0995  159.9746 H   0  0  0  0  0  0  0  0  0  0  0  0
  153.6212  139.9467  161.6756 H   0  0  0  0  0  0  0  0  0  0  0  0
  155.1077  140.7886  161.2106 H   0  0  0  0  0  0  0  0  0  0  0  0
  152.7785  141.6853  158.7816 H   0  0  0  0  0  0  0  0  0  0  0  0
  148.7397  140.0487  154.8700 H   0  0  0  0  0  0  0  0  0  0  0  0
  150.0211  139.9645  153.6994 H   0  0  0  0  0  0  0  0  0  0  0  0
  148.9039  137.7683  153.9722 H   0  0  0  0  0  0  0  0  0  0  0  0
  149.2439  137.7779  155.6878 H   0  0  0  0  0  0  0  0  0  0  0  0
  1  2  1  0  0  0  0
  1 24  1  0  0  0  0
  1 25  1  0  0  0  0
  1 26  1  0  0  0  0
  2  3  1  0  0  0  0
  3 23  1  0  0  0  0
  3  4  1  0  0  0  0
  3 27  1  0  0  0  0
  4  5  1  0  0  0  0
  4 28  1  0  0  0  0
  4 29  1  0  0  0  0
  5  6  1  0  0  0  0
  5 30  1  0  0  0  0
  5 31  1  0  0  0  0
  6  7  1  0  0  0  0
  6 22  1  0  0  0  0
  7  8  1  0  0  0  0
  7 32  1  0  0  0  0
  7 33  1  0  0  0  0
  8  9  1  0  0  0  0
  8 10  1  0  0  0  0
  8 34  1  0  0  0  0
  9 35  1  0  0  0  0
 10 11  1  0  0  0  0
 10 36  1  0  0  0  0
 10 37  1  0  0  0  0
 11 21  1  0  0  0  0
 11 12  1  0  0  0  0
 12 13  2  0  0  0  0
 12 38  1  0  0  0  0
 13 14  1  0  0  0  0
 14 21  2  0  0  0  0
 14 15  1  0  0  0  0
 15 16  2  0  0  0  0
 15 39  1  0  0  0  0
 16 17  1  0  0  0  0
 16 18  1  0  0  0  0
 17 40  1  0  0  0  0
 17 41  1  0  0  0  0
 17 42  1  0  0  0  0
 18 19  1  0  0  0  0
 18 20  2  0  0  0  0
 19 43  1  0  0  0  0
 19 44  1  0  0  0  0
 19 45  1  0  0  0  0
 20 21  1  0  0  0  0
 20 46  1  0  0  0  0
 22 23  1  0  0  0  0
 22 47  1  0  0  0  0
 22 48  1  0  0  0  0
 23 49  1  0  0  0  0
 23 50  1  0  0  0  0
M  END
> <s_m_source_file>
AV-unprocessed.smi

> <i_m_source_file_index>
1605

> <i_lp_mmshare_version>
43012

> <i_f3d_flags>
0

> <s_epik_input>
W0NIM11PW0NIXTFbQ0gyXVtDSDJdTihbQ0gyXVtDSDJdMSlbQ0gyXVtDQEhdKFtPSF0pW0NIMl1uKFtjSF1uMiljKGMyMylbY0hdYyhbQ0gzXSljKFtjSF0zKVtDSDNd

> <s_epik_cmdline>
J2VwaWtfcHl0aG9uJywgJy1waCcsICc3LjAnLCAnLXRuJywgJzgnLCAnLW1hJywgJzIwMCcsICctbWV0YWxfYmluZGluZycsICctaW1hZScsICc8aW5maWxlLm1hZT4nLCAnLW9tYWUnLCAnPG91dGZpbGUubWFlPic=

> <r_epik_Ionization_Penalty>
2.02119

> <r_epik_Ionization_Penalty_Charging>
0

> <r_epik_Ionization_Penalty_Neutral>
2.02119

> <r_epik_State_Penalty>
2.11303

> <r_epik_Charging_Adjusted_Penalty>
2.11303

> <i_epik_Tot_Q>
0

> <i_epik_Tot_abs_Q>
0

> <r_epik_Metal_State_Penalty>
2.04251

> <b_epik_Metal_Only>
0

> <s_lp_Force_Field>
OPLS_2005

> <r_lp_Energy>
37.9414

> <b_lp_Chiralities_Consistent>
1

> <s_lp_Variant>
AV-unprocessed.smi:1605-9

> <Gold.Version>
5.8.1

> <Gold.Id.Protein>
6NUR|6NUR_protein|mol2

> <Gold.PLP.Fitness>
59.0899

> <Gold.PLP.PLP>
-55.2696

> <Gold.PLP.part.hbond>
-1.2635

> <Gold.PLP.part.metal>
0.0000

> <Gold.PLP.part.buried>
-2.5312

> <Gold.PLP.part.nonpolar>
-52.2591

> <Gold.PLP.part.repulsive>
1.1447

> <Gold.PLP.ligand.clash>
0.0000

> <Gold.PLP.ligand.torsion>
0.9745

> <Gold.PLP.Chemscore.Hbond>
1.0000

> <Gold.PLP.Chemscore.CHOScore>
0.9050

> <Gold.PLP.Chemscore.Metal>
0.0000

> <Gold.Chemscore.Hbonds>
donor molecule, donor type, donor heavy atom, donor atom, acceptor molecule, acceptor atom, score
      P1  H 10752 10765       L1     2  0.55
      L1  C    12    38       P1  8029  0.66

> <Gold.PLP.Chemscore.Internal.Correction>
0.0543

> <Gold.Rescore>
     Score         DG    S(hbond)    S(metal)    S(lipo)     H(rot)  DE(clash)    DE(int)     intcor
     16.48     -19.51       0.60        0.00     149.66       2.14       2.02       1.01       ----

> <Gold.Chemscore.Fitness>
16.4765

> <Gold.Chemscore.DG>
-19.5122

> <Gold.Chemscore.ZeroCoef>
-5.4800

> <Gold.Chemscore.Hbond>
0.6017

> <Gold.Chemscore.Metal>
0.0000

> <Gold.Chemscore.Lipo>
149.6635

> <Gold.Chemscore.Internal_Hbond>
0.0000

> <Gold.Chemscore.DEClash>
2.0216

> <Gold.Chemscore.DEInternal>
1.0142

> <Gold.Chemscore.Rot>
2.1438

> <Gold.Chemscore.Internal.Correction>
   9.000000E+99

> <Gold.Chemscore.Hbonds>
donor molecule, donor type, donor heavy atom, donor atom, acceptor molecule, acceptor atom, score
      P1  H 10752 10765       L1     2  0.06

> <Gold.Chemscore.Hbond.Weighted>
-2.0097

> <Gold.Chemscore.Metal.Weighted>
-0.0000

> <Gold.Chemscore.Lipo.Weighted>
-17.5106

> <Gold.Chemscore.Internal_Hbond.Weighted>
0.0000

> <Gold.Chemscore.DEClash.Weighted>
2.0216

> <Gold.Chemscore.DEInternal.Weighted>
1.0142

> <Gold.Chemscore.Rot.Weighted>
5.4881

> <Gold.Chemscore.Internal.Correction.Weighted>
   9.000000E+99

> <Gold.Protein.RotatedTorsions>
[ 6907 6896 6895 6894 ] final -139.70 input  -60.11 | X-H torsion
[ 7974 7965 7964 7962 ] final  -27.49 input  175.53 | X-H torsion
[ 8008 7997 7996 7995 ] final   64.90 input   59.86 | X-H torsion
[ 10167 10162 10161 10158 ] final  177.51 input  -65.29 | X-H torsion
[ 10718 10713 10712 10709 ] final  172.04 input   66.30 | X-H torsion
[ 10763 10752 10751 10750 ] final  160.52 input  -60.55 | X-H torsion
[ 11005 11000 10999 10996 ] final   38.78 input  -57.11 | X-H torsion

> <Gold.Protein.ActiveResidues>
 VAL166  LYS551  ARG553  GLY616  TRP617  ASP618  TYR619  PRO620  LYS621  CYS622 
 ASP623  PHE694  ASN695  SER759  ASP760  ASP761  ALA762  ILE779  LEU786  VAL792 
 PHE793  MET794  SER795  GLU796  ALA797  LYS798  CYS799  TRP800  GLU811  SER814 

> <Gold.Protein.RotatedAtoms>
  151.0512  133.5623  159.2641 H   0  0  0  0  0  0  0  0  0  0  0  0  # atno 6907 bound_to 6896
  151.2633  135.0660  159.9116 H   0  0  0  0  0  0  0  0  0  0  0  0  # atno 6908 bound_to 6896
  152.5382  134.0254  159.8054 H   0  0  0  0  0  0  0  0  0  0  0  0  # atno 6909 bound_to 6896
  146.1354  140.5158  142.8675 H   0  0  0  0  0  0  0  0  0  0  0  0  # atno 7974 bound_to 7965
  155.6534  140.3497  155.4756 H   0  0  0  0  0  0  0  0  0  0  0  0  # atno 8008 bound_to 7997
  155.9829  140.1178  157.0733 H   0  0  0  0  0  0  0  0  0  0  0  0  # atno 8009 bound_to 7997
  154.4196  140.1134  156.5446 H   0  0  0  0  0  0  0  0  0  0  0  0  # atno 8010 bound_to 7997
  139.5256  144.2790  152.0563 H   0  0  0  0  0  0  0  0  0  0  0  0  # atno 10167 bound_to 10162
  156.9847  131.0129  151.2872 H   0  0  0  0  0  0  0  0  0  0  0  0  # atno 10718 bound_to 10713
  154.2487  135.2772  155.2825 H   0  0  0  0  0  0  0  0  0  0  0  0  # atno 10763 bound_to 10752
  154.5483  135.5682  153.6903 H   0  0  0  0  0  0  0  0  0  0  0  0  # atno 10764 bound_to 10752
  152.9985  135.6268  154.2633 H   0  0  0  0  0  0  0  0  0  0  0  0  # atno 10765 bound_to 10752
  140.2092  134.3775  155.8057 H   0  0  0  0  0  0  0  0  0  0  0  0  # atno 11005 bound_to 11000
  144.7734  140.5688  143.6654 LP  0  0  0  0  0  0  0  0  0  0  0  0  # atno 17320 bound_to 7965
  145.5167  139.1477  143.3575 LP  0  0  0  0  0  0  0  0  0  0  0  0  # atno 17321 bound_to 7965
  140.2246  144.4431  150.6327 LP  0  0  0  0  0  0  0  0  0  0  0  0  # atno 17342 bound_to 10162
  140.6396  143.2201  151.6320 LP  0  0  0  0  0  0  0  0  0  0  0  0  # atno 17343 bound_to 10162
  157.5501  130.8177  149.8134 LP  0  0  0  0  0  0  0  0  0  0  0  0  # atno 17370 bound_to 10713
  156.0230  130.3789  150.1904 LP  0  0  0  0  0  0  0  0  0  0  0  0  # atno 17371 bound_to 10713
  141.2226  133.7134  156.8389 LP  0  0  0  0  0  0  0  0  0  0  0  0  # atno 17394 bound_to 11000
  140.1969  134.8925  157.3125 LP  0  0  0  0  0  0  0  0  0  0  0  0  # atno 17395 bound_to 11000

$$$$
