AV-unprocessed.smi:2092|AV-procd|sdf|8543|dock9
  -GOLD-   2272011263D 1   1.00000     0.00000
 Structure written by MMmdl.
 44 45  0  0  0  0  0  0  0  0  1 V2000
  149.9438  133.4244  155.9202 C   0  0  0  0  0  0  0  0  0  0  0  0
  149.8229  134.5651  154.8986 C   0  0  1  0  0  0  0  0  0  0  0  0
  148.5005  135.0891  154.9947 O   0  0  0  0  0  0  0  0  0  0  0  0
  147.4683  134.2606  154.4682 C   0  0  0  0  0  0  0  0  0  0  0  0
  146.1590  135.0562  154.4080 C   0  0  0  0  0  0  0  0  0  0  0  0
  145.8943  135.5584  155.6135 F   0  0  0  0  0  0  0  0  0  0  0  0
  146.2715  136.0622  153.5413 F   0  0  0  0  0  0  0  0  0  0  0  0
  145.1523  134.2622  154.0449 F   0  0  0  0  0  0  0  0  0  0  0  0
  150.8611  135.6679  155.1627 C   0  0  0  0  0  0  0  0  0  0  0  0
  151.6738  135.5485  156.0797 O   0  0  0  0  0  0  0  0  0  0  0  0
  150.8073  136.7383  154.3556 N   0  0  0  0  0  0  0  0  0  0  0  0
  151.7027  137.8905  154.4054 C   0  0  0  0  0  0  0  0  0  0  0  0
  151.0337  139.1611  154.9067 C   0  0  0  0  0  0  0  0  0  0  0  0
  149.8121  139.6253  154.3733 C   0  0  0  0  0  0  0  0  0  0  0  0
  149.2592  140.8084  154.8980 C   0  0  0  0  0  0  0  0  0  0  0  0
  149.8413  141.5256  155.8815 N   0  0  0  0  0  0  0  0  0  0  0  0
  151.0236  141.0992  156.3901 C   0  0  0  0  0  0  0  0  0  0  0  0
  151.6295  141.8632  157.4099 N   0  0  0  0  0  0  0  0  0  0  0  0
  151.2838  143.2821  157.4188 C   0  0  0  0  0  0  0  0  0  0  0  0
  152.2251  144.0556  158.3581 C   0  0  0  0  0  0  0  0  0  0  0  0
  152.1970  143.4722  159.6568 O   0  0  0  0  0  0  0  0  0  0  0  0
  152.6423  142.1198  159.6397 C   0  0  0  0  0  0  0  0  0  0  0  0
  151.7130  141.2797  158.7472 C   0  0  0  0  0  0  0  0  0  0  0  0
  151.6483  139.9173  155.9258 C   0  0  0  0  0  0  0  0  0  0  0  0
  150.9455  132.9929  155.9172 H   0  0  0  0  0  0  0  0  0  0  0  0
  149.2401  132.6241  155.6904 H   0  0  0  0  0  0  0  0  0  0  0  0
  149.7294  133.7681  156.9328 H   0  0  0  0  0  0  0  0  0  0  0  0
  149.9748  134.1469  153.9015 H   0  0  0  0  0  0  0  0  0  0  0  0
  147.7249  133.9077  153.4687 H   0  0  0  0  0  0  0  0  0  0  0  0
  147.3350  133.3822  155.1013 H   0  0  0  0  0  0  0  0  0  0  0  0
  150.1017  136.7477  153.6334 H   0  0  0  0  0  0  0  0  0  0  0  0
  152.5343  137.6392  155.0647 H   0  0  0  0  0  0  0  0  0  0  0  0
  152.1367  138.1056  153.4278 H   0  0  0  0  0  0  0  0  0  0  0  0
  149.3030  139.0974  153.5804 H   0  0  0  0  0  0  0  0  0  0  0  0
  148.3241  141.1906  154.5162 H   0  0  0  0  0  0  0  0  0  0  0  0
  151.3396  143.7171  156.4218 H   0  0  0  0  0  0  0  0  0  0  0  0
  150.2514  143.3892  157.7544 H   0  0  0  0  0  0  0  0  0  0  0  0
  153.2450  144.0575  157.9698 H   0  0  0  0  0  0  0  0  0  0  0  0
  151.9104  145.0966  158.4299 H   0  0  0  0  0  0  0  0  0  0  0  0
  153.6730  142.0693  159.2850 H   0  0  0  0  0  0  0  0  0  0  0  0
  152.6367  141.7311  160.6581 H   0  0  0  0  0  0  0  0  0  0  0  0
  150.7154  141.2350  159.1862 H   0  0  0  0  0  0  0  0  0  0  0  0
  152.0915  140.2583  158.6894 H   0  0  0  0  0  0  0  0  0  0  0  0
  152.5811  139.5791  156.3525 H   0  0  0  0  0  0  0  0  0  0  0  0
  1  2  1  0  0  0  0
  1 25  1  0  0  0  0
  1 26  1  0  0  0  0
  1 27  1  0  0  0  0
  2  3  1  0  0  0  0
  2  9  1  0  0  0  0
  2 28  1  0  0  0  0
  3  4  1  0  0  0  0
  4  5  1  0  0  0  0
  4 29  1  0  0  0  0
  4 30  1  0  0  0  0
  5  6  1  0  0  0  0
  5  7  1  0  0  0  0
  5  8  1  0  0  0  0
  9 10  2  0  0  0  0
  9 11  1  0  0  0  0
 11 12  1  0  0  0  0
 11 31  1  0  0  0  0
 12 13  1  0  0  0  0
 12 32  1  0  0  0  0
 12 33  1  0  0  0  0
 13 24  1  0  0  0  0
 13 14  2  0  0  0  0
 14 15  1  0  0  0  0
 14 34  1  0  0  0  0
 15 16  2  0  0  0  0
 15 35  1  0  0  0  0
 16 17  1  0  0  0  0
 17 18  1  0  0  0  0
 17 24  2  0  0  0  0
 18 23  1  0  0  0  0
 18 19  1  0  0  0  0
 19 20  1  0  0  0  0
 19 36  1  0  0  0  0
 19 37  1  0  0  0  0
 20 21  1  0  0  0  0
 20 38  1  0  0  0  0
 20 39  1  0  0  0  0
 21 22  1  0  0  0  0
 22 23  1  0  0  0  0
 22 40  1  0  0  0  0
 22 41  1  0  0  0  0
 23 42  1  0  0  0  0
 23 43  1  0  0  0  0
 24 44  1  0  0  0  0
M  END
> <s_m_source_file>
AV-unprocessed.smi

> <i_m_source_file_index>
2092

> <i_lp_mmshare_version>
43012

> <i_f3d_flags>
0

> <s_epik_input>
RkMoRikoRilbQ0gyXU9bQ0BASF0oW0NIM10pQyg9TylbTkhdW0NIMl1jMVtjSF1bY0hdbmMoW2NIXTEpTjJbQ0gyXVtDSDJdT1tDSDJdW0NIMl0y

> <s_epik_cmdline>
J2VwaWtfcHl0aG9uJywgJy1waCcsICc3LjAnLCAnLXRuJywgJzgnLCAnLW1hJywgJzIwMCcsICctbWV0YWxfYmluZGluZycsICctaW1hZScsICc8aW5maWxlLm1hZT4nLCAnLW9tYWUnLCAnPG91dGZpbGUubWFlPic=

> <r_lp_tautomer_probability>
1

> <r_epik_Ionization_Penalty>
0.00451782

> <r_epik_Ionization_Penalty_Charging>
0

> <r_epik_Ionization_Penalty_Neutral>
0.00451782

> <r_epik_State_Penalty>
0.00326147

> <r_epik_Charging_Adjusted_Penalty>
0.00326147

> <i_epik_Tot_Q>
0

> <i_epik_Tot_abs_Q>
0

> <r_epik_Metal_State_Penalty>
-0

> <b_epik_Metal_Only>
0

> <s_lp_Force_Field>
OPLS_2005

> <r_lp_Energy>
17.1262

> <b_lp_Chiralities_Consistent>
1

> <s_lp_Variant>
AV-unprocessed.smi:2092-2

> <Gold.Version>
5.8.1

> <Gold.Id.Protein>
6NUR|6NUR_protein|mol2

> <Gold.PLP.Fitness>
46.2724

> <Gold.PLP.PLP>
-41.2355

> <Gold.PLP.part.hbond>
-3.0000

> <Gold.PLP.part.metal>
0.0000

> <Gold.PLP.part.buried>
-2.5694

> <Gold.PLP.part.nonpolar>
-35.7683

> <Gold.PLP.part.repulsive>
0.3695

> <Gold.PLP.ligand.clash>
0.0000

> <Gold.PLP.ligand.torsion>
0.7090

> <Gold.PLP.Chemscore.Hbond>
2.0000

> <Gold.PLP.Chemscore.CHOScore>
0.0000

> <Gold.PLP.Chemscore.Metal>
0.0000

> <Gold.Chemscore.Hbonds>
donor molecule, donor type, donor heavy atom, donor atom, acceptor molecule, acceptor atom, score
      L1  H    11    31       P1  7948  0.64
      P1  H 10752 10763       L1    10  0.65

> <Gold.PLP.Chemscore.Internal.Correction>
0.4550

> <Gold.Rescore>
     Score         DG    S(hbond)    S(metal)    S(lipo)     H(rot)  DE(clash)    DE(int)     intcor
     13.41     -14.98       1.55        0.00      91.50       2.49       0.14       1.43       ----

> <Gold.Chemscore.Fitness>
13.4063

> <Gold.Chemscore.DG>
-14.9777

> <Gold.Chemscore.ZeroCoef>
-5.4800

> <Gold.Chemscore.Hbond>
1.5467

> <Gold.Chemscore.Metal>
0.0000

> <Gold.Chemscore.Lipo>
91.5045

> <Gold.Chemscore.Internal_Hbond>
0.0000

> <Gold.Chemscore.DEClash>
0.1433

> <Gold.Chemscore.DEInternal>
1.4281

> <Gold.Chemscore.Rot>
2.4899

> <Gold.Chemscore.Internal.Correction>
   9.000000E+99

> <Gold.Chemscore.Hbonds>
donor molecule, donor type, donor heavy atom, donor atom, acceptor molecule, acceptor atom, score
      L1  H    11    31       P1  7948  0.11
      P1  H 10752 10763       L1    10  0.06

> <Gold.Chemscore.Hbond.Weighted>
-5.1659

> <Gold.Chemscore.Metal.Weighted>
-0.0000

> <Gold.Chemscore.Lipo.Weighted>
-10.7060

> <Gold.Chemscore.Internal_Hbond.Weighted>
0.0000

> <Gold.Chemscore.DEClash.Weighted>
0.1433

> <Gold.Chemscore.DEInternal.Weighted>
1.4281

> <Gold.Chemscore.Rot.Weighted>
6.3741

> <Gold.Chemscore.Internal.Correction.Weighted>
   9.000000E+99

> <Gold.Protein.RotatedTorsions>
[ 6907 6896 6895 6894 ] final   85.36 input  -60.11 | X-H torsion
[ 7974 7965 7964 7962 ] final -146.21 input  175.53 | X-H torsion
[ 8008 7997 7996 7995 ] final -108.53 input   59.86 | X-H torsion
[ 10167 10162 10161 10158 ] final  -84.19 input  -65.29 | X-H torsion
[ 10718 10713 10712 10709 ] final   99.72 input   66.30 | X-H torsion
[ 10763 10752 10751 10750 ] final   82.97 input  -60.55 | X-H torsion
[ 11005 11000 10999 10996 ] final  -49.86 input  -57.11 | X-H torsion

> <Gold.Protein.ActiveResidues>
 VAL166  LYS551  ARG553  GLY616  TRP617  ASP618  TYR619  PRO620  LYS621  CYS622 
 ASP623  PHE694  ASN695  SER759  ASP760  ASP761  ALA762  ILE779  LEU786  VAL792 
 PHE793  MET794  SER795  GLU796  ALA797  LYS798  CYS799  TRP800  GLU811  SER814 

> <Gold.Protein.RotatedAtoms>
  152.5373  134.2598  159.8930 H   0  0  0  0  0  0  0  0  0  0  0  0  # atno 6907 bound_to 6896
  151.2558  133.4320  159.2621 H   0  0  0  0  0  0  0  0  0  0  0  0  # atno 6908 bound_to 6896
  151.0497  134.9679  159.8261 H   0  0  0  0  0  0  0  0  0  0  0  0  # atno 6909 bound_to 6896
  144.8175  140.5485  143.5601 H   0  0  0  0  0  0  0  0  0  0  0  0  # atno 7974 bound_to 7965
  154.9456  140.0402  157.2118 H   0  0  0  0  0  0  0  0  0  0  0  0  # atno 8008 bound_to 7997
  154.8027  140.2854  155.5888 H   0  0  0  0  0  0  0  0  0  0  0  0  # atno 8009 bound_to 7997
  156.2963  140.2552  156.2899 H   0  0  0  0  0  0  0  0  0  0  0  0  # atno 8010 bound_to 7997
  140.4156  143.2605  151.8959 H   0  0  0  0  0  0  0  0  0  0  0  0  # atno 10167 bound_to 10162
  157.6870  131.0678  150.4991 H   0  0  0  0  0  0  0  0  0  0  0  0  # atno 10718 bound_to 10713
  153.1249  135.4708  154.9257 H   0  0  0  0  0  0  0  0  0  0  0  0  # atno 10763 bound_to 10752
  154.7611  135.3132  154.8379 H   0  0  0  0  0  0  0  0  0  0  0  0  # atno 10764 bound_to 10752
  153.8934  135.6882  153.4813 H   0  0  0  0  0  0  0  0  0  0  0  0  # atno 10765 bound_to 10752
  141.0783  133.6660  156.3646 H   0  0  0  0  0  0  0  0  0  0  0  0  # atno 11005 bound_to 11000
  145.5181  139.1477  143.3567 LP  0  0  0  0  0  0  0  0  0  0  0  0  # atno 17320 bound_to 7965
  146.2479  140.5322  142.8906 LP  0  0  0  0  0  0  0  0  0  0  0  0  # atno 17321 bound_to 7965
  139.4782  144.5492  151.8412 LP  0  0  0  0  0  0  0  0  0  0  0  0  # atno 17342 bound_to 10162
  140.4590  144.1748  150.5904 LP  0  0  0  0  0  0  0  0  0  0  0  0  # atno 17343 bound_to 10162
  156.5313  130.4185  149.6200 LP  0  0  0  0  0  0  0  0  0  0  0  0  # atno 17370 bound_to 10713
  156.3066  130.7206  151.2090 LP  0  0  0  0  0  0  0  0  0  0  0  0  # atno 17371 bound_to 10713
  140.5525  134.6014  157.5411 LP  0  0  0  0  0  0  0  0  0  0  0  0  # atno 17394 bound_to 11000
  139.9596  134.7476  156.0266 LP  0  0  0  0  0  0  0  0  0  0  0  0  # atno 17395 bound_to 11000

$$$$
