AV-unprocessed.smi:3110|AV-procd|sdf|11828|dock6
  -GOLD-   2272017203D 1   1.00000     0.00000
 Structure written by MMmdl.
 34 35  0  0  0  0  0  0  0  0  2 V2000
  152.4280  140.0794  157.3304 O   0  0  0  0  0  0  0  0  0  0  0  0
  151.4935  140.7825  157.7161 C   0  0  0  0  0  0  0  0  0  0  0  0
  151.5222  141.4199  159.1097 C   0  0  0  0  0  0  0  0  0  0  0  0
  152.5791  142.5348  159.2563 C   0  0  2  0  0  0  0  0  0  0  0  0
  152.5270  143.1948  160.6099 C   0  0  0  0  0  0  0  0  0  0  0  0
  152.4653  144.5225  160.5343 C   0  0  0  0  0  0  0  0  0  0  0  0
  152.4624  145.0178  159.1149 C   0  0  0  0  0  0  0  0  0  0  0  0
  152.4027  143.7238  158.2735 C   0  0  0  0  0  0  0  0  0  0  0  0
  150.4073  141.0328  156.9688 N   0  0  0  0  0  0  0  0  0  0  0  0
  150.1918  140.5321  155.6167 C   0  0  0  0  0  0  0  0  0  0  0  0
  149.3362  141.5007  154.7832 C   0  0  0  0  0  0  0  0  0  0  0  0
  148.2588  140.8027  154.0806 N   0  0  0  0  0  0  0  0  0  0  0  0
  148.1148  139.4499  153.9101 C   0  0  0  0  0  0  0  0  0  0  0  0
  146.9585  139.2679  153.1955 C   0  0  0  0  0  0  0  0  0  0  0  0
  146.4467  140.5162  152.9610 N   0  3  0  0  0  0  0  0  0  0  0  0
  147.2390  141.4484  153.5007 C   0  0  0  0  0  0  0  0  0  0  0  0
  150.5347  141.8177  159.3493 H   0  0  0  0  0  0  0  0  0  0  0  0
  151.7200  140.6290  159.8340 H   0  0  0  0  0  0  0  0  0  0  0  0
  153.5802  142.1139  159.1501 H   0  0  0  0  0  0  0  0  0  0  0  0
  152.5555  142.6266  161.5283 H   0  0  0  0  0  0  0  0  0  0  0  0
  152.4354  145.1945  161.3796 H   0  0  0  0  0  0  0  0  0  0  0  0
  151.6025  145.6626  158.9312 H   0  0  0  0  0  0  0  0  0  0  0  0
  153.3732  145.5848  158.9199 H   0  0  0  0  0  0  0  0  0  0  0  0
  153.1675  143.7151  157.4963 H   0  0  0  0  0  0  0  0  0  0  0  0
  151.4364  143.6691  157.7701 H   0  0  0  0  0  0  0  0  0  0  0  0
  149.6854  141.6199  157.3616 H   0  0  0  0  0  0  0  0  0  0  0  0
  151.1658  140.3962  155.1456 H   0  0  0  0  0  0  0  0  0  0  0  0
  149.7268  139.5454  155.6574 H   0  0  0  0  0  0  0  0  0  0  0  0
  148.8845  142.2697  155.4119 H   0  0  0  0  0  0  0  0  0  0  0  0
  149.9473  142.0129  154.0387 H   0  0  0  0  0  0  0  0  0  0  0  0
  148.8263  138.7360  154.2991 H   0  0  0  0  0  0  0  0  0  0  0  0
  146.4743  138.3677  152.8454 H   0  0  0  0  0  0  0  0  0  0  0  0
  147.0847  142.5127  153.4743 H   0  0  0  0  0  0  0  0  0  0  0  0
  145.5926  140.7090  152.4527 H   0  0  0  0  0  0  0  0  0  0  0  0
  1  2  2  0  0  0  0
  2  3  1  0  0  0  0
  2  9  1  0  0  0  0
  3  4  1  0  0  0  0
  3 17  1  0  0  0  0
  3 18  1  0  0  0  0
  4  8  1  0  0  0  0
  4  5  1  0  0  0  0
  4 19  1  0  0  0  0
  5  6  2  0  0  0  0
  5 20  1  0  0  0  0
  6  7  1  0  0  0  0
  6 21  1  0  0  0  0
  7  8  1  0  0  0  0
  7 22  1  0  0  0  0
  7 23  1  0  0  0  0
  8 24  1  0  0  0  0
  8 25  1  0  0  0  0
  9 10  1  0  0  0  0
  9 26  1  0  0  0  0
 10 11  1  0  0  0  0
 10 27  1  0  0  0  0
 10 28  1  0  0  0  0
 11 12  1  0  0  0  0
 11 29  1  0  0  0  0
 11 30  1  0  0  0  0
 12 16  1  0  0  0  0
 12 13  1  0  0  0  0
 13 14  2  0  0  0  0
 13 31  1  0  0  0  0
 14 15  1  0  0  0  0
 14 32  1  0  0  0  0
 15 16  2  0  0  0  0
 15 34  1  0  0  0  0
 16 33  1  0  0  0  0
M  CHG  1  15   1
M  END
> <s_m_source_file>
AV-unprocessed.smi

> <i_m_source_file_index>
3110

> <i_lp_mmshare_version>
43012

> <i_f3d_flags>
0

> <s_epik_input>
W0NIMl0xW0NIMl1bQ0hdPVtDSF1bQ0BIXTFbQ0gyXUMoPU8pW05IXVtDSDJdW0NIMl1uMltjSF1bY0hdbltjSF0y

> <s_epik_cmdline>
J2VwaWtfcHl0aG9uJywgJy1waCcsICc3LjAnLCAnLXRuJywgJzgnLCAnLW1hJywgJzIwMCcsICctbWV0YWxfYmluZGluZycsICctaW1hZScsICc8aW5maWxlLm1hZT4nLCAnLW9tYWUnLCAnPG91dGZpbGUubWFlPic=

> <r_lp_tautomer_probability>
1

> <r_epik_Ionization_Penalty>
0.271094

> <r_epik_Ionization_Penalty_Charging>
0

> <r_epik_Ionization_Penalty_Neutral>
0.271094

> <r_epik_State_Penalty>
0.263241

> <r_epik_Charging_Adjusted_Penalty>
0.263241

> <i_epik_Tot_Q>
1

> <i_epik_Tot_abs_Q>
1

> <r_epik_Metal_State_Penalty>
0.547832

> <b_epik_Metal_Only>
0

> <s_lp_Force_Field>
OPLS_2005

> <r_lp_Energy>
18.4695

> <b_lp_Chiralities_Consistent>
1

> <s_lp_Variant>
AV-unprocessed.smi:3110-1

> <Gold.Version>
5.8.1

> <Gold.Id.Protein>
6NUR|6NUR_protein|mol2

> <Gold.PLP.Fitness>
48.3544

> <Gold.PLP.PLP>
-40.8310

> <Gold.PLP.part.hbond>
-2.0000

> <Gold.PLP.part.metal>
0.0000

> <Gold.PLP.part.buried>
-3.2886

> <Gold.PLP.part.nonpolar>
-35.3042

> <Gold.PLP.part.repulsive>
0.0404

> <Gold.PLP.ligand.clash>
0.0000

> <Gold.PLP.ligand.torsion>
0.7496

> <Gold.PLP.Chemscore.Hbond>
3.0000

> <Gold.PLP.Chemscore.CHOScore>
0.0000

> <Gold.PLP.Chemscore.Metal>
0.0000

> <Gold.Chemscore.Hbonds>
donor molecule, donor type, donor heavy atom, donor atom, acceptor molecule, acceptor atom, score
      L1  H    15    34       P1 10175  1.73
      P1  H  7997  8010       L1     1  0.93

> <Gold.PLP.Chemscore.Internal.Correction>
0.0226

> <Gold.Rescore>
     Score         DG    S(hbond)    S(metal)    S(lipo)     H(rot)  DE(clash)    DE(int)     intcor
     16.94     -17.79       1.93        0.00      96.10       2.10       0.08       0.77       ----

> <Gold.Chemscore.Fitness>
16.9422

> <Gold.Chemscore.DG>
-17.7925

> <Gold.Chemscore.ZeroCoef>
-5.4800

> <Gold.Chemscore.Hbond>
1.9267

> <Gold.Chemscore.Metal>
0.0000

> <Gold.Chemscore.Lipo>
96.1018

> <Gold.Chemscore.Internal_Hbond>
0.0000

> <Gold.Chemscore.DEClash>
0.0789

> <Gold.Chemscore.DEInternal>
0.7714

> <Gold.Chemscore.Rot>
2.0963

> <Gold.Chemscore.Internal.Correction>
   9.000000E+99

> <Gold.Chemscore.Hbonds>
donor molecule, donor type, donor heavy atom, donor atom, acceptor molecule, acceptor atom, score
      L1  H    15    34       P1 10175  0.19
      P1  H  7997  8010       L1     1  0.87

> <Gold.Chemscore.Hbond.Weighted>
-6.4351

> <Gold.Chemscore.Metal.Weighted>
-0.0000

> <Gold.Chemscore.Lipo.Weighted>
-11.2439

> <Gold.Chemscore.Internal_Hbond.Weighted>
0.0000

> <Gold.Chemscore.DEClash.Weighted>
0.0789

> <Gold.Chemscore.DEInternal.Weighted>
0.7714

> <Gold.Chemscore.Rot.Weighted>
5.3665

> <Gold.Chemscore.Internal.Correction.Weighted>
   9.000000E+99

> <Gold.Protein.RotatedTorsions>
[ 6907 6896 6895 6894 ] final  104.93 input  -60.11 | X-H torsion
[ 7974 7965 7964 7962 ] final -166.88 input  175.53 | X-H torsion
[ 8008 7997 7996 7995 ] final   55.68 input   59.86 | X-H torsion
[ 10167 10162 10161 10158 ] final  122.12 input  -65.29 | X-H torsion
[ 10718 10713 10712 10709 ] final -174.85 input   66.30 | X-H torsion
[ 10763 10752 10751 10750 ] final  118.65 input  -60.55 | X-H torsion
[ 11005 11000 10999 10996 ] final  -55.74 input  -57.11 | X-H torsion

> <Gold.Protein.ActiveResidues>
 VAL166  LYS551  ARG553  GLY616  TRP617  ASP618  TYR619  PRO620  LYS621  CYS622 
 ASP623  PHE694  ASN695  SER759  ASP760  ASP761  ALA762  ILE779  LEU786  VAL792 
 PHE793  MET794  SER795  GLU796  ALA797  LYS798  CYS799  TRP800  GLU811  SER814 

> <Gold.Protein.RotatedAtoms>
  152.5248  133.9603  159.7713 H   0  0  0  0  0  0  0  0  0  0  0  0  # atno 6907 bound_to 6896
  150.9895  133.6155  159.2717 H   0  0  0  0  0  0  0  0  0  0  0  0  # atno 6908 bound_to 6896
  151.3304  135.0846  159.9389 H   0  0  0  0  0  0  0  0  0  0  0  0  # atno 6909 bound_to 6896
  144.7235  140.2601  143.6266 H   0  0  0  0  0  0  0  0  0  0  0  0  # atno 7974 bound_to 7965
  155.5051  140.3475  155.4378 H   0  0  0  0  0  0  0  0  0  0  0  0  # atno 8008 bound_to 7997
  156.0887  140.1405  156.9647 H   0  0  0  0  0  0  0  0  0  0  0  0  # atno 8009 bound_to 7997
  154.4622  140.0930  156.6901 H   0  0  0  0  0  0  0  0  0  0  0  0  # atno 8010 bound_to 7997
  139.5878  144.7013  151.3366 H   0  0  0  0  0  0  0  0  0  0  0  0  # atno 10167 bound_to 10162
  156.7912  130.9518  151.3120 H   0  0  0  0  0  0  0  0  0  0  0  0  # atno 10718 bound_to 10713
  153.5709  135.3502  155.2837 H   0  0  0  0  0  0  0  0  0  0  0  0  # atno 10763 bound_to 10752
  154.8682  135.4159  154.2726 H   0  0  0  0  0  0  0  0  0  0  0  0  # atno 10764 bound_to 10752
  153.3492  135.7054  153.6873 H   0  0  0  0  0  0  0  0  0  0  0  0  # atno 10765 bound_to 10752
  141.1088  133.6611  156.4515 H   0  0  0  0  0  0  0  0  0  0  0  0  # atno 11005 bound_to 11000
  145.8144  139.2017  143.1974 LP  0  0  0  0  0  0  0  0  0  0  0  0  # atno 17320 bound_to 7965
  146.0568  140.8012  142.9754 LP  0  0  0  0  0  0  0  0  0  0  0  0  # atno 17321 bound_to 7965
  140.7146  143.7299  150.7631 LP  0  0  0  0  0  0  0  0  0  0  0  0  # atno 17342 bound_to 10162
  140.0848  143.4934  152.2511 LP  0  0  0  0  0  0  0  0  0  0  0  0  # atno 17343 bound_to 10162
  157.6600  130.8957  149.9809 LP  0  0  0  0  0  0  0  0  0  0  0  0  # atno 17370 bound_to 10713
  156.1158  130.3648  149.9971 LP  0  0  0  0  0  0  0  0  0  0  0  0  # atno 17371 bound_to 10713
  140.4831  134.6646  157.5179 LP  0  0  0  0  0  0  0  0  0  0  0  0  # atno 17394 bound_to 11000
  139.9971  134.6894  155.9591 LP  0  0  0  0  0  0  0  0  0  0  0  0  # atno 17395 bound_to 11000

$$$$
