AV-unprocessed.smi:1235|AV-procd|sdf|5176|dock8
  -GOLD-   22720 4253D 1   1.00000     0.00000
 Structure written by MMmdl.
 50 51  0  0  0  0  0  0  0  0  2 V2000
  152.3840  139.2006  155.3394 C   0  0  0  0  0  0  0  0  0  0  0  0
  151.1973  139.9620  155.1996 O   0  0  0  0  0  0  0  0  0  0  0  0
  150.6850  140.4024  156.4457 C   0  0  0  0  0  0  0  0  0  0  0  0
  151.1034  141.8639  156.6658 C   0  0  0  0  0  0  0  0  0  0  0  0
  151.6787  142.0648  157.9994 N   0  0  0  0  0  0  0  0  0  0  0  0
  152.6867  141.1707  158.3188 N   0  0  0  0  0  0  0  0  0  0  0  0
  153.2770  141.2391  159.4682 C   0  0  0  0  0  0  0  0  0  0  0  0
  154.3670  140.2967  159.8466 C   0  0  0  0  0  0  0  0  0  0  0  0
  154.9637  139.6180  159.0094 O   0  0  0  0  0  0  0  0  0  0  0  0
  154.6487  140.2417  161.1597 N   0  0  0  0  0  0  0  0  0  0  0  0
  155.6675  139.3883  161.7541 C   0  0  0  0  0  0  0  0  0  0  0  0
  155.1605  138.8036  163.0834 C   0  0  0  0  0  0  0  0  0  0  0  0
  155.2207  137.3177  163.1414 N   0  3  1  0  0  0  0  0  0  0  0  0
  154.3414  136.7699  164.2099 C   0  0  0  0  0  0  0  0  0  0  0  0
  154.5700  135.2635  164.4102 C   0  0  0  0  0  0  0  0  0  0  0  0
  154.3725  134.4980  163.0976 C   0  0  0  0  0  0  0  0  0  0  0  0
  155.2765  135.0918  162.0088 C   0  0  0  0  0  0  0  0  0  0  0  0
  155.0589  136.6099  161.8316 C   0  0  1  0  0  0  0  0  0  0  0  0
  153.7290  136.9283  161.1144 C   0  0  0  0  0  0  0  0  0  0  0  0
  152.8950  142.2473  160.4422 C   0  0  0  0  0  0  0  0  0  0  0  0
  151.9054  143.1087  160.1188 C   0  0  0  0  0  0  0  0  0  0  0  0
  151.2196  143.0516  158.8267 C   0  0  0  0  0  0  0  0  0  0  0  0
  150.3101  143.8188  158.5126 O   0  0  0  0  0  0  0  0  0  0  0  0
  152.7394  138.8919  154.3561 H   0  0  0  0  0  0  0  0  0  0  0  0
  152.2084  138.3015  155.9316 H   0  0  0  0  0  0  0  0  0  0  0  0
  153.1739  139.7842  155.8142 H   0  0  0  0  0  0  0  0  0  0  0  0
  149.5975  140.3129  156.4535 H   0  0  0  0  0  0  0  0  0  0  0  0
  151.0741  139.7752  157.2498 H   0  0  0  0  0  0  0  0  0  0  0  0
  151.8292  142.1508  155.9024 H   0  0  0  0  0  0  0  0  0  0  0  0
  150.2484  142.5252  156.5150 H   0  0  0  0  0  0  0  0  0  0  0  0
  154.1139  140.8294  161.7834 H   0  0  0  0  0  0  0  0  0  0  0  0
  155.9010  138.6000  161.0384 H   0  0  0  0  0  0  0  0  0  0  0  0
  156.5810  139.9617  161.9213 H   0  0  0  0  0  0  0  0  0  0  0  0
  155.7885  139.2011  163.8821 H   0  0  0  0  0  0  0  0  0  0  0  0
  154.1498  139.1512  163.2983 H   0  0  0  0  0  0  0  0  0  0  0  0
  154.5458  137.2822  165.1507 H   0  0  0  0  0  0  0  0  0  0  0  0
  153.2956  136.9671  163.9718 H   0  0  0  0  0  0  0  0  0  0  0  0
  155.5798  135.0928  164.7856 H   0  0  0  0  0  0  0  0  0  0  0  0
  153.8886  134.8807  165.1707 H   0  0  0  0  0  0  0  0  0  0  0  0
  154.6016  133.4416  163.2404 H   0  0  0  0  0  0  0  0  0  0  0  0
  153.3276  134.5493  162.7899 H   0  0  0  0  0  0  0  0  0  0  0  0
  156.3183  134.9098  162.2766 H   0  0  0  0  0  0  0  0  0  0  0  0
  155.1141  134.5722  161.0638 H   0  0  0  0  0  0  0  0  0  0  0  0
  155.8596  136.9434  161.1729 H   0  0  0  0  0  0  0  0  0  0  0  0
  153.6539  136.3708  160.1804 H   0  0  0  0  0  0  0  0  0  0  0  0
  153.6518  137.9833  160.8531 H   0  0  0  0  0  0  0  0  0  0  0  0
  152.8589  136.6684  161.7164 H   0  0  0  0  0  0  0  0  0  0  0  0
  153.3836  142.3125  161.4036 H   0  0  0  0  0  0  0  0  0  0  0  0
  151.6101  143.8630  160.8333 H   0  0  0  0  0  0  0  0  0  0  0  0
  156.1606  137.1029  163.4430 H   0  0  0  0  0  0  0  0  0  0  0  0
  1  2  1  0  0  0  0
  1 24  1  0  0  0  0
  1 25  1  0  0  0  0
  1 26  1  0  0  0  0
  2  3  1  0  0  0  0
  3  4  1  0  0  0  0
  3 27  1  0  0  0  0
  3 28  1  0  0  0  0
  4  5  1  0  0  0  0
  4 29  1  0  0  0  0
  4 30  1  0  0  0  0
  5 22  1  0  0  0  0
  5  6  1  0  0  0  0
  6  7  2  0  0  0  0
  7  8  1  0  0  0  0
  7 20  1  0  0  0  0
  8  9  2  0  0  0  0
  8 10  1  0  0  0  0
 10 11  1  0  0  0  0
 10 31  1  0  0  0  0
 11 12  1  0  0  0  0
 11 32  1  0  0  0  0
 11 33  1  0  0  0  0
 12 13  1  0  0  0  0
 12 34  1  0  0  0  0
 12 35  1  0  0  0  0
 13 18  1  0  0  0  0
 13 14  1  0  0  0  0
 13 50  1  0  0  0  0
 14 15  1  0  0  0  0
 14 36  1  0  0  0  0
 14 37  1  0  0  0  0
 15 16  1  0  0  0  0
 15 38  1  0  0  0  0
 15 39  1  0  0  0  0
 16 17  1  0  0  0  0
 16 40  1  0  0  0  0
 16 41  1  0  0  0  0
 17 18  1  0  0  0  0
 17 42  1  0  0  0  0
 17 43  1  0  0  0  0
 18 19  1  0  0  0  0
 18 44  1  0  0  0  0
 19 45  1  0  0  0  0
 19 46  1  0  0  0  0
 19 47  1  0  0  0  0
 20 21  2  0  0  0  0
 20 48  1  0  0  0  0
 21 22  1  0  0  0  0
 21 49  1  0  0  0  0
 22 23  2  0  0  0  0
M  CHG  1  13   1
M  END
> <s_m_source_file>
AV-unprocessed.smi

> <i_m_source_file_index>
1235

> <i_lp_mmshare_version>
43012

> <i_f3d_flags>
0

> <s_epik_input>
W0NIM11PW0NIMl1bQ0gyXW4xbmMoW2NIXVtjSF1jMT1PKUMoPU8pW05IXVtDSDJdW0NIMl1OMltDSDJdW0NIMl1bQ0gyXVtDSDJdW0NASF0yW0NIM10=

> <s_epik_cmdline>
J2VwaWtfcHl0aG9uJywgJy1waCcsICc3LjAnLCAnLXRuJywgJzgnLCAnLW1hJywgJzIwMCcsICctbWV0YWxfYmluZGluZycsICctaW1hZScsICc8aW5maWxlLm1hZT4nLCAnLW9tYWUnLCAnPG91dGZpbGUubWFlPic=

> <r_lp_tautomer_probability>
1

> <r_epik_Ionization_Penalty>
0.00271975

> <r_epik_Ionization_Penalty_Charging>
0.00271407

> <r_epik_Ionization_Penalty_Neutral>
5.6803e-06

> <r_epik_State_Penalty>
0.00189271

> <r_epik_Charging_Adjusted_Penalty>
0.00460678

> <i_epik_Tot_Q>
1

> <i_epik_Tot_abs_Q>
1

> <r_epik_Metal_State_Penalty>
-0

> <b_epik_Metal_Only>
0

> <s_lp_Force_Field>
OPLS_2005

> <r_lp_Energy>
41.7034

> <b_lp_Chiralities_Consistent>
1

> <s_lp_Variant>
AV-unprocessed.smi:1235-2

> <Gold.Version>
5.8.1

> <Gold.Id.Protein>
6NUR|6NUR_protein|mol2

> <Gold.PLP.Fitness>
44.2277

> <Gold.PLP.PLP>
-41.3113

> <Gold.PLP.part.hbond>
-2.3268

> <Gold.PLP.part.metal>
0.0000

> <Gold.PLP.part.buried>
-3.8448

> <Gold.PLP.part.nonpolar>
-34.7804

> <Gold.PLP.part.repulsive>
0.2196

> <Gold.PLP.ligand.clash>
0.0000

> <Gold.PLP.ligand.torsion>
1.5949

> <Gold.PLP.Chemscore.Hbond>
2.0000

> <Gold.PLP.Chemscore.CHOScore>
0.0000

> <Gold.PLP.Chemscore.Metal>
0.0000

> <Gold.Chemscore.Hbonds>
donor molecule, donor type, donor heavy atom, donor atom, acceptor molecule, acceptor atom, score
      P1  H  7989  7998       L1     2  0.90
      P1  H  7997  8009       L1     9  1.00

> <Gold.PLP.Chemscore.Internal.Correction>
0.1063

> <Gold.Rescore>
     Score         DG    S(hbond)    S(metal)    S(lipo)     H(rot)  DE(clash)    DE(int)     intcor
     17.04     -18.68       1.86        0.00     103.67       2.00       0.10       1.54       ----

> <Gold.Chemscore.Fitness>
17.0441

> <Gold.Chemscore.DG>
-18.6840

> <Gold.Chemscore.ZeroCoef>
-5.4800

> <Gold.Chemscore.Hbond>
1.8564

> <Gold.Chemscore.Metal>
0.0000

> <Gold.Chemscore.Lipo>
103.6666

> <Gold.Chemscore.Internal_Hbond>
0.0000

> <Gold.Chemscore.DEClash>
0.0976

> <Gold.Chemscore.DEInternal>
1.5423

> <Gold.Chemscore.Rot>
2.0020

> <Gold.Chemscore.Internal.Correction>
   9.000000E+99

> <Gold.Chemscore.Hbonds>
donor molecule, donor type, donor heavy atom, donor atom, acceptor molecule, acceptor atom, score
      P1  H  7989  7998       L1     2  0.17
      P1  H  7997  8009       L1     9  0.98

> <Gold.Chemscore.Hbond.Weighted>
-6.2002

> <Gold.Chemscore.Metal.Weighted>
-0.0000

> <Gold.Chemscore.Lipo.Weighted>
-12.1290

> <Gold.Chemscore.Internal_Hbond.Weighted>
0.0000

> <Gold.Chemscore.DEClash.Weighted>
0.0976

> <Gold.Chemscore.DEInternal.Weighted>
1.5423

> <Gold.Chemscore.Rot.Weighted>
5.1252

> <Gold.Chemscore.Internal.Correction.Weighted>
   9.000000E+99

> <Gold.Protein.RotatedTorsions>
[ 6907 6896 6895 6894 ] final -174.14 input  -60.11 | X-H torsion
[ 7974 7965 7964 7962 ] final   -8.47 input  175.53 | X-H torsion
[ 8008 7997 7996 7995 ] final  102.10 input   59.86 | X-H torsion
[ 10167 10162 10161 10158 ] final  120.12 input  -65.29 | X-H torsion
[ 10718 10713 10712 10709 ] final  145.46 input   66.30 | X-H torsion
[ 10763 10752 10751 10750 ] final  154.67 input  -60.55 | X-H torsion
[ 11005 11000 10999 10996 ] final   46.38 input  -57.11 | X-H torsion

> <Gold.Protein.ActiveResidues>
 VAL166  LYS551  ARG553  GLY616  TRP617  ASP618  TYR619  PRO620  LYS621  CYS622 
 ASP623  PHE694  ASN695  SER759  ASP760  ASP761  ALA762  ILE779  LEU786  VAL792 
 PHE793  MET794  SER795  GLU796  ALA797  LYS798  CYS799  TRP800  GLU811  SER814 

> <Gold.Protein.RotatedAtoms>
  151.5675  133.3394  159.2982 H   0  0  0  0  0  0  0  0  0  0  0  0  # atno 6907 bound_to 6896
  150.8386  134.7673  159.6925 H   0  0  0  0  0  0  0  0  0  0  0  0  # atno 6908 bound_to 6896
  152.4458  134.5504  159.9917 H   0  0  0  0  0  0  0  0  0  0  0  0  # atno 6909 bound_to 6896
  146.2279  140.2473  142.8346 H   0  0  0  0  0  0  0  0  0  0  0  0  # atno 7974 bound_to 7965
  156.1361  140.3187  155.8423 H   0  0  0  0  0  0  0  0  0  0  0  0  # atno 8008 bound_to 7997
  155.4241  140.0514  157.3040 H   0  0  0  0  0  0  0  0  0  0  0  0  # atno 8009 bound_to 7997
  154.4938  140.2103  155.9503 H   0  0  0  0  0  0  0  0  0  0  0  0  # atno 8010 bound_to 7997
  139.6002  144.7054  151.3081 H   0  0  0  0  0  0  0  0  0  0  0  0  # atno 10167 bound_to 10162
  157.3450  131.0942  151.1049 H   0  0  0  0  0  0  0  0  0  0  0  0  # atno 10718 bound_to 10713
  154.1560  135.2812  155.3122 H   0  0  0  0  0  0  0  0  0  0  0  0  # atno 10763 bound_to 10752
  154.6182  135.5476  153.7550 H   0  0  0  0  0  0  0  0  0  0  0  0  # atno 10764 bound_to 10752
  153.0206  135.6432  154.1703 H   0  0  0  0  0  0  0  0  0  0  0  0  # atno 10765 bound_to 10752
  140.1374  134.4627  155.8475 H   0  0  0  0  0  0  0  0  0  0  0  0  # atno 11005 bound_to 11000
  144.9438  140.8107  143.5614 LP  0  0  0  0  0  0  0  0  0  0  0  0  # atno 17320 bound_to 7965
  145.2427  139.2065  143.4984 LP  0  0  0  0  0  0  0  0  0  0  0  0  # atno 17321 bound_to 7965
  140.7243  143.7047  150.7817 LP  0  0  0  0  0  0  0  0  0  0  0  0  # atno 17342 bound_to 10162
  140.0621  143.5144  152.2622 LP  0  0  0  0  0  0  0  0  0  0  0  0  # atno 17343 bound_to 10162
  157.2247  130.6497  149.5825 LP  0  0  0  0  0  0  0  0  0  0  0  0  # atno 17370 bound_to 10713
  155.9713  130.4618  150.6122 LP  0  0  0  0  0  0  0  0  0  0  0  0  # atno 17371 bound_to 10713
  141.2180  133.6819  156.7183 LP  0  0  0  0  0  0  0  0  0  0  0  0  # atno 17394 bound_to 11000
  140.2765  134.8351  157.3894 LP  0  0  0  0  0  0  0  0  0  0  0  0  # atno 17395 bound_to 11000

$$$$
