AV-unprocessed.smi:541|AV-procd|sdf|2871|dock2
  -GOLD-   2262023363D 1   1.00000     0.00000
 Structure written by MMmdl.
 43 45  0  0  0  0  0  0  0  0  1 V2000
  156.4909  137.7905  154.5392 C   0  0  0  0  0  0  0  0  0  0  0  0
  155.0906  138.1940  154.0721 C   0  0  0  0  0  0  0  0  0  0  0  0
  154.2989  138.5045  155.2063 O   0  0  0  0  0  0  0  0  0  0  0  0
  152.9630  138.8339  154.8667 C   0  0  0  0  0  0  0  0  0  0  0  0
  152.2297  139.2948  156.1341 C   0  0  0  0  0  0  0  0  0  0  0  0
  151.1042  140.1707  155.8220 N   0  0  0  0  0  0  0  0  0  0  0  0
  150.7874  141.4118  156.3032 C   0  0  0  0  0  0  0  0  0  0  0  0
  151.5253  142.1104  157.2732 N   0  0  0  0  0  0  0  0  0  0  0  0
  152.3741  141.6397  158.3688 C   0  0  0  0  0  0  0  0  0  0  0  0
  152.5968  142.7987  159.3349 C   0  0  0  0  0  0  0  0  0  0  0  0
  152.5815  143.9863  158.3993 C   0  0  0  0  0  0  0  0  0  0  0  0
  151.5198  143.5700  157.3861 C   0  0  0  0  0  0  0  0  0  0  0  0
  149.6785  141.9318  155.7643 N   0  0  0  0  0  0  0  0  0  0  0  0
  149.2428  140.9512  154.8913 C   0  0  0  0  0  0  0  0  0  0  0  0
  150.0769  139.8833  154.9177 C   0  0  0  0  0  0  0  0  0  0  0  0
  149.8402  138.6846  154.0981 C   0  0  0  0  0  0  0  0  0  0  0  0
  150.5720  137.6974  154.1082 O   0  0  0  0  0  0  0  0  0  0  0  0
  148.7244  138.7729  153.3340 N   0  0  0  0  0  0  0  0  0  0  0  0
  147.8462  139.8185  153.2623 C   0  0  0  0  0  0  0  0  0  0  0  0
  146.8647  139.7479  152.5228 O   0  0  0  0  0  0  0  0  0  0  0  0
  148.1040  140.9203  154.0369 N   0  0  0  0  0  0  0  0  0  0  0  0
  147.1975  142.0697  154.0049 C   0  0  0  0  0  0  0  0  0  0  0  0
  148.5149  137.9731  152.7546 H   0  0  0  0  0  0  0  0  0  0  0  0
  157.1296  137.5472  153.6901 H   0  0  0  0  0  0  0  0  0  0  0  0
  156.4501  136.9160  155.1890 H   0  0  0  0  0  0  0  0  0  0  0  0
  156.9664  138.5994  155.0943 H   0  0  0  0  0  0  0  0  0  0  0  0
  155.1548  139.0588  153.4103 H   0  0  0  0  0  0  0  0  0  0  0  0
  154.6372  137.3778  153.5075 H   0  0  0  0  0  0  0  0  0  0  0  0
  152.9533  139.6273  154.1180 H   0  0  0  0  0  0  0  0  0  0  0  0
  152.4656  137.9695  154.4257 H   0  0  0  0  0  0  0  0  0  0  0  0
  151.8994  138.4521  156.7326 H   0  0  0  0  0  0  0  0  0  0  0  0
  152.9185  139.8254  156.7898 H   0  0  0  0  0  0  0  0  0  0  0  0
  151.9314  140.7951  158.8932 H   0  0  0  0  0  0  0  0  0  0  0  0
  153.3326  141.3243  157.9560 H   0  0  0  0  0  0  0  0  0  0  0  0
  151.7672  142.8661  160.0401 H   0  0  0  0  0  0  0  0  0  0  0  0
  153.5235  142.7095  159.9022 H   0  0  0  0  0  0  0  0  0  0  0  0
  152.3481  144.9264  158.9002 H   0  0  0  0  0  0  0  0  0  0  0  0
  153.5505  144.0892  157.9087 H   0  0  0  0  0  0  0  0  0  0  0  0
  151.6976  144.0394  156.4182 H   0  0  0  0  0  0  0  0  0  0  0  0
  150.5323  143.8831  157.7273 H   0  0  0  0  0  0  0  0  0  0  0  0
  146.9966  142.3814  152.9789 H   0  0  0  0  0  0  0  0  0  0  0  0
  147.6041  142.9355  154.5270 H   0  0  0  0  0  0  0  0  0  0  0  0
  146.2477  141.8149  154.4762 H   0  0  0  0  0  0  0  0  0  0  0  0
  1  2  1  0  0  0  0
  1 24  1  0  0  0  0
  1 25  1  0  0  0  0
  1 26  1  0  0  0  0
  2  3  1  0  0  0  0
  2 27  1  0  0  0  0
  2 28  1  0  0  0  0
  3  4  1  0  0  0  0
  4  5  1  0  0  0  0
  4 29  1  0  0  0  0
  4 30  1  0  0  0  0
  5  6  1  0  0  0  0
  5 31  1  0  0  0  0
  5 32  1  0  0  0  0
  6 15  1  0  0  0  0
  6  7  1  0  0  0  0
  7  8  1  0  0  0  0
  7 13  2  0  0  0  0
  8 12  1  0  0  0  0
  8  9  1  0  0  0  0
  9 10  1  0  0  0  0
  9 33  1  0  0  0  0
  9 34  1  0  0  0  0
 10 11  1  0  0  0  0
 10 35  1  0  0  0  0
 10 36  1  0  0  0  0
 11 12  1  0  0  0  0
 11 37  1  0  0  0  0
 11 38  1  0  0  0  0
 12 39  1  0  0  0  0
 12 40  1  0  0  0  0
 13 14  1  0  0  0  0
 14 21  1  0  0  0  0
 14 15  2  0  0  0  0
 15 16  1  0  0  0  0
 16 17  2  0  0  0  0
 16 18  1  0  0  0  0
 18 23  1  0  0  0  0
 18 19  1  0  0  0  0
 19 20  2  0  0  0  0
 19 21  1  0  0  0  0
 21 22  1  0  0  0  0
 22 41  1  0  0  0  0
 22 42  1  0  0  0  0
 22 43  1  0  0  0  0
M  END
> <s_m_source_file>
AV-unprocessed.smi

> <i_m_source_file_index>
541

> <i_lp_mmshare_version>
43012

> <i_f3d_flags>
0

> <s_epik_input>
W0NIM11uMWMoPU8pW25IXWMoPU8pYyhjMTIpbihbQ0gyXVtDSDJdT1tDSDJdW0NIM10pYyhuMilOM1tDSDJdW0NIMl1bQ0gyXVtDSDJdMw==

> <s_epik_cmdline>
J2VwaWtfcHl0aG9uJywgJy1waCcsICc3LjAnLCAnLXRuJywgJzgnLCAnLW1hJywgJzIwMCcsICctbWV0YWxfYmluZGluZycsICctaW1hZScsICc8aW5maWxlLm1hZT4nLCAnLW9tYWUnLCAnPG91dGZpbGUubWFlPic=

> <r_lp_tautomer_probability>
1

> <r_epik_Ionization_Penalty>
0.00016913

> <r_epik_Ionization_Penalty_Charging>
2.12732e-05

> <r_epik_Ionization_Penalty_Neutral>
0.000147857

> <r_epik_State_Penalty>
-0

> <r_epik_Charging_Adjusted_Penalty>
2.12732e-05

> <i_epik_Tot_Q>
0

> <i_epik_Tot_abs_Q>
0

> <r_epik_Metal_State_Penalty>
0.0201837

> <b_epik_Metal_Only>
0

> <s_lp_Force_Field>
OPLS_2005

> <r_lp_Energy>
45.5158

> <b_lp_Chiralities_Consistent>
1

> <s_lp_Variant>
AV-unprocessed.smi:541-1

> <Gold.Version>
5.8.1

> <Gold.Id.Protein>
6NUR|6NUR_protein|mol2

> <Gold.PLP.Fitness>
49.3354

> <Gold.PLP.PLP>
-45.9349

> <Gold.PLP.part.hbond>
-2.6226

> <Gold.PLP.part.metal>
0.0000

> <Gold.PLP.part.buried>
-2.9102

> <Gold.PLP.part.nonpolar>
-42.2644

> <Gold.PLP.part.repulsive>
2.1866

> <Gold.PLP.ligand.clash>
0.0000

> <Gold.PLP.ligand.torsion>
0.5152

> <Gold.PLP.Chemscore.Hbond>
1.4712

> <Gold.PLP.Chemscore.CHOScore>
0.0000

> <Gold.PLP.Chemscore.Metal>
0.0000

> <Gold.Chemscore.Hbonds>
donor molecule, donor type, donor heavy atom, donor atom, acceptor molecule, acceptor atom, score
      L1  H    18    23       P1  7948  1.00
      P1  H  7997  8008       L1     3  0.32

> <Gold.PLP.Chemscore.Internal.Correction>
0.0173

> <Gold.Rescore>
     Score         DG    S(hbond)    S(metal)    S(lipo)     H(rot)  DE(clash)    DE(int)     intcor
     12.98     -15.52       1.00        0.00      93.84       1.67       0.97       1.56       ----

> <Gold.Chemscore.Fitness>
12.9840

> <Gold.Chemscore.DG>
-15.5171

> <Gold.Chemscore.ZeroCoef>
-5.4800

> <Gold.Chemscore.Hbond>
0.9959

> <Gold.Chemscore.Metal>
0.0000

> <Gold.Chemscore.Lipo>
93.8439

> <Gold.Chemscore.Internal_Hbond>
0.0000

> <Gold.Chemscore.DEClash>
0.9741

> <Gold.Chemscore.DEInternal>
1.5590

> <Gold.Chemscore.Rot>
1.6675

> <Gold.Chemscore.Internal.Correction>
   9.000000E+99

> <Gold.Chemscore.Hbonds>
donor molecule, donor type, donor heavy atom, donor atom, acceptor molecule, acceptor atom, score
      L1  H    18    23       P1  7948  0.94
      P1  H  7997  8008       L1     3  0.01

> <Gold.Chemscore.Hbond.Weighted>
-3.3263

> <Gold.Chemscore.Metal.Weighted>
-0.0000

> <Gold.Chemscore.Lipo.Weighted>
-10.9797

> <Gold.Chemscore.Internal_Hbond.Weighted>
0.0000

> <Gold.Chemscore.DEClash.Weighted>
0.9741

> <Gold.Chemscore.DEInternal.Weighted>
1.5590

> <Gold.Chemscore.Rot.Weighted>
4.2689

> <Gold.Chemscore.Internal.Correction.Weighted>
   9.000000E+99

> <Gold.Protein.RotatedTorsions>
[ 6907 6896 6895 6894 ] final   56.59 input  -60.11 | X-H torsion
[ 7974 7965 7964 7962 ] final    7.98 input  175.53 | X-H torsion
[ 8008 7997 7996 7995 ] final   16.71 input   59.86 | X-H torsion
[ 10167 10162 10161 10158 ] final  178.45 input  -65.29 | X-H torsion
[ 10718 10713 10712 10709 ] final -149.88 input   66.30 | X-H torsion
[ 10763 10752 10751 10750 ] final  -95.18 input  -60.55 | X-H torsion
[ 11005 11000 10999 10996 ] final  168.61 input  -57.11 | X-H torsion

> <Gold.Protein.ActiveResidues>
 VAL166  LYS551  ARG553  GLY616  TRP617  ASP618  TYR619  PRO620  LYS621  CYS622 
 ASP623  PHE694  ASN695  SER759  ASP760  ASP761  ALA762  ILE779  LEU786  VAL792 
 PHE793  MET794  SER795  GLU796  ALA797  LYS798  CYS799  TRP800  GLU811  SER814 

> <Gold.Protein.RotatedAtoms>
  152.3651  134.6816  160.0194 H   0  0  0  0  0  0  0  0  0  0  0  0  # atno 6907 bound_to 6896
  151.7127  133.3307  159.3303 H   0  0  0  0  0  0  0  0  0  0  0  0  # atno 6908 bound_to 6896
  150.7632  134.6452  159.6303 H   0  0  0  0  0  0  0  0  0  0  0  0  # atno 6909 bound_to 6896
  146.2421  140.0001  142.8417 H   0  0  0  0  0  0  0  0  0  0  0  0  # atno 7974 bound_to 7965
  154.8808  140.2972  155.5426 H   0  0  0  0  0  0  0  0  0  0  0  0  # atno 8008 bound_to 7997
  156.3022  140.2442  156.3744 H   0  0  0  0  0  0  0  0  0  0  0  0  # atno 8009 bound_to 7997
  154.8719  140.0401  157.1718 H   0  0  0  0  0  0  0  0  0  0  0  0  # atno 8010 bound_to 7997
  139.5294  144.2678  152.0653 H   0  0  0  0  0  0  0  0  0  0  0  0  # atno 10167 bound_to 10162
  156.4389  130.8112  151.2341 H   0  0  0  0  0  0  0  0  0  0  0  0  # atno 10718 bound_to 10713
  154.7125  135.5130  153.8687 H   0  0  0  0  0  0  0  0  0  0  0  0  # atno 10763 bound_to 10752
  153.0792  135.6626  154.0089 H   0  0  0  0  0  0  0  0  0  0  0  0  # atno 10764 bound_to 10752
  153.9929  135.3018  155.3390 H   0  0  0  0  0  0  0  0  0  0  0  0  # atno 10765 bound_to 10752
  140.2891  134.7688  157.3823 H   0  0  0  0  0  0  0  0  0  0  0  0  # atno 11005 bound_to 11000
  145.1423  140.9578  143.4481 LP  0  0  0  0  0  0  0  0  0  0  0  0  # atno 17320 bound_to 7965
  145.0284  139.3362  143.6037 LP  0  0  0  0  0  0  0  0  0  0  0  0  # atno 17321 bound_to 7965
  140.2140  144.4534  150.6372 LP  0  0  0  0  0  0  0  0  0  0  0  0  # atno 17342 bound_to 10162
  140.6462  143.2214  151.6180 LP  0  0  0  0  0  0  0  0  0  0  0  0  # atno 17343 bound_to 10162
  157.7507  131.0174  150.3586 LP  0  0  0  0  0  0  0  0  0  0  0  0  # atno 17370 bound_to 10713
  156.3939  130.3903  149.7009 LP  0  0  0  0  0  0  0  0  0  0  0  0  # atno 17371 bound_to 10713
  140.1212  134.5217  155.8182 LP  0  0  0  0  0  0  0  0  0  0  0  0  # atno 17394 bound_to 11000
  141.2149  133.6757  156.6869 LP  0  0  0  0  0  0  0  0  0  0  0  0  # atno 17395 bound_to 11000

$$$$
