AV-unprocessed.smi:2528|AV-procd|sdf|9952|dock1
  -GOLD-   2272013593D 1   1.00000     0.00000
 Structure written by MMmdl.
 44 46  0  0  0  0  0  0  0  0  2 V2000
  144.4231  136.5565  152.5435 O   0  0  0  0  0  0  0  0  0  0  0  0
  145.6359  136.3835  152.4207 C   0  0  0  0  0  0  0  0  0  0  0  0
  146.5542  137.2479  152.8766 N   0  0  0  0  0  0  0  0  0  0  0  0
  146.2585  138.4939  153.5756 C   0  0  0  0  0  0  0  0  0  0  0  0
  147.4333  139.4852  153.5007 C   0  0  2  0  0  0  0  0  0  0  0  0
  148.7082  138.9045  154.1396 C   0  0  0  0  0  0  0  0  0  0  0  0
  149.8062  139.9024  154.1181 N   0  3  2  0  0  0  0  0  0  0  0  0
  151.0905  139.3950  154.6679 C   0  0  0  0  0  0  0  0  0  0  0  0
  151.0718  139.3062  156.2061 C   0  0  0  0  0  0  0  0  0  0  0  0
  150.6800  140.6516  156.8319 C   0  0  0  0  0  0  0  0  0  0  0  0
  149.3470  141.1445  156.2512 C   0  0  0  0  0  0  0  0  0  0  0  0
  149.4020  141.2082  154.7089 C   0  0  2  0  0  0  0  0  0  0  0  0
  148.0757  141.6852  154.0862 C   0  0  0  0  0  0  0  0  0  0  0  0
  147.0850  140.6725  154.2053 O   0  0  0  0  0  0  0  0  0  0  0  0
  146.2156  135.3285  151.8217 N   0  0  0  0  0  0  0  0  0  0  0  0
  145.5865  134.2037  151.2247 C   0  0  0  0  0  0  0  0  0  0  0  0
  146.4689  133.2486  150.6705 C   0  0  0  0  0  0  0  0  0  0  0  0
  145.9443  132.0944  150.0574 C   0  0  0  0  0  0  0  0  0  0  0  0
  144.5489  131.9252  150.0132 C   0  0  0  0  0  0  0  0  0  0  0  0
  143.7411  132.9238  150.5878 C   0  0  0  0  0  0  0  0  0  0  0  0
  144.2418  134.0307  151.1761 N   0  0  0  0  0  0  0  0  0  0  0  0
  147.5287  137.0256  152.7350 H   0  0  0  0  0  0  0  0  0  0  0  0
  145.3435  138.9484  153.1914 H   0  0  0  0  0  0  0  0  0  0  0  0
  146.0598  138.2400  154.6171 H   0  0  0  0  0  0  0  0  0  0  0  0
  147.6270  139.7248  152.4530 H   0  0  0  0  0  0  0  0  0  0  0  0
  148.4986  138.5913  155.1625 H   0  0  0  0  0  0  0  0  0  0  0  0
  149.0221  138.0134  153.5947 H   0  0  0  0  0  0  0  0  0  0  0  0
  151.3257  138.4235  154.2313 H   0  0  0  0  0  0  0  0  0  0  0  0
  151.8861  140.0723  154.3551 H   0  0  0  0  0  0  0  0  0  0  0  0
  150.3751  138.5327  156.5301 H   0  0  0  0  0  0  0  0  0  0  0  0
  152.0532  139.0018  156.5707 H   0  0  0  0  0  0  0  0  0  0  0  0
  150.6063  140.5557  157.9156 H   0  0  0  0  0  0  0  0  0  0  0  0
  151.4601  141.3885  156.6370 H   0  0  0  0  0  0  0  0  0  0  0  0
  148.5392  140.4884  156.5775 H   0  0  0  0  0  0  0  0  0  0  0  0
  149.1171  142.1308  156.6554 H   0  0  0  0  0  0  0  0  0  0  0  0
  150.1704  141.9343  154.4393 H   0  0  0  0  0  0  0  0  0  0  0  0
  147.7234  142.5892  154.5839 H   0  0  0  0  0  0  0  0  0  0  0  0
  148.2139  141.9422  153.0347 H   0  0  0  0  0  0  0  0  0  0  0  0
  147.2244  135.3251  151.7952 H   0  0  0  0  0  0  0  0  0  0  0  0
  147.5386  133.3941  150.7127 H   0  0  0  0  0  0  0  0  0  0  0  0
  146.6018  131.3525  149.6285 H   0  0  0  0  0  0  0  0  0  0  0  0
  144.1090  131.0534  149.5521 H   0  0  0  0  0  0  0  0  0  0  0  0
  142.6651  132.8322  150.5755 H   0  0  0  0  0  0  0  0  0  0  0  0
  149.9769  140.0838  153.1392 H   0  0  0  0  0  0  0  0  0  0  0  0
  1  2  2  0  0  0  0
  2  3  1  0  0  0  0
  2 15  1  0  0  0  0
  3  4  1  0  0  0  0
  3 22  1  0  0  0  0
  4  5  1  0  0  0  0
  4 23  1  0  0  0  0
  4 24  1  0  0  0  0
  5 14  1  0  0  0  0
  5  6  1  0  0  0  0
  5 25  1  0  0  0  0
  6  7  1  0  0  0  0
  6 26  1  0  0  0  0
  6 27  1  0  0  0  0
  7 12  1  0  0  0  0
  7  8  1  0  0  0  0
  7 44  1  0  0  0  0
  8  9  1  0  0  0  0
  8 28  1  0  0  0  0
  8 29  1  0  0  0  0
  9 10  1  0  0  0  0
  9 30  1  0  0  0  0
  9 31  1  0  0  0  0
 10 11  1  0  0  0  0
 10 32  1  0  0  0  0
 10 33  1  0  0  0  0
 11 12  1  0  0  0  0
 11 34  1  0  0  0  0
 11 35  1  0  0  0  0
 12 13  1  0  0  0  0
 12 36  1  0  0  0  0
 13 14  1  0  0  0  0
 13 37  1  0  0  0  0
 13 38  1  0  0  0  0
 15 16  1  0  0  0  0
 15 39  1  0  0  0  0
 16 21  1  0  0  0  0
 16 17  2  0  0  0  0
 17 18  1  0  0  0  0
 17 40  1  0  0  0  0
 18 19  2  0  0  0  0
 18 41  1  0  0  0  0
 19 20  1  0  0  0  0
 19 42  1  0  0  0  0
 20 21  2  0  0  0  0
 20 43  1  0  0  0  0
M  CHG  1   7   1
M  END
> <s_m_source_file>
AV-unprocessed.smi

> <i_m_source_file_index>
2528

> <i_lp_mmshare_version>
43012

> <i_f3d_flags>
0

> <s_epik_input>
bjFbY0hdW2NIXVtjSF1bY0hdYzFbTkhdQyg9TylbTkhdW0NIMl1bQ0BIXShbQ0gyXTIpT1tDSDJdW0NAQEhdKE4yMylbQ0gyXVtDSDJdW0NIMl1bQ0gyXTM=

> <s_epik_cmdline>
J2VwaWtfcHl0aG9uJywgJy1waCcsICc3LjAnLCAnLXRuJywgJzgnLCAnLW1hJywgJzIwMCcsICctbWV0YWxfYmluZGluZycsICctaW1hZScsICc8aW5maWxlLm1hZT4nLCAnLW9tYWUnLCAnPG91dGZpbGUubWFlPic=

> <r_epik_Ionization_Penalty>
0.0932337

> <r_epik_Ionization_Penalty_Charging>
0.0931942

> <r_epik_Ionization_Penalty_Neutral>
3.9565e-05

> <r_epik_State_Penalty>
0.0834605

> <r_epik_Charging_Adjusted_Penalty>
0.176655

> <i_epik_Tot_Q>
1

> <i_epik_Tot_abs_Q>
1

> <r_epik_Metal_State_Penalty>
0.0834607

> <b_epik_Metal_Only>
0

> <s_lp_Force_Field>
OPLS_2005

> <r_lp_Energy>
26.7446

> <b_lp_Chiralities_Consistent>
1

> <s_lp_Variant>
AV-unprocessed.smi:2528-5

> <Gold.Version>
5.8.1

> <Gold.Id.Protein>
6NUR|6NUR_protein|mol2

> <Gold.PLP.Fitness>
49.5444

> <Gold.PLP.PLP>
-37.8454

> <Gold.PLP.part.hbond>
-3.0000

> <Gold.PLP.part.metal>
0.0000

> <Gold.PLP.part.buried>
-2.9055

> <Gold.PLP.part.nonpolar>
-32.5813

> <Gold.PLP.part.repulsive>
1.3190

> <Gold.PLP.ligand.clash>
0.0000

> <Gold.PLP.ligand.torsion>
0.1518

> <Gold.PLP.Chemscore.Hbond>
3.0000

> <Gold.PLP.Chemscore.CHOScore>
1.0000

> <Gold.PLP.Chemscore.Metal>
0.0000

> <Gold.Chemscore.Hbonds>
donor molecule, donor type, donor heavy atom, donor atom, acceptor molecule, acceptor atom, score
      L1  H     3    22       P1  7948  1.00
      L1  H     7    44       P1  7957  1.00
      L1  H    15    39       P1  7948  1.00
      L1  C    20    43       P1 10186  0.96

> <Gold.PLP.Chemscore.Internal.Correction>
0.0027

> <Gold.Rescore>
     Score         DG    S(hbond)    S(metal)    S(lipo)     H(rot)  DE(clash)    DE(int)     intcor
     21.43     -22.93       2.88        0.00      95.07       1.29       0.11       1.39       ----

> <Gold.Chemscore.Fitness>
21.4312

> <Gold.Chemscore.DG>
-22.9335

> <Gold.Chemscore.ZeroCoef>
-5.4800

> <Gold.Chemscore.Hbond>
2.8817

> <Gold.Chemscore.Metal>
0.0000

> <Gold.Chemscore.Lipo>
95.0721

> <Gold.Chemscore.Internal_Hbond>
0.0000

> <Gold.Chemscore.DEClash>
0.1101

> <Gold.Chemscore.DEInternal>
1.3921

> <Gold.Chemscore.Rot>
1.2870

> <Gold.Chemscore.Internal.Correction>
   9.000000E+99

> <Gold.Chemscore.Hbonds>
donor molecule, donor type, donor heavy atom, donor atom, acceptor molecule, acceptor atom, score
      L1  H     3    22       P1  7948  0.98
      L1  H     7    44       P1  7957  0.94
      L1  H    15    39       P1  7948  0.96

> <Gold.Chemscore.Hbond.Weighted>
-9.6249

> <Gold.Chemscore.Metal.Weighted>
-0.0000

> <Gold.Chemscore.Lipo.Weighted>
-11.1234

> <Gold.Chemscore.Internal_Hbond.Weighted>
0.0000

> <Gold.Chemscore.DEClash.Weighted>
0.1101

> <Gold.Chemscore.DEInternal.Weighted>
1.3921

> <Gold.Chemscore.Rot.Weighted>
3.2948

> <Gold.Chemscore.Internal.Correction.Weighted>
   9.000000E+99

> <Gold.Protein.RotatedTorsions>
[ 6907 6896 6895 6894 ] final  -40.27 input  -60.11 | X-H torsion
[ 7974 7965 7964 7962 ] final  133.29 input  175.53 | X-H torsion
[ 8008 7997 7996 7995 ] final   40.62 input   59.86 | X-H torsion
[ 10167 10162 10161 10158 ] final  176.07 input  -65.29 | X-H torsion
[ 10718 10713 10712 10709 ] final  -71.55 input   66.30 | X-H torsion
[ 10763 10752 10751 10750 ] final  177.50 input  -60.55 | X-H torsion
[ 11005 11000 10999 10996 ] final -100.05 input  -57.11 | X-H torsion

> <Gold.Protein.ActiveResidues>
 VAL166  LYS551  ARG553  GLY616  TRP617  ASP618  TYR619  PRO620  LYS621  CYS622 
 ASP623  PHE694  ASN695  SER759  ASP760  ASP761  ALA762  ILE779  LEU786  VAL792 
 PHE793  MET794  SER795  GLU796  ALA797  LYS798  CYS799  TRP800  GLU811  SER814 

> <Gold.Protein.RotatedAtoms>
  150.9804  134.9160  159.7840 H   0  0  0  0  0  0  0  0  0  0  0  0  # atno 6907 bound_to 6896
  152.5220  134.3418  159.9230 H   0  0  0  0  0  0  0  0  0  0  0  0  # atno 6908 bound_to 6896
  151.3426  133.3915  159.2707 H   0  0  0  0  0  0  0  0  0  0  0  0  # atno 6909 bound_to 6896
  144.9881  139.4435  143.5353 H   0  0  0  0  0  0  0  0  0  0  0  0  # atno 7974 bound_to 7965
  155.2561  140.3356  155.4277 H   0  0  0  0  0  0  0  0  0  0  0  0  # atno 8008 bound_to 7997
  156.2195  140.1803  156.7554 H   0  0  0  0  0  0  0  0  0  0  0  0  # atno 8009 bound_to 7997
  154.5803  140.0655  156.9079 H   0  0  0  0  0  0  0  0  0  0  0  0  # atno 8010 bound_to 7997
  139.5200  144.2958  152.0423 H   0  0  0  0  0  0  0  0  0  0  0  0  # atno 10167 bound_to 10162
  156.0358  130.4353  150.2460 H   0  0  0  0  0  0  0  0  0  0  0  0  # atno 10718 bound_to 10713
  154.4953  135.2781  155.1464 H   0  0  0  0  0  0  0  0  0  0  0  0  # atno 10763 bound_to 10752
  154.3119  135.6227  153.5473 H   0  0  0  0  0  0  0  0  0  0  0  0  # atno 10764 bound_to 10752
  152.9894  135.5722  154.5384 H   0  0  0  0  0  0  0  0  0  0  0  0  # atno 10765 bound_to 10752
  141.1285  133.8369  157.1052 H   0  0  0  0  0  0  0  0  0  0  0  0  # atno 11005 bound_to 11000
  146.3425  139.9195  142.8768 LP  0  0  0  0  0  0  0  0  0  0  0  0  # atno 17320 bound_to 7965
  145.2325  140.9978  143.3982 LP  0  0  0  0  0  0  0  0  0  0  0  0  # atno 17321 bound_to 7965
  140.2408  144.4271  150.6261 LP  0  0  0  0  0  0  0  0  0  0  0  0  # atno 17342 bound_to 10162
  140.6292  143.2185  151.6532 LP  0  0  0  0  0  0  0  0  0  0  0  0  # atno 17343 bound_to 10162
  157.0560  131.0076  151.3238 LP  0  0  0  0  0  0  0  0  0  0  0  0  # atno 17370 bound_to 10713
  157.5106  130.7936  149.7701 LP  0  0  0  0  0  0  0  0  0  0  0  0  # atno 17371 bound_to 10713
  140.0309  134.9902  157.0778 LP  0  0  0  0  0  0  0  0  0  0  0  0  # atno 17394 bound_to 11000
  140.4287  134.1803  155.7167 LP  0  0  0  0  0  0  0  0  0  0  0  0  # atno 17395 bound_to 11000

$$$$
