AV-unprocessed.smi:311|AV-procd|sdf|2303|dock4
  -GOLD-   2262022203D 1   1.00000     0.00000
 Structure written by MMmdl.
 44 46  0  0  0  0  0  0  0  0  2 V2000
  153.4324  129.4538  154.7790 C   0  0  0  0  0  0  0  0  0  0  0  0
  152.4084  129.6191  155.8651 C   0  0  0  0  0  0  0  0  0  0  0  0
  152.7771  129.5087  157.1302 N   0  0  0  0  0  0  0  0  0  0  0  0
  151.6195  129.7147  157.8866 O   0  0  0  0  0  0  0  0  0  0  0  0
  150.5870  129.9451  157.0365 C   0  0  0  0  0  0  0  0  0  0  0  0
  149.2541  130.2047  157.6525 C   0  0  0  0  0  0  0  0  0  0  0  0
  151.0177  129.9013  155.7389 C   0  0  0  0  0  0  0  0  0  0  0  0
  150.2214  130.1205  154.4773 C   0  0  0  0  0  0  0  0  0  0  0  0
  149.6733  131.5467  154.4753 C   0  0  0  0  0  0  0  0  0  0  0  0
  149.9766  132.3285  155.3757 O   0  0  0  0  0  0  0  0  0  0  0  0
  148.8977  131.8845  153.4339 N   0  0  0  0  0  0  0  0  0  0  0  0
  148.4061  133.2311  153.1623 C   0  0  2  0  0  0  0  0  0  0  0  0
  147.5031  133.7821  154.2743 C   0  0  0  0  0  0  0  0  0  0  0  0
  146.4810  134.6809  153.5548 C   0  0  0  0  0  0  0  0  0  0  0  0
  146.8042  134.6003  152.1128 N   0  3  2  0  0  0  0  0  0  0  0  0
  145.6923  134.8800  151.1684 C   0  0  0  0  0  0  0  0  0  0  0  0
  144.7367  133.6861  151.0036 C   0  0  0  0  0  0  0  0  0  0  0  0
  145.5130  132.4206  150.6262 C   0  0  0  0  0  0  0  0  0  0  0  0
  146.5698  132.1288  151.6958 C   0  0  0  0  0  0  0  0  0  0  0  0
  147.5314  133.3293  151.8995 C   0  0  2  0  0  0  0  0  0  0  0  0
  154.4441  129.6190  155.1513 H   0  0  0  0  0  0  0  0  0  0  0  0
  153.2630  130.1611  153.9674 H   0  0  0  0  0  0  0  0  0  0  0  0
  153.3927  128.4492  154.3581 H   0  0  0  0  0  0  0  0  0  0  0  0
  148.9644  131.2463  157.5142 H   0  0  0  0  0  0  0  0  0  0  0  0
  149.2668  129.9957  158.7224 H   0  0  0  0  0  0  0  0  0  0  0  0
  148.4889  129.5775  157.1953 H   0  0  0  0  0  0  0  0  0  0  0  0
  150.8281  129.9690  153.5839 H   0  0  0  0  0  0  0  0  0  0  0  0
  149.3917  129.4162  154.4051 H   0  0  0  0  0  0  0  0  0  0  0  0
  148.6970  131.1747  152.7444 H   0  0  0  0  0  0  0  0  0  0  0  0
  149.2566  133.9077  153.0526 H   0  0  0  0  0  0  0  0  0  0  0  0
  146.9805  132.9746  154.7899 H   0  0  0  0  0  0  0  0  0  0  0  0
  148.0774  134.3303  155.0221 H   0  0  0  0  0  0  0  0  0  0  0  0
  145.4697  134.3220  153.7495 H   0  0  0  0  0  0  0  0  0  0  0  0
  146.5373  135.7160  153.8928 H   0  0  0  0  0  0  0  0  0  0  0  0
  145.1488  135.7688  151.4912 H   0  0  0  0  0  0  0  0  0  0  0  0
  146.1313  135.1213  150.1995 H   0  0  0  0  0  0  0  0  0  0  0  0
  144.1808  133.5176  151.9263 H   0  0  0  0  0  0  0  0  0  0  0  0
  143.9950  133.9093  150.2361 H   0  0  0  0  0  0  0  0  0  0  0  0
  144.8317  131.5745  150.5311 H   0  0  0  0  0  0  0  0  0  0  0  0
  145.9916  132.5497  149.6545 H   0  0  0  0  0  0  0  0  0  0  0  0
  146.0669  131.8832  152.6320 H   0  0  0  0  0  0  0  0  0  0  0  0
  147.1320  131.2394  151.4102 H   0  0  0  0  0  0  0  0  0  0  0  0
  148.1577  133.4289  151.0117 H   0  0  0  0  0  0  0  0  0  0  0  0
  147.4889  135.3276  151.9630 H   0  0  0  0  0  0  0  0  0  0  0  0
  1  2  1  0  0  0  0
  1 21  1  0  0  0  0
  1 22  1  0  0  0  0
  1 23  1  0  0  0  0
  2  7  1  0  0  0  0
  2  3  2  0  0  0  0
  3  4  1  0  0  0  0
  4  5  1  0  0  0  0
  5  6  1  0  0  0  0
  5  7  2  0  0  0  0
  6 24  1  0  0  0  0
  6 25  1  0  0  0  0
  6 26  1  0  0  0  0
  7  8  1  0  0  0  0
  8  9  1  0  0  0  0
  8 27  1  0  0  0  0
  8 28  1  0  0  0  0
  9 10  2  0  0  0  0
  9 11  1  0  0  0  0
 11 12  1  0  0  0  0
 11 29  1  0  0  0  0
 12 20  1  0  0  0  0
 12 13  1  0  0  0  0
 12 30  1  0  0  0  0
 13 14  1  0  0  0  0
 13 31  1  0  0  0  0
 13 32  1  0  0  0  0
 14 15  1  0  0  0  0
 14 33  1  0  0  0  0
 14 34  1  0  0  0  0
 15 20  1  0  0  0  0
 15 16  1  0  0  0  0
 15 44  1  0  0  0  0
 16 17  1  0  0  0  0
 16 35  1  0  0  0  0
 16 36  1  0  0  0  0
 17 18  1  0  0  0  0
 17 37  1  0  0  0  0
 17 38  1  0  0  0  0
 18 19  1  0  0  0  0
 18 39  1  0  0  0  0
 18 40  1  0  0  0  0
 19 20  1  0  0  0  0
 19 41  1  0  0  0  0
 19 42  1  0  0  0  0
 20 43  1  0  0  0  0
M  CHG  1  15   1
M  END
> <s_m_source_file>
AV-unprocessed.smi

> <i_m_source_file_index>
311

> <i_lp_mmshare_version>
43012

> <i_f3d_flags>
0

> <s_epik_input>
W0NIM11jMW5vYyhbQ0gzXSljMVtDSDJdQyg9TylbTkhdW0NASF0oW0NIMl1bQ0gyXTIpW0NAQEhdKE4yMylbQ0gyXVtDSDJdW0NIMl1bQ0gyXTM=

> <s_epik_cmdline>
J2VwaWtfcHl0aG9uJywgJy1waCcsICc3LjAnLCAnLXRuJywgJzgnLCAnLW1hJywgJzIwMCcsICctbWV0YWxfYmluZGluZycsICctaW1hZScsICc8aW5maWxlLm1hZT4nLCAnLW9tYWUnLCAnPG91dGZpbGUubWFlPic=

> <r_epik_Ionization_Penalty>
0.00173669

> <r_epik_Ionization_Penalty_Charging>
0.0017366

> <r_epik_Ionization_Penalty_Neutral>
9.2145e-08

> <r_epik_State_Penalty>
0.00117499

> <r_epik_Charging_Adjusted_Penalty>
0.00291159

> <i_epik_Tot_Q>
1

> <i_epik_Tot_abs_Q>
1

> <r_epik_Metal_State_Penalty>
-0

> <b_epik_Metal_Only>
0

> <s_lp_Force_Field>
OPLS_2005

> <r_lp_Energy>
29.2013

> <b_lp_Chiralities_Consistent>
1

> <s_lp_Variant>
AV-unprocessed.smi:311-7

> <Gold.Version>
5.8.1

> <Gold.Id.Protein>
6NUR|6NUR_protein|mol2

> <Gold.PLP.Fitness>
36.3188

> <Gold.PLP.PLP>
-30.3566

> <Gold.PLP.part.hbond>
-1.1064

> <Gold.PLP.part.metal>
0.0000

> <Gold.PLP.part.buried>
-4.1831

> <Gold.PLP.part.nonpolar>
-25.0441

> <Gold.PLP.part.repulsive>
0.0186

> <Gold.PLP.ligand.clash>
0.0000

> <Gold.PLP.ligand.torsion>
0.0217

> <Gold.PLP.Chemscore.Hbond>
2.0000

> <Gold.PLP.Chemscore.CHOScore>
0.0000

> <Gold.PLP.Chemscore.Metal>
0.0000

> <Gold.Chemscore.Hbonds>
donor molecule, donor type, donor heavy atom, donor atom, acceptor molecule, acceptor atom, score
      L1  H    15    44       P1  7948  2.00

> <Gold.PLP.Chemscore.Internal.Correction>
0.0056

> <Gold.Rescore>
     Score         DG    S(hbond)    S(metal)    S(lipo)     H(rot)  DE(clash)    DE(int)     intcor
     12.71     -13.93       1.00        0.00      73.31       1.36       0.09       1.13       ----

> <Gold.Chemscore.Fitness>
12.7119

> <Gold.Chemscore.DG>
-13.9276

> <Gold.Chemscore.ZeroCoef>
-5.4800

> <Gold.Chemscore.Hbond>
1.0011

> <Gold.Chemscore.Metal>
0.0000

> <Gold.Chemscore.Lipo>
73.3088

> <Gold.Chemscore.Internal_Hbond>
0.0000

> <Gold.Chemscore.DEClash>
0.0854

> <Gold.Chemscore.DEInternal>
1.1303

> <Gold.Chemscore.Rot>
1.3567

> <Gold.Chemscore.Internal.Correction>
   9.000000E+99

> <Gold.Chemscore.Hbonds>
donor molecule, donor type, donor heavy atom, donor atom, acceptor molecule, acceptor atom, score
      L1  H    11    29       P1 10747  0.02
      L1  H    15    44       P1  7948  0.99

> <Gold.Chemscore.Hbond.Weighted>
-3.3436

> <Gold.Chemscore.Metal.Weighted>
-0.0000

> <Gold.Chemscore.Lipo.Weighted>
-8.5771

> <Gold.Chemscore.Internal_Hbond.Weighted>
0.0000

> <Gold.Chemscore.DEClash.Weighted>
0.0854

> <Gold.Chemscore.DEInternal.Weighted>
1.1303

> <Gold.Chemscore.Rot.Weighted>
3.4731

> <Gold.Chemscore.Internal.Correction.Weighted>
   9.000000E+99

> <Gold.Protein.RotatedTorsions>
[ 6907 6896 6895 6894 ] final  -20.27 input  -60.11 | X-H torsion
[ 7974 7965 7964 7962 ] final    6.41 input  175.53 | X-H torsion
[ 8008 7997 7996 7995 ] final   44.21 input   59.86 | X-H torsion
[ 10167 10162 10161 10158 ] final  169.20 input  -65.29 | X-H torsion
[ 10718 10713 10712 10709 ] final -107.37 input   66.30 | X-H torsion
[ 10763 10752 10751 10750 ] final  -52.72 input  -60.55 | X-H torsion
[ 11005 11000 10999 10996 ] final   20.13 input  -57.11 | X-H torsion

> <Gold.Protein.ActiveResidues>
 VAL166  LYS551  ARG553  GLY616  TRP617  ASP618  TYR619  PRO620  LYS621  CYS622 
 ASP623  PHE694  ASN695  SER759  ASP760  ASP761  ALA762  ILE779  LEU786  VAL792 
 PHE793  MET794  SER795  GLU796  ALA797  LYS798  CYS799  TRP800  GLU811  SER814 

> <Gold.Protein.RotatedAtoms>
  151.2506  135.0621  159.9060 H   0  0  0  0  0  0  0  0  0  0  0  0  # atno 6907 bound_to 6896
  152.5380  134.0336  159.8046 H   0  0  0  0  0  0  0  0  0  0  0  0  # atno 6908 bound_to 6896
  151.0544  133.5548  159.2671 H   0  0  0  0  0  0  0  0  0  0  0  0  # atno 6909 bound_to 6896
  146.2435  140.0238  142.8395 H   0  0  0  0  0  0  0  0  0  0  0  0  # atno 7974 bound_to 7965
  155.3155  140.3393  155.4242 H   0  0  0  0  0  0  0  0  0  0  0  0  # atno 8008 bound_to 7997
  156.1935  140.1706  156.8083 H   0  0  0  0  0  0  0  0  0  0  0  0  # atno 8009 bound_to 7997
  154.5470  140.0713  156.8589 H   0  0  0  0  0  0  0  0  0  0  0  0  # atno 8010 bound_to 7997
  139.4986  144.3731  151.9703 H   0  0  0  0  0  0  0  0  0  0  0  0  # atno 10167 bound_to 10162
  156.0433  130.5659  150.7812 H   0  0  0  0  0  0  0  0  0  0  0  0  # atno 10718 bound_to 10713
  154.1473  135.6495  153.4955 H   0  0  0  0  0  0  0  0  0  0  0  0  # atno 10763 bound_to 10752
  153.0148  135.5330  154.6844 H   0  0  0  0  0  0  0  0  0  0  0  0  # atno 10764 bound_to 10752
  154.6122  135.2955  155.0391 H   0  0  0  0  0  0  0  0  0  0  0  0  # atno 10765 bound_to 10752
  140.4060  134.1668  155.7665 H   0  0  0  0  0  0  0  0  0  0  0  0  # atno 11005 bound_to 11000
  145.1217  140.9466  143.4596 LP  0  0  0  0  0  0  0  0  0  0  0  0  # atno 17320 bound_to 7965
  145.0475  139.3209  143.5945 LP  0  0  0  0  0  0  0  0  0  0  0  0  # atno 17321 bound_to 7965
  140.3167  144.3475  150.6020 LP  0  0  0  0  0  0  0  0  0  0  0  0  # atno 17342 bound_to 10162
  140.5755  143.2177  151.7523 LP  0  0  0  0  0  0  0  0  0  0  0  0  # atno 17343 bound_to 10162
  157.5279  131.0935  150.9993 LP  0  0  0  0  0  0  0  0  0  0  0  0  # atno 17370 bound_to 10713
  157.0307  130.5710  149.5343 LP  0  0  0  0  0  0  0  0  0  0  0  0  # atno 17371 bound_to 10713
  141.1839  133.8355  157.1159 LP  0  0  0  0  0  0  0  0  0  0  0  0  # atno 17394 bound_to 11000
  140.0302  134.9905  157.0765 LP  0  0  0  0  0  0  0  0  0  0  0  0  # atno 17395 bound_to 11000

$$$$
