AV-unprocessed.smi:11|AV-procd|sdf|57|dock1
  -GOLD-   2262015173D 1   1.00000     0.00000
 Structure written by MMmdl.
 34 36  0  0  0  0  0  0  0  0  2 V2000
  151.6144  137.2680  158.2547 C   0  0  0  0  0  0  0  0  0  0  0  0
  150.9012  138.4434  157.5659 C   0  0  0  0  0  0  0  0  0  0  0  0
  151.7103  139.1456  156.4470 C   0  0  1  0  0  0  0  0  0  0  0  0
  152.9400  139.5865  156.9880 O   0  0  0  0  0  0  0  0  0  0  0  0
  151.9311  138.2785  155.1978 C   0  0  0  0  0  0  0  0  0  0  0  0
  150.6537  138.4993  154.3900 C   0  0  0  0  0  0  0  0  0  0  0  0
  150.2673  139.8732  154.6786 N   0  0  0  0  0  0  0  0  0  0  0  0
  149.0067  140.3769  154.2997 C   0  0  0  0  0  0  0  0  0  0  0  0
  148.7513  141.6937  154.5334 N   0  0  0  0  0  0  0  0  0  0  0  0
  147.5864  142.2716  154.2079 C   0  0  0  0  0  0  0  0  0  0  0  0
  146.5823  141.6008  153.6352 N   0  3  0  0  0  0  0  0  0  0  0  0
  146.7872  140.2808  153.3968 C   0  0  0  0  0  0  0  0  0  0  0  0
  145.9241  139.3647  152.8329 N   0  0  0  0  0  0  0  0  0  0  0  0
  146.5241  138.1184  152.7832 C   0  0  0  0  0  0  0  0  0  0  0  0
  147.7868  138.2086  153.3133 C   0  0  0  0  0  0  0  0  0  0  0  0
  147.9834  139.5825  153.7052 C   0  0  0  0  0  0  0  0  0  0  0  0
  150.9364  140.3504  155.8815 C   0  0  0  0  0  0  0  0  0  0  0  0
  144.9866  139.5422  152.5010 H   0  0  0  0  0  0  0  0  0  0  0  0
  150.9972  136.8668  159.0586 H   0  0  0  0  0  0  0  0  0  0  0  0
  152.5628  137.5760  158.6950 H   0  0  0  0  0  0  0  0  0  0  0  0
  151.8135  136.4505  157.5630 H   0  0  0  0  0  0  0  0  0  0  0  0
  149.9514  138.0878  157.1648 H   0  0  0  0  0  0  0  0  0  0  0  0
  150.6408  139.1780  158.3293 H   0  0  0  0  0  0  0  0  0  0  0  0
  152.7645  140.0674  157.7825 H   0  0  0  0  0  0  0  0  0  0  0  0
  152.7793  138.6592  154.6259 H   0  0  0  0  0  0  0  0  0  0  0  0
  152.1265  137.2270  155.4035 H   0  0  0  0  0  0  0  0  0  0  0  0
  150.8183  138.3446  153.3232 H   0  0  0  0  0  0  0  0  0  0  0  0
  149.8725  137.8139  154.7216 H   0  0  0  0  0  0  0  0  0  0  0  0
  147.4233  143.3211  154.4050 H   0  0  0  0  0  0  0  0  0  0  0  0
  146.0014  137.2648  152.3761 H   0  0  0  0  0  0  0  0  0  0  0  0
  148.4988  137.4036  153.4181 H   0  0  0  0  0  0  0  0  0  0  0  0
  150.2366  140.7533  156.6146 H   0  0  0  0  0  0  0  0  0  0  0  0
  151.6176  141.1507  155.5893 H   0  0  0  0  0  0  0  0  0  0  0  0
  145.6997  142.0506  153.3921 H   0  0  0  0  0  0  0  0  0  0  0  0
  1  2  1  0  0  0  0
  1 19  1  0  0  0  0
  1 20  1  0  0  0  0
  1 21  1  0  0  0  0
  2  3  1  0  0  0  0
  2 22  1  0  0  0  0
  2 23  1  0  0  0  0
  3 17  1  0  0  0  0
  3  4  1  0  0  0  0
  3  5  1  0  0  0  0
  4 24  1  0  0  0  0
  5  6  1  0  0  0  0
  5 25  1  0  0  0  0
  5 26  1  0  0  0  0
  6  7  1  0  0  0  0
  6 27  1  0  0  0  0
  6 28  1  0  0  0  0
  7  8  1  0  0  0  0
  7 17  1  0  0  0  0
  8 16  1  0  0  0  0
  8  9  2  0  0  0  0
  9 10  1  0  0  0  0
 10 11  2  0  0  0  0
 10 29  1  0  0  0  0
 11 12  1  0  0  0  0
 11 34  1  0  0  0  0
 12 16  2  0  0  0  0
 12 13  1  0  0  0  0
 13 18  1  0  0  0  0
 13 14  1  0  0  0  0
 14 15  2  0  0  0  0
 14 30  1  0  0  0  0
 15 16  1  0  0  0  0
 15 31  1  0  0  0  0
 17 32  1  0  0  0  0
 17 33  1  0  0  0  0
M  CHG  1  11   1
M  END
> <s_m_source_file>
AV-unprocessed.smi

> <i_m_source_file_index>
11

> <i_lp_mmshare_version>
43012

> <i_f3d_flags>
0

> <s_epik_input>
W0NIM11bQ0gyXVtDQEBdMShbT0hdKVtDSDJdW0NIMl1OKFtDSDJdMSljKG5bY0hdbjIpYyhjMjMpW2NIXVtjSF1bbkhdMw==

> <s_epik_cmdline>
J2VwaWtfcHl0aG9uJywgJy1waCcsICc3LjAnLCAnLXRuJywgJzgnLCAnLW1hJywgJzIwMCcsICctbWV0YWxfYmluZGluZycsICctaW1hZScsICc8aW5maWxlLm1hZT4nLCAnLW9tYWUnLCAnPG91dGZpbGUubWFlPic=

> <r_lp_tautomer_probability>
1.75997e-05

> <r_epik_Ionization_Penalty>
1.53257

> <r_epik_Ionization_Penalty_Charging>
1.53255

> <r_epik_Ionization_Penalty_Neutral>
1.78556e-05

> <r_epik_State_Penalty>
1.6253

> <r_epik_Charging_Adjusted_Penalty>
3.15785

> <i_epik_Tot_Q>
1

> <i_epik_Tot_abs_Q>
1

> <r_epik_Metal_State_Penalty>
1.66891

> <b_epik_Metal_Only>
0

> <s_lp_Force_Field>
OPLS_2005

> <r_lp_Energy>
33.1489

> <b_lp_Chiralities_Consistent>
1

> <s_lp_Variant>
AV-unprocessed.smi:11-3

> <Gold.Version>
5.8.1

> <Gold.Id.Protein>
6NUR|6NUR_protein|mol2

> <Gold.PLP.Fitness>
36.8694

> <Gold.PLP.PLP>
-25.4198

> <Gold.PLP.part.hbond>
-2.4808

> <Gold.PLP.part.metal>
0.0000

> <Gold.PLP.part.buried>
3.4445

> <Gold.PLP.part.nonpolar>
-26.8102

> <Gold.PLP.part.repulsive>
0.2330

> <Gold.PLP.ligand.clash>
0.0000

> <Gold.PLP.ligand.torsion>
0.2905

> <Gold.PLP.Chemscore.Hbond>
3.0000

> <Gold.PLP.Chemscore.CHOScore>
0.9311

> <Gold.PLP.Chemscore.Metal>
0.0000

> <Gold.Chemscore.Hbonds>
donor molecule, donor type, donor heavy atom, donor atom, acceptor molecule, acceptor atom, score
      L1  H    13    18       P1 10175  2.00
      P1  H  7997  8010       L1     4  1.00
      L1  C    10    29       P1  8028  0.93

> <Gold.PLP.Chemscore.Internal.Correction>
0.2372

> <Gold.Rescore>
     Score         DG    S(hbond)    S(metal)    S(lipo)     H(rot)  DE(clash)    DE(int)     intcor
     11.92     -13.67       1.91        0.00      47.00       1.44       0.83       0.93       ----

> <Gold.Chemscore.Fitness>
11.9157

> <Gold.Chemscore.DG>
-13.6709

> <Gold.Chemscore.ZeroCoef>
-5.4800

> <Gold.Chemscore.Hbond>
1.9091

> <Gold.Chemscore.Metal>
0.0000

> <Gold.Chemscore.Lipo>
46.9993

> <Gold.Chemscore.Internal_Hbond>
0.0000

> <Gold.Chemscore.DEClash>
0.8261

> <Gold.Chemscore.DEInternal>
0.9292

> <Gold.Chemscore.Rot>
1.4392

> <Gold.Chemscore.Internal.Correction>
   9.000000E+99

> <Gold.Chemscore.Hbonds>
donor molecule, donor type, donor heavy atom, donor atom, acceptor molecule, acceptor atom, score
      L1  H    13    18       P1 10175  0.94
      P1  H  7997  8010       L1     4  0.49

> <Gold.Chemscore.Hbond.Weighted>
-6.3764

> <Gold.Chemscore.Metal.Weighted>
-0.0000

> <Gold.Chemscore.Lipo.Weighted>
-5.4989

> <Gold.Chemscore.Internal_Hbond.Weighted>
0.0000

> <Gold.Chemscore.DEClash.Weighted>
0.8261

> <Gold.Chemscore.DEInternal.Weighted>
0.9292

> <Gold.Chemscore.Rot.Weighted>
3.6844

> <Gold.Chemscore.Internal.Correction.Weighted>
   9.000000E+99

> <Gold.Protein.RotatedTorsions>
[ 6907 6896 6895 6894 ] final -174.48 input  -60.11 | X-H torsion
[ 7974 7965 7964 7962 ] final -135.67 input  175.53 | X-H torsion
[ 8008 7997 7996 7995 ] final   68.72 input   59.86 | X-H torsion
[ 10167 10162 10161 10158 ] final  113.10 input  -65.29 | X-H torsion
[ 10718 10713 10712 10709 ] final  143.20 input   66.30 | X-H torsion
[ 10763 10752 10751 10750 ] final    5.05 input  -60.55 | X-H torsion
[ 11005 11000 10999 10996 ] final  153.32 input  -57.11 | X-H torsion

> <Gold.Protein.ActiveResidues>
 VAL166  LYS551  ARG553  GLY616  TRP617  ASP618  TYR619  PRO620  LYS621  CYS622 
 ASP623  PHE694  ASN695  SER759  ASP760  ASP761  ALA762  ILE779  LEU786  VAL792 
 PHE793  MET794  SER795  GLU796  ALA797  LYS798  CYS799  TRP800  GLU811  SER814 

> <Gold.Protein.RotatedAtoms>
  151.5730  133.3387  159.2993 H   0  0  0  0  0  0  0  0  0  0  0  0  # atno 6907 bound_to 6896
  150.8357  134.7631  159.6902 H   0  0  0  0  0  0  0  0  0  0  0  0  # atno 6908 bound_to 6896
  152.4433  134.5552  159.9930 H   0  0  0  0  0  0  0  0  0  0  0  0  # atno 6909 bound_to 6896
  144.8994  140.6750  143.5095 H   0  0  0  0  0  0  0  0  0  0  0  0  # atno 7974 bound_to 7965
  155.7126  140.3494  155.4980 H   0  0  0  0  0  0  0  0  0  0  0  0  # atno 8008 bound_to 7997
  155.9342  140.1089  157.1130 H   0  0  0  0  0  0  0  0  0  0  0  0  # atno 8009 bound_to 7997
  154.4090  140.1225  156.4828 H   0  0  0  0  0  0  0  0  0  0  0  0  # atno 8010 bound_to 7997
  139.6486  144.7127  151.2092 H   0  0  0  0  0  0  0  0  0  0  0  0  # atno 10167 bound_to 10162
  157.3717  131.0980  151.0821 H   0  0  0  0  0  0  0  0  0  0  0  0  # atno 10718 bound_to 10713
  153.2640  135.6926  153.7549 H   0  0  0  0  0  0  0  0  0  0  0  0  # atno 10763 bound_to 10752
  153.6597  135.3362  155.3124 H   0  0  0  0  0  0  0  0  0  0  0  0  # atno 10764 bound_to 10752
  154.8440  135.4474  154.1640 H   0  0  0  0  0  0  0  0  0  0  0  0  # atno 10765 bound_to 10752
  140.1387  134.8754  157.2301 H   0  0  0  0  0  0  0  0  0  0  0  0  # atno 11005 bound_to 11000
  145.3643  139.1674  143.4366 LP  0  0  0  0  0  0  0  0  0  0  0  0  # atno 17320 bound_to 7965
  146.3100  140.3708  142.8674 LP  0  0  0  0  0  0  0  0  0  0  0  0  # atno 17321 bound_to 7965
  140.7527  143.6188  150.8534 LP  0  0  0  0  0  0  0  0  0  0  0  0  # atno 17342 bound_to 10162
  139.9833  143.5927  152.2935 LP  0  0  0  0  0  0  0  0  0  0  0  0  # atno 17343 bound_to 10162
  157.1923  130.6357  149.5709 LP  0  0  0  0  0  0  0  0  0  0  0  0  # atno 17370 bound_to 10713
  155.9757  130.4718  150.6477 LP  0  0  0  0  0  0  0  0  0  0  0  0  # atno 17371 bound_to 10713
  140.2750  134.3416  155.7361 LP  0  0  0  0  0  0  0  0  0  0  0  0  # atno 17394 bound_to 11000
  141.2182  133.7445  156.9279 LP  0  0  0  0  0  0  0  0  0  0  0  0  # atno 17395 bound_to 11000

$$$$
