AV-unprocessed.smi:1162|AV-procd|sdf|4919|dock8
  -GOLD-   22720 3503D 1   1.00000     0.00000
 Structure written by MMmdl.
 44 45  0  0  0  0  0  0  0  0  1 V2000
  152.7122  139.9522  158.9596 C   0  0  0  0  0  0  0  0  0  0  0  0
  153.1922  139.3029  157.7873 O   0  0  0  0  0  0  0  0  0  0  0  0
  152.3261  139.1460  156.7246 C   0  0  0  0  0  0  0  0  0  0  0  0
  152.7853  138.4744  155.5741 C   0  0  0  0  0  0  0  0  0  0  0  0
  151.9097  138.3136  154.4832 C   0  0  0  0  0  0  0  0  0  0  0  0
  150.5938  138.8255  154.5816 C   0  0  0  0  0  0  0  0  0  0  0  0
  149.6227  138.7502  153.5468 N   0  0  0  0  0  0  0  0  0  0  0  0
  148.3012  138.5278  153.6480 C   0  0  0  0  0  0  0  0  0  0  0  0
  147.6793  138.3838  154.7004 O   0  0  0  0  0  0  0  0  0  0  0  0
  147.7230  138.5015  152.4384 N   0  0  0  0  0  0  0  0  0  0  0  0
  146.2947  138.3187  152.1917 C   0  0  0  0  0  0  0  0  0  0  0  0
  145.8164  136.8881  152.4678 C   0  0  0  0  0  0  0  0  0  0  0  0
  145.3279  136.5831  153.5570 O   0  0  0  0  0  0  0  0  0  0  0  0
  145.9493  136.0213  151.4526 N   0  0  0  0  0  0  0  0  0  0  0  0
  145.5528  134.6167  151.4823 C   0  0  0  0  0  0  0  0  0  0  0  0
  146.7788  133.7006  151.2861 C   0  0  0  0  0  0  0  0  0  0  0  0
  146.3717  132.2190  151.2320 C   0  0  0  0  0  0  0  0  0  0  0  0
  145.3131  131.9683  150.1466 C   0  0  0  0  0  0  0  0  0  0  0  0
  144.0885  132.8743  150.3474 C   0  0  0  0  0  0  0  0  0  0  0  0
  144.4952  134.3560  150.3928 C   0  0  0  0  0  0  0  0  0  0  0  0
  150.2361  139.4901  155.7726 C   0  0  0  0  0  0  0  0  0  0  0  0
  151.0701  139.6474  156.8218 N   0  0  0  0  0  0  0  0  0  0  0  0
  153.5134  140.0041  159.6968 H   0  0  0  0  0  0  0  0  0  0  0  0
  151.8841  139.4026  159.4094 H   0  0  0  0  0  0  0  0  0  0  0  0
  152.3919  140.9733  158.7478 H   0  0  0  0  0  0  0  0  0  0  0  0
  153.7949  138.0940  155.5262 H   0  0  0  0  0  0  0  0  0  0  0  0
  152.2703  137.8181  153.5956 H   0  0  0  0  0  0  0  0  0  0  0  0
  149.9700  138.9322  152.6165 H   0  0  0  0  0  0  0  0  0  0  0  0
  148.3082  138.6422  151.6282 H   0  0  0  0  0  0  0  0  0  0  0  0
  145.7460  138.9987  152.8437 H   0  0  0  0  0  0  0  0  0  0  0  0
  146.0501  138.6025  151.1664 H   0  0  0  0  0  0  0  0  0  0  0  0
  146.3581  136.3595  150.5935 H   0  0  0  0  0  0  0  0  0  0  0  0
  145.0995  134.3955  152.4507 H   0  0  0  0  0  0  0  0  0  0  0  0
  147.2952  133.9671  150.3627 H   0  0  0  0  0  0  0  0  0  0  0  0
  147.4957  133.8512  152.0942 H   0  0  0  0  0  0  0  0  0  0  0  0
  147.2492  131.5996  151.0450 H   0  0  0  0  0  0  0  0  0  0  0  0
  145.9788  131.9138  152.2026 H   0  0  0  0  0  0  0  0  0  0  0  0
  145.7466  132.1530  149.1628 H   0  0  0  0  0  0  0  0  0  0  0  0
  145.0079  130.9217  150.1592 H   0  0  0  0  0  0  0  0  0  0  0  0
  143.3688  132.7102  149.5450 H   0  0  0  0  0  0  0  0  0  0  0  0
  143.5824  132.6054  151.2758 H   0  0  0  0  0  0  0  0  0  0  0  0
  143.6136  134.9725  150.5719 H   0  0  0  0  0  0  0  0  0  0  0  0
  144.8868  134.6518  149.4182 H   0  0  0  0  0  0  0  0  0  0  0  0
  149.2470  139.9085  155.8906 H   0  0  0  0  0  0  0  0  0  0  0  0
  1  2  1  0  0  0  0
  1 23  1  0  0  0  0
  1 24  1  0  0  0  0
  1 25  1  0  0  0  0
  2  3  1  0  0  0  0
  3 22  1  0  0  0  0
  3  4  2  0  0  0  0
  4  5  1  0  0  0  0
  4 26  1  0  0  0  0
  5  6  2  0  0  0  0
  5 27  1  0  0  0  0
  6  7  1  0  0  0  0
  6 21  1  0  0  0  0
  7  8  1  0  0  0  0
  7 28  1  0  0  0  0
  8  9  2  0  0  0  0
  8 10  1  0  0  0  0
 10 11  1  0  0  0  0
 10 29  1  0  0  0  0
 11 12  1  0  0  0  0
 11 30  1  0  0  0  0
 11 31  1  0  0  0  0
 12 13  2  0  0  0  0
 12 14  1  0  0  0  0
 14 15  1  0  0  0  0
 14 32  1  0  0  0  0
 15 20  1  0  0  0  0
 15 16  1  0  0  0  0
 15 33  1  0  0  0  0
 16 17  1  0  0  0  0
 16 34  1  0  0  0  0
 16 35  1  0  0  0  0
 17 18  1  0  0  0  0
 17 36  1  0  0  0  0
 17 37  1  0  0  0  0
 18 19  1  0  0  0  0
 18 38  1  0  0  0  0
 18 39  1  0  0  0  0
 19 20  1  0  0  0  0
 19 40  1  0  0  0  0
 19 41  1  0  0  0  0
 20 42  1  0  0  0  0
 20 43  1  0  0  0  0
 21 22  2  0  0  0  0
 21 44  1  0  0  0  0
M  END
> <s_m_source_file>
AV-unprocessed.smi

> <i_m_source_file_index>
1162

> <i_lp_mmshare_version>
43012

> <i_f3d_flags>
0

> <s_epik_input>
W0NIM11PYzFbY0hdW2NIXWMoW2NIXW4xKVtOSF1DKD1PKVtOSF1bQ0gyXUMoPU8pW05IXVtDSF0yW0NIMl1bQ0gyXVtDSDJdW0NIMl1bQ0gyXTI=

> <s_epik_cmdline>
J2VwaWtfcHl0aG9uJywgJy1waCcsICc3LjAnLCAnLXRuJywgJzgnLCAnLW1hJywgJzIwMCcsICctbWV0YWxfYmluZGluZycsICctaW1hZScsICc8aW5maWxlLm1hZT4nLCAnLW9tYWUnLCAnPG91dGZpbGUubWFlPic=

> <r_lp_tautomer_probability>
1

> <r_epik_Ionization_Penalty>
0.000141568

> <r_epik_Ionization_Penalty_Charging>
0

> <r_epik_Ionization_Penalty_Neutral>
0.000141568

> <r_epik_State_Penalty>
-0

> <r_epik_Charging_Adjusted_Penalty>
0

> <i_epik_Tot_Q>
0

> <i_epik_Tot_abs_Q>
0

> <r_epik_Metal_State_Penalty>
-0

> <b_epik_Metal_Only>
0

> <s_lp_Force_Field>
OPLS_2005

> <r_lp_Energy>
7.6567

> <b_lp_Chiralities_Consistent>
1

> <s_lp_Variant>
AV-unprocessed.smi:1162-1

> <Gold.Version>
5.8.1

> <Gold.Id.Protein>
6NUR|6NUR_protein|mol2

> <Gold.PLP.Fitness>
45.6541

> <Gold.PLP.PLP>
-39.5602

> <Gold.PLP.part.hbond>
-5.5426

> <Gold.PLP.part.metal>
0.0000

> <Gold.PLP.part.buried>
-3.3364

> <Gold.PLP.part.nonpolar>
-32.2992

> <Gold.PLP.part.repulsive>
0.4717

> <Gold.PLP.ligand.clash>
0.0000

> <Gold.PLP.ligand.torsion>
0.7203

> <Gold.PLP.Chemscore.Hbond>
2.5040

> <Gold.PLP.Chemscore.CHOScore>
0.0000

> <Gold.PLP.Chemscore.Metal>
0.0000

> <Gold.Chemscore.Hbonds>
donor molecule, donor type, donor heavy atom, donor atom, acceptor molecule, acceptor atom, score
      L1  H     7    28       P1  7957  0.82
      L1  H    10    29       P1  7957  0.69
      P1  H  7997  8010       L1     2  0.90

> <Gold.PLP.Chemscore.Internal.Correction>
0.0225

> <Gold.Rescore>
     Score         DG    S(hbond)    S(metal)    S(lipo)     H(rot)  DE(clash)    DE(int)     intcor
     17.04     -19.05       2.44        0.00      86.08       1.82       0.23       1.78       ----

> <Gold.Chemscore.Fitness>
17.0389

> <Gold.Chemscore.DG>
-19.0503

> <Gold.Chemscore.ZeroCoef>
-5.4800

> <Gold.Chemscore.Hbond>
2.4429

> <Gold.Chemscore.Metal>
0.0000

> <Gold.Chemscore.Lipo>
86.0790

> <Gold.Chemscore.Internal_Hbond>
0.0000

> <Gold.Chemscore.DEClash>
0.2344

> <Gold.Chemscore.DEInternal>
1.7770

> <Gold.Chemscore.Rot>
1.8204

> <Gold.Chemscore.Internal.Correction>
   9.000000E+99

> <Gold.Chemscore.Hbonds>
donor molecule, donor type, donor heavy atom, donor atom, acceptor molecule, acceptor atom, score
      L1  H     7    28       P1  7957  0.49
      L1  H    10    29       P1  7957  0.34
      P1  H  7997  8010       L1     2  0.17

> <Gold.Chemscore.Hbond.Weighted>
-8.1591

> <Gold.Chemscore.Metal.Weighted>
-0.0000

> <Gold.Chemscore.Lipo.Weighted>
-10.0712

> <Gold.Chemscore.Internal_Hbond.Weighted>
0.0000

> <Gold.Chemscore.DEClash.Weighted>
0.2344

> <Gold.Chemscore.DEInternal.Weighted>
1.7770

> <Gold.Chemscore.Rot.Weighted>
4.6601

> <Gold.Chemscore.Internal.Correction.Weighted>
   9.000000E+99

> <Gold.Protein.RotatedTorsions>
[ 6907 6896 6895 6894 ] final   60.19 input  -60.11 | X-H torsion
[ 7974 7965 7964 7962 ] final  166.63 input  175.53 | X-H torsion
[ 8008 7997 7996 7995 ] final   43.26 input   59.86 | X-H torsion
[ 10167 10162 10161 10158 ] final -106.63 input  -65.29 | X-H torsion
[ 10718 10713 10712 10709 ] final -112.83 input   66.30 | X-H torsion
[ 10763 10752 10751 10750 ] final  179.55 input  -60.55 | X-H torsion
[ 11005 11000 10999 10996 ] final  -85.74 input  -57.11 | X-H torsion

> <Gold.Protein.ActiveResidues>
 VAL166  LYS551  ARG553  GLY616  TRP617  ASP618  TYR619  PRO620  LYS621  CYS622 
 ASP623  PHE694  ASN695  SER759  ASP760  ASP761  ALA762  ILE779  LEU786  VAL792 
 PHE793  MET794  SER795  GLU796  ALA797  LYS798  CYS799  TRP800  GLU811  SER814 

> <Gold.Protein.RotatedAtoms>
  152.3981  134.6332  160.0080 H   0  0  0  0  0  0  0  0  0  0  0  0  # atno 6907 bound_to 6896
  151.6545  133.3314  159.3167 H   0  0  0  0  0  0  0  0  0  0  0  0  # atno 6908 bound_to 6896
  150.7885  134.6933  159.6554 H   0  0  0  0  0  0  0  0  0  0  0  0  # atno 6909 bound_to 6896
  144.7455  139.8644  143.6383 H   0  0  0  0  0  0  0  0  0  0  0  0  # atno 7974 bound_to 7965
  155.2998  140.3384  155.4248 H   0  0  0  0  0  0  0  0  0  0  0  0  # atno 8008 bound_to 7997
  156.2007  140.1731  156.7945 H   0  0  0  0  0  0  0  0  0  0  0  0  # atno 8009 bound_to 7997
  154.5555  140.0697  156.8720 H   0  0  0  0  0  0  0  0  0  0  0  0  # atno 8010 bound_to 7997
  140.1857  143.3931  152.1246 H   0  0  0  0  0  0  0  0  0  0  0  0  # atno 10167 bound_to 10162
  156.0730  130.5941  150.8562 H   0  0  0  0  0  0  0  0  0  0  0  0  # atno 10718 bound_to 10713
  154.5221  135.2794  155.1253 H   0  0  0  0  0  0  0  0  0  0  0  0  # atno 10763 bound_to 10752
  154.2807  135.6286  153.5349 H   0  0  0  0  0  0  0  0  0  0  0  0  # atno 10764 bound_to 10752
  152.9939  135.5650  154.5713 H   0  0  0  0  0  0  0  0  0  0  0  0  # atno 10765 bound_to 10752
  141.1638  133.7416  156.9058 H   0  0  0  0  0  0  0  0  0  0  0  0  # atno 11005 bound_to 11000
  146.1325  139.4364  143.0159 LP  0  0  0  0  0  0  0  0  0  0  0  0  # atno 17320 bound_to 7965
  145.7141  141.0096  143.1437 LP  0  0  0  0  0  0  0  0  0  0  0  0  # atno 17321 bound_to 7965
  139.5277  144.7122  151.5169 LP  0  0  0  0  0  0  0  0  0  0  0  0  # atno 17342 bound_to 10162
  140.6490  143.8736  150.6766 LP  0  0  0  0  0  0  0  0  0  0  0  0  # atno 17343 bound_to 10162
  157.5810  131.0946  150.9270 LP  0  0  0  0  0  0  0  0  0  0  0  0  # atno 17370 bound_to 10713
  156.9466  130.5404  149.5281 LP  0  0  0  0  0  0  0  0  0  0  0  0  # atno 17371 bound_to 10713
  140.1551  134.9204  157.2642 LP  0  0  0  0  0  0  0  0  0  0  0  0  # atno 17394 bound_to 11000
  140.2677  134.3496  155.7384 LP  0  0  0  0  0  0  0  0  0  0  0  0  # atno 17395 bound_to 11000

$$$$
