#       Name:                AV-unprocessed.smi:2391
#       Creating user name   scv26
#       Creation time:       Fri Mar 27 13:11:08 2020


#       File generated by GOLD software.
#

@<TRIPOS>MOLECULE
AV-unprocessed.smi:2391
    39    40     1
SMALL
NO_CHARGES


@<TRIPOS>ATOM
      1 ****        -0.2273   1.9096   0.8429 O.2            1 S1                 0.0000
      2 ****        -0.7394   0.7902   0.8305 C.2            1 S1                 0.0000
      3 ****        -2.0607   0.5417   0.8117 N.am           1 S1                 0.0000
      4 ****        -3.1283   1.4778   0.7993 C.ar           1 S1                 0.0000
      5 ****        -4.4235   0.9173   0.7813 C.ar           1 S1                 0.0000
      6 ****        -5.5268   1.7876   0.7668 C.ar           1 S1                 0.0000
      7 ****        -5.2582   3.1670   0.7718 C.ar           1 S1                 0.0000
      8 ****        -4.0009   3.6601   0.7897 N.ar           1 S1                 0.0000
      9 ****        -2.9556   2.8256   0.8031 N.ar           1 S1                 0.0000
     10 ****        -0.0344  -0.3507   0.8330 N.am           1 S1                 0.0000
     11 ****         1.4255  -0.4638   0.8700 C.3            1 S1                 0.0000
     12 ****         1.9189  -1.1394  -0.4355 C.3            1 S1                 0.0000
     13 ****         3.4412  -1.2301  -0.5913 C.3            1 S1                 0.0000
     14 ****         3.6749  -1.4752  -2.0844 C.3            1 S1                 0.0000
     15 ****         2.4609  -0.8797  -2.8099 C.3            1 S1                 0.0000
     16 ****         1.4951  -0.4069  -1.7172 C.3            1 S1                 0.0000
     17 ****         1.8323  -1.2118   2.1602 C.3            1 S1                 0.0000
     18 ****         1.3137  -0.5946   3.2227 F              1 S1                 0.0000
     19 ****         1.3833  -2.4674   2.1353 F              1 S1                 0.0000
     20 ****         3.1563  -1.2279   2.3080 F              1 S1                 0.0000
     21 ****        -2.3351  -0.4294   0.8049 H              1 S1                 0.0000
     22 ****        -4.5713  -0.1530   0.7783 H              1 S1                 0.0000
     23 ****        -6.5395   1.4129   0.7523 H              1 S1                 0.0000
     24 ****        -6.0629   3.8872   0.7608 H              1 S1                 0.0000
     25 ****        -0.5470  -1.2202   0.8232 H              1 S1                 0.0000
     26 ****         1.8698   0.5320   0.9191 H              1 S1                 0.0000
     27 ****         1.5167  -2.1528  -0.4832 H              1 S1                 0.0000
     28 ****         3.9033  -0.2857  -0.2999 H              1 S1                 0.0000
     29 ****         3.8817  -2.0189   0.0188 H              1 S1                 0.0000
     30 ****         4.6142  -1.0372  -2.4235 H              1 S1                 0.0000
     31 ****         3.7266  -2.5473  -2.2792 H              1 S1                 0.0000
     32 ****         2.7467  -0.0537  -3.4622 H              1 S1                 0.0000
     33 ****         1.9903  -1.6396  -3.4347 H              1 S1                 0.0000
     34 ****         0.4539  -0.5947  -1.9813 H              1 S1                 0.0000
     35 ****         1.6073   0.6699  -1.5807 H              1 S1                 0.0000
     36 ****        -0.8068   2.7246   0.8393 LP             1 S1                 0.0000
     37 ****         0.7681   2.0040   0.8566 LP             1 S1                 0.0000
     38 ****        -3.8516   4.6489   0.7929 LP             1 S1                 0.0000
     39 ****        -2.0289   3.2010   0.8162 LP             1 S1                 0.0000
@<TRIPOS>BOND
    1    1    2 2     
    2    2    3 am    
    3    2   10 am    
    4    3    4 1     
    5    3   21 1     
    6    4    9 ar    
    7    4    5 ar    
    8    5    6 ar    
    9    5   22 1     
   10    6    7 ar    
   11    6   23 1     
   12    7    8 ar    
   13    7   24 1     
   14    8    9 ar    
   15   10   11 1     
   16   10   25 1     
   17   11   12 1     
   18   11   17 1     
   19   11   26 1     
   20   12   16 1     
   21   12   13 1     
   22   12   27 1     
   23   13   14 1     
   24   13   28 1     
   25   13   29 1     
   26   14   15 1     
   27   14   30 1     
   28   14   31 1     
   29   15   16 1     
   30   15   32 1     
   31   15   33 1     
   32   16   34 1     
   33   16   35 1     
   34   17   18 1     
   35   17   19 1     
   36   17   20 1     
   37    1   36 1     
   38    1   37 1     
   39    8   38 1     
   40    9   39 1     
@<TRIPOS>SUBSTRUCTURE
      1 S1             1
@<TRIPOS>SET
LONE_PAIRS      STATIC     ATOMS    <user>   **** ""
4 36 37 38 39
DONOR_HYDROGENS      STATIC     ATOMS    <user>   **** ""
2 21 25
ATOM$BLUE        STATIC     ATOMS    COLORGROUP SYSTEM
4 36 37 38 39
ATOM$RED        STATIC     ATOMS    COLORGROUP SYSTEM
2 21 25
