AV-unprocessed.smi:2890|AV-procd|sdf|11116|dock1
  -GOLD-   2272015583D 1   1.00000     0.00000
 Structure written by MMmdl.
 38 39  0  0  0  0  0  0  0  0  1 V2000
  152.9107  139.4076  155.2664 C   0  0  0  0  0  0  0  0  0  0  0  0
  151.7985  139.4553  156.3195 C   0  0  0  0  0  0  0  0  0  0  0  0
  152.1858  140.2887  157.5104 C   0  0  0  0  0  0  0  0  0  0  0  0
  153.1081  139.8394  158.3452 N   0  0  0  0  0  0  0  0  0  0  0  0
  153.2432  140.8200  159.3320 O   0  0  0  0  0  0  0  0  0  0  0  0
  152.3840  141.8329  159.0519 C   0  0  0  0  0  0  0  0  0  0  0  0
  152.3793  142.9860  160.0003 C   0  0  0  0  0  0  0  0  0  0  0  0
  151.5642  144.1790  159.4913 C   0  0  0  0  0  0  0  0  0  0  0  0
  151.6771  141.5577  157.9130 C   0  0  0  0  0  0  0  0  0  0  0  0
  150.6153  142.3915  157.2416 C   0  0  0  0  0  0  0  0  0  0  0  0
  149.2970  141.6189  157.2026 C   0  0  0  0  0  0  0  0  0  0  0  0
  149.2249  140.4988  157.7067 O   0  0  0  0  0  0  0  0  0  0  0  0
  148.2624  142.2296  156.6038 N   0  0  0  0  0  0  0  0  0  0  0  0
  146.9116  141.6885  156.4937 C   0  0  0  0  0  0  0  0  0  0  0  0
  146.2569  141.4641  157.7976 C   0  0  0  0  0  0  0  0  0  0  0  0
  145.7444  141.2878  158.8197 N   0  0  0  0  0  0  0  0  0  0  0  0
  146.0453  142.4798  155.5006 C   0  0  0  0  0  0  0  0  0  0  0  0
  145.4914  141.1344  155.0129 C   0  0  0  0  0  0  0  0  0  0  0  0
  146.7961  140.5042  155.5167 C   0  0  0  0  0  0  0  0  0  0  0  0
  152.6122  138.7979  154.4135 H   0  0  0  0  0  0  0  0  0  0  0  0
  153.8241  138.9784  155.6796 H   0  0  0  0  0  0  0  0  0  0  0  0
  153.1463  140.4055  154.8957 H   0  0  0  0  0  0  0  0  0  0  0  0
  150.8892  139.8520  155.8662 H   0  0  0  0  0  0  0  0  0  0  0  0
  151.5551  138.4405  156.6343 H   0  0  0  0  0  0  0  0  0  0  0  0
  151.9804  142.6587  160.9606 H   0  0  0  0  0  0  0  0  0  0  0  0
  153.4035  143.3056  160.1934 H   0  0  0  0  0  0  0  0  0  0  0  0
  151.5868  144.9997  160.2087 H   0  0  0  0  0  0  0  0  0  0  0  0
  150.5209  143.9048  159.3317 H   0  0  0  0  0  0  0  0  0  0  0  0
  151.9619  144.5509  158.5467 H   0  0  0  0  0  0  0  0  0  0  0  0
  150.4576  143.3376  157.7601 H   0  0  0  0  0  0  0  0  0  0  0  0
  150.9062  142.6529  156.2234 H   0  0  0  0  0  0  0  0  0  0  0  0
  148.4159  143.1504  156.2193 H   0  0  0  0  0  0  0  0  0  0  0  0
  145.3052  143.1378  155.9576 H   0  0  0  0  0  0  0  0  0  0  0  0
  146.6225  142.9975  154.7318 H   0  0  0  0  0  0  0  0  0  0  0  0
  144.6132  140.8046  155.5708 H   0  0  0  0  0  0  0  0  0  0  0  0
  145.3372  141.0654  153.9355 H   0  0  0  0  0  0  0  0  0  0  0  0
  147.5762  140.4884  154.7532 H   0  0  0  0  0  0  0  0  0  0  0  0
  146.6781  139.5289  155.9902 H   0  0  0  0  0  0  0  0  0  0  0  0
  1  2  1  0  0  0  0
  1 20  1  0  0  0  0
  1 21  1  0  0  0  0
  1 22  1  0  0  0  0
  2  3  1  0  0  0  0
  2 23  1  0  0  0  0
  2 24  1  0  0  0  0
  3  9  1  0  0  0  0
  3  4  2  0  0  0  0
  4  5  1  0  0  0  0
  5  6  1  0  0  0  0
  6  7  1  0  0  0  0
  6  9  2  0  0  0  0
  7  8  1  0  0  0  0
  7 25  1  0  0  0  0
  7 26  1  0  0  0  0
  8 27  1  0  0  0  0
  8 28  1  0  0  0  0
  8 29  1  0  0  0  0
  9 10  1  0  0  0  0
 10 11  1  0  0  0  0
 10 30  1  0  0  0  0
 10 31  1  0  0  0  0
 11 12  2  0  0  0  0
 11 13  1  0  0  0  0
 13 14  1  0  0  0  0
 13 32  1  0  0  0  0
 14 19  1  0  0  0  0
 14 15  1  0  0  0  0
 14 17  1  0  0  0  0
 15 16  3  0  0  0  0
 17 18  1  0  0  0  0
 17 33  1  0  0  0  0
 17 34  1  0  0  0  0
 18 19  1  0  0  0  0
 18 35  1  0  0  0  0
 18 36  1  0  0  0  0
 19 37  1  0  0  0  0
 19 38  1  0  0  0  0
M  END
> <s_m_source_file>
AV-unprocessed.smi

> <i_m_source_file_index>
2890

> <i_lp_mmshare_version>
43012

> <i_f3d_flags>
0

> <s_epik_input>
W0NIM11bQ0gyXWMxbm9jKFtDSDJdW0NIM10pYzFbQ0gyXUMoPU8pW05IXUMyKEMjTilbQ0gyXVtDSDJdW0NIMl0y

> <s_epik_cmdline>
J2VwaWtfcHl0aG9uJywgJy1waCcsICc3LjAnLCAnLXRuJywgJzgnLCAnLW1hJywgJzIwMCcsICctbWV0YWxfYmluZGluZycsICctaW1hZScsICc8aW5maWxlLm1hZT4nLCAnLW9tYWUnLCAnPG91dGZpbGUubWFlPic=

> <r_lp_tautomer_probability>
1

> <r_epik_Ionization_Penalty>
5.40968e-07

> <r_epik_Ionization_Penalty_Charging>
0

> <r_epik_Ionization_Penalty_Neutral>
5.40968e-07

> <r_epik_State_Penalty>
-0

> <r_epik_Charging_Adjusted_Penalty>
0

> <i_epik_Tot_Q>
0

> <i_epik_Tot_abs_Q>
0

> <r_epik_Metal_State_Penalty>
-0

> <b_epik_Metal_Only>
0

> <s_lp_Force_Field>
OPLS_2005

> <r_lp_Energy>
4.95517

> <b_lp_Chiralities_Consistent>
1

> <s_lp_Variant>
AV-unprocessed.smi:2890-1

> <Gold.Version>
5.8.1

> <Gold.Id.Protein>
6NUR|6NUR_protein|mol2

> <Gold.PLP.Fitness>
38.6113

> <Gold.PLP.PLP>
-29.9759

> <Gold.PLP.part.hbond>
-3.0000

> <Gold.PLP.part.metal>
0.0000

> <Gold.PLP.part.buried>
-3.5593

> <Gold.PLP.part.nonpolar>
-24.3363

> <Gold.PLP.part.repulsive>
0.0214

> <Gold.PLP.ligand.clash>
0.0000

> <Gold.PLP.ligand.torsion>
0.3196

> <Gold.PLP.Chemscore.Hbond>
3.0000

> <Gold.PLP.Chemscore.CHOScore>
0.0000

> <Gold.PLP.Chemscore.Metal>
0.0000

> <Gold.Chemscore.Hbonds>
donor molecule, donor type, donor heavy atom, donor atom, acceptor molecule, acceptor atom, score
      L1  H    13    32       P1  8028  1.00
      P1  H  6934  6946       L1    16  0.34
      P1  H  7997  8008       L1     4  0.75

> <Gold.PLP.Chemscore.Internal.Correction>
0.2745

> <Gold.Rescore>
     Score         DG    S(hbond)    S(metal)    S(lipo)     H(rot)  DE(clash)    DE(int)     intcor
     14.29     -16.35       1.86        0.00      77.32       1.72       0.02       2.04       ----

> <Gold.Chemscore.Fitness>
14.2874

> <Gold.Chemscore.DG>
-16.3482

> <Gold.Chemscore.ZeroCoef>
-5.4800

> <Gold.Chemscore.Hbond>
1.8638

> <Gold.Chemscore.Metal>
0.0000

> <Gold.Chemscore.Lipo>
77.3238

> <Gold.Chemscore.Internal_Hbond>
0.0000

> <Gold.Chemscore.DEClash>
0.0218

> <Gold.Chemscore.DEInternal>
2.0390

> <Gold.Chemscore.Rot>
1.7202

> <Gold.Chemscore.Internal.Correction>
   9.000000E+99

> <Gold.Chemscore.Hbonds>
donor molecule, donor type, donor heavy atom, donor atom, acceptor molecule, acceptor atom, score
      L1  H    13    32       P1  8028  0.82
      P1  H  6934  6946       L1    16  0.33
      P1  H  7997  8008       L1     4  0.06

> <Gold.Chemscore.Hbond.Weighted>
-6.2250

> <Gold.Chemscore.Metal.Weighted>
-0.0000

> <Gold.Chemscore.Lipo.Weighted>
-9.0469

> <Gold.Chemscore.Internal_Hbond.Weighted>
0.0000

> <Gold.Chemscore.DEClash.Weighted>
0.0218

> <Gold.Chemscore.DEInternal.Weighted>
2.0390

> <Gold.Chemscore.Rot.Weighted>
4.4037

> <Gold.Chemscore.Internal.Correction.Weighted>
   9.000000E+99

> <Gold.Protein.RotatedTorsions>
[ 6907 6896 6895 6894 ] final  -86.40 input  -60.11 | X-H torsion
[ 7974 7965 7964 7962 ] final -152.95 input  175.53 | X-H torsion
[ 8008 7997 7996 7995 ] final  -87.68 input   59.86 | X-H torsion
[ 10167 10162 10161 10158 ] final  108.97 input  -65.29 | X-H torsion
[ 10718 10713 10712 10709 ] final  123.46 input   66.30 | X-H torsion
[ 10763 10752 10751 10750 ] final  104.85 input  -60.55 | X-H torsion
[ 11005 11000 10999 10996 ] final -179.26 input  -57.11 | X-H torsion

> <Gold.Protein.ActiveResidues>
 VAL166  LYS551  ARG553  GLY616  TRP617  ASP618  TYR619  PRO620  LYS621  CYS622 
 ASP623  PHE694  ASN695  SER759  ASP760  ASP761  ALA762  ILE779  LEU786  VAL792 
 PHE793  MET794  SER795  GLU796  ALA797  LYS798  CYS799  TRP800  GLU811  SER814 

> <Gold.Protein.RotatedAtoms>
  150.6867  134.3057  159.4724 H   0  0  0  0  0  0  0  0  0  0  0  0  # atno 6907 bound_to 6896
  152.0948  134.9380  160.0580 H   0  0  0  0  0  0  0  0  0  0  0  0  # atno 6908 bound_to 6896
  152.0682  133.4059  159.4484 H   0  0  0  0  0  0  0  0  0  0  0  0  # atno 6909 bound_to 6896
  144.7766  140.4592  143.5869 H   0  0  0  0  0  0  0  0  0  0  0  0  # atno 7974 bound_to 7965
  154.6661  140.0563  157.0115 H   0  0  0  0  0  0  0  0  0  0  0  0  # atno 8008 bound_to 7997
  155.1158  140.3242  155.4491 H   0  0  0  0  0  0  0  0  0  0  0  0  # atno 8009 bound_to 7997
  156.2638  140.2006  156.6281 H   0  0  0  0  0  0  0  0  0  0  0  0  # atno 8010 bound_to 7997
  139.6803  144.7119  151.1527 H   0  0  0  0  0  0  0  0  0  0  0  0  # atno 10167 bound_to 10162
  157.5663  131.1086  150.8448 H   0  0  0  0  0  0  0  0  0  0  0  0  # atno 10718 bound_to 10713
  153.3714  135.3929  155.1791 H   0  0  0  0  0  0  0  0  0  0  0  0  # atno 10763 bound_to 10752
  154.8695  135.3703  154.4973 H   0  0  0  0  0  0  0  0  0  0  0  0  # atno 10764 bound_to 10752
  153.5441  135.7084  153.5683 H   0  0  0  0  0  0  0  0  0  0  0  0  # atno 10765 bound_to 10752
  140.4206  134.6609  157.4662 H   0  0  0  0  0  0  0  0  0  0  0  0  # atno 11005 bound_to 11000
  145.6167  139.1519  143.3045 LP  0  0  0  0  0  0  0  0  0  0  0  0  # atno 17320 bound_to 7965
  146.1950  140.6280  142.9128 LP  0  0  0  0  0  0  0  0  0  0  0  0  # atno 17321 bound_to 7965
  140.7650  143.5709  150.8997 LP  0  0  0  0  0  0  0  0  0  0  0  0  # atno 17342 bound_to 10162
  139.9380  143.6415  152.3060 LP  0  0  0  0  0  0  0  0  0  0  0  0  # atno 17343 bound_to 10162
  156.8932  130.5220  149.5285 LP  0  0  0  0  0  0  0  0  0  0  0  0  # atno 17370 bound_to 10713
  156.0711  130.5744  150.9385 LP  0  0  0  0  0  0  0  0  0  0  0  0  # atno 17371 bound_to 10713
  140.0202  134.6558  155.9250 LP  0  0  0  0  0  0  0  0  0  0  0  0  # atno 17394 bound_to 11000
  141.1785  133.6543  156.4925 LP  0  0  0  0  0  0  0  0  0  0  0  0  # atno 17395 bound_to 11000

$$$$
