AV-unprocessed.smi:1213|AV-procd|sdf|5089|dock4
  -GOLD-   22720 4143D 1   1.00000     0.00000
 Structure written by MMmdl.
 36 37  0  0  0  0  0  0  0  0  3 V2000
  150.4147  137.8488  154.0348 N   0  5  0  0  0  0  0  0  0  0  0  0
  149.7162  138.9487  154.3750 C   0  0  0  0  0  0  0  0  0  0  0  0
  150.1030  140.1158  154.3849 O   0  0  0  0  0  0  0  0  0  0  0  0
  148.2687  138.6280  154.7634 C   0  0  0  0  0  0  0  0  0  0  0  0
  147.5734  137.9500  153.6408 N   0  3  2  0  0  0  0  0  0  0  0  0
  147.0222  138.9140  152.6555 C   0  0  0  0  0  0  0  0  0  0  0  0
  146.4413  138.1861  151.4306 C   0  0  0  0  0  0  0  0  0  0  0  0
  145.3748  137.1464  151.8282 C   0  0  2  0  0  0  0  0  0  0  0  0
  144.1460  137.7803  152.3055 N   0  0  0  0  0  0  0  0  0  0  0  0
  143.0679  137.1300  152.7675 C   0  0  0  0  0  0  0  0  0  0  0  0
  142.9914  135.9027  152.8284 O   0  0  0  0  0  0  0  0  0  0  0  0
  142.1048  137.9894  153.1438 N   0  0  0  0  0  0  0  0  0  0  0  0
  140.8212  137.6916  153.6723 C   0  0  0  0  0  0  0  0  0  0  0  0
  140.5714  136.6967  154.5315 N   0  0  0  0  0  0  0  0  0  0  0  0
  139.2207  136.6351  154.8838 C   0  0  0  0  0  0  0  0  0  0  0  0
  138.4512  137.5971  154.2784 C   0  0  0  0  0  0  0  0  0  0  0  0
  139.3973  138.6239  153.2342 S   0  0  0  0  0  0  0  0  0  0  0  0
  145.9461  136.2039  152.9015 C   0  0  0  0  0  0  0  0  0  0  0  0
  146.5424  136.9767  154.0920 C   0  0  0  0  0  0  0  0  0  0  0  0
  150.0424  137.2280  153.3066 H   0  0  0  0  0  0  0  0  0  0  0  0
  148.1956  138.0275  155.6727 H   0  0  0  0  0  0  0  0  0  0  0  0
  147.7838  139.5807  154.9806 H   0  0  0  0  0  0  0  0  0  0  0  0
  146.2572  139.5287  153.1326 H   0  0  0  0  0  0  0  0  0  0  0  0
  147.8101  139.5913  152.3241 H   0  0  0  0  0  0  0  0  0  0  0  0
  146.0319  138.9095  150.7249 H   0  0  0  0  0  0  0  0  0  0  0  0
  147.2511  137.6803  150.9032 H   0  0  0  0  0  0  0  0  0  0  0  0
  145.1234  136.5465  150.9515 H   0  0  0  0  0  0  0  0  0  0  0  0
  144.1211  138.7896  152.2956 H   0  0  0  0  0  0  0  0  0  0  0  0
  142.3133  138.9717  153.0425 H   0  0  0  0  0  0  0  0  0  0  0  0
  138.8926  135.8725  155.5748 H   0  0  0  0  0  0  0  0  0  0  0  0
  137.3893  137.7627  154.3829 H   0  0  0  0  0  0  0  0  0  0  0  0
  145.1757  135.5143  153.2494 H   0  0  0  0  0  0  0  0  0  0  0  0
  146.7260  135.5854  152.4555 H   0  0  0  0  0  0  0  0  0  0  0  0
  146.9777  136.2630  154.7920 H   0  0  0  0  0  0  0  0  0  0  0  0
  145.7559  137.5039  154.6340 H   0  0  0  0  0  0  0  0  0  0  0  0
  148.2857  137.4218  153.1567 H   0  0  0  0  0  0  0  0  0  0  0  0
  1  2  1  0  0  0  0
  1 20  1  0  0  0  0
  2  3  2  0  0  0  0
  2  4  1  0  0  0  0
  4  5  1  0  0  0  0
  4 21  1  0  0  0  0
  4 22  1  0  0  0  0
  5 19  1  0  0  0  0
  5  6  1  0  0  0  0
  5 36  1  0  0  0  0
  6  7  1  0  0  0  0
  6 23  1  0  0  0  0
  6 24  1  0  0  0  0
  7  8  1  0  0  0  0
  7 25  1  0  0  0  0
  7 26  1  0  0  0  0
  8  9  1  0  0  0  0
  8 18  1  0  0  0  0
  8 27  1  0  0  0  0
  9 10  1  0  0  0  0
  9 28  1  0  0  0  0
 10 11  2  0  0  0  0
 10 12  1  0  0  0  0
 12 13  1  0  0  0  0
 12 29  1  0  0  0  0
 13 17  1  0  0  0  0
 13 14  2  0  0  0  0
 14 15  1  0  0  0  0
 15 16  2  0  0  0  0
 15 30  1  0  0  0  0
 16 17  1  0  0  0  0
 16 31  1  0  0  0  0
 18 19  1  0  0  0  0
 18 32  1  0  0  0  0
 18 33  1  0  0  0  0
 19 34  1  0  0  0  0
 19 35  1  0  0  0  0
M  CHG  1   1  -1
M  CHG  1   5   1
M  END
> <s_m_source_file>
AV-unprocessed.smi

> <i_m_source_file_index>
1213

> <i_lp_mmshare_version>
43012

> <i_f3d_flags>
0

> <s_epik_input>
W05IMl1DKD1PKVtDSDJdTjFbQ0gyXVtDSDJdW0NIXShbQ0gyXVtDSDJdMSlbTkhdQyg9TylbTkhdYzJuW2NIXVtjSF1zMg==

> <s_epik_cmdline>
J2VwaWtfcHl0aG9uJywgJy1waCcsICc3LjAnLCAnLXRuJywgJzgnLCAnLW1hJywgJzIwMCcsICctbWV0YWxfYmluZGluZycsICctaW1hZScsICc8aW5maWxlLm1hZT4nLCAnLW9tYWUnLCAnPG91dGZpbGUubWFlPic=

> <r_lp_tautomer_probability>
0.999

> <r_epik_Ionization_Penalty>
5.73166

> <r_epik_Ionization_Penalty_Charging>
5.73152

> <r_epik_Ionization_Penalty_Neutral>
0.000139308

> <r_epik_State_Penalty>
6.57436

> <r_epik_Charging_Adjusted_Penalty>
12.3059

> <i_epik_Tot_Q>
0

> <i_epik_Tot_abs_Q>
2

> <r_epik_Metal_State_Penalty>
2.57084

> <b_epik_Metal_Only>
1

> <s_lp_Force_Field>
OPLS_2005

> <r_lp_Energy>
6.02298

> <b_lp_Chiralities_Consistent>
1

> <s_lp_Variant>
AV-unprocessed.smi:1213-6

> <Gold.Version>
5.8.1

> <Gold.Id.Protein>
6NUR|6NUR_protein|mol2

> <Gold.PLP.Fitness>
49.7559

> <Gold.PLP.PLP>
-30.2073

> <Gold.PLP.part.hbond>
-6.2645

> <Gold.PLP.part.metal>
0.0000

> <Gold.PLP.part.buried>
0.3189

> <Gold.PLP.part.nonpolar>
-25.3909

> <Gold.PLP.part.repulsive>
0.3901

> <Gold.PLP.ligand.clash>
0.0000

> <Gold.PLP.ligand.torsion>
0.6449

> <Gold.PLP.Chemscore.Hbond>
5.9920

> <Gold.PLP.Chemscore.CHOScore>
0.9469

> <Gold.PLP.Chemscore.Metal>
0.0000

> <Gold.Chemscore.Hbonds>
donor molecule, donor type, donor heavy atom, donor atom, acceptor molecule, acceptor atom, score
      L1  H     1    20       P1  7948  0.95
      L1  H     5    36       P1  7948  2.00
      L1  H     9    28       P1 10175  1.00
      L1  H    12    29       P1 10175  0.98
      P1  H  7989  7998       L1     3  1.00
      L1  C    15    30       P1 11000  0.95

> <Gold.PLP.Chemscore.Internal.Correction>
0.0218

> <Gold.Rescore>
     Score         DG    S(hbond)    S(metal)    S(lipo)     H(rot)  DE(clash)    DE(int)     intcor
     17.86     -19.97       4.07        0.00      52.29       2.04       0.40       1.71       ----

> <Gold.Chemscore.Fitness>
17.8616

> <Gold.Chemscore.DG>
-19.9703

> <Gold.Chemscore.ZeroCoef>
-5.4800

> <Gold.Chemscore.Hbond>
4.0663

> <Gold.Chemscore.Metal>
0.0000

> <Gold.Chemscore.Lipo>
52.2938

> <Gold.Chemscore.Internal_Hbond>
0.0000

> <Gold.Chemscore.DEClash>
0.3959

> <Gold.Chemscore.DEInternal>
1.7128

> <Gold.Chemscore.Rot>
2.0350

> <Gold.Chemscore.Internal.Correction>
   9.000000E+99

> <Gold.Chemscore.Hbonds>
donor molecule, donor type, donor heavy atom, donor atom, acceptor molecule, acceptor atom, score
      L1  H     1    20       P1  7948  0.20
      L1  H     5    36       P1  7948  0.98
      L1  H     9    28       P1 10175  1.00
      L1  H    12    29       P1 10175  0.87
      P1  H  7989  7998       L1     3  0.96

> <Gold.Chemscore.Hbond.Weighted>
-13.5815

> <Gold.Chemscore.Metal.Weighted>
-0.0000

> <Gold.Chemscore.Lipo.Weighted>
-6.1184

> <Gold.Chemscore.Internal_Hbond.Weighted>
0.0000

> <Gold.Chemscore.DEClash.Weighted>
0.3959

> <Gold.Chemscore.DEInternal.Weighted>
1.7128

> <Gold.Chemscore.Rot.Weighted>
5.2096

> <Gold.Chemscore.Internal.Correction.Weighted>
   9.000000E+99

> <Gold.Protein.RotatedTorsions>
[ 6907 6896 6895 6894 ] final   28.49 input  -60.11 | X-H torsion
[ 7974 7965 7964 7962 ] final  -63.04 input  175.53 | X-H torsion
[ 8008 7997 7996 7995 ] final  145.95 input   59.86 | X-H torsion
[ 10167 10162 10161 10158 ] final -134.40 input  -65.29 | X-H torsion
[ 10718 10713 10712 10709 ] final   -8.17 input   66.30 | X-H torsion
[ 10763 10752 10751 10750 ] final  -35.43 input  -60.55 | X-H torsion
[ 11005 11000 10999 10996 ] final  -85.58 input  -57.11 | X-H torsion

> <Gold.Protein.ActiveResidues>
 VAL166  LYS551  ARG553  GLY616  TRP617  ASP618  TYR619  PRO620  LYS621  CYS622 
 ASP623  PHE694  ASN695  SER759  ASP760  ASP761  ALA762  ILE779  LEU786  VAL792 
 PHE793  MET794  SER795  GLU796  ALA797  LYS798  CYS799  TRP800  GLU811  SER814 

> <Gold.Protein.RotatedAtoms>
  152.0177  134.9840  160.0569 H   0  0  0  0  0  0  0  0  0  0  0  0  # atno 6907 bound_to 6896
  152.1367  133.4435  159.4755 H   0  0  0  0  0  0  0  0  0  0  0  0  # atno 6908 bound_to 6896
  150.6861  134.2273  159.4463 H   0  0  0  0  0  0  0  0  0  0  0  0  # atno 6909 bound_to 6896
  145.7840  140.8747  143.0316 H   0  0  0  0  0  0  0  0  0  0  0  0  # atno 7974 bound_to 7965
  156.2869  140.2195  156.5298 H   0  0  0  0  0  0  0  0  0  0  0  0  # atno 8008 bound_to 7997
  154.7458  140.0484  157.0873 H   0  0  0  0  0  0  0  0  0  0  0  0  # atno 8009 bound_to 7997
  155.0172  140.3120  155.4810 H   0  0  0  0  0  0  0  0  0  0  0  0  # atno 8010 bound_to 7997
  139.8884  143.6752  152.2616 H   0  0  0  0  0  0  0  0  0  0  0  0  # atno 10167 bound_to 10162
  156.7065  130.5109  149.5903 H   0  0  0  0  0  0  0  0  0  0  0  0  # atno 10718 bound_to 10713
  153.8632  135.6838  153.4781 H   0  0  0  0  0  0  0  0  0  0  0  0  # atno 10763 bound_to 10752
  153.1330  135.4690  154.9376 H   0  0  0  0  0  0  0  0  0  0  0  0  # atno 10764 bound_to 10752
  154.7749  135.3250  154.8062 H   0  0  0  0  0  0  0  0  0  0  0  0  # atno 10765 bound_to 10752
  141.1639  133.7407  156.9036 H   0  0  0  0  0  0  0  0  0  0  0  0  # atno 11005 bound_to 11000
  144.6792  140.0028  143.7484 LP  0  0  0  0  0  0  0  0  0  0  0  0  # atno 17320 bound_to 7965
  146.0045  139.3119  143.0907 LP  0  0  0  0  0  0  0  0  0  0  0  0  # atno 17321 bound_to 7965
  139.7132  144.7616  151.1078 LP  0  0  0  0  0  0  0  0  0  0  0  0  # atno 17342 bound_to 10162
  140.7731  143.5304  150.9430 LP  0  0  0  0  0  0  0  0  0  0  0  0  # atno 17343 bound_to 10162
  156.1692  130.6425  151.0816 LP  0  0  0  0  0  0  0  0  0  0  0  0  # atno 17370 bound_to 10713
  157.6953  131.0796  150.6988 LP  0  0  0  0  0  0  0  0  0  0  0  0  # atno 17371 bound_to 10713
  140.1565  134.9194  157.2660 LP  0  0  0  0  0  0  0  0  0  0  0  0  # atno 17394 bound_to 11000
  140.2661  134.3515  155.7389 LP  0  0  0  0  0  0  0  0  0  0  0  0  # atno 17395 bound_to 11000

$$$$
