#       Name:                AV-unprocessed.smi:2160
#       Creating user name   scv26
#       Creation time:       Fri Mar 27 11:58:26 2020


#       File generated by GOLD software.
#

@<TRIPOS>MOLECULE
AV-unprocessed.smi:2160
    50    52     1
SMALL
NO_CHARGES


@<TRIPOS>ATOM
      1 ****        -7.5573   3.5317   1.1907 C.3            1 S1                 0.0000
      2 ****        -6.8730   2.3049   0.9820 O.3            1 S1                 0.0000
      3 ****        -5.5185   2.3529   0.7309 C.ar           1 S1                 0.0000
      4 ****        -4.7611   3.5496   0.6735 C.ar           1 S1                 0.0000
      5 ****        -3.3781   3.5065   0.4112 C.ar           1 S1                 0.0000
      6 ****        -2.7273   2.2736   0.2061 C.ar           1 S1                 0.0000
      7 ****        -1.2389   2.2554  -0.0934 C.3            1 S1                 0.0000
      8 ****        -0.6439   0.9883   0.1409 O.3            1 S1                 0.0000
      9 ****         0.7504   0.9815  -0.1180 C.3            1 S1                 0.0000
     10 ****         1.2966  -0.4401   0.0888 C.3            1 S1                 0.0000
     11 ****         1.0310  -1.1958  -1.0770 O.3            1 S1                 0.0000
     12 ****         2.8146  -0.4391   0.3593 C.3            1 S1                 0.0000
     13 ****         3.3590  -1.7916   0.5511 N.pl3          1 S1                 0.0000
     14 ****         3.3493  -2.5782   1.6613 C.2            1 S1                 0.0000
     15 ****         3.9705  -3.7475   1.3437 N.pl3          1 S1                 1.0000
     16 ****         4.3829  -3.7094   0.0103 C.ar           1 S1                 0.0000
     17 ****         5.0491  -4.6549  -0.7632 C.ar           1 S1                 0.0000
     18 ****         5.3198  -4.3011  -2.1011 C.ar           1 S1                 0.0000
     19 ****         4.9313  -3.0501  -2.6226 C.ar           1 S1                 0.0000
     20 ****         4.2568  -2.0989  -1.8292 C.ar           1 S1                 0.0000
     21 ****         3.9935  -2.4551  -0.5065 C.ar           1 S1                 0.0000
     22 ****        -3.4782   1.0804   0.2537 C.ar           1 S1                 0.0000
     23 ****        -4.8607   1.1242   0.5177 C.ar           1 S1                 0.0000
     24 ****        -8.6123   3.3291   1.3746 H              1 S1                 0.0000
     25 ****        -7.4940   4.1776   0.3139 H              1 S1                 0.0000
     26 ****        -7.1679   4.0628   2.0603 H              1 S1                 0.0000
     27 ****        -5.2177   4.5157   0.8257 H              1 S1                 0.0000
     28 ****        -2.8158   4.4277   0.3670 H              1 S1                 0.0000
     29 ****        -1.0973   2.5426  -1.1363 H              1 S1                 0.0000
     30 ****        -0.7476   3.0102   0.5229 H              1 S1                 0.0000
     31 ****         0.9741   1.3452  -1.1226 H              1 S1                 0.0000
     32 ****         1.2278   1.6655   0.5854 H              1 S1                 0.0000
     33 ****         0.7897  -0.9084   0.9338 H              1 S1                 0.0000
     34 ****         1.4148  -0.7516  -1.8171 H              1 S1                 0.0000
     35 ****         3.3598   0.0642  -0.4392 H              1 S1                 0.0000
     36 ****         3.0275   0.1204   1.2710 H              1 S1                 0.0000
     37 ****         2.9224  -2.3222   2.6203 H              1 S1                 0.0000
     38 ****         5.3457  -5.6148  -0.3664 H              1 S1                 0.0000
     39 ****         5.8346  -5.0035  -2.7406 H              1 S1                 0.0000
     40 ****         5.1541  -2.8151  -3.6533 H              1 S1                 0.0000
     41 ****         3.9619  -1.1466  -2.2433 H              1 S1                 0.0000
     42 ****        -3.0031   0.1246   0.0879 H              1 S1                 0.0000
     43 ****        -5.4235   0.2029   0.5543 H              1 S1                 0.0000
     44 ****         4.1000  -4.5145   1.9910 H              1 S1                 0.0000
     45 ****        -7.3042   1.8533   0.2009 LP             1 S1                 0.0000
     46 ****        -7.0036   1.7485   1.8026 LP             1 S1                 0.0000
     47 ****        -1.0828   0.3142  -0.4531 LP             1 S1                 0.0000
     48 ****        -0.7929   0.7370   1.0973 LP             1 S1                 0.0000
     49 ****         0.0430  -1.2773  -1.2080 LP             1 S1                 0.0000
     50 ****         1.4315  -2.1075  -0.9862 LP             1 S1                 0.0000
@<TRIPOS>BOND
    1    1    2 1     
    2    1   24 1     
    3    1   25 1     
    4    1   26 1     
    5    2    3 1     
    6    3   23 ar    
    7    3    4 ar    
    8    4    5 ar    
    9    4   27 1     
   10    5    6 ar    
   11    5   28 1     
   12    6    7 1     
   13    6   22 ar    
   14    7    8 1     
   15    7   29 1     
   16    7   30 1     
   17    8    9 1     
   18    9   10 1     
   19    9   31 1     
   20    9   32 1     
   21   10   11 1     
   22   10   12 1     
   23   10   33 1     
   24   11   34 1     
   25   12   13 1     
   26   12   35 1     
   27   12   36 1     
   28   13   21 1     
   29   13   14 1     
   30   14   15 2     
   31   14   37 1     
   32   15   16 1     
   33   15   44 1     
   34   16   21 ar    
   35   16   17 ar    
   36   17   18 ar    
   37   17   38 1     
   38   18   19 ar    
   39   18   39 1     
   40   19   20 ar    
   41   19   40 1     
   42   20   21 ar    
   43   20   41 1     
   44   22   23 ar    
   45   22   42 1     
   46   23   43 1     
   47    2   45 1     
   48    2   46 1     
   49    8   47 1     
   50    8   48 1     
   51   11   49 1     
   52   11   50 1     
@<TRIPOS>SUBSTRUCTURE
      1 S1             1
@<TRIPOS>SET
LONE_PAIRS      STATIC     ATOMS    <user>   **** ""
6 45 46 47 48 49 50
DONOR_HYDROGENS      STATIC     ATOMS    <user>   **** ""
2 34 44
ATOM$BLUE        STATIC     ATOMS    COLORGROUP SYSTEM
6 45 46 47 48 49 50
ATOM$RED        STATIC     ATOMS    COLORGROUP SYSTEM
2 34 44
