#       Name:                AV-unprocessed.smi:1727
#       Creating user name   scv26
#       Creation time:       Fri Mar 27 08:17:56 2020


#       File generated by GOLD software.
#

@<TRIPOS>MOLECULE
AV-unprocessed.smi:1727
    55    57     1
SMALL
NO_CHARGES


@<TRIPOS>ATOM
      1 ****        -4.9518  -3.1803  -1.6000 C.3            1 S1                 0.0000
      2 ****        -4.8855  -2.7413  -0.1354 C.2            1 S1                 0.0000
      3 ****        -5.1105  -3.5858   0.7316 O.2            1 S1                 0.0000
      4 ****        -4.5819  -1.4538   0.1576 N.am           1 S1                 0.0000
      5 ****        -4.4309  -0.9681   1.5343 C.3            1 S1                 0.0000
      6 ****        -2.9438  -0.6693   1.7960 C.3            1 S1                 0.0000
      7 ****        -2.3826   0.3322   0.7642 C.3            1 S1                 0.0000
      8 ****        -0.9376   0.4504   0.9316 N.am           1 S1                 0.0000
      9 ****        -0.2039   1.5175   0.5860 C.2            1 S1                 0.0000
     10 ****        -0.6763   2.5366   0.0817 O.2            1 S1                 0.0000
     11 ****         1.0990   1.3136   0.8412 N.am           1 S1                 0.0000
     12 ****         2.1878   2.1871   0.5655 C.ar           1 S1                 0.0000
     13 ****         2.0550   3.5911   0.6955 C.ar           1 S1                 0.0000
     14 ****         3.1755   4.4125   0.4842 C.ar           1 S1                 0.0000
     15 ****         4.3979   3.7987   0.1651 C.ar           1 S1                 0.0000
     16 ****         4.5440   2.4635   0.0506 N.ar           1 S1                 0.0000
     17 ****         3.4691   1.6580   0.2369 C.ar           1 S1                 0.0000
     18 ****         3.6791   0.2678   0.0857 N.3            1 S1                 0.0000
     19 ****         5.0324  -0.2763   0.0361 C.3            1 S1                 0.0000
     20 ****         4.8712  -1.6884  -0.5192 C.3            1 S1                 0.0000
     21 ****         3.7262  -1.5185  -1.5124 C.3            1 S1                 0.0000
     22 ****         2.8347  -0.4573  -0.8595 C.3            1 S1                 0.0000
     23 ****        -2.7299  -0.0933  -0.6811 C.3            1 S1                 0.0000
     24 ****        -4.2272  -0.4198  -0.8226 C.3            1 S1                 0.0000
     25 ****        -3.9962  -3.0134  -2.0978 H              1 S1                 0.0000
     26 ****        -5.7306  -2.6339  -2.1325 H              1 S1                 0.0000
     27 ****        -5.1831  -4.2436  -1.6722 H              1 S1                 0.0000
     28 ****        -5.0247  -0.0624   1.6658 H              1 S1                 0.0000
     29 ****        -4.8027  -1.6764   2.2759 H              1 S1                 0.0000
     30 ****        -2.8152  -0.2785   2.8059 H              1 S1                 0.0000
     31 ****        -2.3804  -1.6029   1.7516 H              1 S1                 0.0000
     32 ****        -2.8468   1.3008   0.9593 H              1 S1                 0.0000
     33 ****        -0.4614  -0.3422   1.3365 H              1 S1                 0.0000
     34 ****         1.3536   0.3906   1.1617 H              1 S1                 0.0000
     35 ****         1.1178   4.0471   0.9769 H              1 S1                 0.0000
     36 ****         3.1018   5.4859   0.5777 H              1 S1                 0.0000
     37 ****         5.2840   4.3942   0.0028 H              1 S1                 0.0000
     38 ****         5.6612   0.3076  -0.6374 H              1 S1                 0.0000
     39 ****         5.4957  -0.2797   1.0232 H              1 S1                 0.0000
     40 ****         5.7829  -2.0725  -0.9773 H              1 S1                 0.0000
     41 ****         4.5755  -2.3723   0.2776 H              1 S1                 0.0000
     42 ****         4.1158  -1.1389  -2.4579 H              1 S1                 0.0000
     43 ****         3.1967  -2.4492  -1.7165 H              1 S1                 0.0000
     44 ****         2.0266  -0.9403  -0.3095 H              1 S1                 0.0000
     45 ****         2.3896   0.2029  -1.6052 H              1 S1                 0.0000
     46 ****        -2.4559   0.6959  -1.3823 H              1 S1                 0.0000
     47 ****        -2.1448  -0.9710  -0.9600 H              1 S1                 0.0000
     48 ****        -4.4496  -0.6974  -1.8517 H              1 S1                 0.0000
     49 ****        -4.8213   0.4746  -0.6296 H              1 S1                 0.0000
     50 ****        -5.3285  -4.5259   0.4694 LP             1 S1                 0.0000
     51 ****        -5.0752  -3.3318   1.6982 LP             1 S1                 0.0000
     52 ****        -1.6592   2.5995  -0.0911 LP             1 S1                 0.0000
     53 ****        -0.0770   3.3013  -0.1550 LP             1 S1                 0.0000
     54 ****         5.4368   2.0706  -0.1697 LP             1 S1                 0.0000
     55 ****         3.3552   0.0840   1.0138 LP             1 S1                 0.0000
@<TRIPOS>BOND
    1    1    2 1     
    2    1   25 1     
    3    1   26 1     
    4    1   27 1     
    5    2    3 2     
    6    2    4 am    
    7    4   24 1     
    8    4    5 1     
    9    5    6 1     
   10    5   28 1     
   11    5   29 1     
   12    6    7 1     
   13    6   30 1     
   14    6   31 1     
   15    7    8 1     
   16    7   23 1     
   17    7   32 1     
   18    8    9 am    
   19    8   33 1     
   20    9   10 2     
   21    9   11 am    
   22   11   12 1     
   23   11   34 1     
   24   12   17 ar    
   25   12   13 ar    
   26   13   14 ar    
   27   13   35 1     
   28   14   15 ar    
   29   14   36 1     
   30   15   16 ar    
   31   15   37 1     
   32   16   17 ar    
   33   17   18 1     
   34   18   22 1     
   35   18   19 1     
   36   19   20 1     
   37   19   38 1     
   38   19   39 1     
   39   20   21 1     
   40   20   40 1     
   41   20   41 1     
   42   21   22 1     
   43   21   42 1     
   44   21   43 1     
   45   22   44 1     
   46   22   45 1     
   47   23   24 1     
   48   23   46 1     
   49   23   47 1     
   50   24   48 1     
   51   24   49 1     
   52    3   50 1     
   53    3   51 1     
   54   10   52 1     
   55   10   53 1     
   56   16   54 1     
   57   18   55 1     
@<TRIPOS>SUBSTRUCTURE
      1 S1             1
@<TRIPOS>SET
LONE_PAIRS      STATIC     ATOMS    <user>   **** ""
6 50 51 52 53 54 55
DONOR_HYDROGENS      STATIC     ATOMS    <user>   **** ""
2 33 34
ATOM$BLUE        STATIC     ATOMS    COLORGROUP SYSTEM
6 50 51 52 53 54 55
ATOM$RED        STATIC     ATOMS    COLORGROUP SYSTEM
2 33 34
