AV-unprocessed.smi:2004|AV-procd|sdf|8123|dock5
  -GOLD-   2272010353D 1   1.00000     0.00000
 Structure written by MMmdl.
 40 42  0  0  0  0  0  0  0  0  2 V2000
  150.2415  137.6213  159.5319 O   0  0  0  0  0  0  0  0  0  0  0  0
  149.8081  138.6592  158.6786 C   0  0  2  0  0  0  0  0  0  0  0  0
  148.7166  138.1125  157.7377 C   0  0  0  0  0  0  0  0  0  0  0  0
  148.0711  137.0366  158.3959 O   0  0  0  0  0  0  0  0  0  0  0  0
  147.0530  137.4230  159.2985 C   0  0  0  0  0  0  0  0  0  0  0  0
  147.0423  136.5015  160.5015 C   0  0  0  0  0  0  0  0  0  0  0  0
  147.1923  137.0382  161.7974 C   0  0  0  0  0  0  0  0  0  0  0  0
  147.1584  136.1923  162.9227 C   0  0  0  0  0  0  0  0  0  0  0  0
  146.9764  134.8058  162.7562 C   0  0  0  0  0  0  0  0  0  0  0  0
  146.8316  134.2654  161.4636 C   0  0  0  0  0  0  0  0  0  0  0  0
  146.8669  135.1111  160.3376 C   0  0  0  0  0  0  0  0  0  0  0  0
  151.0469  139.2598  157.9680 C   0  0  0  0  0  0  0  0  0  0  0  0
  150.8485  140.6273  157.4660 N   0  0  0  0  0  0  0  0  0  0  0  0
  149.9593  141.0997  156.5501 C   0  0  0  0  0  0  0  0  0  0  0  0
  150.1347  142.4472  156.4623 N   0  3  0  0  0  0  0  0  0  0  0  0
  151.1547  142.8420  157.3302 C   0  0  0  0  0  0  0  0  0  0  0  0
  151.6819  144.1000  157.6035 C   0  0  0  0  0  0  0  0  0  0  0  0
  152.7209  144.1566  158.5554 C   0  0  0  0  0  0  0  0  0  0  0  0
  153.2012  142.9919  159.1891 C   0  0  0  0  0  0  0  0  0  0  0  0
  152.6612  141.7209  158.9017 C   0  0  0  0  0  0  0  0  0  0  0  0
  151.6287  141.6753  157.9667 C   0  0  0  0  0  0  0  0  0  0  0  0
  149.5079  137.0542  159.7142 H   0  0  0  0  0  0  0  0  0  0  0  0
  149.3566  139.4177  159.3185 H   0  0  0  0  0  0  0  0  0  0  0  0
  148.0119  138.9031  157.4749 H   0  0  0  0  0  0  0  0  0  0  0  0
  149.1535  137.7376  156.8109 H   0  0  0  0  0  0  0  0  0  0  0  0
  147.2153  138.4501  159.6295 H   0  0  0  0  0  0  0  0  0  0  0  0
  146.0820  137.3872  158.8026 H   0  0  0  0  0  0  0  0  0  0  0  0
  147.3263  138.1017  161.9309 H   0  0  0  0  0  0  0  0  0  0  0  0
  147.2712  136.6071  163.9134 H   0  0  0  0  0  0  0  0  0  0  0  0
  146.9500  134.1569  163.6191 H   0  0  0  0  0  0  0  0  0  0  0  0
  146.6934  133.2017  161.3364 H   0  0  0  0  0  0  0  0  0  0  0  0
  146.7499  134.6887  159.3505 H   0  0  0  0  0  0  0  0  0  0  0  0
  151.9182  139.2527  158.6241 H   0  0  0  0  0  0  0  0  0  0  0  0
  151.3069  138.6499  157.1013 H   0  0  0  0  0  0  0  0  0  0  0  0
  149.2324  140.5143  156.0060 H   0  0  0  0  0  0  0  0  0  0  0  0
  151.3143  144.9937  157.1209 H   0  0  0  0  0  0  0  0  0  0  0  0
  153.1578  145.1129  158.8043 H   0  0  0  0  0  0  0  0  0  0  0  0
  153.9988  143.0752  159.9130 H   0  0  0  0  0  0  0  0  0  0  0  0
  153.0322  140.8349  159.3949 H   0  0  0  0  0  0  0  0  0  0  0  0
  149.5930  143.0517  155.8583 H   0  0  0  0  0  0  0  0  0  0  0  0
  1  2  1  0  0  0  0
  1 22  1  0  0  0  0
  2  3  1  0  0  0  0
  2 12  1  0  0  0  0
  2 23  1  0  0  0  0
  3  4  1  0  0  0  0
  3 24  1  0  0  0  0
  3 25  1  0  0  0  0
  4  5  1  0  0  0  0
  5  6  1  0  0  0  0
  5 26  1  0  0  0  0
  5 27  1  0  0  0  0
  6 11  1  0  0  0  0
  6  7  2  0  0  0  0
  7  8  1  0  0  0  0
  7 28  1  0  0  0  0
  8  9  2  0  0  0  0
  8 29  1  0  0  0  0
  9 10  1  0  0  0  0
  9 30  1  0  0  0  0
 10 11  2  0  0  0  0
 10 31  1  0  0  0  0
 11 32  1  0  0  0  0
 12 13  1  0  0  0  0
 12 33  1  0  0  0  0
 12 34  1  0  0  0  0
 13 21  1  0  0  0  0
 13 14  1  0  0  0  0
 14 15  2  0  0  0  0
 14 35  1  0  0  0  0
 15 16  1  0  0  0  0
 15 40  1  0  0  0  0
 16 21  2  0  0  0  0
 16 17  1  0  0  0  0
 17 18  2  0  0  0  0
 17 36  1  0  0  0  0
 18 19  1  0  0  0  0
 18 37  1  0  0  0  0
 19 20  2  0  0  0  0
 19 38  1  0  0  0  0
 20 21  1  0  0  0  0
 20 39  1  0  0  0  0
M  CHG  1  15   1
M  END
> <s_m_source_file>
AV-unprocessed.smi

> <i_m_source_file_index>
2004

> <i_lp_mmshare_version>
43012

> <i_f3d_flags>
0

> <s_epik_input>
W2NIXTFbY0hdW2NIXVtjSF1jKGMxMiluKFtjSF1uMilbQ0gyXVtDQEhdKFtPSF0pW0NIMl1PW0NIMl1jM1tjSF1bY0hdW2NIXVtjSF1bY0hdMw==

> <s_epik_cmdline>
J2VwaWtfcHl0aG9uJywgJy1waCcsICc3LjAnLCAnLXRuJywgJzgnLCAnLW1hJywgJzIwMCcsICctbWV0YWxfYmluZGluZycsICctaW1hZScsICc8aW5maWxlLm1hZT4nLCAnLW9tYWUnLCAnPG91dGZpbGUubWFlPic=

> <r_epik_Ionization_Penalty>
1.28975

> <r_epik_Ionization_Penalty_Charging>
1.28975

> <r_epik_Ionization_Penalty_Neutral>
1.07667e-06

> <r_epik_State_Penalty>
1.36276

> <r_epik_Charging_Adjusted_Penalty>
2.65251

> <i_epik_Tot_Q>
1

> <i_epik_Tot_abs_Q>
1

> <r_epik_Metal_State_Penalty>
5.39298

> <b_epik_Metal_Only>
0

> <s_lp_Force_Field>
OPLS_2005

> <r_lp_Energy>
17.8954

> <b_lp_Chiralities_Consistent>
1

> <s_lp_Variant>
AV-unprocessed.smi:2004-3

> <Gold.Version>
5.8.1

> <Gold.Id.Protein>
6NUR|6NUR_protein|mol2

> <Gold.PLP.Fitness>
50.8743

> <Gold.PLP.PLP>
-46.7036

> <Gold.PLP.part.hbond>
-1.9191

> <Gold.PLP.part.metal>
0.0000

> <Gold.PLP.part.buried>
-5.7781

> <Gold.PLP.part.nonpolar>
-40.8239

> <Gold.PLP.part.repulsive>
0.0467

> <Gold.PLP.ligand.clash>
0.0000

> <Gold.PLP.ligand.torsion>
0.9861

> <Gold.PLP.Chemscore.Hbond>
2.0000

> <Gold.PLP.Chemscore.CHOScore>
0.0000

> <Gold.PLP.Chemscore.Metal>
0.0000

> <Gold.Chemscore.Hbonds>
donor molecule, donor type, donor heavy atom, donor atom, acceptor molecule, acceptor atom, score
      L1  H    15    40       P1  8028  1.82

> <Gold.PLP.Chemscore.Internal.Correction>
0.1429

> <Gold.Rescore>
     Score         DG    S(hbond)    S(metal)    S(lipo)     H(rot)  DE(clash)    DE(int)     intcor
     16.14     -17.08       0.97        0.00     124.61       2.43       0.12       0.83       ----

> <Gold.Chemscore.Fitness>
16.1408

> <Gold.Chemscore.DG>
-17.0835

> <Gold.Chemscore.ZeroCoef>
-5.4800

> <Gold.Chemscore.Hbond>
0.9692

> <Gold.Chemscore.Metal>
0.0000

> <Gold.Chemscore.Lipo>
124.6081

> <Gold.Chemscore.Internal_Hbond>
0.0000

> <Gold.Chemscore.DEClash>
0.1171

> <Gold.Chemscore.DEInternal>
0.8256

> <Gold.Chemscore.Rot>
2.4269

> <Gold.Chemscore.Internal.Correction>
   9.000000E+99

> <Gold.Chemscore.Hbonds>
donor molecule, donor type, donor heavy atom, donor atom, acceptor molecule, acceptor atom, score
      L1  H    15    40       P1  8028  0.88

> <Gold.Chemscore.Hbond.Weighted>
-3.2371

> <Gold.Chemscore.Metal.Weighted>
-0.0000

> <Gold.Chemscore.Lipo.Weighted>
-14.5791

> <Gold.Chemscore.Internal_Hbond.Weighted>
0.0000

> <Gold.Chemscore.DEClash.Weighted>
0.1171

> <Gold.Chemscore.DEInternal.Weighted>
0.8256

> <Gold.Chemscore.Rot.Weighted>
6.2127

> <Gold.Chemscore.Internal.Correction.Weighted>
   9.000000E+99

> <Gold.Protein.RotatedTorsions>
[ 6907 6896 6895 6894 ] final   95.87 input  -60.11 | X-H torsion
[ 7974 7965 7964 7962 ] final   79.24 input  175.53 | X-H torsion
[ 8008 7997 7996 7995 ] final  105.50 input   59.86 | X-H torsion
[ 10167 10162 10161 10158 ] final  160.33 input  -65.29 | X-H torsion
[ 10718 10713 10712 10709 ] final -171.26 input   66.30 | X-H torsion
[ 10763 10752 10751 10750 ] final   91.00 input  -60.55 | X-H torsion
[ 11005 11000 10999 10996 ] final  -99.15 input  -57.11 | X-H torsion

> <Gold.Protein.ActiveResidues>
 VAL166  LYS551  ARG553  GLY616  TRP617  ASP618  TYR619  PRO620  LYS621  CYS622 
 ASP623  PHE694  ASN695  SER759  ASP760  ASP761  ALA762  ILE779  LEU786  VAL792 
 PHE793  MET794  SER795  GLU796  ALA797  LYS798  CYS799  TRP800  GLU811  SER814 

> <Gold.Protein.RotatedAtoms>
  152.5440  134.0974  159.8302 H   0  0  0  0  0  0  0  0  0  0  0  0  # atno 6907 bound_to 6896
  151.1056  133.5204  159.2615 H   0  0  0  0  0  0  0  0  0  0  0  0  # atno 6908 bound_to 6896
  151.1942  135.0424  159.8900 H   0  0  0  0  0  0  0  0  0  0  0  0  # atno 6909 bound_to 6896
  145.6667  139.2486  143.1891 H   0  0  0  0  0  0  0  0  0  0  0  0  # atno 7974 bound_to 7965
  156.1664  140.3129  155.8896 H   0  0  0  0  0  0  0  0  0  0  0  0  # atno 8008 bound_to 7997
  155.3678  140.0480  157.3063 H   0  0  0  0  0  0  0  0  0  0  0  0  # atno 8009 bound_to 7997
  154.5196  140.2193  155.9011 H   0  0  0  0  0  0  0  0  0  0  0  0  # atno 8010 bound_to 7997
  139.4839  144.4644  151.8661 H   0  0  0  0  0  0  0  0  0  0  0  0  # atno 10167 bound_to 10162
  156.7383  130.9332  151.3108 H   0  0  0  0  0  0  0  0  0  0  0  0  # atno 10718 bound_to 10713
  153.2036  135.4413  155.0296 H   0  0  0  0  0  0  0  0  0  0  0  0  # atno 10763 bound_to 10752
  154.8161  135.3316  154.7175 H   0  0  0  0  0  0  0  0  0  0  0  0  # atno 10764 bound_to 10752
  153.7618  135.6991  153.4979 H   0  0  0  0  0  0  0  0  0  0  0  0  # atno 10765 bound_to 10752
  141.1319  133.8299  157.0933 H   0  0  0  0  0  0  0  0  0  0  0  0  # atno 11005 bound_to 11000
  146.1079  140.7464  142.9517 LP  0  0  0  0  0  0  0  0  0  0  0  0  # atno 17320 bound_to 7965
  144.7070  140.3892  143.7110 LP  0  0  0  0  0  0  0  0  0  0  0  0  # atno 17321 bound_to 7965
  140.4109  144.2370  150.5889 LP  0  0  0  0  0  0  0  0  0  0  0  0  # atno 17342 bound_to 10162
  140.4967  143.2330  151.8739 LP  0  0  0  0  0  0  0  0  0  0  0  0  # atno 17343 bound_to 10162
  157.6829  130.9158  150.0313 LP  0  0  0  0  0  0  0  0  0  0  0  0  # atno 17370 bound_to 10713
  156.1482  130.3642  149.9478 LP  0  0  0  0  0  0  0  0  0  0  0  0  # atno 17371 bound_to 10713
  140.0379  134.9869  157.0905 LP  0  0  0  0  0  0  0  0  0  0  0  0  # atno 17394 bound_to 11000
  140.4182  134.1909  155.7164 LP  0  0  0  0  0  0  0  0  0  0  0  0  # atno 17395 bound_to 11000

$$$$
