#       Name:                AV-unprocessed.smi:2416
#       Creating user name   scv26
#       Creation time:       Fri Mar 27 13:17:45 2020


#       File generated by GOLD software.
#

@<TRIPOS>MOLECULE
AV-unprocessed.smi:2416
    45    46     1
SMALL
NO_CHARGES


@<TRIPOS>ATOM
      1 ****        -1.3255   3.2479  -1.0196 C.3            1 S1                 0.0000
      2 ****        -0.5813   2.0737  -1.3207 O.3            1 S1                 0.0000
      3 ****         0.8428   2.2032  -1.4282 C.3            1 S1                 0.0000
      4 ****         1.2028   3.2444  -2.4963 C.3            1 S1                 0.0000
      5 ****         1.4733   2.3107  -0.0266 C.3            1 S1                 0.0000
      6 ****         1.5541   0.7833   0.0232 C.3            1 S1                 0.0000
      7 ****         0.3895   0.2123   0.7005 N.am           1 S1                 0.0000
      8 ****         0.3074  -1.0504   1.1410 C.2            1 S1                 0.0000
      9 ****         1.2255  -1.8646   1.0383 O.2            1 S1                 0.0000
     10 ****        -0.8952  -1.2968   1.6896 N.am           1 S1                 0.0000
     11 ****        -1.3830  -2.5196   2.2225 C.ar           1 S1                 0.0000
     12 ****        -2.7066  -2.4714   2.7164 C.ar           1 S1                 0.0000
     13 ****        -3.2867  -3.6341   3.2603 C.ar           1 S1                 0.0000
     14 ****        -2.5254  -4.8157   3.2953 C.ar           1 S1                 0.0000
     15 ****        -3.0409  -5.9587   3.8066 F              1 S1                 0.0000
     16 ****        -1.2147  -4.7794   2.7850 C.ar           1 S1                 0.0000
     17 ****        -0.6578  -3.6657   2.2635 N.ar           1 S1                 0.0000
     18 ****         1.4636   0.7716  -1.5274 C.3            1 S1                 0.0000
     19 ****         0.6094  -0.3123  -2.2064 C.3            1 S1                 0.0000
     20 ****         2.8375   0.6853  -2.2088 C.3            1 S1                 0.0000
     21 ****        -2.3591   2.9693  -0.8156 H              1 S1                 0.0000
     22 ****        -1.3405   3.9415  -1.8600 H              1 S1                 0.0000
     23 ****        -0.9453   3.7690  -0.1416 H              1 S1                 0.0000
     24 ****         2.2768   3.2919  -2.6726 H              1 S1                 0.0000
     25 ****         0.9022   4.2500  -2.2038 H              1 S1                 0.0000
     26 ****         0.7251   3.0151  -3.4492 H              1 S1                 0.0000
     27 ****         2.4601   2.7754  -0.0481 H              1 S1                 0.0000
     28 ****         0.8544   2.7624   0.7485 H              1 S1                 0.0000
     29 ****         2.5097   0.4281   0.4132 H              1 S1                 0.0000
     30 ****        -0.4120   0.8154   0.8141 H              1 S1                 0.0000
     31 ****        -1.5444  -0.5244   1.7106 H              1 S1                 0.0000
     32 ****        -3.2772  -1.5546   2.6797 H              1 S1                 0.0000
     33 ****        -4.2969  -3.6184   3.6419 H              1 S1                 0.0000
     34 ****        -0.5973  -5.6657   2.7935 H              1 S1                 0.0000
     35 ****         1.0495  -1.3022  -2.0818 H              1 S1                 0.0000
     36 ****         0.5116  -0.1289  -3.2766 H              1 S1                 0.0000
     37 ****        -0.4018  -0.3661  -1.8040 H              1 S1                 0.0000
     38 ****         3.2885  -0.2981  -2.0710 H              1 S1                 0.0000
     39 ****         3.5408   1.4132  -1.8037 H              1 S1                 0.0000
     40 ****         2.7685   0.8647  -3.2823 H              1 S1                 0.0000
     41 ****        -0.9171   1.7218  -2.1944 LP             1 S1                 0.0000
     42 ****        -0.7681   1.4071  -0.5990 LP             1 S1                 0.0000
     43 ****         2.0870  -1.5951   0.6081 LP             1 S1                 0.0000
     44 ****         1.1095  -2.7954   1.3851 LP             1 S1                 0.0000
     45 ****         0.2780  -3.6852   1.9116 LP             1 S1                 0.0000
@<TRIPOS>BOND
    1    1    2 1     
    2    1   21 1     
    3    1   22 1     
    4    1   23 1     
    5    2    3 1     
    6    3   18 1     
    7    3    4 1     
    8    3    5 1     
    9    4   24 1     
   10    4   25 1     
   11    4   26 1     
   12    5    6 1     
   13    5   27 1     
   14    5   28 1     
   15    6    7 1     
   16    6   18 1     
   17    6   29 1     
   18    7    8 am    
   19    7   30 1     
   20    8    9 2     
   21    8   10 am    
   22   10   11 1     
   23   10   31 1     
   24   11   17 ar    
   25   11   12 ar    
   26   12   13 ar    
   27   12   32 1     
   28   13   14 ar    
   29   13   33 1     
   30   14   15 1     
   31   14   16 ar    
   32   16   17 ar    
   33   16   34 1     
   34   18   19 1     
   35   18   20 1     
   36   19   35 1     
   37   19   36 1     
   38   19   37 1     
   39   20   38 1     
   40   20   39 1     
   41   20   40 1     
   42    2   41 1     
   43    2   42 1     
   44    9   43 1     
   45    9   44 1     
   46   17   45 1     
@<TRIPOS>SUBSTRUCTURE
      1 S1             1
@<TRIPOS>SET
LONE_PAIRS      STATIC     ATOMS    <user>   **** ""
5 41 42 43 44 45
DONOR_HYDROGENS      STATIC     ATOMS    <user>   **** ""
2 30 31
ATOM$BLUE        STATIC     ATOMS    COLORGROUP SYSTEM
5 41 42 43 44 45
ATOM$RED        STATIC     ATOMS    COLORGROUP SYSTEM
2 30 31
