AV-unprocessed.smi:1598|AV-procd|sdf|6421|dock7
  -GOLD-   22720 7 63D 1   1.00000     0.00000
 Structure written by MMmdl.
 39 39  0  0  0  0  0  0  0  0  1 V2000
  154.0864  140.0477  160.5072 C   0  0  0  0  0  0  0  0  0  0  0  0
  154.3755  139.5227  159.2240 O   0  0  0  0  0  0  0  0  0  0  0  0
  153.5936  138.3790  158.9145 C   0  0  0  0  0  0  0  0  0  0  0  0
  152.1014  138.6930  159.1228 C   0  0  2  0  0  0  0  0  0  0  0  0
  151.1890  137.6072  158.5359 C   0  0  0  0  0  0  0  0  0  0  0  0
  151.7664  139.9845  158.5335 N   0  0  0  0  0  0  0  0  0  0  0  0
  150.5269  140.4559  158.3160 C   0  0  0  0  0  0  0  0  0  0  0  0
  149.5123  139.8094  158.5734 O   0  0  0  0  0  0  0  0  0  0  0  0
  150.3834  141.8760  157.7357 C   0  0  0  0  0  0  0  0  0  0  0  0
  149.5813  142.8177  158.5610 N   0  0  0  0  0  0  0  0  0  0  0  0
  150.2066  143.9586  159.1562 C   0  0  0  0  0  0  0  0  0  0  0  0
  151.7012  144.2147  158.9128 C   0  0  0  0  0  0  0  0  0  0  0  0
  152.0957  145.3503  159.4906 F   0  0  0  0  0  0  0  0  0  0  0  0
  152.4410  143.2373  159.4375 F   0  0  0  0  0  0  0  0  0  0  0  0
  151.9846  144.3322  157.6159 F   0  0  0  0  0  0  0  0  0  0  0  0
  149.4758  144.8104  159.8990 C   0  0  0  0  0  0  0  0  0  0  0  0
  148.0733  144.5734  160.1018 C   0  0  0  0  0  0  0  0  0  0  0  0
  147.4663  143.5004  159.5458 C   0  0  0  0  0  0  0  0  0  0  0  0
  146.0238  143.2162  159.7237 C   0  0  0  0  0  0  0  0  0  0  0  0
  145.2226  144.2601  159.4762 N   0  0  0  0  0  0  0  0  0  0  0  0
  145.5150  142.1479  160.0630 O   0  0  0  0  0  0  0  0  0  0  0  0
  148.2402  142.5421  158.7151 C   0  0  0  0  0  0  0  0  0  0  0  0
  147.7460  141.5514  158.1685 O   0  0  0  0  0  0  0  0  0  0  0  0
  154.7038  140.9269  160.6903 H   0  0  0  0  0  0  0  0  0  0  0  0
  154.2993  139.3171  161.2886 H   0  0  0  0  0  0  0  0  0  0  0  0
  153.0408  140.3486  160.5839 H   0  0  0  0  0  0  0  0  0  0  0  0
  153.7704  138.0746  157.8817 H   0  0  0  0  0  0  0  0  0  0  0  0
  153.8916  137.5434  159.5499 H   0  0  0  0  0  0  0  0  0  0  0  0
  151.9072  138.7350  160.1958 H   0  0  0  0  0  0  0  0  0  0  0  0
  151.4077  136.6332  158.9741 H   0  0  0  0  0  0  0  0  0  0  0  0
  151.3127  137.5216  157.4559 H   0  0  0  0  0  0  0  0  0  0  0  0
  150.1397  137.8292  158.7332 H   0  0  0  0  0  0  0  0  0  0  0  0
  152.5440  140.5838  158.2979 H   0  0  0  0  0  0  0  0  0  0  0  0
  151.3882  142.2703  157.5732 H   0  0  0  0  0  0  0  0  0  0  0  0
  150.0048  141.7856  156.7221 H   0  0  0  0  0  0  0  0  0  0  0  0
  149.9249  145.6820  160.3513 H   0  0  0  0  0  0  0  0  0  0  0  0
  147.5367  145.2853  160.7113 H   0  0  0  0  0  0  0  0  0  0  0  0
  144.2222  144.1654  159.5732 H   0  0  0  0  0  0  0  0  0  0  0  0
  145.6256  145.1423  159.1953 H   0  0  0  0  0  0  0  0  0  0  0  0
  1  2  1  0  0  0  0
  1 24  1  0  0  0  0
  1 25  1  0  0  0  0
  1 26  1  0  0  0  0
  2  3  1  0  0  0  0
  3  4  1  0  0  0  0
  3 27  1  0  0  0  0
  3 28  1  0  0  0  0
  4  5  1  0  0  0  0
  4  6  1  0  0  0  0
  4 29  1  0  0  0  0
  5 30  1  0  0  0  0
  5 31  1  0  0  0  0
  5 32  1  0  0  0  0
  6  7  1  0  0  0  0
  6 33  1  0  0  0  0
  7  8  2  0  0  0  0
  7  9  1  0  0  0  0
  9 10  1  0  0  0  0
  9 34  1  0  0  0  0
  9 35  1  0  0  0  0
 10 22  1  0  0  0  0
 10 11  1  0  0  0  0
 11 12  1  0  0  0  0
 11 16  2  0  0  0  0
 12 13  1  0  0  0  0
 12 14  1  0  0  0  0
 12 15  1  0  0  0  0
 16 17  1  0  0  0  0
 16 36  1  0  0  0  0
 17 18  2  0  0  0  0
 17 37  1  0  0  0  0
 18 19  1  0  0  0  0
 18 22  1  0  0  0  0
 19 20  1  0  0  0  0
 19 21  2  0  0  0  0
 20 38  1  0  0  0  0
 20 39  1  0  0  0  0
 22 23  2  0  0  0  0
M  END
> <s_m_source_file>
AV-unprocessed.smi

> <i_m_source_file_index>
1598

> <i_lp_mmshare_version>
43012

> <i_f3d_flags>
0

> <s_epik_input>
W0NIM11PW0NIMl1bQ0BIXShbQ0gzXSlbTkhdQyg9TylbQ0gyXW4xYyhDKEYpKEYpRilbY0hdW2NIXWMoYzE9TylDKD1PKVtOSDJd

> <s_epik_cmdline>
J2VwaWtfcHl0aG9uJywgJy1waCcsICc3LjAnLCAnLXRuJywgJzgnLCAnLW1hJywgJzIwMCcsICctbWV0YWxfYmluZGluZycsICctaW1hZScsICc8aW5maWxlLm1hZT4nLCAnLW9tYWUnLCAnPG91dGZpbGUubWFlPic=

> <r_lp_tautomer_probability>
1

> <r_epik_Ionization_Penalty>
2.07884e-06

> <r_epik_Ionization_Penalty_Charging>
8.00383e-10

> <r_epik_Ionization_Penalty_Neutral>
2.07804e-06

> <r_epik_State_Penalty>
-0

> <r_epik_Charging_Adjusted_Penalty>
8.00383e-10

> <i_epik_Tot_Q>
0

> <i_epik_Tot_abs_Q>
0

> <r_epik_Metal_State_Penalty>
-0

> <b_epik_Metal_Only>
0

> <s_lp_Force_Field>
OPLS_2005

> <r_lp_Energy>
25.9184

> <b_lp_Chiralities_Consistent>
1

> <s_lp_Variant>
AV-unprocessed.smi:1598-1

> <Gold.Version>
5.8.1

> <Gold.Id.Protein>
6NUR|6NUR_protein|mol2

> <Gold.PLP.Fitness>
41.7810

> <Gold.PLP.PLP>
-38.0238

> <Gold.PLP.part.hbond>
-2.0000

> <Gold.PLP.part.metal>
0.0000

> <Gold.PLP.part.buried>
-6.3296

> <Gold.PLP.part.nonpolar>
-29.8905

> <Gold.PLP.part.repulsive>
0.1830

> <Gold.PLP.ligand.clash>
3.8472

> <Gold.PLP.ligand.torsion>
1.2178

> <Gold.PLP.Chemscore.Hbond>
2.0000

> <Gold.PLP.Chemscore.CHOScore>
0.0000

> <Gold.PLP.Chemscore.Metal>
0.0000

> <Gold.Chemscore.Hbonds>
donor molecule, donor type, donor heavy atom, donor atom, acceptor molecule, acceptor atom, score
      P1  H  6934  6946       L1    21  1.00
      P1  H  7997  8010       L1     2  0.81

> <Gold.PLP.Chemscore.Internal.Correction>
4.0399

> <Gold.Rescore>
     Score         DG    S(hbond)    S(metal)    S(lipo)     H(rot)  DE(clash)    DE(int)     intcor
      4.11     -12.40       1.86        0.00      59.16       2.43       0.09       8.19       ----

> <Gold.Chemscore.Fitness>
4.1142

> <Gold.Chemscore.DG>
-12.4009

> <Gold.Chemscore.ZeroCoef>
-5.4800

> <Gold.Chemscore.Hbond>
1.8614

> <Gold.Chemscore.Metal>
0.0000

> <Gold.Chemscore.Lipo>
59.1606

> <Gold.Chemscore.Internal_Hbond>
0.0000

> <Gold.Chemscore.DEClash>
0.0938

> <Gold.Chemscore.DEInternal>
8.1929

> <Gold.Chemscore.Rot>
2.4289

> <Gold.Chemscore.Internal.Correction>
   9.000000E+99

> <Gold.Chemscore.Hbonds>
donor molecule, donor type, donor heavy atom, donor atom, acceptor molecule, acceptor atom, score
      P1  H  6934  6946       L1    21  0.79
      P1  H  7997  8010       L1     2  0.28

> <Gold.Chemscore.Hbond.Weighted>
-6.2171

> <Gold.Chemscore.Metal.Weighted>
-0.0000

> <Gold.Chemscore.Lipo.Weighted>
-6.9218

> <Gold.Chemscore.Internal_Hbond.Weighted>
0.0000

> <Gold.Chemscore.DEClash.Weighted>
0.0938

> <Gold.Chemscore.DEInternal.Weighted>
8.1929

> <Gold.Chemscore.Rot.Weighted>
6.2180

> <Gold.Chemscore.Internal.Correction.Weighted>
   9.000000E+99

> <Gold.Protein.RotatedTorsions>
[ 6907 6896 6895 6894 ] final  -23.58 input  -60.11 | X-H torsion
[ 7974 7965 7964 7962 ] final  -38.95 input  175.53 | X-H torsion
[ 8008 7997 7996 7995 ] final   -6.39 input   59.86 | X-H torsion
[ 10167 10162 10161 10158 ] final  101.46 input  -65.29 | X-H torsion
[ 10718 10713 10712 10709 ] final   79.03 input   66.30 | X-H torsion
[ 10763 10752 10751 10750 ] final -105.88 input  -60.55 | X-H torsion
[ 11005 11000 10999 10996 ] final -154.93 input  -57.11 | X-H torsion

> <Gold.Protein.ActiveResidues>
 VAL166  LYS551  ARG553  GLY616  TRP617  ASP618  TYR619  PRO620  LYS621  CYS622 
 ASP623  PHE694  ASN695  SER759  ASP760  ASP761  ALA762  ILE779  LEU786  VAL792 
 PHE793  MET794  SER795  GLU796  ALA797  LYS798  CYS799  TRP800  GLU811  SER814 

> <Gold.Protein.RotatedAtoms>
  151.2020  135.0446  159.8875 H   0  0  0  0  0  0  0  0  0  0  0  0  # atno 6907 bound_to 6896
  152.5432  134.0839  159.8258 H   0  0  0  0  0  0  0  0  0  0  0  0  # atno 6908 bound_to 6896
  151.0981  133.5216  159.2643 H   0  0  0  0  0  0  0  0  0  0  0  0  # atno 6909 bound_to 6896
  146.0440  140.6570  142.9073 H   0  0  0  0  0  0  0  0  0  0  0  0  # atno 7974 bound_to 7965
  154.5942  140.2434  155.7879 H   0  0  0  0  0  0  0  0  0  0  0  0  # atno 8008 bound_to 7997
  156.2268  140.2980  156.0041 H   0  0  0  0  0  0  0  0  0  0  0  0  # atno 8009 bound_to 7997
  155.2321  140.0404  157.2954 H   0  0  0  0  0  0  0  0  0  0  0  0  # atno 8010 bound_to 7997
  139.7436  144.7004  151.0538 H   0  0  0  0  0  0  0  0  0  0  0  0  # atno 10167 bound_to 10162
  157.6764  130.9895  150.1873 H   0  0  0  0  0  0  0  0  0  0  0  0  # atno 10718 bound_to 10713
  154.7976  135.4732  154.0197 H   0  0  0  0  0  0  0  0  0  0  0  0  # atno 10763 bound_to 10752
  153.1728  135.6828  153.8591 H   0  0  0  0  0  0  0  0  0  0  0  0  # atno 10764 bound_to 10752
  153.8167  135.3209  155.3384 H   0  0  0  0  0  0  0  0  0  0  0  0  # atno 10765 bound_to 10752
  140.6919  134.4031  157.5218 H   0  0  0  0  0  0  0  0  0  0  0  0  # atno 11005 bound_to 11000
  144.7089  140.3960  143.7096 LP  0  0  0  0  0  0  0  0  0  0  0  0  # atno 17320 bound_to 7965
  145.6836  139.1624  143.2686 LP  0  0  0  0  0  0  0  0  0  0  0  0  # atno 17321 bound_to 7965
  140.7789  143.4894  150.9913 LP  0  0  0  0  0  0  0  0  0  0  0  0  # atno 17342 bound_to 10162
  139.8582  143.7349  152.3175 LP  0  0  0  0  0  0  0  0  0  0  0  0  # atno 17343 bound_to 10162
  156.2592  130.3709  149.8149 LP  0  0  0  0  0  0  0  0  0  0  0  0  # atno 17370 bound_to 10713
  156.5899  130.8502  151.3405 LP  0  0  0  0  0  0  0  0  0  0  0  0  # atno 17371 bound_to 10713
  139.8921  134.8764  156.2288 LP  0  0  0  0  0  0  0  0  0  0  0  0  # atno 17394 bound_to 11000
  141.0234  133.7028  156.1306 LP  0  0  0  0  0  0  0  0  0  0  0  0  # atno 17395 bound_to 11000

$$$$
