AV-unprocessed.smi:35|AV-procd|sdf|267|dock4
  -GOLD-   2262016 33D 1   1.00000     0.00000
 Structure written by MMmdl.
 28 29  0  0  0  0  0  0  0  0  2 V2000
  150.7104  134.7227  156.2421 O   0  0  0  0  0  0  0  0  0  0  0  0
  150.7355  135.9024  155.8963 C   0  0  0  0  0  0  0  0  0  0  0  0
  151.8888  136.6262  155.8148 N   0  5  0  0  0  0  0  0  0  0  0  0
  151.9125  137.9326  155.4188 C   0  0  0  0  0  0  0  0  0  0  0  0
  152.9469  138.5988  155.3655 O   0  0  0  0  0  0  0  0  0  0  0  0
  150.6927  138.5664  155.0494 N   0  0  0  0  0  0  0  0  0  0  0  0
  150.7303  140.0252  154.6245 C   0  0  2  0  0  0  0  0  0  0  0  0
  151.3460  140.7959  155.6132 O   0  0  0  0  0  0  0  0  0  0  0  0
  150.3561  141.3436  156.4747 C   0  0  1  0  0  0  0  0  0  0  0  0
  150.9330  142.5453  157.2380 C   0  0  0  0  0  0  0  0  0  0  0  0
  151.1992  143.6045  156.3433 O   0  0  0  0  0  0  0  0  0  0  0  0
  149.2493  141.7167  155.4874 C   0  0  2  0  0  0  0  0  0  0  0  0
  147.9942  141.7361  156.1375 O   0  0  0  0  0  0  0  0  0  0  0  0
  149.3046  140.5955  154.4525 C   0  0  1  0  0  0  0  0  0  0  0  0
  149.1066  141.1172  153.1545 O   0  0  0  0  0  0  0  0  0  0  0  0
  149.5019  137.8642  155.1581 C   0  0  0  0  0  0  0  0  0  0  0  0
  149.4856  136.5768  155.5583 C   0  0  0  0  0  0  0  0  0  0  0  0
  147.7116  135.6998  155.6632 Br  0  0  0  0  0  0  0  0  0  0  0  0
  151.3376  140.0350  153.7174 H   0  0  0  0  0  0  0  0  0  0  0  0
  149.9925  140.5784  157.1636 H   0  0  0  0  0  0  0  0  0  0  0  0
  150.2586  142.8747  158.0290 H   0  0  0  0  0  0  0  0  0  0  0  0
  151.8769  142.2710  157.7099 H   0  0  0  0  0  0  0  0  0  0  0  0
  150.4429  144.1701  156.3134 H   0  0  0  0  0  0  0  0  0  0  0  0
  149.4611  142.6850  155.0301 H   0  0  0  0  0  0  0  0  0  0  0  0
  147.3429  141.4118  155.5342 H   0  0  0  0  0  0  0  0  0  0  0  0
  148.5626  139.8232  154.6621 H   0  0  0  0  0  0  0  0  0  0  0  0
  149.1238  140.3954  152.5434 H   0  0  0  0  0  0  0  0  0  0  0  0
  148.5596  138.3374  154.9289 H   0  0  0  0  0  0  0  0  0  0  0  0
  1  2  2  0  0  0  0
  2 17  1  0  0  0  0
  2  3  1  0  0  0  0
  3  4  1  0  0  0  0
  4  5  2  0  0  0  0
  4  6  1  0  0  0  0
  6  7  1  0  0  0  0
  6 16  1  0  0  0  0
  7 14  1  0  0  0  0
  7  8  1  0  0  0  0
  7 19  1  0  0  0  0
  8  9  1  0  0  0  0
  9 10  1  0  0  0  0
  9 12  1  0  0  0  0
  9 20  1  0  0  0  0
 10 11  1  0  0  0  0
 10 21  1  0  0  0  0
 10 22  1  0  0  0  0
 11 23  1  0  0  0  0
 12 13  1  0  0  0  0
 12 14  1  0  0  0  0
 12 24  1  0  0  0  0
 13 25  1  0  0  0  0
 14 15  1  0  0  0  0
 14 26  1  0  0  0  0
 15 27  1  0  0  0  0
 16 17  2  0  0  0  0
 16 28  1  0  0  0  0
 17 18  1  0  0  0  0
M  CHG  1   3  -1
M  END
> <s_m_source_file>
AV-unprocessed.smi

> <i_m_source_file_index>
35

> <i_lp_mmshare_version>
43012

> <i_f3d_flags>
0

> <s_epik_input>
Tz1jMVtuSF1jKD1PKW4oW2NIXWMxQnIpW0NAQEhdMk9bQ0BASF0oW0NIMl1bT0hdKVtDQEBIXShbT0hdKVtDQEhdMltPSF0=

> <s_epik_cmdline>
J2VwaWtfcHl0aG9uJywgJy1waCcsICc3LjAnLCAnLXRuJywgJzgnLCAnLW1hJywgJzIwMCcsICctbWV0YWxfYmluZGluZycsICctaW1hZScsICc8aW5maWxlLm1hZT4nLCAnLW9tYWUnLCAnPG91dGZpbGUubWFlPic=

> <r_epik_Ionization_Penalty>
1.06112

> <r_epik_Ionization_Penalty_Charging>
2.1796e-09

> <r_epik_Ionization_Penalty_Neutral>
1.06112

> <r_epik_State_Penalty>
1.11484

> <r_epik_Charging_Adjusted_Penalty>
1.11484

> <i_epik_Tot_Q>
-1

> <i_epik_Tot_abs_Q>
1

> <r_epik_Metal_State_Penalty>
0.0032876

> <b_epik_Metal_Only>
0

> <s_epik_Chemistry_Notes>
This compound contains an acetal/aminal-like group ( X-CH(R)-Y where X, Y are N, S, or O) that may be acid/base labile, releasing an aldehyde.

> <s_lp_Force_Field>
OPLS_2005

> <r_lp_Energy>
34.7757

> <b_lp_Chiralities_Consistent>
1

> <s_lp_Variant>
AV-unprocessed.smi:35-21

> <Gold.Version>
5.8.1

> <Gold.Id.Protein>
6NUR|6NUR_protein|mol2

> <Gold.PLP.Fitness>
42.1615

> <Gold.PLP.PLP>
-25.8711

> <Gold.PLP.part.hbond>
-6.1600

> <Gold.PLP.part.metal>
0.0000

> <Gold.PLP.part.buried>
-1.3832

> <Gold.PLP.part.nonpolar>
-19.5616

> <Gold.PLP.part.repulsive>
0.0829

> <Gold.PLP.ligand.clash>
0.0000

> <Gold.PLP.ligand.torsion>
0.1155

> <Gold.PLP.Chemscore.Hbond>
5.4970

> <Gold.PLP.Chemscore.CHOScore>
0.0000

> <Gold.PLP.Chemscore.Metal>
0.0000

> <Gold.Chemscore.Hbonds>
donor molecule, donor type, donor heavy atom, donor atom, acceptor molecule, acceptor atom, score
      L1  H    11    23       P1  8028  1.00
      L1  H    15    27       P1  7957  0.77
      P1  H  7997  8010       L1     5  0.50
      P1  H  8011  8017       L1    15  1.00
      P1  H 10752 10763       L1     3  2.00

> <Gold.PLP.Chemscore.Internal.Correction>
0.0303

> <Gold.Rescore>
     Score         DG    S(hbond)    S(metal)    S(lipo)     H(rot)  DE(clash)    DE(int)     intcor
      8.41     -11.43       3.23        0.00      38.01       3.63       1.44       1.59       ----

> <Gold.Chemscore.Fitness>
8.4071

> <Gold.Chemscore.DG>
-11.4334

> <Gold.Chemscore.ZeroCoef>
-5.4800

> <Gold.Chemscore.Hbond>
3.2302

> <Gold.Chemscore.Metal>
0.0000

> <Gold.Chemscore.Lipo>
38.0102

> <Gold.Chemscore.Internal_Hbond>
0.0000

> <Gold.Chemscore.DEClash>
1.4359

> <Gold.Chemscore.DEInternal>
1.5903

> <Gold.Chemscore.Rot>
3.6261

> <Gold.Chemscore.Internal.Correction>
   9.000000E+99

> <Gold.Chemscore.Hbonds>
donor molecule, donor type, donor heavy atom, donor atom, acceptor molecule, acceptor atom, score
      L1  H    11    23       P1  8028  0.98
      L1  H    15    27       P1  7957  0.73
      P1  H  7997  8010       L1     5  0.51
      P1  H  8011  8017       L1    15  0.50
      P1  H 10752 10763       L1     3  0.31

> <Gold.Chemscore.Hbond.Weighted>
-10.7890

> <Gold.Chemscore.Metal.Weighted>
-0.0000

> <Gold.Chemscore.Lipo.Weighted>
-4.4472

> <Gold.Chemscore.Internal_Hbond.Weighted>
0.0000

> <Gold.Chemscore.DEClash.Weighted>
1.4359

> <Gold.Chemscore.DEInternal.Weighted>
1.5903

> <Gold.Chemscore.Rot.Weighted>
9.2828

> <Gold.Chemscore.Internal.Correction.Weighted>
   9.000000E+99

> <Gold.Protein.RotatedTorsions>
[ 6907 6896 6895 6894 ] final  127.32 input  -60.11 | X-H torsion
[ 7974 7965 7964 7962 ] final -148.93 input  175.53 | X-H torsion
[ 8008 7997 7996 7995 ] final   94.08 input   59.86 | X-H torsion
[ 10167 10162 10161 10158 ] final   45.92 input  -65.29 | X-H torsion
[ 10718 10713 10712 10709 ] final   29.93 input   66.30 | X-H torsion
[ 10763 10752 10751 10750 ] final   66.46 input  -60.55 | X-H torsion
[ 11005 11000 10999 10996 ] final   76.29 input  -57.11 | X-H torsion

> <Gold.Protein.ActiveResidues>
 VAL166  LYS551  ARG553  GLY616  TRP617  ASP618  TYR619  PRO620  LYS621  CYS622 
 ASP623  PHE694  ASN695  SER759  ASP760  ASP761  ALA762  ILE779  LEU786  VAL792 
 PHE793  MET794  SER795  GLU796  ALA797  LYS798  CYS799  TRP800  GLU811  SER814 

> <Gold.Protein.RotatedAtoms>
  152.3824  133.6564  159.6171 H   0  0  0  0  0  0  0  0  0  0  0  0  # atno 6907 bound_to 6896
  150.7751  133.9092  159.3373 H   0  0  0  0  0  0  0  0  0  0  0  0  # atno 6908 bound_to 6896
  151.6895  135.0950  160.0282 H   0  0  0  0  0  0  0  0  0  0  0  0  # atno 6909 bound_to 6896
  144.7999  140.5132  143.5714 H   0  0  0  0  0  0  0  0  0  0  0  0  # atno 7974 bound_to 7965
  156.0539  140.3304  155.7383 H   0  0  0  0  0  0  0  0  0  0  0  0  # atno 8008 bound_to 7997
  155.5559  140.0614  157.2857 H   0  0  0  0  0  0  0  0  0  0  0  0  # atno 8009 bound_to 7997
  154.4449  140.1886  156.0721 H   0  0  0  0  0  0  0  0  0  0  0  0  # atno 8010 bound_to 7997
  140.3192  144.2726  150.6186 H   0  0  0  0  0  0  0  0  0  0  0  0  # atno 10167 bound_to 10162
  157.2530  130.7124  149.6415 H   0  0  0  0  0  0  0  0  0  0  0  0  # atno 10718 bound_to 10713
  153.0141  135.5319  154.6828 H   0  0  0  0  0  0  0  0  0  0  0  0  # atno 10763 bound_to 10752
  154.5983  135.2865  155.0565 H   0  0  0  0  0  0  0  0  0  0  0  0  # atno 10764 bound_to 10752
  154.1631  135.6544  153.5043 H   0  0  0  0  0  0  0  0  0  0  0  0  # atno 10765 bound_to 10752
  139.9305  134.7589  156.1377 H   0  0  0  0  0  0  0  0  0  0  0  0  # atno 11005 bound_to 11000
  145.5580  139.1478  143.3357 LP  0  0  0  0  0  0  0  0  0  0  0  0  # atno 17320 bound_to 7965
  146.2277  140.5716  142.8989 LP  0  0  0  0  0  0  0  0  0  0  0  0  # atno 17321 bound_to 7965
  140.5499  143.2208  151.7945 LP  0  0  0  0  0  0  0  0  0  0  0  0  # atno 17342 bound_to 10162
  139.4878  144.4490  151.9676 LP  0  0  0  0  0  0  0  0  0  0  0  0  # atno 17343 bound_to 10162
  155.9665  130.4421  150.5369 LP  0  0  0  0  0  0  0  0  0  0  0  0  # atno 17370 bound_to 10713
  157.3257  131.0690  151.1898 LP  0  0  0  0  0  0  0  0  0  0  0  0  # atno 17371 bound_to 10713
  141.0890  133.6722  156.2499 LP  0  0  0  0  0  0  0  0  0  0  0  0  # atno 17394 bound_to 11000
  140.6216  134.5356  157.5548 LP  0  0  0  0  0  0  0  0  0  0  0  0  # atno 17395 bound_to 11000

$$$$
