AV-unprocessed.smi:2426|AV-procd|sdf|9577|dock2
  -GOLD-   2272013213D 1   1.00000     0.00000
 Structure written by MMmdl.
 36 37  0  0  0  0  0  0  0  0  1 V2000
  150.5781  134.7230  155.7386 C   0  0  0  0  0  0  0  0  0  0  0  0
  151.4393  135.7871  156.1279 O   0  0  0  0  0  0  0  0  0  0  0  0
  151.2101  137.0385  155.5949 C   0  0  0  0  0  0  0  0  0  0  0  0
  151.5849  138.1818  156.3304 C   0  0  0  0  0  0  0  0  0  0  0  0
  151.3357  139.4442  155.7468 C   0  0  0  0  0  0  0  0  0  0  0  0
  151.7296  140.5692  156.5187 N   0  0  0  0  0  0  0  0  0  0  0  0
  151.7989  140.6722  157.8576 C   0  0  0  0  0  0  0  0  0  0  0  0
  151.5326  139.7720  158.6544 O   0  0  0  0  0  0  0  0  0  0  0  0
  152.1927  141.8999  158.2288 N   0  0  0  0  0  0  0  0  0  0  0  0
  152.3434  142.3670  159.6049 C   0  0  1  0  0  0  0  0  0  0  0  0
  153.8320  142.3598  159.9798 C   0  0  0  0  0  0  0  0  0  0  0  0
  151.7192  143.7558  159.7572 C   0  0  0  0  0  0  0  0  0  0  0  0
  152.2306  144.9269  158.9039 C   0  0  0  0  0  0  0  0  0  0  0  0
  151.9495  145.8537  160.0899 C   0  0  0  0  0  0  0  0  0  0  0  0
  152.0369  144.6181  160.9894 C   0  0  0  0  0  0  0  0  0  0  0  0
  150.7542  139.5213  154.5243 N   0  0  0  0  0  0  0  0  0  0  0  0
  150.4360  138.3807  153.9097 C   0  0  0  0  0  0  0  0  0  0  0  0
  150.6308  137.1462  154.3747 N   0  0  0  0  0  0  0  0  0  0  0  0
  150.8911  133.8050  156.2355 H   0  0  0  0  0  0  0  0  0  0  0  0
  150.6213  134.5476  154.6625 H   0  0  0  0  0  0  0  0  0  0  0  0
  149.5448  134.9206  156.0279 H   0  0  0  0  0  0  0  0  0  0  0  0
  152.0466  138.0875  157.3025 H   0  0  0  0  0  0  0  0  0  0  0  0
  151.9739  141.3941  155.9912 H   0  0  0  0  0  0  0  0  0  0  0  0
  152.3899  142.5724  157.5024 H   0  0  0  0  0  0  0  0  0  0  0  0
  151.8402  141.6714  160.2788 H   0  0  0  0  0  0  0  0  0  0  0  0
  153.9777  142.6707  161.0147 H   0  0  0  0  0  0  0  0  0  0  0  0
  154.4055  143.0368  159.3456 H   0  0  0  0  0  0  0  0  0  0  0  0
  154.2591  141.3618  159.8754 H   0  0  0  0  0  0  0  0  0  0  0  0
  150.6337  143.7021  159.6453 H   0  0  0  0  0  0  0  0  0  0  0  0
  153.2943  144.8503  158.6727 H   0  0  0  0  0  0  0  0  0  0  0  0
  151.6393  145.1333  158.0113 H   0  0  0  0  0  0  0  0  0  0  0  0
  152.7152  146.6079  160.2730 H   0  0  0  0  0  0  0  0  0  0  0  0
  150.9486  146.2876  160.0620 H   0  0  0  0  0  0  0  0  0  0  0  0
  151.2898  144.5726  161.7821 H   0  0  0  0  0  0  0  0  0  0  0  0
  153.0435  144.4514  161.3764 H   0  0  0  0  0  0  0  0  0  0  0  0
  149.9741  138.4656  152.9373 H   0  0  0  0  0  0  0  0  0  0  0  0
  1  2  1  0  0  0  0
  1 19  1  0  0  0  0
  1 20  1  0  0  0  0
  1 21  1  0  0  0  0
  2  3  1  0  0  0  0
  3 18  1  0  0  0  0
  3  4  2  0  0  0  0
  4  5  1  0  0  0  0
  4 22  1  0  0  0  0
  5  6  1  0  0  0  0
  5 16  2  0  0  0  0
  6  7  1  0  0  0  0
  6 23  1  0  0  0  0
  7  8  2  0  0  0  0
  7  9  1  0  0  0  0
  9 10  1  0  0  0  0
  9 24  1  0  0  0  0
 10 11  1  0  0  0  0
 10 12  1  0  0  0  0
 10 25  1  0  0  0  0
 11 26  1  0  0  0  0
 11 27  1  0  0  0  0
 11 28  1  0  0  0  0
 12 15  1  0  0  0  0
 12 13  1  0  0  0  0
 12 29  1  0  0  0  0
 13 14  1  0  0  0  0
 13 30  1  0  0  0  0
 13 31  1  0  0  0  0
 14 15  1  0  0  0  0
 14 32  1  0  0  0  0
 14 33  1  0  0  0  0
 15 34  1  0  0  0  0
 15 35  1  0  0  0  0
 16 17  1  0  0  0  0
 17 18  2  0  0  0  0
 17 36  1  0  0  0  0
M  END
> <s_m_source_file>
AV-unprocessed.smi

> <i_m_source_file_index>
2426

> <i_lp_mmshare_version>
43012

> <i_f3d_flags>
0

> <s_epik_input>
W0NIM11PYzFbY0hdYyhuW2NIXW4xKVtOSF1DKD1PKVtOSF1bQ0BIXShbQ0gzXSlbQ0hdMltDSDJdW0NIMl1bQ0gyXTI=

> <s_epik_cmdline>
J2VwaWtfcHl0aG9uJywgJy1waCcsICc3LjAnLCAnLXRuJywgJzgnLCAnLW1hJywgJzIwMCcsICctbWV0YWxfYmluZGluZycsICctaW1hZScsICc8aW5maWxlLm1hZT4nLCAnLW9tYWUnLCAnPG91dGZpbGUubWFlPic=

> <r_lp_tautomer_probability>
1

> <r_epik_Ionization_Penalty>
2.84534e-05

> <r_epik_Ionization_Penalty_Charging>
0

> <r_epik_Ionization_Penalty_Neutral>
2.84534e-05

> <r_epik_State_Penalty>
-0

> <r_epik_Charging_Adjusted_Penalty>
0

> <i_epik_Tot_Q>
0

> <i_epik_Tot_abs_Q>
0

> <r_epik_Metal_State_Penalty>
-0

> <b_epik_Metal_Only>
0

> <s_lp_Force_Field>
OPLS_2005

> <r_lp_Energy>
11.0753

> <b_lp_Chiralities_Consistent>
1

> <s_lp_Variant>
AV-unprocessed.smi:2426-2

> <Gold.Version>
5.8.1

> <Gold.Id.Protein>
6NUR|6NUR_protein|mol2

> <Gold.PLP.Fitness>
44.4556

> <Gold.PLP.PLP>
-35.6230

> <Gold.PLP.part.hbond>
-2.0000

> <Gold.PLP.part.metal>
0.0000

> <Gold.PLP.part.buried>
-4.2877

> <Gold.PLP.part.nonpolar>
-30.3674

> <Gold.PLP.part.repulsive>
0.6845

> <Gold.PLP.ligand.clash>
0.0000

> <Gold.PLP.ligand.torsion>
0.8917

> <Gold.PLP.Chemscore.Hbond>
1.9500

> <Gold.PLP.Chemscore.CHOScore>
1.5500

> <Gold.PLP.Chemscore.Metal>
0.0000

> <Gold.Chemscore.Hbonds>
donor molecule, donor type, donor heavy atom, donor atom, acceptor molecule, acceptor atom, score
      P1  H  7989  7998       L1    16  1.00
      P1  H 10752 10764       L1     2  0.75
      L1  C    17    36       P1  7948  0.57
      L1  C    17    36       P1  7957  1.00

> <Gold.PLP.Chemscore.Internal.Correction>
0.1160

> <Gold.Rescore>
     Score         DG    S(hbond)    S(metal)    S(lipo)     H(rot)  DE(clash)    DE(int)     intcor
     11.41     -13.67       0.83        0.00      81.27       1.60       0.04       2.22       ----

> <Gold.Chemscore.Fitness>
11.4100

> <Gold.Chemscore.DG>
-13.6662

> <Gold.Chemscore.ZeroCoef>
-5.4800

> <Gold.Chemscore.Hbond>
0.8280

> <Gold.Chemscore.Metal>
0.0000

> <Gold.Chemscore.Lipo>
81.2743

> <Gold.Chemscore.Internal_Hbond>
0.0000

> <Gold.Chemscore.DEClash>
0.0351

> <Gold.Chemscore.DEInternal>
2.2211

> <Gold.Chemscore.Rot>
1.5971

> <Gold.Chemscore.Internal.Correction>
   9.000000E+99

> <Gold.Chemscore.Hbonds>
donor molecule, donor type, donor heavy atom, donor atom, acceptor molecule, acceptor atom, score
      P1  H  7989  7998       L1    16  0.70
      P1  H 10752 10764       L1     2  0.07

> <Gold.Chemscore.Hbond.Weighted>
-2.7657

> <Gold.Chemscore.Metal.Weighted>
-0.0000

> <Gold.Chemscore.Lipo.Weighted>
-9.5091

> <Gold.Chemscore.Internal_Hbond.Weighted>
0.0000

> <Gold.Chemscore.DEClash.Weighted>
0.0351

> <Gold.Chemscore.DEInternal.Weighted>
2.2211

> <Gold.Chemscore.Rot.Weighted>
4.0886

> <Gold.Chemscore.Internal.Correction.Weighted>
   9.000000E+99

> <Gold.Protein.RotatedTorsions>
[ 6907 6896 6895 6894 ] final  -46.46 input  -60.11 | X-H torsion
[ 7974 7965 7964 7962 ] final  -91.75 input  175.53 | X-H torsion
[ 8008 7997 7996 7995 ] final -174.26 input   59.86 | X-H torsion
[ 10167 10162 10161 10158 ] final -110.02 input  -65.29 | X-H torsion
[ 10718 10713 10712 10709 ] final -163.22 input   66.30 | X-H torsion
[ 10763 10752 10751 10750 ] final  -19.28 input  -60.55 | X-H torsion
[ 11005 11000 10999 10996 ] final  -22.06 input  -57.11 | X-H torsion

> <Gold.Protein.ActiveResidues>
 VAL166  LYS551  ARG553  GLY616  TRP617  ASP618  TYR619  PRO620  LYS621  CYS622 
 ASP623  PHE694  ASN695  SER759  ASP760  ASP761  ALA762  ILE779  LEU786  VAL792 
 PHE793  MET794  SER795  GLU796  ALA797  LYS798  CYS799  TRP800  GLU811  SER814 

> <Gold.Protein.RotatedAtoms>
  150.9110  134.8526  159.7424 H   0  0  0  0  0  0  0  0  0  0  0  0  # atno 6907 bound_to 6896
  152.4944  134.4360  159.9537 H   0  0  0  0  0  0  0  0  0  0  0  0  # atno 6908 bound_to 6896
  151.4402  133.3606  159.2816 H   0  0  0  0  0  0  0  0  0  0  0  0  # atno 6909 bound_to 6896
  145.4089  140.9543  143.2245 H   0  0  0  0  0  0  0  0  0  0  0  0  # atno 7974 bound_to 7965
  155.9678  140.1157  157.0839 H   0  0  0  0  0  0  0  0  0  0  0  0  # atno 8008 bound_to 7997
  154.4148  140.1169  156.5333 H   0  0  0  0  0  0  0  0  0  0  0  0  # atno 8009 bound_to 7997
  155.6636  140.3473  155.4794 H   0  0  0  0  0  0  0  0  0  0  0  0  # atno 8010 bound_to 7997
  140.1490  143.4215  152.1508 H   0  0  0  0  0  0  0  0  0  0  0  0  # atno 10167 bound_to 10162
  156.6215  130.8892  151.2958 H   0  0  0  0  0  0  0  0  0  0  0  0  # atno 10718 bound_to 10713
  153.6024  135.6999  153.5379 H   0  0  0  0  0  0  0  0  0  0  0  0  # atno 10763 bound_to 10752
  153.3086  135.4108  155.1315 H   0  0  0  0  0  0  0  0  0  0  0  0  # atno 10764 bound_to 10752
  154.8580  135.3666  154.5559 H   0  0  0  0  0  0  0  0  0  0  0  0  # atno 10765 bound_to 10752
  140.8620  133.7781  156.0086 H   0  0  0  0  0  0  0  0  0  0  0  0  # atno 11005 bound_to 11000
  144.8322  139.5609  143.6938 LP  0  0  0  0  0  0  0  0  0  0  0  0  # atno 17320 bound_to 7965
  146.2715  139.6646  142.9293 LP  0  0  0  0  0  0  0  0  0  0  0  0  # atno 17321 bound_to 7965
  139.5435  144.7278  151.4657 LP  0  0  0  0  0  0  0  0  0  0  0  0  # atno 17342 bound_to 10162
  140.6714  143.8285  150.7004 LP  0  0  0  0  0  0  0  0  0  0  0  0  # atno 17343 bound_to 10162
  157.7226  130.9579  150.1501 LP  0  0  0  0  0  0  0  0  0  0  0  0  # atno 17370 bound_to 10713
  156.2307  130.3682  149.8448 LP  0  0  0  0  0  0  0  0  0  0  0  0  # atno 17371 bound_to 10713
  140.8671  134.2771  157.5208 LP  0  0  0  0  0  0  0  0  0  0  0  0  # atno 17394 bound_to 11000
  139.8707  134.9548  156.4188 LP  0  0  0  0  0  0  0  0  0  0  0  0  # atno 17395 bound_to 11000

$$$$
