AV-unprocessed.smi:2243|AV-procd|sdf|9064|dock8
  -GOLD-   2272012273D 1   1.00000     0.00000
 Structure written by MMmdl.
 35 36  0  0  0  0  0  0  0  0  2 V2000
  152.5006  145.2442  158.6501 C   0  0  0  0  0  0  0  0  0  0  0  0
  151.7848  143.9468  158.2365 C   0  0  2  0  0  0  0  0  0  0  0  0
  150.3423  144.1795  158.3242 N   0  0  0  0  0  0  0  0  0  0  0  0
  149.5897  144.0538  159.4286 C   0  0  0  0  0  0  0  0  0  0  0  0
  150.0335  143.7282  160.5301 O   0  0  0  0  0  0  0  0  0  0  0  0
  148.3003  144.3297  159.1802 N   0  0  0  0  0  0  0  0  0  0  0  0
  147.2516  144.2921  160.1279 C   0  0  0  0  0  0  0  0  0  0  0  0
  146.0154  144.7277  159.8894 N   0  3  0  0  0  0  0  0  0  0  0  0
  145.2574  144.5431  161.0193 C   0  0  0  0  0  0  0  0  0  0  0  0
  146.0996  143.9760  161.9455 C   0  0  0  0  0  0  0  0  0  0  0  0
  147.3570  143.8119  161.3997 O   0  0  0  0  0  0  0  0  0  0  0  0
  152.1930  142.7193  159.0946 C   0  0  0  0  0  0  0  0  0  0  0  0
  153.6869  142.7370  159.4788 C   0  0  0  0  0  0  0  0  0  0  0  0
  154.0817  141.4719  160.2580 C   0  0  0  0  0  0  0  0  0  0  0  0
  153.7752  140.3126  159.4939 O   0  0  0  0  0  0  0  0  0  0  0  0
  152.3844  140.1844  159.2285 C   0  0  0  0  0  0  0  0  0  0  0  0
  151.8965  141.3774  158.3908 C   0  0  0  0  0  0  0  0  0  0  0  0
  153.5753  145.1849  158.4809 H   0  0  0  0  0  0  0  0  0  0  0  0
  152.3387  145.4705  159.7045 H   0  0  0  0  0  0  0  0  0  0  0  0
  152.1377  146.0932  158.0694 H   0  0  0  0  0  0  0  0  0  0  0  0
  152.0628  143.7390  157.2017 H   0  0  0  0  0  0  0  0  0  0  0  0
  149.8836  144.4532  157.4674 H   0  0  0  0  0  0  0  0  0  0  0  0
  145.6542  145.1326  159.0347 H   0  0  0  0  0  0  0  0  0  0  0  0
  144.2155  144.8276  161.0512 H   0  0  0  0  0  0  0  0  0  0  0  0
  145.9740  143.6498  162.9678 H   0  0  0  0  0  0  0  0  0  0  0  0
  151.6113  142.7437  160.0175 H   0  0  0  0  0  0  0  0  0  0  0  0
  154.2992  142.8114  158.5791 H   0  0  0  0  0  0  0  0  0  0  0  0
  153.9203  143.6087  160.0893 H   0  0  0  0  0  0  0  0  0  0  0  0
  155.1518  141.4810  160.4662 H   0  0  0  0  0  0  0  0  0  0  0  0
  153.5709  141.4325  161.2215 H   0  0  0  0  0  0  0  0  0  0  0  0
  152.2152  139.2534  158.6871 H   0  0  0  0  0  0  0  0  0  0  0  0
  151.8285  140.1130  160.1649 H   0  0  0  0  0  0  0  0  0  0  0  0
  150.8286  141.2629  158.2058 H   0  0  0  0  0  0  0  0  0  0  0  0
  152.3849  141.3579  157.4156 H   0  0  0  0  0  0  0  0  0  0  0  0
  148.0484  144.5868  158.2373 H   0  0  0  0  0  0  0  0  0  0  0  0
  1  2  1  0  0  0  0
  1 18  1  0  0  0  0
  1 19  1  0  0  0  0
  1 20  1  0  0  0  0
  2  3  1  0  0  0  0
  2 12  1  0  0  0  0
  2 21  1  0  0  0  0
  3 22  1  0  0  0  0
  3  4  1  0  0  0  0
  4  6  1  0  0  0  0
  4  5  2  0  0  0  0
  6  7  1  0  0  0  0
  6 35  1  0  0  0  0
  7 11  1  0  0  0  0
  7  8  2  0  0  0  0
  8 23  1  0  0  0  0
  8  9  1  0  0  0  0
  9 24  1  0  0  0  0
  9 10  2  0  0  0  0
 10 25  1  0  0  0  0
 10 11  1  0  0  0  0
 12 17  1  0  0  0  0
 12 13  1  0  0  0  0
 12 26  1  0  0  0  0
 13 14  1  0  0  0  0
 13 27  1  0  0  0  0
 13 28  1  0  0  0  0
 14 15  1  0  0  0  0
 14 29  1  0  0  0  0
 14 30  1  0  0  0  0
 15 16  1  0  0  0  0
 16 17  1  0  0  0  0
 16 31  1  0  0  0  0
 16 32  1  0  0  0  0
 17 33  1  0  0  0  0
 17 34  1  0  0  0  0
M  CHG  1   8   1
M  END
> <s_m_source_file>
AV-unprocessed.smi

> <i_m_source_file_index>
2243

> <i_lp_mmshare_version>
43012

> <i_f3d_flags>
0

> <s_epik_input>
W0NIMl0xW0NIMl1PW0NIMl1bQ0gyXVtDSF0xW0NASF0oW0NIM10pW05IXUMoPU8pW05IXWMybltjSF1bY0hdbzI=

> <s_epik_cmdline>
J2VwaWtfcHl0aG9uJywgJy1waCcsICc3LjAnLCAnLXRuJywgJzgnLCAnLW1hJywgJzIwMCcsICctbWV0YWxfYmluZGluZycsICctaW1hZScsICc8aW5maWxlLm1hZT4nLCAnLW9tYWUnLCAnPG91dGZpbGUubWFlPic=

> <r_epik_Ionization_Penalty>
6.61405

> <r_epik_Ionization_Penalty_Charging>
6.55981

> <r_epik_Ionization_Penalty_Neutral>
0.0542461

> <r_epik_State_Penalty>
1.79186

> <r_epik_Charging_Adjusted_Penalty>
8.35167

> <i_epik_Tot_Q>
1

> <i_epik_Tot_abs_Q>
1

> <r_epik_Metal_State_Penalty>
1.80655

> <b_epik_Metal_Only>
0

> <s_lp_Force_Field>
OPLS_2005

> <r_lp_Energy>
19.6033

> <b_lp_Chiralities_Consistent>
1

> <s_lp_Variant>
AV-unprocessed.smi:2243-3

> <Gold.Version>
5.8.1

> <Gold.Id.Protein>
6NUR|6NUR_protein|mol2

> <Gold.PLP.Fitness>
41.7250

> <Gold.PLP.PLP>
-34.9247

> <Gold.PLP.part.hbond>
-4.4714

> <Gold.PLP.part.metal>
0.0000

> <Gold.PLP.part.buried>
-6.5381

> <Gold.PLP.part.nonpolar>
-24.8504

> <Gold.PLP.part.repulsive>
0.4350

> <Gold.PLP.ligand.clash>
0.0000

> <Gold.PLP.ligand.torsion>
0.7597

> <Gold.PLP.Chemscore.Hbond>
2.7680

> <Gold.PLP.Chemscore.CHOScore>
0.0000

> <Gold.PLP.Chemscore.Metal>
0.0000

> <Gold.Chemscore.Hbonds>
donor molecule, donor type, donor heavy atom, donor atom, acceptor molecule, acceptor atom, score
      L1  H     3    22       P1  8028  0.91
      L1  H     6    35       P1  8029  0.82
      P1  H  6933  6944       L1    11  1.00

> <Gold.PLP.Chemscore.Internal.Correction>
0.0157

> <Gold.Rescore>
     Score         DG    S(hbond)    S(metal)    S(lipo)     H(rot)  DE(clash)    DE(int)     intcor
     16.62     -20.15       2.38        0.00      86.59       1.33       0.03       3.50       ----

> <Gold.Chemscore.Fitness>
16.6210

> <Gold.Chemscore.DG>
-20.1537

> <Gold.Chemscore.ZeroCoef>
-5.4800

> <Gold.Chemscore.Hbond>
2.3811

> <Gold.Chemscore.Metal>
0.0000

> <Gold.Chemscore.Lipo>
86.5893

> <Gold.Chemscore.Internal_Hbond>
0.0000

> <Gold.Chemscore.DEClash>
0.0285

> <Gold.Chemscore.DEInternal>
3.5041

> <Gold.Chemscore.Rot>
1.3321

> <Gold.Chemscore.Internal.Correction>
   9.000000E+99

> <Gold.Chemscore.Hbonds>
donor molecule, donor type, donor heavy atom, donor atom, acceptor molecule, acceptor atom, score
      L1  H     3    22       P1  8028  0.20
      L1  H     6    35       P1  8029  0.57
      P1  H  6933  6944       L1    11  0.78

> <Gold.Chemscore.Hbond.Weighted>
-7.9530

> <Gold.Chemscore.Metal.Weighted>
-0.0000

> <Gold.Chemscore.Lipo.Weighted>
-10.1309

> <Gold.Chemscore.Internal_Hbond.Weighted>
0.0000

> <Gold.Chemscore.DEClash.Weighted>
0.0285

> <Gold.Chemscore.DEInternal.Weighted>
3.5041

> <Gold.Chemscore.Rot.Weighted>
3.4103

> <Gold.Chemscore.Internal.Correction.Weighted>
   9.000000E+99

> <Gold.Protein.RotatedTorsions>
[ 6907 6896 6895 6894 ] final -147.17 input  -60.11 | X-H torsion
[ 7974 7965 7964 7962 ] final  -23.23 input  175.53 | X-H torsion
[ 8008 7997 7996 7995 ] final  116.40 input   59.86 | X-H torsion
[ 10167 10162 10161 10158 ] final -140.27 input  -65.29 | X-H torsion
[ 10718 10713 10712 10709 ] final  117.07 input   66.30 | X-H torsion
[ 10763 10752 10751 10750 ] final   87.81 input  -60.55 | X-H torsion
[ 11005 11000 10999 10996 ] final  144.31 input  -57.11 | X-H torsion

> <Gold.Protein.ActiveResidues>
 VAL166  LYS551  ARG553  GLY616  TRP617  ASP618  TYR619  PRO620  LYS621  CYS622 
 ASP623  PHE694  ASN695  SER759  ASP760  ASP761  ALA762  ILE779  LEU786  VAL792 
 PHE793  MET794  SER795  GLU796  ALA797  LYS798  CYS799  TRP800  GLU811  SER814 

> <Gold.Protein.RotatedAtoms>
  151.1518  133.4902  159.2594 H   0  0  0  0  0  0  0  0  0  0  0  0  # atno 6907 bound_to 6896
  151.1545  135.0243  159.8693 H   0  0  0  0  0  0  0  0  0  0  0  0  # atno 6908 bound_to 6896
  152.5463  134.1399  159.8527 H   0  0  0  0  0  0  0  0  0  0  0  0  # atno 6909 bound_to 6896
  146.1629  140.4587  142.8564 H   0  0  0  0  0  0  0  0  0  0  0  0  # atno 7974 bound_to 7965
  156.2437  140.2918  156.0518 H   0  0  0  0  0  0  0  0  0  0  0  0  # atno 8008 bound_to 7997
  155.1873  140.0406  157.2911 H   0  0  0  0  0  0  0  0  0  0  0  0  # atno 8009 bound_to 7997
  154.6219  140.2478  155.7546 H   0  0  0  0  0  0  0  0  0  0  0  0  # atno 8010 bound_to 7997
  139.8298  143.7462  152.2666 H   0  0  0  0  0  0  0  0  0  0  0  0  # atno 10167 bound_to 10162
  157.6120  131.1033  150.7562 H   0  0  0  0  0  0  0  0  0  0  0  0  # atno 10718 bound_to 10713
  153.1705  135.4530  154.9896 H   0  0  0  0  0  0  0  0  0  0  0  0  # atno 10763 bound_to 10752
  154.7962  135.3238  154.7663 H   0  0  0  0  0  0  0  0  0  0  0  0  # atno 10764 bound_to 10752
  153.8140  135.6952  153.4891 H   0  0  0  0  0  0  0  0  0  0  0  0  # atno 10765 bound_to 10752
  140.0622  134.9198  157.1203 H   0  0  0  0  0  0  0  0  0  0  0  0  # atno 11005 bound_to 11000
  144.8051  140.6285  143.6452 LP  0  0  0  0  0  0  0  0  0  0  0  0  # atno 17320 bound_to 7965
  145.4543  139.1520  143.3901 LP  0  0  0  0  0  0  0  0  0  0  0  0  # atno 17321 bound_to 7965
  139.7666  144.7490  151.0285 LP  0  0  0  0  0  0  0  0  0  0  0  0  # atno 17342 bound_to 10162
  140.7807  143.4691  151.0171 LP  0  0  0  0  0  0  0  0  0  0  0  0  # atno 17343 bound_to 10162
  156.7937  130.4898  149.5380 LP  0  0  0  0  0  0  0  0  0  0  0  0  # atno 17370 bound_to 10713
  156.1227  130.6121  151.0217 LP  0  0  0  0  0  0  0  0  0  0  0  0  # atno 17371 bound_to 10713
  140.3753  134.2346  155.7175 LP  0  0  0  0  0  0  0  0  0  0  0  0  # atno 17394 bound_to 11000
  141.1978  133.8051  157.0612 LP  0  0  0  0  0  0  0  0  0  0  0  0  # atno 17395 bound_to 11000

$$$$
