AV-unprocessed.smi:249|AV-procd|sdf|1926|dock10
  -GOLD-   2262021 43D 1   1.00000     0.00000
 Structure written by MMmdl.
 64 67  0  0  0  0  0  0  0  0  2 V2000
  146.1867  132.4225  151.0755 C   0  0  0  0  0  0  0  0  0  0  0  0
  145.8297  132.8325  152.5111 C   0  0  0  0  0  0  0  0  0  0  0  0
  146.9938  133.3992  153.2395 N   0  3  2  0  0  0  0  0  0  0  0  0
  148.0544  132.3995  153.5390 C   0  0  0  0  0  0  0  0  0  0  0  0
  149.3135  133.0839  154.0932 C   0  0  0  0  0  0  0  0  0  0  0  0
  148.9901  133.9222  155.3476 C   0  0  1  0  0  0  0  0  0  0  0  0
  150.1670  134.5567  155.9557 N   0  0  0  0  0  0  0  0  0  0  0  0
  151.0868  133.7069  156.7022 C   0  0  0  0  0  0  0  0  0  0  0  0
  150.0183  135.7979  156.4754 C   0  0  0  0  0  0  0  0  0  0  0  0
  149.1117  135.9507  157.4727 N   0  0  0  0  0  0  0  0  0  0  0  0
  148.9230  137.1509  158.0285 C   0  0  0  0  0  0  0  0  0  0  0  0
  149.5229  138.3074  157.7400 N   0  0  0  0  0  0  0  0  0  0  0  0
  150.4268  138.1600  156.7294 C   0  0  0  0  0  0  0  0  0  0  0  0
  150.7360  136.9504  156.0460 C   0  0  0  0  0  0  0  0  0  0  0  0
  151.7164  137.1851  155.0893 N   0  0  0  0  0  0  0  0  0  0  0  0
  151.9744  138.4592  155.2027 C   0  0  0  0  0  0  0  0  0  0  0  0
  151.2305  139.1263  156.1501 N   0  0  0  0  0  0  0  0  0  0  0  0
  151.3217  140.5361  156.4888 C   0  0  0  0  0  0  0  0  0  0  0  0
  151.4266  140.8341  158.0078 C   0  0  1  0  0  0  0  0  0  0  0  0
  152.3108  139.7574  158.6784 C   0  0  0  0  0  0  0  0  0  0  0  0
  153.6188  139.7507  158.1432 O   0  0  0  0  0  0  0  0  0  0  0  0
  151.8897  142.2798  158.3528 C   0  0  1  0  0  0  0  0  0  0  0  0
  150.8370  143.3692  158.2086 C   0  0  0  0  0  0  0  0  0  0  0  0
  151.3717  144.4982  159.0867 C   0  0  0  0  0  0  0  0  0  0  0  0
  152.2267  143.8874  160.0448 O   0  0  0  0  0  0  0  0  0  0  0  0
  152.2680  142.4846  159.8236 C   0  0  0  0  0  0  0  0  0  0  0  0
  147.8641  134.9229  155.0076 C   0  0  0  0  0  0  0  0  0  0  0  0
  146.6188  134.2225  154.4272 C   0  0  2  0  0  0  0  0  0  0  0  0
  145.8321  133.4351  155.4974 C   0  0  0  0  0  0  0  0  0  0  0  0
  145.2997  132.0756  150.5450 H   0  0  0  0  0  0  0  0  0  0  0  0
  146.9166  131.6141  151.0486 H   0  0  0  0  0  0  0  0  0  0  0  0
  146.5961  133.2645  150.5163 H   0  0  0  0  0  0  0  0  0  0  0  0
  145.0385  133.5812  152.4536 H   0  0  0  0  0  0  0  0  0  0  0  0
  145.4170  131.9855  153.0611 H   0  0  0  0  0  0  0  0  0  0  0  0
  147.6843  131.6531  154.2423 H   0  0  0  0  0  0  0  0  0  0  0  0
  148.3244  131.8588  152.6328 H   0  0  0  0  0  0  0  0  0  0  0  0
  150.0662  132.3312  154.3296 H   0  0  0  0  0  0  0  0  0  0  0  0
  149.7365  133.7141  153.3099 H   0  0  0  0  0  0  0  0  0  0  0  0
  148.6109  133.2344  156.1039 H   0  0  0  0  0  0  0  0  0  0  0  0
  151.9754  134.2638  157.0026 H   0  0  0  0  0  0  0  0  0  0  0  0
  151.4124  132.8711  156.0827 H   0  0  0  0  0  0  0  0  0  0  0  0
  150.6195  133.3005  157.5990 H   0  0  0  0  0  0  0  0  0  0  0  0
  148.1854  137.1906  158.8166 H   0  0  0  0  0  0  0  0  0  0  0  0
  152.7104  138.9534  154.5850 H   0  0  0  0  0  0  0  0  0  0  0  0
  152.1973  140.9304  155.9716 H   0  0  0  0  0  0  0  0  0  0  0  0
  150.4596  141.0520  156.0640 H   0  0  0  0  0  0  0  0  0  0  0  0
  150.4337  140.7039  158.4386 H   0  0  0  0  0  0  0  0  0  0  0  0
  152.3705  139.9104  159.7558 H   0  0  0  0  0  0  0  0  0  0  0  0
  151.8744  138.7678  158.5392 H   0  0  0  0  0  0  0  0  0  0  0  0
  153.9486  138.8653  158.1660 H   0  0  0  0  0  0  0  0  0  0  0  0
  152.7505  142.5438  157.7361 H   0  0  0  0  0  0  0  0  0  0  0  0
  150.6930  143.7028  157.1825 H   0  0  0  0  0  0  0  0  0  0  0  0
  149.8761  143.0232  158.5928 H   0  0  0  0  0  0  0  0  0  0  0  0
  151.9607  145.2008  158.4965 H   0  0  0  0  0  0  0  0  0  0  0  0
  150.5682  145.0535  159.5710 H   0  0  0  0  0  0  0  0  0  0  0  0
  151.5370  142.0099  160.4799 H   0  0  0  0  0  0  0  0  0  0  0  0
  153.2524  142.0844  160.0665 H   0  0  0  0  0  0  0  0  0  0  0  0
  147.5808  135.5001  155.8880 H   0  0  0  0  0  0  0  0  0  0  0  0
  148.2256  135.6438  154.2741 H   0  0  0  0  0  0  0  0  0  0  0  0
  145.9586  135.0138  154.0688 H   0  0  0  0  0  0  0  0  0  0  0  0
  145.5695  134.0823  156.3345 H   0  0  0  0  0  0  0  0  0  0  0  0
  146.4011  132.5991  155.9030 H   0  0  0  0  0  0  0  0  0  0  0  0
  144.8986  133.0371  155.1001 H   0  0  0  0  0  0  0  0  0  0  0  0
  147.4128  134.0554  152.5958 H   0  0  0  0  0  0  0  0  0  0  0  0
  1  2  1  0  0  0  0
  1 30  1  0  0  0  0
  1 31  1  0  0  0  0
  1 32  1  0  0  0  0
  2  3  1  0  0  0  0
  2 33  1  0  0  0  0
  2 34  1  0  0  0  0
  3 28  1  0  0  0  0
  3  4  1  0  0  0  0
  3 64  1  0  0  0  0
  4  5  1  0  0  0  0
  4 35  1  0  0  0  0
  4 36  1  0  0  0  0
  5  6  1  0  0  0  0
  5 37  1  0  0  0  0
  5 38  1  0  0  0  0
  6  7  1  0  0  0  0
  6 27  1  0  0  0  0
  6 39  1  0  0  0  0
  7  8  1  0  0  0  0
  7  9  1  0  0  0  0
  8 40  1  0  0  0  0
  8 41  1  0  0  0  0
  8 42  1  0  0  0  0
  9 14  1  0  0  0  0
  9 10  2  0  0  0  0
 10 11  1  0  0  0  0
 11 12  2  0  0  0  0
 11 43  1  0  0  0  0
 12 13  1  0  0  0  0
 13 17  1  0  0  0  0
 13 14  2  0  0  0  0
 14 15  1  0  0  0  0
 15 16  2  0  0  0  0
 16 17  1  0  0  0  0
 16 44  1  0  0  0  0
 17 18  1  0  0  0  0
 18 19  1  0  0  0  0
 18 45  1  0  0  0  0
 18 46  1  0  0  0  0
 19 20  1  0  0  0  0
 19 22  1  0  0  0  0
 19 47  1  0  0  0  0
 20 21  1  0  0  0  0
 20 48  1  0  0  0  0
 20 49  1  0  0  0  0
 21 50  1  0  0  0  0
 22 26  1  0  0  0  0
 22 23  1  0  0  0  0
 22 51  1  0  0  0  0
 23 24  1  0  0  0  0
 23 52  1  0  0  0  0
 23 53  1  0  0  0  0
 24 25  1  0  0  0  0
 24 54  1  0  0  0  0
 24 55  1  0  0  0  0
 25 26  1  0  0  0  0
 26 56  1  0  0  0  0
 26 57  1  0  0  0  0
 27 28  1  0  0  0  0
 27 58  1  0  0  0  0
 27 59  1  0  0  0  0
 28 29  1  0  0  0  0
 28 60  1  0  0  0  0
 29 61  1  0  0  0  0
 29 62  1  0  0  0  0
 29 63  1  0  0  0  0
M  CHG  1   3   1
M  END
> <s_m_source_file>
AV-unprocessed.smi

> <i_m_source_file_index>
249

> <i_lp_mmshare_version>
43012

> <i_f3d_flags>
0

> <s_epik_input>
W0NIM11bQ0gyXU4xW0NIMl1bQ0gyXVtDQEhdKFtDSDJdW0NASF0xW0NIM10pTihbQ0gzXSljKG5bY0hdbjIpYyhjMjMpbltjSF1uM1tDSDJdW0NASF0oW0NIMl1bT0hdKVtDQEBIXTRbQ0gyXVtDSDJdT1tDSDJdNA==

> <s_epik_cmdline>
J2VwaWtfcHl0aG9uJywgJy1waCcsICc3LjAnLCAnLXRuJywgJzgnLCAnLW1hJywgJzIwMCcsICctbWV0YWxfYmluZGluZycsICctaW1hZScsICc8aW5maWxlLm1hZT4nLCAnLW9tYWUnLCAnPG91dGZpbGUubWFlPic=

> <r_lp_tautomer_probability>
1

> <r_epik_Ionization_Penalty>
0.00294688

> <r_epik_Ionization_Penalty_Charging>
0.00169971

> <r_epik_Ionization_Penalty_Neutral>
0.00124717

> <r_epik_State_Penalty>
-0

> <r_epik_Charging_Adjusted_Penalty>
0.00169971

> <i_epik_Tot_Q>
1

> <i_epik_Tot_abs_Q>
1

> <r_epik_Metal_State_Penalty>
-0

> <b_epik_Metal_Only>
0

> <s_lp_Force_Field>
OPLS_2005

> <r_lp_Energy>
54.3628

> <b_lp_Chiralities_Consistent>
1

> <s_lp_Variant>
AV-unprocessed.smi:249-29

> <Gold.Version>
5.8.1

> <Gold.Id.Protein>
6NUR|6NUR_protein|mol2

> <Gold.PLP.Fitness>
54.1854

> <Gold.PLP.PLP>
-45.2175

> <Gold.PLP.part.hbond>
-3.0000

> <Gold.PLP.part.metal>
0.0000

> <Gold.PLP.part.buried>
-5.8721

> <Gold.PLP.part.nonpolar>
-36.0979

> <Gold.PLP.part.repulsive>
0.1579

> <Gold.PLP.ligand.clash>
0.0135

> <Gold.PLP.ligand.torsion>
1.7609

> <Gold.PLP.Chemscore.Hbond>
3.8480

> <Gold.PLP.Chemscore.CHOScore>
0.0000

> <Gold.PLP.Chemscore.Metal>
0.0000

> <Gold.Chemscore.Hbonds>
donor molecule, donor type, donor heavy atom, donor atom, acceptor molecule, acceptor atom, score
      P1  H  7997  8009       L1    21  0.29
      P1  H 10752 10764       L1    15  0.93

> <Gold.PLP.Chemscore.Internal.Correction>
0.9593

> <Gold.Rescore>
     Score         DG    S(hbond)    S(metal)    S(lipo)     H(rot)  DE(clash)    DE(int)     intcor
     14.71     -16.73       1.92        0.00     104.74       2.90       0.07       1.96       ----

> <Gold.Chemscore.Fitness>
14.7095

> <Gold.Chemscore.DG>
-16.7348

> <Gold.Chemscore.ZeroCoef>
-5.4800

> <Gold.Chemscore.Hbond>
1.9239

> <Gold.Chemscore.Metal>
0.0000

> <Gold.Chemscore.Lipo>
104.7407

> <Gold.Chemscore.Internal_Hbond>
0.0000

> <Gold.Chemscore.DEClash>
0.0672

> <Gold.Chemscore.DEInternal>
1.9581

> <Gold.Chemscore.Rot>
2.9006

> <Gold.Chemscore.Internal.Correction>
   9.000000E+99

> <Gold.Chemscore.Hbonds>
donor molecule, donor type, donor heavy atom, donor atom, acceptor molecule, acceptor atom, score
      P1  H 10752 10764       L1    15  0.80

> <Gold.Chemscore.Hbond.Weighted>
-6.4258

> <Gold.Chemscore.Metal.Weighted>
-0.0000

> <Gold.Chemscore.Lipo.Weighted>
-12.2547

> <Gold.Chemscore.Internal_Hbond.Weighted>
0.0000

> <Gold.Chemscore.DEClash.Weighted>
0.0672

> <Gold.Chemscore.DEInternal.Weighted>
1.9581

> <Gold.Chemscore.Rot.Weighted>
7.4256

> <Gold.Chemscore.Internal.Correction.Weighted>
   9.000000E+99

> <Gold.Protein.RotatedTorsions>
[ 6907 6896 6895 6894 ] final  177.98 input  -60.11 | X-H torsion
[ 7974 7965 7964 7962 ] final   87.82 input  175.53 | X-H torsion
[ 8008 7997 7996 7995 ] final  141.60 input   59.86 | X-H torsion
[ 10167 10162 10161 10158 ] final  -62.18 input  -65.29 | X-H torsion
[ 10718 10713 10712 10709 ] final  -31.34 input   66.30 | X-H torsion
[ 10763 10752 10751 10750 ] final  -58.91 input  -60.55 | X-H torsion
[ 11005 11000 10999 10996 ] final  127.34 input  -57.11 | X-H torsion

> <Gold.Protein.ActiveResidues>
 VAL166  LYS551  ARG553  GLY616  TRP617  ASP618  TYR619  PRO620  LYS621  CYS622 
 ASP623  PHE694  ASN695  SER759  ASP760  ASP761  ALA762  ILE779  LEU786  VAL792 
 PHE793  MET794  SER795  GLU796  ALA797  LYS798  CYS799  TRP800  GLU811  SER814 

> <Gold.Protein.RotatedAtoms>
  151.6952  133.3311  159.3252 H   0  0  0  0  0  0  0  0  0  0  0  0  # atno 6907 bound_to 6896
  150.7760  134.6663  159.6377 H   0  0  0  0  0  0  0  0  0  0  0  0  # atno 6908 bound_to 6896
  152.3803  134.6604  160.0197 H   0  0  0  0  0  0  0  0  0  0  0  0  # atno 6909 bound_to 6896
  145.5539  139.2298  143.2497 H   0  0  0  0  0  0  0  0  0  0  0  0  # atno 7974 bound_to 7965
  156.2963  140.2311  156.4590 H   0  0  0  0  0  0  0  0  0  0  0  0  # atno 8008 bound_to 7997
  154.8035  140.0447  157.1311 H   0  0  0  0  0  0  0  0  0  0  0  0  # atno 8009 bound_to 7997
  154.9506  140.3041  155.5080 H   0  0  0  0  0  0  0  0  0  0  0  0  # atno 8010 bound_to 7997
  140.5956  143.2350  151.6043 H   0  0  0  0  0  0  0  0  0  0  0  0  # atno 10167 bound_to 10162
  156.3885  130.4368  149.7413 H   0  0  0  0  0  0  0  0  0  0  0  0  # atno 10718 bound_to 10713
  154.2454  135.6336  153.5221 H   0  0  0  0  0  0  0  0  0  0  0  0  # atno 10763 bound_to 10752
  152.9922  135.5552  154.5865 H   0  0  0  0  0  0  0  0  0  0  0  0  # atno 10764 bound_to 10752
  154.5380  135.2893  155.1096 H   0  0  0  0  0  0  0  0  0  0  0  0  # atno 10765 bound_to 10752
  139.9502  134.9623  156.8840 H   0  0  0  0  0  0  0  0  0  0  0  0  # atno 11005 bound_to 11000
  146.1897  140.6363  142.9151 LP  0  0  0  0  0  0  0  0  0  0  0  0  # atno 17320 bound_to 7965
  144.7515  140.5204  143.6798 LP  0  0  0  0  0  0  0  0  0  0  0  0  # atno 17321 bound_to 7965
  139.5256  144.3070  152.1025 LP  0  0  0  0  0  0  0  0  0  0  0  0  # atno 17342 bound_to 10162
  140.2241  144.4435  150.6328 LP  0  0  0  0  0  0  0  0  0  0  0  0  # atno 17343 bound_to 10162
  156.4476  130.7891  151.2912 LP  0  0  0  0  0  0  0  0  0  0  0  0  # atno 17370 bound_to 10713
  157.7497  131.0105  150.3310 LP  0  0  0  0  0  0  0  0  0  0  0  0  # atno 17371 bound_to 10713
  140.5736  134.0419  155.7439 LP  0  0  0  0  0  0  0  0  0  0  0  0  # atno 17394 bound_to 11000
  141.1163  133.9534  157.2815 LP  0  0  0  0  0  0  0  0  0  0  0  0  # atno 17395 bound_to 11000

$$$$
