AV-unprocessed.smi:2104|AV-procd|sdf|8587|dock8
  -GOLD-   2272011323D 1   1.00000     0.00000
 Structure written by MMmdl.
 42 43  0  0  0  0  0  0  0  0  2 V2000
  146.4263  133.6265  163.0878 C   0  0  0  0  0  0  0  0  0  0  0  0
  147.2539  134.4075  162.1254 C   0  0  0  0  0  0  0  0  0  0  0  0
  147.7360  135.6852  162.1413 C   0  0  0  0  0  0  0  0  0  0  0  0
  148.4551  135.7767  160.9185 C   0  0  0  0  0  0  0  0  0  0  0  0
  149.1077  136.8601  160.4706 N   0  5  0  0  0  0  0  0  0  0  0  0
  150.0616  136.7361  159.5188 C   0  0  0  0  0  0  0  0  0  0  0  0
  150.1526  135.8295  158.6879 O   0  0  0  0  0  0  0  0  0  0  0  0
  150.9694  137.7206  159.5342 N   0  0  0  0  0  0  0  0  0  0  0  0
  152.1237  137.8234  158.6497 C   0  0  0  0  0  0  0  0  0  0  0  0
  151.9351  138.9769  157.6590 C   0  0  0  0  0  0  0  0  0  0  0  0
  152.7865  140.0453  158.0462 O   0  0  0  0  0  0  0  0  0  0  0  0
  152.1486  141.0825  158.7788 C   0  0  2  0  0  0  0  0  0  0  0  0
  151.2728  141.9246  157.8276 C   0  0  0  0  0  0  0  0  0  0  0  0
  150.6818  143.1502  158.5398 C   0  0  0  0  0  0  0  0  0  0  0  0
  151.7881  144.0076  159.1702 C   0  0  0  0  0  0  0  0  0  0  0  0
  152.6522  143.1742  160.1286 C   0  0  0  0  0  0  0  0  0  0  0  0
  153.2574  141.9419  159.4270 C   0  0  1  0  0  0  0  0  0  0  0  0
  154.1107  141.1209  160.4083 C   0  0  0  0  0  0  0  0  0  0  0  0
  148.3983  134.6590  160.2135 N   0  0  0  0  0  0  0  0  0  0  0  0
  147.6361  133.7729  160.9847 O   0  0  0  0  0  0  0  0  0  0  0  0
  145.6612  134.2577  163.5401 H   0  0  0  0  0  0  0  0  0  0  0  0
  147.0466  133.2208  163.8867 H   0  0  0  0  0  0  0  0  0  0  0  0
  145.9265  132.7949  162.5906 H   0  0  0  0  0  0  0  0  0  0  0  0
  147.6017  136.4347  162.9066 H   0  0  0  0  0  0  0  0  0  0  0  0
  150.8626  138.4412  160.2328 H   0  0  0  0  0  0  0  0  0  0  0  0
  153.0368  137.9782  159.2268 H   0  0  0  0  0  0  0  0  0  0  0  0
  152.2372  136.8823  158.1107 H   0  0  0  0  0  0  0  0  0  0  0  0
  152.1824  138.6430  156.6512 H   0  0  0  0  0  0  0  0  0  0  0  0
  150.8917  139.2965  157.6528 H   0  0  0  0  0  0  0  0  0  0  0  0
  151.5292  140.6621  159.5737 H   0  0  0  0  0  0  0  0  0  0  0  0
  151.8709  142.2538  156.9769 H   0  0  0  0  0  0  0  0  0  0  0  0
  150.4628  141.3205  157.4191 H   0  0  0  0  0  0  0  0  0  0  0  0
  150.1043  143.7482  157.8342 H   0  0  0  0  0  0  0  0  0  0  0  0
  149.9851  142.8240  159.3129 H   0  0  0  0  0  0  0  0  0  0  0  0
  152.4160  144.4319  158.3856 H   0  0  0  0  0  0  0  0  0  0  0  0
  151.3474  144.8501  159.7039 H   0  0  0  0  0  0  0  0  0  0  0  0
  153.4477  143.7984  160.5372 H   0  0  0  0  0  0  0  0  0  0  0  0
  152.0455  142.8543  160.9770 H   0  0  0  0  0  0  0  0  0  0  0  0
  153.9166  142.2989  158.6342 H   0  0  0  0  0  0  0  0  0  0  0  0
  153.5039  140.7162  161.2187 H   0  0  0  0  0  0  0  0  0  0  0  0
  154.8960  141.7324  160.8529 H   0  0  0  0  0  0  0  0  0  0  0  0
  154.5963  140.2823  159.9080 H   0  0  0  0  0  0  0  0  0  0  0  0
  1  2  1  0  0  0  0
  1 21  1  0  0  0  0
  1 22  1  0  0  0  0
  1 23  1  0  0  0  0
  2 20  1  0  0  0  0
  2  3  2  0  0  0  0
  3  4  1  0  0  0  0
  3 24  1  0  0  0  0
  4  5  1  0  0  0  0
  4 19  2  0  0  0  0
  5  6  1  0  0  0  0
  6  7  2  0  0  0  0
  6  8  1  0  0  0  0
  8  9  1  0  0  0  0
  8 25  1  0  0  0  0
  9 10  1  0  0  0  0
  9 26  1  0  0  0  0
  9 27  1  0  0  0  0
 10 11  1  0  0  0  0
 10 28  1  0  0  0  0
 10 29  1  0  0  0  0
 11 12  1  0  0  0  0
 12 17  1  0  0  0  0
 12 13  1  0  0  0  0
 12 30  1  0  0  0  0
 13 14  1  0  0  0  0
 13 31  1  0  0  0  0
 13 32  1  0  0  0  0
 14 15  1  0  0  0  0
 14 33  1  0  0  0  0
 14 34  1  0  0  0  0
 15 16  1  0  0  0  0
 15 35  1  0  0  0  0
 15 36  1  0  0  0  0
 16 17  1  0  0  0  0
 16 37  1  0  0  0  0
 16 38  1  0  0  0  0
 17 18  1  0  0  0  0
 17 39  1  0  0  0  0
 18 40  1  0  0  0  0
 18 41  1  0  0  0  0
 18 42  1  0  0  0  0
 19 20  1  0  0  0  0
M  CHG  1   5  -1
M  END
> <s_m_source_file>
AV-unprocessed.smi

> <i_m_source_file_index>
2104

> <i_lp_mmshare_version>
43012

> <i_f3d_flags>
0

> <s_epik_input>
W0NIM11jMVtjSF1jKG5vMSlbTkhdQyg9TylbTkhdW0NIMl1bQ0gyXU9bQ0BASF0yW0NIMl1bQ0gyXVtDSDJdW0NIMl1bQ0BIXTJbQ0gzXQ==

> <s_epik_cmdline>
J2VwaWtfcHl0aG9uJywgJy1waCcsICc3LjAnLCAnLXRuJywgJzgnLCAnLW1hJywgJzIwMCcsICctbWV0YWxfYmluZGluZycsICctaW1hZScsICc8aW5maWxlLm1hZT4nLCAnLW9tYWUnLCAnPG91dGZpbGUubWFlPic=

> <r_lp_tautomer_probability>
1

> <r_epik_Ionization_Penalty>
6.47137

> <r_epik_Ionization_Penalty_Charging>
6.47125

> <r_epik_Ionization_Penalty_Neutral>
0.000118933

> <r_epik_State_Penalty>
6.47124

> <r_epik_Charging_Adjusted_Penalty>
12.9425

> <i_epik_Tot_Q>
-1

> <i_epik_Tot_abs_Q>
1

> <r_epik_Metal_State_Penalty>
2.3995

> <b_epik_Metal_Only>
1

> <s_lp_Force_Field>
OPLS_2005

> <r_lp_Energy>
5.464

> <b_lp_Chiralities_Consistent>
1

> <s_lp_Variant>
AV-unprocessed.smi:2104-5

> <Gold.Version>
5.8.1

> <Gold.Id.Protein>
6NUR|6NUR_protein|mol2

> <Gold.PLP.Fitness>
46.9448

> <Gold.PLP.PLP>
-39.1047

> <Gold.PLP.part.hbond>
-3.4229

> <Gold.PLP.part.metal>
0.0000

> <Gold.PLP.part.buried>
-5.1161

> <Gold.PLP.part.nonpolar>
-32.8944

> <Gold.PLP.part.repulsive>
0.3199

> <Gold.PLP.ligand.clash>
0.0000

> <Gold.PLP.ligand.torsion>
0.9746

> <Gold.PLP.Chemscore.Hbond>
3.2393

> <Gold.PLP.Chemscore.CHOScore>
0.0000

> <Gold.PLP.Chemscore.Metal>
0.0000

> <Gold.Chemscore.Hbonds>
donor molecule, donor type, donor heavy atom, donor atom, acceptor molecule, acceptor atom, score
      P1  H  6896  6908       L1     7  0.70
      P1  H  6931  6943       L1     5  1.41
      P1  H  7997  8009       L1    11  0.94

> <Gold.PLP.Chemscore.Internal.Correction>
0.0715

> <Gold.Rescore>
     Score         DG    S(hbond)    S(metal)    S(lipo)     H(rot)  DE(clash)    DE(int)     intcor
     17.19     -19.70       2.01        0.00     101.47       1.71       0.01       2.50       ----

> <Gold.Chemscore.Fitness>
17.1938

> <Gold.Chemscore.DG>
-19.7009

> <Gold.Chemscore.ZeroCoef>
-5.4800

> <Gold.Chemscore.Hbond>
2.0140

> <Gold.Chemscore.Metal>
0.0000

> <Gold.Chemscore.Lipo>
101.4735

> <Gold.Chemscore.Internal_Hbond>
0.0000

> <Gold.Chemscore.DEClash>
0.0074

> <Gold.Chemscore.DEInternal>
2.4997

> <Gold.Chemscore.Rot>
1.7103

> <Gold.Chemscore.Internal.Correction>
   9.000000E+99

> <Gold.Chemscore.Hbonds>
donor molecule, donor type, donor heavy atom, donor atom, acceptor molecule, acceptor atom, score
      P1  H  6896  6908       L1     7  0.07
      P1  H  6931  6943       L1     5  0.48
      P1  H  7997  8009       L1    11  0.69

> <Gold.Chemscore.Hbond.Weighted>
-6.7268

> <Gold.Chemscore.Metal.Weighted>
-0.0000

> <Gold.Chemscore.Lipo.Weighted>
-11.8724

> <Gold.Chemscore.Internal_Hbond.Weighted>
0.0000

> <Gold.Chemscore.DEClash.Weighted>
0.0074

> <Gold.Chemscore.DEInternal.Weighted>
2.4997

> <Gold.Chemscore.Rot.Weighted>
4.3784

> <Gold.Chemscore.Internal.Correction.Weighted>
   9.000000E+99

> <Gold.Protein.RotatedTorsions>
[ 6907 6896 6895 6894 ] final -171.83 input  -60.11 | X-H torsion
[ 7974 7965 7964 7962 ] final   95.51 input  175.53 | X-H torsion
[ 8008 7997 7996 7995 ] final  161.12 input   59.86 | X-H torsion
[ 10167 10162 10161 10158 ] final  164.50 input  -65.29 | X-H torsion
[ 10718 10713 10712 10709 ] final -130.43 input   66.30 | X-H torsion
[ 10763 10752 10751 10750 ] final  -77.31 input  -60.55 | X-H torsion
[ 11005 11000 10999 10996 ] final  100.77 input  -57.11 | X-H torsion

> <Gold.Protein.ActiveResidues>
 VAL166  LYS551  ARG553  GLY616  TRP617  ASP618  TYR619  PRO620  LYS621  CYS622 
 ASP623  PHE694  ASN695  SER759  ASP760  ASP761  ALA762  ILE779  LEU786  VAL792 
 PHE793  MET794  SER795  GLU796  ALA797  LYS798  CYS799  TRP800  GLU811  SER814 

> <Gold.Protein.RotatedAtoms>
  151.5302  133.3450  159.2916 H   0  0  0  0  0  0  0  0  0  0  0  0  # atno 6907 bound_to 6896
  150.8598  134.7950  159.7085 H   0  0  0  0  0  0  0  0  0  0  0  0  # atno 6908 bound_to 6896
  152.4621  134.5169  159.9822 H   0  0  0  0  0  0  0  0  0  0  0  0  # atno 6909 bound_to 6896
  145.4512  139.2293  143.3038 H   0  0  0  0  0  0  0  0  0  0  0  0  # atno 7974 bound_to 7965
  156.2125  140.1786  156.7662 H   0  0  0  0  0  0  0  0  0  0  0  0  # atno 8008 bound_to 7997
  154.5744  140.0677  156.9041 H   0  0  0  0  0  0  0  0  0  0  0  0  # atno 8009 bound_to 7997
  155.2615  140.3336  155.4275 H   0  0  0  0  0  0  0  0  0  0  0  0  # atno 8010 bound_to 7997
  139.4890  144.4228  151.9165 H   0  0  0  0  0  0  0  0  0  0  0  0  # atno 10167 bound_to 10162
  156.2144  130.6939  151.0686 H   0  0  0  0  0  0  0  0  0  0  0  0  # atno 10718 bound_to 10713
  154.5113  135.5768  153.6607 H   0  0  0  0  0  0  0  0  0  0  0  0  # atno 10763 bound_to 10752
  152.9897  135.6159  154.2875 H   0  0  0  0  0  0  0  0  0  0  0  0  # atno 10764 bound_to 10752
  154.2790  135.2851  155.2685 H   0  0  0  0  0  0  0  0  0  0  0  0  # atno 10765 bound_to 10752
  139.8771  134.9154  156.4806 H   0  0  0  0  0  0  0  0  0  0  0  0  # atno 11005 bound_to 11000
  146.2503  140.5271  142.8896 LP  0  0  0  0  0  0  0  0  0  0  0  0  # atno 17320 bound_to 7965
  144.8060  140.6300  143.6446 LP  0  0  0  0  0  0  0  0  0  0  0  0  # atno 17321 bound_to 7965
  140.3673  144.2899  150.5925 LP  0  0  0  0  0  0  0  0  0  0  0  0  # atno 17342 bound_to 10162
  140.5350  143.2235  151.8177 LP  0  0  0  0  0  0  0  0  0  0  0  0  # atno 17343 bound_to 10162
  157.7055  131.0758  150.6679 LP  0  0  0  0  0  0  0  0  0  0  0  0  # atno 17370 bound_to 10713
  156.6740  130.4548  149.5648 LP  0  0  0  0  0  0  0  0  0  0  0  0  # atno 17371 bound_to 10713
  140.8730  133.7974  155.9385 LP  0  0  0  0  0  0  0  0  0  0  0  0  # atno 17394 bound_to 11000
  140.8933  134.2469  157.5082 LP  0  0  0  0  0  0  0  0  0  0  0  0  # atno 17395 bound_to 11000

$$$$
