AV-unprocessed.smi:2724|AV-procd|sdf|10513|dock7
  -GOLD-   2272014553D 1   1.00000     0.00000
 Structure written by MMmdl.
 26 27  0  0  0  0  0  0  0  0  2 V2000
  151.3854  140.5205  158.7070 O   0  0  0  0  0  0  0  0  0  0  0  0
  152.7848  140.5364  158.9172 C   0  0  2  0  0  0  0  0  0  0  0  0
  153.1530  139.5856  160.0670 C   0  0  0  0  0  0  0  0  0  0  0  0
  154.3250  140.2568  160.7810 C   0  0  0  0  0  0  0  0  0  0  0  0
  153.9916  141.7444  160.6976 C   0  0  0  0  0  0  0  0  0  0  0  0
  153.3731  141.9195  159.3004 C   0  0  2  0  0  0  0  0  0  0  0  0
  152.4322  143.1160  159.1710 C   0  0  0  0  0  0  0  0  0  0  0  0
  152.2085  143.9667  160.2776 C   0  0  0  0  0  0  0  0  0  0  0  0
  151.3387  145.0690  160.1446 C   0  0  0  0  0  0  0  0  0  0  0  0
  150.7082  145.3005  158.9057 C   0  0  0  0  0  0  0  0  0  0  0  0
  150.9446  144.4701  157.8671 N   0  3  0  0  0  0  0  0  0  0  0  0
  151.7696  143.4040  157.9549 C   0  0  0  0  0  0  0  0  0  0  0  0
  151.2143  140.7318  157.8019 H   0  0  0  0  0  0  0  0  0  0  0  0
  153.2582  140.1944  157.9957 H   0  0  0  0  0  0  0  0  0  0  0  0
  152.3213  139.4966  160.7682 H   0  0  0  0  0  0  0  0  0  0  0  0
  153.3948  138.5813  159.7178 H   0  0  0  0  0  0  0  0  0  0  0  0
  154.4453  139.9095  161.8075 H   0  0  0  0  0  0  0  0  0  0  0  0
  155.2535  140.0524  160.2463 H   0  0  0  0  0  0  0  0  0  0  0  0
  153.2676  141.9736  161.4796 H   0  0  0  0  0  0  0  0  0  0  0  0
  154.8590  142.3857  160.8578 H   0  0  0  0  0  0  0  0  0  0  0  0
  154.2092  142.0953  158.6212 H   0  0  0  0  0  0  0  0  0  0  0  0
  152.6978  143.7806  161.2226 H   0  0  0  0  0  0  0  0  0  0  0  0
  151.1585  145.7276  160.9818 H   0  0  0  0  0  0  0  0  0  0  0  0
  150.0292  146.1188  158.7148 H   0  0  0  0  0  0  0  0  0  0  0  0
  151.8804  142.8231  157.0508 H   0  0  0  0  0  0  0  0  0  0  0  0
  150.4813  144.6564  156.9772 H   0  0  0  0  0  0  0  0  0  0  0  0
  1  2  1  0  0  0  0
  1 13  1  0  0  0  0
  2  6  1  0  0  0  0
  2  3  1  0  0  0  0
  2 14  1  0  0  0  0
  3  4  1  0  0  0  0
  3 15  1  0  0  0  0
  3 16  1  0  0  0  0
  4  5  1  0  0  0  0
  4 17  1  0  0  0  0
  4 18  1  0  0  0  0
  5  6  1  0  0  0  0
  5 19  1  0  0  0  0
  5 20  1  0  0  0  0
  6  7  1  0  0  0  0
  6 21  1  0  0  0  0
  7 12  1  0  0  0  0
  7  8  2  0  0  0  0
  8  9  1  0  0  0  0
  8 22  1  0  0  0  0
  9 10  2  0  0  0  0
  9 23  1  0  0  0  0
 10 11  1  0  0  0  0
 10 24  1  0  0  0  0
 11 12  2  0  0  0  0
 11 26  1  0  0  0  0
 12 25  1  0  0  0  0
M  CHG  1  11   1
M  END
> <s_m_source_file>
AV-unprocessed.smi

> <i_m_source_file_index>
2724

> <i_lp_mmshare_version>
43012

> <i_f3d_flags>
0

> <s_epik_input>
W09IXVtDQEBIXTFbQ0gyXVtDSDJdW0NIMl1bQ0BIXTFjMltjSF1bY0hdW2NIXW5bY0hdMg==

> <s_epik_cmdline>
J2VwaWtfcHl0aG9uJywgJy1waCcsICc3LjAnLCAnLXRuJywgJzgnLCAnLW1hJywgJzIwMCcsICctbWV0YWxfYmluZGluZycsICctaW1hZScsICc8aW5maWxlLm1hZT4nLCAnLW9tYWUnLCAnPG91dGZpbGUubWFlPic=

> <r_epik_Ionization_Penalty>
2.09455

> <r_epik_Ionization_Penalty_Charging>
2.09455

> <r_epik_Ionization_Penalty_Neutral>
5.26757e-08

> <r_epik_State_Penalty>
2.23025

> <r_epik_Charging_Adjusted_Penalty>
4.3248

> <i_epik_Tot_Q>
1

> <i_epik_Tot_abs_Q>
1

> <r_epik_Metal_State_Penalty>
6.30911

> <b_epik_Metal_Only>
0

> <s_lp_Force_Field>
OPLS_2005

> <r_lp_Energy>
31.8011

> <b_lp_Chiralities_Consistent>
1

> <s_lp_Variant>
AV-unprocessed.smi:2724-7

> <Gold.Version>
5.8.1

> <Gold.Id.Protein>
6NUR|6NUR_protein|mol2

> <Gold.PLP.Fitness>
36.4305

> <Gold.PLP.PLP>
-30.4666

> <Gold.PLP.part.hbond>
-1.0000

> <Gold.PLP.part.metal>
0.0000

> <Gold.PLP.part.buried>
-4.0128

> <Gold.PLP.part.nonpolar>
-26.1502

> <Gold.PLP.part.repulsive>
0.0726

> <Gold.PLP.ligand.clash>
0.0000

> <Gold.PLP.ligand.torsion>
0.0273

> <Gold.PLP.Chemscore.Hbond>
2.0000

> <Gold.PLP.Chemscore.CHOScore>
0.0000

> <Gold.PLP.Chemscore.Metal>
0.0000

> <Gold.Chemscore.Hbonds>
donor molecule, donor type, donor heavy atom, donor atom, acceptor molecule, acceptor atom, score
      L1  H    11    26       P1  8028  1.98

> <Gold.PLP.Chemscore.Internal.Correction>
0.0185

> <Gold.Rescore>
     Score         DG    S(hbond)    S(metal)    S(lipo)     H(rot)  DE(clash)    DE(int)     intcor
     16.58     -16.89       0.90        0.00     101.31       1.35       0.27       0.04       ----

> <Gold.Chemscore.Fitness>
16.5803

> <Gold.Chemscore.DG>
-16.8876

> <Gold.Chemscore.ZeroCoef>
-5.4800

> <Gold.Chemscore.Hbond>
0.9010

> <Gold.Chemscore.Metal>
0.0000

> <Gold.Chemscore.Lipo>
101.3109

> <Gold.Chemscore.Internal_Hbond>
0.0000

> <Gold.Chemscore.DEClash>
0.2711

> <Gold.Chemscore.DEInternal>
0.0362

> <Gold.Chemscore.Rot>
1.3496

> <Gold.Chemscore.Internal.Correction>
   9.000000E+99

> <Gold.Chemscore.Hbonds>
donor molecule, donor type, donor heavy atom, donor atom, acceptor molecule, acceptor atom, score
      L1  H    11    26       P1  8028  0.68

> <Gold.Chemscore.Hbond.Weighted>
-3.0092

> <Gold.Chemscore.Metal.Weighted>
-0.0000

> <Gold.Chemscore.Lipo.Weighted>
-11.8534

> <Gold.Chemscore.Internal_Hbond.Weighted>
0.0000

> <Gold.Chemscore.DEClash.Weighted>
0.2711

> <Gold.Chemscore.DEInternal.Weighted>
0.0362

> <Gold.Chemscore.Rot.Weighted>
3.4550

> <Gold.Chemscore.Internal.Correction.Weighted>
   9.000000E+99

> <Gold.Protein.RotatedTorsions>
[ 6907 6896 6895 6894 ] final -175.25 input  -60.11 | X-H torsion
[ 7974 7965 7964 7962 ] final  112.31 input  175.53 | X-H torsion
[ 8008 7997 7996 7995 ] final  -89.32 input   59.86 | X-H torsion
[ 10167 10162 10161 10158 ] final   89.31 input  -65.29 | X-H torsion
[ 10718 10713 10712 10709 ] final  -62.39 input   66.30 | X-H torsion
[ 10763 10752 10751 10750 ] final -139.22 input  -60.55 | X-H torsion
[ 11005 11000 10999 10996 ] final   32.28 input  -57.11 | X-H torsion

> <Gold.Protein.ActiveResidues>
 VAL166  LYS551  ARG553  GLY616  TRP617  ASP618  TYR619  PRO620  LYS621  CYS622 
 ASP623  PHE694  ASN695  SER759  ASP760  ASP761  ALA762  ILE779  LEU786  VAL792 
 PHE793  MET794  SER795  GLU796  ALA797  LYS798  CYS799  TRP800  GLU811  SER814 

> <Gold.Protein.RotatedAtoms>
  151.5856  133.3372  159.3016 H   0  0  0  0  0  0  0  0  0  0  0  0  # atno 6907 bound_to 6896
  150.8289  134.7536  159.6848 H   0  0  0  0  0  0  0  0  0  0  0  0  # atno 6908 bound_to 6896
  152.4375  134.5663  159.9960 H   0  0  0  0  0  0  0  0  0  0  0  0  # atno 6909 bound_to 6896
  145.2312  139.2819  143.4167 H   0  0  0  0  0  0  0  0  0  0  0  0  # atno 7974 bound_to 7965
  154.6852  140.0543  157.0307 H   0  0  0  0  0  0  0  0  0  0  0  0  # atno 8008 bound_to 7997
  155.0895  140.3218  155.4559 H   0  0  0  0  0  0  0  0  0  0  0  0  # atno 8009 bound_to 7997
  156.2708  140.2050  156.6022 H   0  0  0  0  0  0  0  0  0  0  0  0  # atno 8010 bound_to 7997
  139.8585  144.6556  150.9086 H   0  0  0  0  0  0  0  0  0  0  0  0  # atno 10167 bound_to 10162
  156.0858  130.4208  150.1129 H   0  0  0  0  0  0  0  0  0  0  0  0  # atno 10718 bound_to 10713
  154.8615  135.3589  154.5511 H   0  0  0  0  0  0  0  0  0  0  0  0  # atno 10763 bound_to 10752
  153.6129  135.7009  153.5344 H   0  0  0  0  0  0  0  0  0  0  0  0  # atno 10764 bound_to 10752
  153.3194  135.4156  155.1364 H   0  0  0  0  0  0  0  0  0  0  0  0  # atno 10765 bound_to 10752
  140.2751  134.3037  155.7816 H   0  0  0  0  0  0  0  0  0  0  0  0  # atno 11005 bound_to 11000
  146.3352  140.2647  142.8603 LP  0  0  0  0  0  0  0  0  0  0  0  0  # atno 17320 bound_to 7965
  144.9675  140.8336  143.5476 LP  0  0  0  0  0  0  0  0  0  0  0  0  # atno 17321 bound_to 7965
  140.7778  143.3765  151.1555 LP  0  0  0  0  0  0  0  0  0  0  0  0  # atno 17342 bound_to 10162
  139.7396  143.8945  152.3046 LP  0  0  0  0  0  0  0  0  0  0  0  0  # atno 17343 bound_to 10162
  156.9150  130.9664  151.3557 LP  0  0  0  0  0  0  0  0  0  0  0  0  # atno 17370 bound_to 10713
  157.5992  130.8500  149.8776 LP  0  0  0  0  0  0  0  0  0  0  0  0  # atno 17371 bound_to 10713
  141.2171  133.7491  156.9394 LP  0  0  0  0  0  0  0  0  0  0  0  0  # atno 17394 bound_to 11000
  140.1336  134.9340  157.2371 LP  0  0  0  0  0  0  0  0  0  0  0  0  # atno 17395 bound_to 11000

$$$$
