AV-unprocessed.smi:15|AV-procd|sdf|79|dock3
  -GOLD-   2262015203D 1   1.00000     0.00000
 Structure written by MMmdl.
 53 56  0  0  0  0  0  0  0  0  1 V2000
  148.3983  141.6170  155.5204 C   0  0  0  0  0  0  0  0  0  0  0  0
  149.8806  141.9182  155.2472 C   0  0  0  0  0  0  0  0  0  0  0  0
  150.7953  141.1424  156.0851 N   0  0  0  0  0  0  0  0  0  0  0  0
  150.6308  141.2694  157.5310 C   0  0  0  0  0  0  0  0  0  0  0  0
  150.9013  142.6999  158.0223 C   0  0  2  0  0  0  0  0  0  0  0  0
  152.3833  143.0725  158.0791 C   0  0  0  0  0  0  0  0  0  0  0  0
  152.4564  144.1098  159.1902 C   0  0  0  0  0  0  0  0  0  0  0  0
  151.0831  144.0379  159.8628 C   0  0  0  0  0  0  0  0  0  0  0  0
  150.5006  142.8379  159.3755 O   0  0  0  0  0  0  0  0  0  0  0  0
  150.9536  139.8564  155.7039 C   0  0  0  0  0  0  0  0  0  0  0  0
  151.7058  139.6222  154.6010 N   0  0  0  0  0  0  0  0  0  0  0  0
  151.8996  138.3679  154.1815 C   0  0  0  0  0  0  0  0  0  0  0  0
  151.4473  137.2298  154.7133 N   0  0  0  0  0  0  0  0  0  0  0  0
  150.6968  137.4654  155.8277 C   0  0  0  0  0  0  0  0  0  0  0  0
  150.3991  138.7389  156.3876 C   0  0  0  0  0  0  0  0  0  0  0  0
  149.6084  138.5882  157.5199 N   0  0  0  0  0  0  0  0  0  0  0  0
  149.4472  137.2973  157.6235 C   0  0  0  0  0  0  0  0  0  0  0  0
  150.0766  136.5460  156.6557 N   0  0  0  0  0  0  0  0  0  0  0  0
  150.0737  135.0953  156.5394 C   0  0  0  0  0  0  0  0  0  0  0  0
  148.9459  134.5543  155.6216 C   0  0  1  0  0  0  0  0  0  0  0  0
  147.7016  134.9221  156.1927 O   0  0  0  0  0  0  0  0  0  0  0  0
  148.9932  135.1169  154.2022 C   0  0  0  0  0  0  0  0  0  0  0  0
  148.3946  133.9962  153.3663 C   0  0  0  0  0  0  0  0  0  0  0  0
  148.9437  132.8412  153.9747 O   0  0  0  0  0  0  0  0  0  0  0  0
  148.9197  133.0165  155.3886 C   0  0  1  0  0  0  0  0  0  0  0  0
  150.0787  132.2021  155.9842 C   0  0  0  0  0  0  0  0  0  0  0  0
  147.7611  142.1720  154.8318 H   0  0  0  0  0  0  0  0  0  0  0  0
  148.1067  141.8980  156.5328 H   0  0  0  0  0  0  0  0  0  0  0  0
  148.1832  140.5561  155.3896 H   0  0  0  0  0  0  0  0  0  0  0  0
  150.0926  141.7033  154.2002 H   0  0  0  0  0  0  0  0  0  0  0  0
  150.0721  142.9831  155.3820 H   0  0  0  0  0  0  0  0  0  0  0  0
  149.6119  140.9820  157.7931 H   0  0  0  0  0  0  0  0  0  0  0  0
  151.2897  140.5773  158.0588 H   0  0  0  0  0  0  0  0  0  0  0  0
  150.3508  143.4303  157.4273 H   0  0  0  0  0  0  0  0  0  0  0  0
  152.9825  142.2031  158.3537 H   0  0  0  0  0  0  0  0  0  0  0  0
  152.7549  143.4445  157.1240 H   0  0  0  0  0  0  0  0  0  0  0  0
  153.2550  143.8638  159.8908 H   0  0  0  0  0  0  0  0  0  0  0  0
  152.6478  145.1105  158.8013 H   0  0  0  0  0  0  0  0  0  0  0  0
  151.1476  144.0344  160.9511 H   0  0  0  0  0  0  0  0  0  0  0  0
  150.4640  144.8841  159.5613 H   0  0  0  0  0  0  0  0  0  0  0  0
  152.5049  138.2610  153.2934 H   0  0  0  0  0  0  0  0  0  0  0  0
  148.8670  136.8543  158.4198 H   0  0  0  0  0  0  0  0  0  0  0  0
  151.0509  134.7967  156.1589 H   0  0  0  0  0  0  0  0  0  0  0  0
  149.9889  134.6715  157.5410 H   0  0  0  0  0  0  0  0  0  0  0  0
  147.8641  135.3293  157.0300 H   0  0  0  0  0  0  0  0  0  0  0  0
  148.4716  136.0679  154.0841 H   0  0  0  0  0  0  0  0  0  0  0  0
  150.0283  135.2658  153.8923 H   0  0  0  0  0  0  0  0  0  0  0  0
  147.3068  133.9788  153.4487 H   0  0  0  0  0  0  0  0  0  0  0  0
  148.6641  134.0642  152.3123 H   0  0  0  0  0  0  0  0  0  0  0  0
  147.9815  132.5937  155.7535 H   0  0  0  0  0  0  0  0  0  0  0  0
  150.1104  132.2897  157.0701 H   0  0  0  0  0  0  0  0  0  0  0  0
  151.0414  132.5228  155.5857 H   0  0  0  0  0  0  0  0  0  0  0  0
  149.9651  131.1441  155.7464 H   0  0  0  0  0  0  0  0  0  0  0  0
  1  2  1  0  0  0  0
  1 27  1  0  0  0  0
  1 28  1  0  0  0  0
  1 29  1  0  0  0  0
  2  3  1  0  0  0  0
  2 30  1  0  0  0  0
  2 31  1  0  0  0  0
  3  4  1  0  0  0  0
  3 10  1  0  0  0  0
  4  5  1  0  0  0  0
  4 32  1  0  0  0  0
  4 33  1  0  0  0  0
  5  9  1  0  0  0  0
  5  6  1  0  0  0  0
  5 34  1  0  0  0  0
  6  7  1  0  0  0  0
  6 35  1  0  0  0  0
  6 36  1  0  0  0  0
  7  8  1  0  0  0  0
  7 37  1  0  0  0  0
  7 38  1  0  0  0  0
  8  9  1  0  0  0  0
  8 39  1  0  0  0  0
  8 40  1  0  0  0  0
 10 15  1  0  0  0  0
 10 11  2  0  0  0  0
 11 12  1  0  0  0  0
 12 13  2  0  0  0  0
 12 41  1  0  0  0  0
 13 14  1  0  0  0  0
 14 18  1  0  0  0  0
 14 15  2  0  0  0  0
 15 16  1  0  0  0  0
 16 17  2  0  0  0  0
 17 18  1  0  0  0  0
 17 42  1  0  0  0  0
 18 19  1  0  0  0  0
 19 20  1  0  0  0  0
 19 43  1  0  0  0  0
 19 44  1  0  0  0  0
 20 25  1  0  0  0  0
 20 21  1  0  0  0  0
 20 22  1  0  0  0  0
 21 45  1  0  0  0  0
 22 23  1  0  0  0  0
 22 46  1  0  0  0  0
 22 47  1  0  0  0  0
 23 24  1  0  0  0  0
 23 48  1  0  0  0  0
 23 49  1  0  0  0  0
 24 25  1  0  0  0  0
 25 26  1  0  0  0  0
 25 50  1  0  0  0  0
 26 51  1  0  0  0  0
 26 52  1  0  0  0  0
 26 53  1  0  0  0  0
M  END
> <s_m_source_file>
AV-unprocessed.smi

> <i_m_source_file_index>
15

> <i_lp_mmshare_version>
43012

> <i_f3d_flags>
0

> <s_epik_input>
TzFbQ0gyXVtDSDJdW0NIMl1bQ0BIXTFbQ0gyXU4oW0NIMl1bQ0gzXSljKG5bY0hdbjIpYyhjMjMpbltjSF1uM1tDSDJdW0NAQF00KFtPSF0pW0NIMl1bQ0gyXU9bQ0BIXTRbQ0gzXQ==

> <s_epik_cmdline>
J2VwaWtfcHl0aG9uJywgJy1waCcsICc3LjAnLCAnLXRuJywgJzgnLCAnLW1hJywgJzIwMCcsICctbWV0YWxfYmluZGluZycsICctaW1hZScsICc8aW5maWxlLm1hZT4nLCAnLW9tYWUnLCAnPG91dGZpbGUubWFlPic=

> <r_lp_tautomer_probability>
1

> <r_epik_Ionization_Penalty>
0.00360814

> <r_epik_Ionization_Penalty_Charging>
0

> <r_epik_Ionization_Penalty_Neutral>
0.00360814

> <r_epik_State_Penalty>
0.00237482

> <r_epik_Charging_Adjusted_Penalty>
0.00237482

> <i_epik_Tot_Q>
0

> <i_epik_Tot_abs_Q>
0

> <r_epik_Metal_State_Penalty>
-0

> <b_epik_Metal_Only>
0

> <s_lp_Force_Field>
OPLS_2005

> <r_lp_Energy>
46.4206

> <b_lp_Chiralities_Consistent>
1

> <s_lp_Variant>
AV-unprocessed.smi:15-1

> <Gold.Version>
5.8.1

> <Gold.Id.Protein>
6NUR|6NUR_protein|mol2

> <Gold.PLP.Fitness>
43.4255

> <Gold.PLP.PLP>
-39.3917

> <Gold.PLP.part.hbond>
-2.6559

> <Gold.PLP.part.metal>
0.0000

> <Gold.PLP.part.buried>
-4.9895

> <Gold.PLP.part.nonpolar>
-31.8558

> <Gold.PLP.part.repulsive>
0.3178

> <Gold.PLP.ligand.clash>
0.0000

> <Gold.PLP.ligand.torsion>
1.1578

> <Gold.PLP.Chemscore.Hbond>
1.8960

> <Gold.PLP.Chemscore.CHOScore>
0.0000

> <Gold.PLP.Chemscore.Metal>
0.0000

> <Gold.Chemscore.Hbonds>
donor molecule, donor type, donor heavy atom, donor atom, acceptor molecule, acceptor atom, score
      P1  H  7989  7998       L1    11  1.00
      P1  H 10752 10765       L1    13  0.59

> <Gold.PLP.Chemscore.Internal.Correction>
0.6614

> <Gold.Rescore>
     Score         DG    S(hbond)    S(metal)    S(lipo)     H(rot)  DE(clash)    DE(int)     intcor
     12.07     -15.09       1.71        0.00      92.54       2.71       0.22       2.80       ----

> <Gold.Chemscore.Fitness>
12.0675

> <Gold.Chemscore.DG>
-15.0899

> <Gold.Chemscore.ZeroCoef>
-5.4800

> <Gold.Chemscore.Hbond>
1.7105

> <Gold.Chemscore.Metal>
0.0000

> <Gold.Chemscore.Lipo>
92.5438

> <Gold.Chemscore.Internal_Hbond>
0.0000

> <Gold.Chemscore.DEClash>
0.2217

> <Gold.Chemscore.DEInternal>
2.8008

> <Gold.Chemscore.Rot>
2.7074

> <Gold.Chemscore.Internal.Correction>
   9.000000E+99

> <Gold.Chemscore.Hbonds>
donor molecule, donor type, donor heavy atom, donor atom, acceptor molecule, acceptor atom, score
      P1  H  7989  7998       L1    11  0.83
      P1  H 10752 10765       L1    13  0.38

> <Gold.Chemscore.Hbond.Weighted>
-5.7132

> <Gold.Chemscore.Metal.Weighted>
-0.0000

> <Gold.Chemscore.Lipo.Weighted>
-10.8276

> <Gold.Chemscore.Internal_Hbond.Weighted>
0.0000

> <Gold.Chemscore.DEClash.Weighted>
0.2217

> <Gold.Chemscore.DEInternal.Weighted>
2.8008

> <Gold.Chemscore.Rot.Weighted>
6.9308

> <Gold.Chemscore.Internal.Correction.Weighted>
   9.000000E+99

> <Gold.Protein.RotatedTorsions>
[ 6907 6896 6895 6894 ] final  -22.42 input  -60.11 | X-H torsion
[ 7974 7965 7964 7962 ] final   18.74 input  175.53 | X-H torsion
[ 8008 7997 7996 7995 ] final  -28.51 input   59.86 | X-H torsion
[ 10167 10162 10161 10158 ] final   44.31 input  -65.29 | X-H torsion
[ 10718 10713 10712 10709 ] final   99.10 input   66.30 | X-H torsion
[ 10763 10752 10751 10750 ] final  166.27 input  -60.55 | X-H torsion
[ 11005 11000 10999 10996 ] final -163.97 input  -57.11 | X-H torsion

> <Gold.Protein.ActiveResidues>
 VAL166  LYS551  ARG553  GLY616  TRP617  ASP618  TYR619  PRO620  LYS621  CYS622 
 ASP623  PHE694  ASN695  SER759  ASP760  ASP761  ALA762  ILE779  LEU786  VAL792 
 PHE793  MET794  SER795  GLU796  ALA797  LYS798  CYS799  TRP800  GLU811  SER814 

> <Gold.Protein.RotatedAtoms>
  151.2189  135.0510  159.8941 H   0  0  0  0  0  0  0  0  0  0  0  0  # atno 6907 bound_to 6896
  152.5417  134.0663  159.8184 H   0  0  0  0  0  0  0  0  0  0  0  0  # atno 6908 bound_to 6896
  151.0826  133.5330  159.2651 H   0  0  0  0  0  0  0  0  0  0  0  0  # atno 6909 bound_to 6896
  146.2174  139.8413  142.8640 H   0  0  0  0  0  0  0  0  0  0  0  0  # atno 7974 bound_to 7965
  154.4329  140.1843  156.1100 H   0  0  0  0  0  0  0  0  0  0  0  0  # atno 8008 bound_to 7997
  156.0225  140.3339  155.7028 H   0  0  0  0  0  0  0  0  0  0  0  0  # atno 8009 bound_to 7997
  155.5956  140.0635  157.2738 H   0  0  0  0  0  0  0  0  0  0  0  0  # atno 8010 bound_to 7997
  140.3356  144.2534  150.6162 H   0  0  0  0  0  0  0  0  0  0  0  0  # atno 10167 bound_to 10162
  157.6883  131.0660  150.4897 H   0  0  0  0  0  0  0  0  0  0  0  0  # atno 10718 bound_to 10713
  154.3365  135.2754  155.2445 H   0  0  0  0  0  0  0  0  0  0  0  0  # atno 10763 bound_to 10752
  154.4734  135.5877  153.6341 H   0  0  0  0  0  0  0  0  0  0  0  0  # atno 10764 bound_to 10752
  152.9861  135.6093  154.3562 H   0  0  0  0  0  0  0  0  0  0  0  0  # atno 10765 bound_to 10752
  140.5922  134.5033  157.5194 H   0  0  0  0  0  0  0  0  0  0  0  0  # atno 11005 bound_to 11000
  145.2896  141.0163  143.3671 LP  0  0  0  0  0  0  0  0  0  0  0  0  # atno 17320 bound_to 7965
  144.9087  139.4556  143.6597 LP  0  0  0  0  0  0  0  0  0  0  0  0  # atno 17321 bound_to 7965
  140.5357  143.2234  151.8167 LP  0  0  0  0  0  0  0  0  0  0  0  0  # atno 17342 bound_to 10162
  139.4849  144.4664  151.9478 LP  0  0  0  0  0  0  0  0  0  0  0  0  # atno 17343 bound_to 10162
  156.5224  130.4165  149.6243 LP  0  0  0  0  0  0  0  0  0  0  0  0  # atno 17370 bound_to 10713
  156.3142  130.7245  151.2144 LP  0  0  0  0  0  0  0  0  0  0  0  0  # atno 17371 bound_to 10713
  139.9269  134.8038  156.1042 LP  0  0  0  0  0  0  0  0  0  0  0  0  # atno 17394 bound_to 11000
  141.0927  133.6708  156.2577 LP  0  0  0  0  0  0  0  0  0  0  0  0  # atno 17395 bound_to 11000

$$$$
