#       Name:                AV-unprocessed.smi:283
#       Creating user name   scv26
#       Creation time:       Thu Mar 26 21:45:04 2020


#       File generated by GOLD software.
#

@<TRIPOS>MOLECULE
AV-unprocessed.smi:283
    59    62     1
SMALL
NO_CHARGES


@<TRIPOS>ATOM
      1 ****        -5.2377  -0.1172  -1.0781 C.3            1 S1                 0.0000
      2 ****        -3.8989   0.4421  -0.5782 C.3            1 S1                 0.0000
      3 ****        -2.8264  -0.5114  -0.8579 N.pl3          1 S1                 0.0000
      4 ****        -1.5292  -0.1743  -0.6794 C.ar           1 S1                 0.0000
      5 ****        -1.1601   1.1157  -0.4661 N.ar           1 S1                 0.0000
      6 ****         0.1295   1.4214  -0.2973 C.ar           1 S1                 0.0000
      7 ****         1.1869   0.6080  -0.3088 N.ar           1 S1                 0.0000
      8 ****         0.8243  -0.6891  -0.5272 C.ar           1 S1                 0.0000
      9 ****        -0.5061  -1.1565  -0.7194 C.ar           1 S1                 0.0000
     10 ****        -0.5001  -2.5318  -0.9101 N.2            1 S1                 0.0000
     11 ****         0.7631  -2.8543  -0.8362 C.2            1 S1                 0.0000
     12 ****         1.6302  -1.8081  -0.6113 N.pl3          1 S1                 0.0000
     13 ****         3.1199  -1.8771  -0.4988 C.3            1 S1                 0.0000
     14 ****         3.5411  -0.9370   0.4424 O.3            1 S1                 0.0000
     15 ****         4.7076  -0.2963  -0.0480 C.3            1 S1                 0.0000
     16 ****         5.0744   0.9858   0.7295 C.3            1 S1                 0.0000
     17 ****         4.1894   2.0622   0.5010 O.3            1 S1                 0.0000
     18 ****         4.5532  -0.2609  -1.5763 C.3            1 S1                 0.0000
     19 ****         3.8089   0.8481  -2.0393 O.3            1 S1                 0.0000
     20 ****         3.7832  -1.5494  -1.8539 C.3            1 S1                 0.0000
     21 ****         4.6844  -2.5698  -2.2364 O.3            1 S1                 0.0000
     22 ****        -4.0083   0.8583   0.8906 C.ar           1 S1                 0.0000
     23 ****        -3.7654  -0.0906   1.9110 C.ar           1 S1                 0.0000
     24 ****        -3.8663   0.2716   3.2673 C.ar           1 S1                 0.0000
     25 ****        -4.2192   1.5867   3.6190 C.ar           1 S1                 0.0000
     26 ****        -4.4736   2.5363   2.6125 C.ar           1 S1                 0.0000
     27 ****        -4.3725   2.1797   1.2528 C.ar           1 S1                 0.0000
     28 ****        -4.7088   3.3848   0.0594 Cl             1 S1                 0.0000
     29 ****         3.3222  -2.8891  -0.1447 H              1 S1                 0.0000
     30 ****         5.5118  -1.0054   0.1584 H              1 S1                 0.0000
     31 ****         5.5247  -0.2337  -2.0719 H              1 S1                 0.0000
     32 ****         3.0371  -1.4317  -2.6422 H              1 S1                 0.0000
     33 ****        -6.0378   0.6134  -0.9550 H              1 S1                 0.0000
     34 ****        -5.5218  -1.0169  -0.5312 H              1 S1                 0.0000
     35 ****        -5.1871  -0.3721  -2.1371 H              1 S1                 0.0000
     36 ****        -3.6772   1.3253  -1.1765 H              1 S1                 0.0000
     37 ****        -3.1217  -1.4581  -1.0479 H              1 S1                 0.0000
     38 ****         0.3457   2.4661  -0.1300 H              1 S1                 0.0000
     39 ****         1.1011  -3.8739  -0.9510 H              1 S1                 0.0000
     40 ****         5.1048   0.7770   1.7992 H              1 S1                 0.0000
     41 ****         6.0749   1.3114   0.4437 H              1 S1                 0.0000
     42 ****         4.4599   2.7929   1.0358 H              1 S1                 0.0000
     43 ****         4.1715   1.6327  -1.6567 H              1 S1                 0.0000
     44 ****         4.1913  -3.3595  -2.3982 H              1 S1                 0.0000
     45 ****        -3.4989  -1.1064   1.6590 H              1 S1                 0.0000
     46 ****        -3.6742  -0.4607   4.0375 H              1 S1                 0.0000
     47 ****        -4.2981   1.8660   4.6593 H              1 S1                 0.0000
     48 ****        -4.7495   3.5442   2.8861 H              1 S1                 0.0000
     49 ****        -1.8532   1.8359  -0.4355 LP             1 S1                 0.0000
     50 ****         2.1300   0.9119  -0.1738 LP             1 S1                 0.0000
     51 ****        -1.2818  -3.1353  -1.0675 LP             1 S1                 0.0000
     52 ****         3.7467  -1.3950   1.3072 LP             1 S1                 0.0000
     53 ****         2.8202  -0.2592   0.5874 LP             1 S1                 0.0000
     54 ****         3.2586   1.7912   0.7465 LP             1 S1                 0.0000
     55 ****         4.2172   2.3224  -0.4641 LP             1 S1                 0.0000
     56 ****         2.8520   0.7503  -1.7657 LP             1 S1                 0.0000
     57 ****         3.8667   0.9009  -3.0362 LP             1 S1                 0.0000
     58 ****         5.3451  -2.7288  -1.5028 LP             1 S1                 0.0000
     59 ****         5.1686  -2.2980  -3.0680 LP             1 S1                 0.0000
@<TRIPOS>BOND
    1    1    2 1     
    2    1   33 1     
    3    1   34 1     
    4    1   35 1     
    5    2    3 1     
    6    2   22 1     
    7    2   36 1     
    8    3    4 1     
    9    3   37 1     
   10    4    9 ar    
   11    4    5 ar    
   12    5    6 ar    
   13    6    7 ar    
   14    6   38 1     
   15    7    8 ar    
   16    8   12 1     
   17    8    9 ar    
   18    9   10 1     
   19   10   11 2     
   20   11   12 1     
   21   11   39 1     
   22   12   13 1     
   23   13   29 1     
   24   13   20 1     
   25   13   14 1     
   26   14   15 1     
   27   15   30 1     
   28   15   16 1     
   29   15   18 1     
   30   16   17 1     
   31   16   40 1     
   32   16   41 1     
   33   17   42 1     
   34   18   31 1     
   35   18   19 1     
   36   18   20 1     
   37   19   43 1     
   38   20   32 1     
   39   20   21 1     
   40   21   44 1     
   41   22   27 ar    
   42   22   23 ar    
   43   23   24 ar    
   44   23   45 1     
   45   24   25 ar    
   46   24   46 1     
   47   25   26 ar    
   48   25   47 1     
   49   26   27 ar    
   50   26   48 1     
   51   27   28 1     
   52    5   49 1     
   53    7   50 1     
   54   10   51 1     
   55   14   52 1     
   56   14   53 1     
   57   17   54 1     
   58   17   55 1     
   59   19   56 1     
   60   19   57 1     
   61   21   58 1     
   62   21   59 1     
@<TRIPOS>SUBSTRUCTURE
      1 S1             1
@<TRIPOS>SET
LONE_PAIRS      STATIC     ATOMS    <user>   **** ""
11 49 50 51 52 53 54 55 56 57 58 59
DONOR_HYDROGENS      STATIC     ATOMS    <user>   **** ""
4 37 42 43 44
ATOM$BLUE        STATIC     ATOMS    COLORGROUP SYSTEM
11 49 50 51 52 53 54 55 56 57 58 59
ATOM$RED        STATIC     ATOMS    COLORGROUP SYSTEM
4 37 42 43 44
