AV-unprocessed.smi:1809|AV-procd|sdf|7317|dock7
  -GOLD-   22720 8573D 1   1.00000     0.00000
 Structure written by MMmdl.
 39 41  0  0  0  0  0  0  0  0  1 V2000
  146.5985  133.8171  162.4519 C   0  0  0  0  0  0  0  0  0  0  0  0
  147.0464  135.0273  161.7060 C   0  0  0  0  0  0  0  0  0  0  0  0
  146.8903  136.2691  162.1810 N   0  0  0  0  0  0  0  0  0  0  0  0
  147.3813  137.2313  161.3096 N   0  0  0  0  0  0  0  0  0  0  0  0
  147.8935  136.6848  160.1984 C   0  0  0  0  0  0  0  0  0  0  0  0
  148.4636  137.4377  159.1380 N   0  0  0  0  0  0  0  0  0  0  0  0
  149.7420  137.4555  158.7219 C   0  0  0  0  0  0  0  0  0  0  0  0
  150.6590  136.7951  159.2108 O   0  0  0  0  0  0  0  0  0  0  0  0
  149.9022  138.2930  157.6871 N   0  0  0  0  0  0  0  0  0  0  0  0
  151.1641  138.5495  157.0009 C   0  0  0  0  0  0  0  0  0  0  0  0
  151.6981  139.9611  157.2964 C   0  0  2  0  0  0  0  0  0  0  0  0
  152.1784  140.0908  158.7604 C   0  0  0  0  0  0  0  0  0  0  0  0
  152.5600  141.4618  159.0389 N   0  0  0  0  0  0  0  0  0  0  0  0
  152.9572  141.7662  160.3940 C   0  0  0  0  0  0  0  0  0  0  0  0
  152.8848  143.3012  160.4754 C   0  0  0  0  0  0  0  0  0  0  0  0
  151.9606  143.7065  159.3054 C   0  0  0  0  0  0  0  0  0  0  0  0
  151.4633  142.3564  158.7859 C   0  0  1  0  0  0  0  0  0  0  0  0
  151.0240  142.2729  157.3177 C   0  0  0  0  0  0  0  0  0  0  0  0
  150.6596  140.9175  157.0463 O   0  0  0  0  0  0  0  0  0  0  0  0
  147.8154  134.9325  160.1263 S   0  0  0  0  0  0  0  0  0  0  0  0
  146.5917  134.0104  163.5251 H   0  0  0  0  0  0  0  0  0  0  0  0
  147.2712  132.9827  162.2531 H   0  0  0  0  0  0  0  0  0  0  0  0
  145.5922  133.5388  162.1387 H   0  0  0  0  0  0  0  0  0  0  0  0
  147.8208  138.0311  158.6350 H   0  0  0  0  0  0  0  0  0  0  0  0
  149.0940  138.7958  157.3516 H   0  0  0  0  0  0  0  0  0  0  0  0
  151.9103  137.7950  157.2565 H   0  0  0  0  0  0  0  0  0  0  0  0
  150.9792  138.4459  155.9315 H   0  0  0  0  0  0  0  0  0  0  0  0
  152.5347  140.1747  156.6283 H   0  0  0  0  0  0  0  0  0  0  0  0
  151.3821  139.7813  159.4389 H   0  0  0  0  0  0  0  0  0  0  0  0
  153.0245  139.4267  158.9397 H   0  0  0  0  0  0  0  0  0  0  0  0
  152.2533  141.3242  161.1010 H   0  0  0  0  0  0  0  0  0  0  0  0
  153.9513  141.3791  160.6187 H   0  0  0  0  0  0  0  0  0  0  0  0
  152.4901  143.6237  161.4393 H   0  0  0  0  0  0  0  0  0  0  0  0
  153.8723  143.7471  160.3511 H   0  0  0  0  0  0  0  0  0  0  0  0
  151.1413  144.3537  159.6194 H   0  0  0  0  0  0  0  0  0  0  0  0
  152.5329  144.2298  158.5381 H   0  0  0  0  0  0  0  0  0  0  0  0
  150.6151  142.0578  159.4063 H   0  0  0  0  0  0  0  0  0  0  0  0
  150.1677  142.9216  157.1328 H   0  0  0  0  0  0  0  0  0  0  0  0
  151.8246  142.5861  156.6460 H   0  0  0  0  0  0  0  0  0  0  0  0
  1  2  1  0  0  0  0
  1 21  1  0  0  0  0
  1 22  1  0  0  0  0
  1 23  1  0  0  0  0
  2 20  1  0  0  0  0
  2  3  2  0  0  0  0
  3  4  1  0  0  0  0
  4  5  2  0  0  0  0
  5  6  1  0  0  0  0
  5 20  1  0  0  0  0
  6  7  1  0  0  0  0
  6 24  1  0  0  0  0
  7  8  2  0  0  0  0
  7  9  1  0  0  0  0
  9 10  1  0  0  0  0
  9 25  1  0  0  0  0
 10 11  1  0  0  0  0
 10 26  1  0  0  0  0
 10 27  1  0  0  0  0
 11 19  1  0  0  0  0
 11 12  1  0  0  0  0
 11 28  1  0  0  0  0
 12 13  1  0  0  0  0
 12 29  1  0  0  0  0
 12 30  1  0  0  0  0
 13 17  1  0  0  0  0
 13 14  1  0  0  0  0
 14 15  1  0  0  0  0
 14 31  1  0  0  0  0
 14 32  1  0  0  0  0
 15 16  1  0  0  0  0
 15 33  1  0  0  0  0
 15 34  1  0  0  0  0
 16 17  1  0  0  0  0
 16 35  1  0  0  0  0
 16 36  1  0  0  0  0
 17 18  1  0  0  0  0
 17 37  1  0  0  0  0
 18 19  1  0  0  0  0
 18 38  1  0  0  0  0
 18 39  1  0  0  0  0
M  END
> <s_m_source_file>
AV-unprocessed.smi

> <i_m_source_file_index>
1809

> <i_lp_mmshare_version>
43012

> <i_f3d_flags>
0

> <s_epik_input>
W0NIM11jMW5uYyhzMSlbTkhdQyg9TylbTkhdW0NIMl1bQ0BIXShbQ0gyXTIpT1tDSDJdW0NAQEhdKE4yMylbQ0gyXVtDSDJdW0NIMl0z

> <s_epik_cmdline>
J2VwaWtfcHl0aG9uJywgJy1waCcsICc3LjAnLCAnLXRuJywgJzgnLCAnLW1hJywgJzIwMCcsICctbWV0YWxfYmluZGluZycsICctaW1hZScsICc8aW5maWxlLm1hZT4nLCAnLW9tYWUnLCAnPG91dGZpbGUubWFlPic=

> <r_lp_tautomer_probability>
1

> <r_epik_Ionization_Penalty>
1.05954

> <r_epik_Ionization_Penalty_Charging>
0

> <r_epik_Ionization_Penalty_Neutral>
1.05954

> <r_epik_State_Penalty>
1.4238

> <r_epik_Charging_Adjusted_Penalty>
1.4238

> <i_epik_Tot_Q>
0

> <i_epik_Tot_abs_Q>
0

> <r_epik_Metal_State_Penalty>
1.7901

> <b_epik_Metal_Only>
0

> <s_lp_Force_Field>
OPLS_2005

> <r_lp_Energy>
46.8482

> <b_lp_Chiralities_Consistent>
1

> <s_lp_Variant>
AV-unprocessed.smi:1809-9

> <Gold.Version>
5.8.1

> <Gold.Id.Protein>
6NUR|6NUR_protein|mol2

> <Gold.PLP.Fitness>
43.6570

> <Gold.PLP.PLP>
-36.4737

> <Gold.PLP.part.hbond>
-3.0000

> <Gold.PLP.part.metal>
0.0000

> <Gold.PLP.part.buried>
-6.4544

> <Gold.PLP.part.nonpolar>
-28.0214

> <Gold.PLP.part.repulsive>
0.2835

> <Gold.PLP.ligand.clash>
0.0000

> <Gold.PLP.ligand.torsion>
0.7168

> <Gold.PLP.Chemscore.Hbond>
2.8720

> <Gold.PLP.Chemscore.CHOScore>
0.0000

> <Gold.PLP.Chemscore.Metal>
0.0000

> <Gold.Chemscore.Hbonds>
donor molecule, donor type, donor heavy atom, donor atom, acceptor molecule, acceptor atom, score
      P1  H  6896  6908       L1     8  1.00
      P1  H  6931  6943       L1     4  0.78
      P1  H  6934  6947       L1     4  0.98

> <Gold.PLP.Chemscore.Internal.Correction>
0.0009

> <Gold.Rescore>
     Score         DG    S(hbond)    S(metal)    S(lipo)     H(rot)  DE(clash)    DE(int)     intcor
     19.75     -20.59       2.45        0.00      87.94       1.32       0.02       0.82       ----

> <Gold.Chemscore.Fitness>
19.7502

> <Gold.Chemscore.DG>
-20.5897

> <Gold.Chemscore.ZeroCoef>
-5.4800

> <Gold.Chemscore.Hbond>
2.4548

> <Gold.Chemscore.Metal>
0.0000

> <Gold.Chemscore.Lipo>
87.9409

> <Gold.Chemscore.Internal_Hbond>
0.0000

> <Gold.Chemscore.DEClash>
0.0199

> <Gold.Chemscore.DEInternal>
0.8195

> <Gold.Chemscore.Rot>
1.3196

> <Gold.Chemscore.Internal.Correction>
   9.000000E+99

> <Gold.Chemscore.Hbonds>
donor molecule, donor type, donor heavy atom, donor atom, acceptor molecule, acceptor atom, score
      P1  H  6896  6908       L1     8  1.00
      P1  H  6931  6943       L1     4  0.13
      P1  H  6934  6947       L1     4  0.51

> <Gold.Chemscore.Hbond.Weighted>
-8.1989

> <Gold.Chemscore.Metal.Weighted>
-0.0000

> <Gold.Chemscore.Lipo.Weighted>
-10.2891

> <Gold.Chemscore.Internal_Hbond.Weighted>
0.0000

> <Gold.Chemscore.DEClash.Weighted>
0.0199

> <Gold.Chemscore.DEInternal.Weighted>
0.8195

> <Gold.Chemscore.Rot.Weighted>
3.3783

> <Gold.Chemscore.Internal.Correction.Weighted>
   9.000000E+99

> <Gold.Protein.RotatedTorsions>
[ 6907 6896 6895 6894 ] final -149.47 input  -60.11 | X-H torsion
[ 7974 7965 7964 7962 ] final  -73.00 input  175.53 | X-H torsion
[ 8008 7997 7996 7995 ] final   43.27 input   59.86 | X-H torsion
[ 10167 10162 10161 10158 ] final  -93.53 input  -65.29 | X-H torsion
[ 10718 10713 10712 10709 ] final   16.84 input   66.30 | X-H torsion
[ 10763 10752 10751 10750 ] final   88.74 input  -60.55 | X-H torsion
[ 11005 11000 10999 10996 ] final  102.81 input  -57.11 | X-H torsion

> <Gold.Protein.ActiveResidues>
 VAL166  LYS551  ARG553  GLY616  TRP617  ASP618  TYR619  PRO620  LYS621  CYS622 
 ASP623  PHE694  ASN695  SER759  ASP760  ASP761  ALA762  ILE779  LEU786  VAL792 
 PHE793  MET794  SER795  GLU796  ALA797  LYS798  CYS799  TRP800  GLU811  SER814 

> <Gold.Protein.RotatedAtoms>
  151.1846  133.4704  159.2594 H   0  0  0  0  0  0  0  0  0  0  0  0  # atno 6907 bound_to 6896
  151.1224  135.0086  159.8555 H   0  0  0  0  0  0  0  0  0  0  0  0  # atno 6908 bound_to 6896
  152.5456  134.1756  159.8667 H   0  0  0  0  0  0  0  0  0  0  0  0  # atno 6909 bound_to 6896
  145.6579  140.9262  143.0950 H   0  0  0  0  0  0  0  0  0  0  0  0  # atno 7974 bound_to 7965
  155.3000  140.3384  155.4248 H   0  0  0  0  0  0  0  0  0  0  0  0  # atno 8008 bound_to 7997
  156.2006  140.1731  156.7946 H   0  0  0  0  0  0  0  0  0  0  0  0  # atno 8009 bound_to 7997
  154.5554  140.0697  156.8719 H   0  0  0  0  0  0  0  0  0  0  0  0  # atno 8010 bound_to 7997
  140.3237  143.3034  152.0019 H   0  0  0  0  0  0  0  0  0  0  0  0  # atno 10167 bound_to 10162
  157.0737  130.6358  149.5811 H   0  0  0  0  0  0  0  0  0  0  0  0  # atno 10718 bound_to 10713
  153.1799  135.4496  155.0014 H   0  0  0  0  0  0  0  0  0  0  0  0  # atno 10763 bound_to 10752
  154.8023  135.3260  154.7522 H   0  0  0  0  0  0  0  0  0  0  0  0  # atno 10764 bound_to 10752
  153.7987  135.6964  153.4914 H   0  0  0  0  0  0  0  0  0  0  0  0  # atno 10765 bound_to 10752
  139.8780  134.9239  156.5115 H   0  0  0  0  0  0  0  0  0  0  0  0  # atno 11005 bound_to 11000
  144.7099  139.8410  143.7418 LP  0  0  0  0  0  0  0  0  0  0  0  0  # atno 17320 bound_to 7965
  146.1150  139.4160  143.0264 LP  0  0  0  0  0  0  0  0  0  0  0  0  # atno 17321 bound_to 7965
  139.4869  144.6291  151.7106 LP  0  0  0  0  0  0  0  0  0  0  0  0  # atno 17342 bound_to 10162
  140.5460  144.0502  150.6107 LP  0  0  0  0  0  0  0  0  0  0  0  0  # atno 17343 bound_to 10162
  155.9943  130.5007  150.7415 LP  0  0  0  0  0  0  0  0  0  0  0  0  # atno 17370 bound_to 10713
  157.4857  131.0906  151.0485 LP  0  0  0  0  0  0  0  0  0  0  0  0  # atno 17371 bound_to 10713
  140.8517  133.8127  155.9175 LP  0  0  0  0  0  0  0  0  0  0  0  0  # atno 17394 bound_to 11000
  140.9138  134.2228  157.4969 LP  0  0  0  0  0  0  0  0  0  0  0  0  # atno 17395 bound_to 11000

$$$$
