AV-unprocessed.smi:3122|AV-procd|sdf|11898|dock7
  -GOLD-   2272017283D 1   1.00000     0.00000
 Structure written by MMmdl.
 29 30  0  0  0  0  0  0  0  0  1 V2000
  152.6233  143.1776  161.3453 C   0  0  0  0  0  0  0  0  0  0  0  0
  152.1586  143.7760  160.0092 C   0  0  0  0  0  0  0  0  0  0  0  0
  151.3684  145.0784  160.1988 C   0  0  0  0  0  0  0  0  0  0  0  0
  151.3950  142.7873  159.1855 C   0  0  0  0  0  0  0  0  0  0  0  0
  150.1884  142.2733  159.4416 N   0  0  0  0  0  0  0  0  0  0  0  0
  149.8671  141.5029  158.3471 N   0  0  0  0  0  0  0  0  0  0  0  0
  150.8965  141.6207  157.5034 C   0  0  0  0  0  0  0  0  0  0  0  0
  151.0298  141.0404  156.1323 C   0  0  2  0  0  0  0  0  0  0  0  0
  149.6707  140.9067  155.4189 C   0  0  0  0  0  0  0  0  0  0  0  0
  149.8425  140.2590  154.1193 N   0  0  0  0  0  0  0  0  0  0  0  0
  150.5238  138.9721  154.2555 C   0  0  0  0  0  0  0  0  0  0  0  0
  151.8572  139.1473  155.0045 C   0  0  0  0  0  0  0  0  0  0  0  0
  151.6179  139.7497  156.2719 O   0  0  0  0  0  0  0  0  0  0  0  0
  151.8713  142.4495  157.9590 O   0  0  0  0  0  0  0  0  0  0  0  0
  153.2291  142.2851  161.1850 H   0  0  0  0  0  0  0  0  0  0  0  0
  151.7765  142.8976  161.9731 H   0  0  0  0  0  0  0  0  0  0  0  0
  153.2295  143.8904  161.9051 H   0  0  0  0  0  0  0  0  0  0  0  0
  153.0585  144.0261  159.4460 H   0  0  0  0  0  0  0  0  0  0  0  0
  151.1116  145.5236  159.2369 H   0  0  0  0  0  0  0  0  0  0  0  0
  151.9483  145.8128  160.7581 H   0  0  0  0  0  0  0  0  0  0  0  0
  150.4395  144.9022  160.7426 H   0  0  0  0  0  0  0  0  0  0  0  0
  151.6972  141.6841  155.5562 H   0  0  0  0  0  0  0  0  0  0  0  0
  148.9872  140.3215  156.0355 H   0  0  0  0  0  0  0  0  0  0  0  0
  149.2152  141.8889  155.2902 H   0  0  0  0  0  0  0  0  0  0  0  0
  148.9351  140.1192  153.6864 H   0  0  0  0  0  0  0  0  0  0  0  0
  149.8886  138.2717  154.7990 H   0  0  0  0  0  0  0  0  0  0  0  0
  150.7007  138.5363  153.2722 H   0  0  0  0  0  0  0  0  0  0  0  0
  152.3298  138.1775  155.1599 H   0  0  0  0  0  0  0  0  0  0  0  0
  152.5558  139.7524  154.4243 H   0  0  0  0  0  0  0  0  0  0  0  0
  1  2  1  0  0  0  0
  1 15  1  0  0  0  0
  1 16  1  0  0  0  0
  1 17  1  0  0  0  0
  2  3  1  0  0  0  0
  2  4  1  0  0  0  0
  2 18  1  0  0  0  0
  3 19  1  0  0  0  0
  3 20  1  0  0  0  0
  3 21  1  0  0  0  0
  4 14  1  0  0  0  0
  4  5  2  0  0  0  0
  5  6  1  0  0  0  0
  6  7  2  0  0  0  0
  7  8  1  0  0  0  0
  7 14  1  0  0  0  0
  8 13  1  0  0  0  0
  8  9  1  0  0  0  0
  8 22  1  0  0  0  0
  9 10  1  0  0  0  0
  9 23  1  0  0  0  0
  9 24  1  0  0  0  0
 10 11  1  0  0  0  0
 10 25  1  0  0  0  0
 11 12  1  0  0  0  0
 11 26  1  0  0  0  0
 11 27  1  0  0  0  0
 12 13  1  0  0  0  0
 12 28  1  0  0  0  0
 12 29  1  0  0  0  0
M  END
> <s_m_source_file>
AV-unprocessed.smi

> <i_m_source_file_index>
3122

> <i_lp_mmshare_version>
43012

> <i_f3d_flags>
0

> <s_epik_input>
W0NIM11bQ0hdKFtDSDNdKWMxbm5jKG8xKVtDQEBIXTJbQ0gyXVtOSF1bQ0gyXVtDSDJdTzI=

> <s_epik_cmdline>
J2VwaWtfcHl0aG9uJywgJy1waCcsICc3LjAnLCAnLXRuJywgJzgnLCAnLW1hJywgJzIwMCcsICctbWV0YWxfYmluZGluZycsICctaW1hZScsICc8aW5maWxlLm1hZT4nLCAnLW9tYWUnLCAnPG91dGZpbGUubWFlPic=

> <r_lp_tautomer_probability>
1

> <r_epik_Ionization_Penalty>
1.64488

> <r_epik_Ionization_Penalty_Charging>
0

> <r_epik_Ionization_Penalty_Neutral>
1.64488

> <r_epik_State_Penalty>
1.74649

> <r_epik_Charging_Adjusted_Penalty>
1.74649

> <i_epik_Tot_Q>
0

> <i_epik_Tot_abs_Q>
0

> <r_epik_Metal_State_Penalty>
1.74649

> <b_epik_Metal_Only>
0

> <s_lp_Force_Field>
OPLS_2005

> <r_lp_Energy>
11.6401

> <b_lp_Chiralities_Consistent>
1

> <s_lp_Variant>
AV-unprocessed.smi:3122-3

> <Gold.Version>
5.8.1

> <Gold.Id.Protein>
6NUR|6NUR_protein|mol2

> <Gold.PLP.Fitness>
33.5951

> <Gold.PLP.PLP>
-32.1884

> <Gold.PLP.part.hbond>
-3.0000

> <Gold.PLP.part.metal>
0.0000

> <Gold.PLP.part.buried>
-4.0844

> <Gold.PLP.part.nonpolar>
-25.8792

> <Gold.PLP.part.repulsive>
0.2004

> <Gold.PLP.ligand.clash>
0.0000

> <Gold.PLP.ligand.torsion>
0.7731

> <Gold.PLP.Chemscore.Hbond>
0.9408

> <Gold.PLP.Chemscore.CHOScore>
0.0000

> <Gold.PLP.Chemscore.Metal>
0.0000

> <Gold.Chemscore.Hbonds>
donor molecule, donor type, donor heavy atom, donor atom, acceptor molecule, acceptor atom, score
      P1  H  7989  7998       L1    10  0.16

> <Gold.PLP.Chemscore.Internal.Correction>
0.1306

> <Gold.Rescore>
     Score         DG    S(hbond)    S(metal)    S(lipo)     H(rot)  DE(clash)    DE(int)     intcor
     10.96     -11.90       0.62        0.00      64.26       1.24       0.05       0.88       ----

> <Gold.Chemscore.Fitness>
10.9644

> <Gold.Chemscore.DG>
-11.8950

> <Gold.Chemscore.ZeroCoef>
-5.4800

> <Gold.Chemscore.Hbond>
0.6216

> <Gold.Chemscore.Metal>
0.0000

> <Gold.Chemscore.Lipo>
64.2625

> <Gold.Chemscore.Internal_Hbond>
0.0000

> <Gold.Chemscore.DEClash>
0.0460

> <Gold.Chemscore.DEInternal>
0.8846

> <Gold.Chemscore.Rot>
1.2422

> <Gold.Chemscore.Internal.Correction>
   9.000000E+99

> <Gold.Chemscore.Hbond.Weighted>
-2.0763

> <Gold.Chemscore.Metal.Weighted>
-0.0000

> <Gold.Chemscore.Lipo.Weighted>
-7.5187

> <Gold.Chemscore.Internal_Hbond.Weighted>
0.0000

> <Gold.Chemscore.DEClash.Weighted>
0.0460

> <Gold.Chemscore.DEInternal.Weighted>
0.8846

> <Gold.Chemscore.Rot.Weighted>
3.1799

> <Gold.Chemscore.Internal.Correction.Weighted>
   9.000000E+99

> <Gold.Protein.RotatedTorsions>
[ 6907 6896 6895 6894 ] final  -50.89 input  -60.11 | X-H torsion
[ 7974 7965 7964 7962 ] final   95.55 input  175.53 | X-H torsion
[ 8008 7997 7996 7995 ] final  -19.04 input   59.86 | X-H torsion
[ 10167 10162 10161 10158 ] final -128.97 input  -65.29 | X-H torsion
[ 10718 10713 10712 10709 ] final -124.83 input   66.30 | X-H torsion
[ 10763 10752 10751 10750 ] final  -67.77 input  -60.55 | X-H torsion
[ 11005 11000 10999 10996 ] final  -84.09 input  -57.11 | X-H torsion

> <Gold.Protein.ActiveResidues>
 VAL166  LYS551  ARG553  GLY616  TRP617  ASP618  TYR619  PRO620  LYS621  CYS622 
 ASP623  PHE694  ASN695  SER759  ASP760  ASP761  ALA762  ILE779  LEU786  VAL792 
 PHE793  MET794  SER795  GLU796  ALA797  LYS798  CYS799  TRP800  GLU811  SER814 

> <Gold.Protein.RotatedAtoms>
  150.8664  134.8028  159.7121 H   0  0  0  0  0  0  0  0  0  0  0  0  # atno 6907 bound_to 6896
  152.4684  134.5017  159.9736 H   0  0  0  0  0  0  0  0  0  0  0  0  # atno 6908 bound_to 6896
  151.5113  133.3446  159.2921 H   0  0  0  0  0  0  0  0  0  0  0  0  # atno 6909 bound_to 6896
  145.4507  139.2293  143.3041 H   0  0  0  0  0  0  0  0  0  0  0  0  # atno 7974 bound_to 7965
  154.4864  140.2099  155.9646 H   0  0  0  0  0  0  0  0  0  0  0  0  # atno 8008 bound_to 7997
  156.1242  140.3208  155.8221 H   0  0  0  0  0  0  0  0  0  0  0  0  # atno 8009 bound_to 7997
  155.4414  140.0510  157.3001 H   0  0  0  0  0  0  0  0  0  0  0  0  # atno 8010 bound_to 7997
  139.9447  143.6123  152.2493 H   0  0  0  0  0  0  0  0  0  0  0  0  # atno 10167 bound_to 10162
  156.1622  130.6610  151.0065 H   0  0  0  0  0  0  0  0  0  0  0  0  # atno 10718 bound_to 10713
  154.3794  135.6077  153.5782 H   0  0  0  0  0  0  0  0  0  0  0  0  # atno 10763 bound_to 10752
  152.9788  135.5857  154.4428 H   0  0  0  0  0  0  0  0  0  0  0  0  # atno 10764 bound_to 10752
  154.4195  135.2845  155.1962 H   0  0  0  0  0  0  0  0  0  0  0  0  # atno 10765 bound_to 10752
  141.1653  133.7328  156.8817 H   0  0  0  0  0  0  0  0  0  0  0  0  # atno 11005 bound_to 11000
  146.2506  140.5266  142.8895 LP  0  0  0  0  0  0  0  0  0  0  0  0  # atno 17320 bound_to 7965
  144.8063  140.6305  143.6445 LP  0  0  0  0  0  0  0  0  0  0  0  0  # atno 17321 bound_to 7965
  139.6676  144.7662  151.1843 LP  0  0  0  0  0  0  0  0  0  0  0  0  # atno 17342 bound_to 10162
  140.7601  143.5913  150.8793 LP  0  0  0  0  0  0  0  0  0  0  0  0  # atno 17343 bound_to 10162
  157.6741  131.0854  150.7539 LP  0  0  0  0  0  0  0  0  0  0  0  0  # atno 17370 bound_to 10713
  156.7601  130.4796  149.5438 LP  0  0  0  0  0  0  0  0  0  0  0  0  # atno 17371 bound_to 10713
  140.1710  134.9100  157.2833 LP  0  0  0  0  0  0  0  0  0  0  0  0  # atno 17394 bound_to 11000
  140.2502  134.3692  155.7445 LP  0  0  0  0  0  0  0  0  0  0  0  0  # atno 17395 bound_to 11000

$$$$
