AV-unprocessed.smi:3149|AV-procd|sdf|12003|dock1
  -GOLD-   2272017403D 1   1.00000     0.00000
 Structure written by MMmdl.
 37 38  0  0  0  0  0  0  0  0  1 V2000
  147.9898  141.8915  157.1730 C   0  0  0  0  0  0  0  0  0  0  0  0
  148.9715  140.7713  156.7765 C   0  0  2  0  0  0  0  0  0  0  0  0
  150.0766  140.7718  157.7329 N   0  0  0  0  0  0  0  0  0  0  0  0
  150.8310  142.0323  157.7149 C   0  0  0  0  0  0  0  0  0  0  0  0
  151.4921  142.3382  159.0648 C   0  0  0  0  0  0  0  0  0  0  0  0
  151.5879  141.4726  159.9362 O   0  0  0  0  0  0  0  0  0  0  0  0
  151.8885  143.6576  159.2948 N   0  0  0  0  0  0  0  0  0  0  0  0
  151.1088  144.7831  158.8018 C   0  0  0  0  0  0  0  0  0  0  0  0
  151.6447  145.5456  160.0182 C   0  0  0  0  0  0  0  0  0  0  0  0
  151.9880  144.1901  160.6452 C   0  0  0  0  0  0  0  0  0  0  0  0
  149.5531  140.9523  155.3484 C   0  0  2  0  0  0  0  0  0  0  0  0
  148.4720  141.1772  154.2759 C   0  0  0  0  0  0  0  0  0  0  0  0
  150.3792  139.8115  154.9651 N   0  0  0  0  0  0  0  0  0  0  0  0
  149.9932  138.5086  154.7187 C   0  0  0  0  0  0  0  0  0  0  0  0
  151.1167  137.8032  154.3959 C   0  0  0  0  0  0  0  0  0  0  0  0
  152.1556  138.7725  154.4678 C   0  0  0  0  0  0  0  0  0  0  0  0
  151.7114  139.9717  154.8060 N   0  0  0  0  0  0  0  0  0  0  0  0
  147.1050  141.8908  156.5372 H   0  0  0  0  0  0  0  0  0  0  0  0
  148.4567  142.8737  157.0926 H   0  0  0  0  0  0  0  0  0  0  0  0
  147.6350  141.7784  158.1973 H   0  0  0  0  0  0  0  0  0  0  0  0
  148.4504  139.8130  156.8122 H   0  0  0  0  0  0  0  0  0  0  0  0
  149.7048  140.5945  158.6560 H   0  0  0  0  0  0  0  0  0  0  0  0
  151.6007  141.9934  156.9436 H   0  0  0  0  0  0  0  0  0  0  0  0
  150.1578  142.8543  157.4675 H   0  0  0  0  0  0  0  0  0  0  0  0
  151.4432  145.1697  157.8387 H   0  0  0  0  0  0  0  0  0  0  0  0
  150.0299  144.6193  158.8412 H   0  0  0  0  0  0  0  0  0  0  0  0
  152.5231  146.1537  159.7946 H   0  0  0  0  0  0  0  0  0  0  0  0
  150.8876  146.1116  160.5617 H   0  0  0  0  0  0  0  0  0  0  0  0
  151.2147  143.8199  161.3214 H   0  0  0  0  0  0  0  0  0  0  0  0
  152.9886  144.1272  161.0739 H   0  0  0  0  0  0  0  0  0  0  0  0
  150.1924  141.8379  155.3524 H   0  0  0  0  0  0  0  0  0  0  0  0
  147.9344  142.1112  154.4352 H   0  0  0  0  0  0  0  0  0  0  0  0
  147.7423  140.3668  154.2686 H   0  0  0  0  0  0  0  0  0  0  0  0
  148.9157  141.2324  153.2814 H   0  0  0  0  0  0  0  0  0  0  0  0
  148.9626  138.1950  154.7951 H   0  0  0  0  0  0  0  0  0  0  0  0
  151.1858  136.7550  154.1460 H   0  0  0  0  0  0  0  0  0  0  0  0
  153.2119  138.6414  154.2846 H   0  0  0  0  0  0  0  0  0  0  0  0
  1  2  1  0  0  0  0
  1 18  1  0  0  0  0
  1 19  1  0  0  0  0
  1 20  1  0  0  0  0
  2  3  1  0  0  0  0
  2 11  1  0  0  0  0
  2 21  1  0  0  0  0
  3  4  1  0  0  0  0
  3 22  1  0  0  0  0
  4  5  1  0  0  0  0
  4 23  1  0  0  0  0
  4 24  1  0  0  0  0
  5  6  2  0  0  0  0
  5  7  1  0  0  0  0
  7 10  1  0  0  0  0
  7  8  1  0  0  0  0
  8  9  1  0  0  0  0
  8 25  1  0  0  0  0
  8 26  1  0  0  0  0
  9 10  1  0  0  0  0
  9 27  1  0  0  0  0
  9 28  1  0  0  0  0
 10 29  1  0  0  0  0
 10 30  1  0  0  0  0
 11 12  1  0  0  0  0
 11 13  1  0  0  0  0
 11 31  1  0  0  0  0
 12 32  1  0  0  0  0
 12 33  1  0  0  0  0
 12 34  1  0  0  0  0
 13 17  1  0  0  0  0
 13 14  1  0  0  0  0
 14 15  2  0  0  0  0
 14 35  1  0  0  0  0
 15 16  1  0  0  0  0
 15 36  1  0  0  0  0
 16 17  2  0  0  0  0
 16 37  1  0  0  0  0
M  END
> <s_m_source_file>
AV-unprocessed.smi

> <i_m_source_file_index>
3149

> <i_lp_mmshare_version>
43012

> <i_f3d_flags>
0

> <s_epik_input>
bjFbY0hdW2NIXVtjSF1uMVtDQEBIXShbQ0gzXSlbQ0BIXShbQ0gzXSlbTkhdW0NIMl1DKD1PKU4yW0NIMl1bQ0gyXVtDSDJdMg==

> <s_epik_cmdline>
J2VwaWtfcHl0aG9uJywgJy1waCcsICc3LjAnLCAnLXRuJywgJzgnLCAnLW1hJywgJzIwMCcsICctbWV0YWxfYmluZGluZycsICctaW1hZScsICc8aW5maWxlLm1hZT4nLCAnLW9tYWUnLCAnPG91dGZpbGUubWFlPic=

> <r_lp_tautomer_probability>
1

> <r_epik_Ionization_Penalty>
0.918674

> <r_epik_Ionization_Penalty_Charging>
0

> <r_epik_Ionization_Penalty_Neutral>
0.918674

> <r_epik_State_Penalty>
0.958258

> <r_epik_Charging_Adjusted_Penalty>
0.958258

> <i_epik_Tot_Q>
0

> <i_epik_Tot_abs_Q>
0

> <r_epik_Metal_State_Penalty>
0.956881

> <b_epik_Metal_Only>
0

> <s_lp_Force_Field>
OPLS_2005

> <r_lp_Energy>
24.7968

> <b_lp_Chiralities_Consistent>
1

> <s_lp_Variant>
AV-unprocessed.smi:3149-5

> <Gold.Version>
5.8.1

> <Gold.Id.Protein>
6NUR|6NUR_protein|mol2

> <Gold.PLP.Fitness>
43.2981

> <Gold.PLP.PLP>
-41.1637

> <Gold.PLP.part.hbond>
-1.4926

> <Gold.PLP.part.metal>
0.0000

> <Gold.PLP.part.buried>
-5.0796

> <Gold.PLP.part.nonpolar>
-34.1152

> <Gold.PLP.part.repulsive>
0.0668

> <Gold.PLP.ligand.clash>
0.0000

> <Gold.PLP.ligand.torsion>
0.8968

> <Gold.PLP.Chemscore.Hbond>
1.0000

> <Gold.PLP.Chemscore.CHOScore>
0.0000

> <Gold.PLP.Chemscore.Metal>
0.0000

> <Gold.Chemscore.Hbonds>
donor molecule, donor type, donor heavy atom, donor atom, acceptor molecule, acceptor atom, score
      P1  H  7989  7998       L1    17  0.90

> <Gold.PLP.Chemscore.Internal.Correction>
0.9280

> <Gold.Rescore>
     Score         DG    S(hbond)    S(metal)    S(lipo)     H(rot)  DE(clash)    DE(int)     intcor
     12.64     -13.56       0.91        0.00      82.27       1.79       0.01       0.90       ----

> <Gold.Chemscore.Fitness>
12.6445

> <Gold.Chemscore.DG>
-13.5563

> <Gold.Chemscore.ZeroCoef>
-5.4800

> <Gold.Chemscore.Hbond>
0.9062

> <Gold.Chemscore.Metal>
0.0000

> <Gold.Chemscore.Lipo>
82.2684

> <Gold.Chemscore.Internal_Hbond>
0.0000

> <Gold.Chemscore.DEClash>
0.0106

> <Gold.Chemscore.DEInternal>
0.9012

> <Gold.Chemscore.Rot>
1.7874

> <Gold.Chemscore.Internal.Correction>
   9.000000E+99

> <Gold.Chemscore.Hbonds>
donor molecule, donor type, donor heavy atom, donor atom, acceptor molecule, acceptor atom, score
      P1  H  7989  7998       L1    17  0.11

> <Gold.Chemscore.Hbond.Weighted>
-3.0268

> <Gold.Chemscore.Metal.Weighted>
-0.0000

> <Gold.Chemscore.Lipo.Weighted>
-9.6254

> <Gold.Chemscore.Internal_Hbond.Weighted>
0.0000

> <Gold.Chemscore.DEClash.Weighted>
0.0106

> <Gold.Chemscore.DEInternal.Weighted>
0.9012

> <Gold.Chemscore.Rot.Weighted>
4.5758

> <Gold.Chemscore.Internal.Correction.Weighted>
   9.000000E+99

> <Gold.Protein.RotatedTorsions>
[ 6907 6896 6895 6894 ] final  155.43 input  -60.11 | X-H torsion
[ 7974 7965 7964 7962 ] final   -7.80 input  175.53 | X-H torsion
[ 8008 7997 7996 7995 ] final  -11.23 input   59.86 | X-H torsion
[ 10167 10162 10161 10158 ] final   43.57 input  -65.29 | X-H torsion
[ 10718 10713 10712 10709 ] final    6.05 input   66.30 | X-H torsion
[ 10763 10752 10751 10750 ] final -113.17 input  -60.55 | X-H torsion
[ 11005 11000 10999 10996 ] final   45.38 input  -57.11 | X-H torsion

> <Gold.Protein.ActiveResidues>
 VAL166  LYS551  ARG553  GLY616  TRP617  ASP618  TYR619  PRO620  LYS621  CYS622 
 ASP623  PHE694  ASN695  SER759  ASP760  ASP761  ALA762  ILE779  LEU786  VAL792 
 PHE793  MET794  SER795  GLU796  ALA797  LYS798  CYS799  TRP800  GLU811  SER814 

> <Gold.Protein.RotatedAtoms>
  152.0443  133.3991  159.4349 H   0  0  0  0  0  0  0  0  0  0  0  0  # atno 6907 bound_to 6896
  150.6873  134.3379  159.4864 H   0  0  0  0  0  0  0  0  0  0  0  0  # atno 6908 bound_to 6896
  152.1182  134.9225  160.0615 H   0  0  0  0  0  0  0  0  0  0  0  0  # atno 6909 bound_to 6896
  146.2297  140.2373  142.8342 H   0  0  0  0  0  0  0  0  0  0  0  0  # atno 7974 bound_to 7965
  154.5483  140.2308  155.8526 H   0  0  0  0  0  0  0  0  0  0  0  0  # atno 8008 bound_to 7997
  156.1923  140.3074  155.9319 H   0  0  0  0  0  0  0  0  0  0  0  0  # atno 8009 bound_to 7997
  155.3120  140.0436  157.3026 H   0  0  0  0  0  0  0  0  0  0  0  0  # atno 8010 bound_to 7997
  140.3431  144.2445  150.6153 H   0  0  0  0  0  0  0  0  0  0  0  0  # atno 10167 bound_to 10162
  156.9164  130.5775  149.5647 H   0  0  0  0  0  0  0  0  0  0  0  0  # atno 10718 bound_to 10713
  154.8384  135.4464  154.1307 H   0  0  0  0  0  0  0  0  0  0  0  0  # atno 10763 bound_to 10752
  153.2518  135.6927  153.7677 H   0  0  0  0  0  0  0  0  0  0  0  0  # atno 10764 bound_to 10752
  153.6986  135.3375  155.3195 H   0  0  0  0  0  0  0  0  0  0  0  0  # atno 10765 bound_to 10752
  140.1465  134.4516  155.8412 H   0  0  0  0  0  0  0  0  0  0  0  0  # atno 11005 bound_to 11000
  144.9511  140.8179  143.5571 LP  0  0  0  0  0  0  0  0  0  0  0  0  # atno 17320 bound_to 7965
  145.2334  139.2104  143.5031 LP  0  0  0  0  0  0  0  0  0  0  0  0  # atno 17321 bound_to 7965
  140.5290  143.2247  151.8268 LP  0  0  0  0  0  0  0  0  0  0  0  0  # atno 17342 bound_to 10162
  139.4837  144.4743  151.9386 LP  0  0  0  0  0  0  0  0  0  0  0  0  # atno 17343 bound_to 10162
  156.0511  130.5581  150.8992 LP  0  0  0  0  0  0  0  0  0  0  0  0  # atno 17370 bound_to 10713
  157.5935  131.0944  150.9079 LP  0  0  0  0  0  0  0  0  0  0  0  0  # atno 17371 bound_to 10713
  141.2193  133.6854  156.7343 LP  0  0  0  0  0  0  0  0  0  0  0  0  # atno 17394 bound_to 11000
  140.2657  134.8431  157.3800 LP  0  0  0  0  0  0  0  0  0  0  0  0  # atno 17395 bound_to 11000

$$$$
