AV-unprocessed.smi:3331|AV-procd|sdf|12827|dock2
  -GOLD-   2272019203D 1   1.00000     0.00000
 Structure written by MMmdl.
 46 47  0  0  0  0  0  0  0  0  1 V2000
  152.6208  142.9461  159.7516 C   0  0  0  0  0  0  0  0  0  0  0  0
  152.8335  141.4882  160.1817 C   0  0  2  0  0  0  0  0  0  0  0  0
  153.9230  141.3702  161.2719 C   0  0  0  0  0  0  0  0  0  0  0  0
  154.2493  139.9011  161.6271 C   0  0  2  0  0  0  0  0  0  0  0  0
  155.4220  139.8061  162.6126 C   0  0  0  0  0  0  0  0  0  0  0  0
  154.5154  139.0859  160.3435 C   0  0  0  0  0  0  0  0  0  0  0  0
  153.3448  139.2099  159.4661 N   0  0  0  0  0  0  0  0  0  0  0  0
  152.4617  138.1954  159.2871 C   0  0  0  0  0  0  0  0  0  0  0  0
  152.6746  137.0643  159.7294 O   0  0  0  0  0  0  0  0  0  0  0  0
  151.1361  138.4418  158.5273 C   0  0  1  0  0  0  0  0  0  0  0  0
  151.4313  138.8460  157.0741 C   0  0  0  0  0  0  0  0  0  0  0  0
  150.2489  137.2659  158.5380 N   0  0  0  0  0  0  0  0  0  0  0  0
  149.6419  137.0128  159.8420 C   0  0  0  0  0  0  0  0  0  0  0  0
  148.2690  136.3471  159.6602 C   0  0  0  0  0  0  0  0  0  0  0  0
  147.5933  136.1532  160.9308 N   0  0  0  0  0  0  0  0  0  0  0  0
  147.2317  134.9695  161.5393 C   0  0  0  0  0  0  0  0  0  0  0  0
  146.6436  135.2882  162.7297 C   0  0  0  0  0  0  0  0  0  0  0  0
  146.6925  136.7100  162.7606 C   0  0  0  0  0  0  0  0  0  0  0  0
  147.2600  137.2250  161.6819 N   0  0  0  0  0  0  0  0  0  0  0  0
  153.1950  140.5880  158.9834 C   0  0  0  0  0  0  0  0  0  0  0  0
  153.5264  143.3671  159.3136 H   0  0  0  0  0  0  0  0  0  0  0  0
  152.3410  143.5689  160.6017 H   0  0  0  0  0  0  0  0  0  0  0  0
  151.8251  143.0235  159.0103 H   0  0  0  0  0  0  0  0  0  0  0  0
  151.8928  141.1290  160.6025 H   0  0  0  0  0  0  0  0  0  0  0  0
  154.8321  141.8608  160.9205 H   0  0  0  0  0  0  0  0  0  0  0  0
  153.6119  141.9089  162.1677 H   0  0  0  0  0  0  0  0  0  0  0  0
  153.3737  139.4728  162.1180 H   0  0  0  0  0  0  0  0  0  0  0  0
  156.3356  140.2190  162.1836 H   0  0  0  0  0  0  0  0  0  0  0  0
  155.6215  138.7695  162.8861 H   0  0  0  0  0  0  0  0  0  0  0  0
  155.2076  140.3536  163.5311 H   0  0  0  0  0  0  0  0  0  0  0  0
  155.4009  139.4623  159.8291 H   0  0  0  0  0  0  0  0  0  0  0  0
  154.7434  138.0500  160.5984 H   0  0  0  0  0  0  0  0  0  0  0  0
  150.5769  139.2485  158.9995 H   0  0  0  0  0  0  0  0  0  0  0  0
  152.0740  139.7256  157.0247 H   0  0  0  0  0  0  0  0  0  0  0  0
  150.5108  139.0867  156.5414 H   0  0  0  0  0  0  0  0  0  0  0  0
  151.9282  138.0423  156.5289 H   0  0  0  0  0  0  0  0  0  0  0  0
  149.5272  137.3294  157.8347 H   0  0  0  0  0  0  0  0  0  0  0  0
  150.2680  136.3794  160.4713 H   0  0  0  0  0  0  0  0  0  0  0  0
  149.5319  137.9633  160.3648 H   0  0  0  0  0  0  0  0  0  0  0  0
  147.6359  136.9701  159.0269 H   0  0  0  0  0  0  0  0  0  0  0  0
  148.3642  135.3844  159.1561 H   0  0  0  0  0  0  0  0  0  0  0  0
  147.4271  134.0105  161.0823 H   0  0  0  0  0  0  0  0  0  0  0  0
  146.2430  134.6091  163.4676 H   0  0  0  0  0  0  0  0  0  0  0  0
  146.3352  137.3789  163.5296 H   0  0  0  0  0  0  0  0  0  0  0  0
  152.4697  140.6926  158.1789 H   0  0  0  0  0  0  0  0  0  0  0  0
  154.1389  140.9169  158.5455 H   0  0  0  0  0  0  0  0  0  0  0  0
  1  2  1  0  0  0  0
  1 21  1  0  0  0  0
  1 22  1  0  0  0  0
  1 23  1  0  0  0  0
  2 20  1  0  0  0  0
  2  3  1  0  0  0  0
  2 24  1  0  0  0  0
  3  4  1  0  0  0  0
  3 25  1  0  0  0  0
  3 26  1  0  0  0  0
  4  5  1  0  0  0  0
  4  6  1  0  0  0  0
  4 27  1  0  0  0  0
  5 28  1  0  0  0  0
  5 29  1  0  0  0  0
  5 30  1  0  0  0  0
  6  7  1  0  0  0  0
  6 31  1  0  0  0  0
  6 32  1  0  0  0  0
  7  8  1  0  0  0  0
  7 20  1  0  0  0  0
  8  9  2  0  0  0  0
  8 10  1  0  0  0  0
 10 11  1  0  0  0  0
 10 12  1  0  0  0  0
 10 33  1  0  0  0  0
 11 34  1  0  0  0  0
 11 35  1  0  0  0  0
 11 36  1  0  0  0  0
 12 13  1  0  0  0  0
 12 37  1  0  0  0  0
 13 14  1  0  0  0  0
 13 38  1  0  0  0  0
 13 39  1  0  0  0  0
 14 15  1  0  0  0  0
 14 40  1  0  0  0  0
 14 41  1  0  0  0  0
 15 19  1  0  0  0  0
 15 16  1  0  0  0  0
 16 17  2  0  0  0  0
 16 42  1  0  0  0  0
 17 18  1  0  0  0  0
 17 43  1  0  0  0  0
 18 19  2  0  0  0  0
 18 44  1  0  0  0  0
 20 45  1  0  0  0  0
 20 46  1  0  0  0  0
M  END
> <s_m_source_file>
AV-unprocessed.smi

> <i_m_source_file_index>
3331

> <i_lp_mmshare_version>
43012

> <i_f3d_flags>
0

> <s_epik_input>
W0NIM11bQ0BASF0xW0NIMl1bQ0BASF0oW0NIM10pW0NIMl1OKFtDSDJdMSlDKD1PKVtDQEhdKFtDSDNdKVtOSF1bQ0gyXVtDSDJdbjJbY0hdW2NIXVtjSF1uMg==

> <s_epik_cmdline>
J2VwaWtfcHl0aG9uJywgJy1waCcsICc3LjAnLCAnLXRuJywgJzgnLCAnLW1hJywgJzIwMCcsICctbWV0YWxfYmluZGluZycsICctaW1hZScsICc8aW5maWxlLm1hZT4nLCAnLW9tYWUnLCAnPG91dGZpbGUubWFlPic=

> <r_lp_tautomer_probability>
1

> <r_epik_Ionization_Penalty>
0.767994

> <r_epik_Ionization_Penalty_Charging>
0

> <r_epik_Ionization_Penalty_Neutral>
0.767994

> <r_epik_State_Penalty>
0.795453

> <r_epik_Charging_Adjusted_Penalty>
0.795453

> <i_epik_Tot_Q>
0

> <i_epik_Tot_abs_Q>
0

> <r_epik_Metal_State_Penalty>
0.794784

> <b_epik_Metal_Only>
0

> <s_lp_Force_Field>
OPLS_2005

> <r_lp_Energy>
28.4318

> <b_lp_Chiralities_Consistent>
1

> <s_lp_Variant>
AV-unprocessed.smi:3331-11

> <Gold.Version>
5.8.1

> <Gold.Id.Protein>
6NUR|6NUR_protein|mol2

> <Gold.PLP.Fitness>
46.7881

> <Gold.PLP.PLP>
-39.3447

> <Gold.PLP.part.hbond>
-2.8298

> <Gold.PLP.part.metal>
0.0000

> <Gold.PLP.part.buried>
-2.7318

> <Gold.PLP.part.nonpolar>
-34.3591

> <Gold.PLP.part.repulsive>
0.0000

> <Gold.PLP.ligand.clash>
0.0000

> <Gold.PLP.ligand.torsion>
0.3373

> <Gold.PLP.Chemscore.Hbond>
2.6695

> <Gold.PLP.Chemscore.CHOScore>
0.0000

> <Gold.PLP.Chemscore.Metal>
0.0000

> <Gold.Chemscore.Hbonds>
donor molecule, donor type, donor heavy atom, donor atom, acceptor molecule, acceptor atom, score
      P1  H  6896  6907       L1     9  0.76
      P1  H  6931  6943       L1    19  0.81
      P1  H  6934  6947       L1    19  0.88

> <Gold.PLP.Chemscore.Internal.Correction>
0.1095

> <Gold.Rescore>
     Score         DG    S(hbond)    S(metal)    S(lipo)     H(rot)  DE(clash)    DE(int)     intcor
     21.16     -21.65       2.63        0.00      99.53       1.66       0.04       0.45       ----

> <Gold.Chemscore.Fitness>
21.1555

> <Gold.Chemscore.DG>
-21.6489

> <Gold.Chemscore.ZeroCoef>
-5.4800

> <Gold.Chemscore.Hbond>
2.6305

> <Gold.Chemscore.Metal>
0.0000

> <Gold.Chemscore.Lipo>
99.5317

> <Gold.Chemscore.Internal_Hbond>
0.0000

> <Gold.Chemscore.DEClash>
0.0402

> <Gold.Chemscore.DEInternal>
0.4531

> <Gold.Chemscore.Rot>
1.6649

> <Gold.Chemscore.Internal.Correction>
   9.000000E+99

> <Gold.Chemscore.Hbonds>
donor molecule, donor type, donor heavy atom, donor atom, acceptor molecule, acceptor atom, score
      P1  H  6896  6907       L1     9  0.77
      P1  H  6931  6943       L1    19  0.37
      P1  H  6934  6947       L1    19  0.85

> <Gold.Chemscore.Hbond.Weighted>
-8.7858

> <Gold.Chemscore.Metal.Weighted>
-0.0000

> <Gold.Chemscore.Lipo.Weighted>
-11.6452

> <Gold.Chemscore.Internal_Hbond.Weighted>
0.0000

> <Gold.Chemscore.DEClash.Weighted>
0.0402

> <Gold.Chemscore.DEInternal.Weighted>
0.4531

> <Gold.Chemscore.Rot.Weighted>
4.2621

> <Gold.Chemscore.Internal.Correction.Weighted>
   9.000000E+99

> <Gold.Protein.RotatedTorsions>
[ 6907 6896 6895 6894 ] final   22.86 input  -60.11 | X-H torsion
[ 7974 7965 7964 7962 ] final -143.23 input  175.53 | X-H torsion
[ 8008 7997 7996 7995 ] final  -68.99 input   59.86 | X-H torsion
[ 10167 10162 10161 10158 ] final  164.67 input  -65.29 | X-H torsion
[ 10718 10713 10712 10709 ] final  -53.76 input   66.30 | X-H torsion
[ 10763 10752 10751 10750 ] final  -24.71 input  -60.55 | X-H torsion
[ 11005 11000 10999 10996 ] final -121.76 input  -57.11 | X-H torsion

> <Gold.Protein.ActiveResidues>
 VAL166  LYS551  ARG553  GLY616  TRP617  ASP618  TYR619  PRO620  LYS621  CYS622 
 ASP623  PHE694  ASN695  SER759  ASP760  ASP761  ALA762  ILE779  LEU786  VAL792 
 PHE793  MET794  SER795  GLU796  ALA797  LYS798  CYS799  TRP800  GLU811  SER814 

> <Gold.Protein.RotatedAtoms>
  151.9335  135.0246  160.0530 H   0  0  0  0  0  0  0  0  0  0  0  0  # atno 6907 bound_to 6896
  152.2098  133.4898  159.5112 H   0  0  0  0  0  0  0  0  0  0  0  0  # atno 6908 bound_to 6896
  150.6973  134.1399  159.4144 H   0  0  0  0  0  0  0  0  0  0  0  0  # atno 6909 bound_to 6896
  144.8385  140.5861  143.5468 H   0  0  0  0  0  0  0  0  0  0  0  0  # atno 7974 bound_to 7965
  154.4906  140.0862  156.7586 H   0  0  0  0  0  0  0  0  0  0  0  0  # atno 8008 bound_to 7997
  155.4240  140.3447  155.4255 H   0  0  0  0  0  0  0  0  0  0  0  0  # atno 8009 bound_to 7997
  156.1324  140.1505  156.9033 H   0  0  0  0  0  0  0  0  0  0  0  0  # atno 8010 bound_to 7997
  139.4893  144.4211  151.9185 H   0  0  0  0  0  0  0  0  0  0  0  0  # atno 10167 bound_to 10162
  156.1508  130.4151  149.9948 H   0  0  0  0  0  0  0  0  0  0  0  0  # atno 10718 bound_to 10713
  153.6881  135.6963  153.5098 H   0  0  0  0  0  0  0  0  0  0  0  0  # atno 10763 bound_to 10752
  153.2434  135.4298  155.0721 H   0  0  0  0  0  0  0  0  0  0  0  0  # atno 10764 bound_to 10752
  154.8381  135.3513  154.6423 H   0  0  0  0  0  0  0  0  0  0  0  0  # atno 10765 bound_to 10752
  141.0046  134.0353  157.3494 H   0  0  0  0  0  0  0  0  0  0  0  0  # atno 11005 bound_to 11000
  145.4744  139.1500  143.3796 LP  0  0  0  0  0  0  0  0  0  0  0  0  # atno 17320 bound_to 7965
  146.2681  140.4878  142.8826 LP  0  0  0  0  0  0  0  0  0  0  0  0  # atno 17321 bound_to 7965
  140.3656  144.2919  150.5927 LP  0  0  0  0  0  0  0  0  0  0  0  0  # atno 17342 bound_to 10162
  140.5365  143.2232  151.8155 LP  0  0  0  0  0  0  0  0  0  0  0  0  # atno 17343 bound_to 10162
  156.7806  130.9220  151.3646 LP  0  0  0  0  0  0  0  0  0  0  0  0  # atno 17370 bound_to 10713
  157.6655  130.9004  149.9923 LP  0  0  0  0  0  0  0  0  0  0  0  0  # atno 17371 bound_to 10713
  139.9056  135.0178  156.7471 LP  0  0  0  0  0  0  0  0  0  0  0  0  # atno 17394 bound_to 11000
  140.6834  133.9454  155.7923 LP  0  0  0  0  0  0  0  0  0  0  0  0  # atno 17395 bound_to 11000

$$$$
