AV-unprocessed.smi:31|AV-procd|sdf|195|dock9
  -GOLD-   2262015463D 1   1.00000     0.00000
 Structure written by MMmdl.
 49 52  0  0  0  0  0  0  0  0  1 V2000
  146.2598  133.8013  154.9945 O   0  0  0  0  0  0  0  0  0  0  0  0
  147.4856  133.8253  155.1140 C   0  0  0  0  0  0  0  0  0  0  0  0
  148.1758  134.9889  155.8437 C   0  0  0  0  0  0  0  0  0  0  0  0
  147.4844  135.4004  157.0853 N   0  0  0  0  0  0  0  0  0  0  0  0
  146.1672  135.9152  156.9942 C   0  0  0  0  0  0  0  0  0  0  0  0
  145.6042  136.0412  155.9056 O   0  0  0  0  0  0  0  0  0  0  0  0
  145.5389  136.2659  158.2630 C   0  0  0  0  0  0  0  0  0  0  0  0
  144.2881  136.7573  158.2731 F   0  0  0  0  0  0  0  0  0  0  0  0
  146.1921  136.0990  159.4311 C   0  0  0  0  0  0  0  0  0  0  0  0
  147.4784  135.5965  159.5047 N   0  0  0  0  0  0  0  0  0  0  0  0
  148.1721  135.3980  160.8342 C   0  0  2  0  0  0  0  0  0  0  0  0
  147.4251  134.3519  161.6690 C   0  0  0  0  0  0  0  0  0  0  0  0
  146.5109  135.2182  162.5073 C   0  0  0  0  0  0  0  0  0  0  0  0
  147.3830  136.4465  162.7407 C   0  0  0  0  0  0  0  0  0  0  0  0
  148.1479  136.6010  161.5479 O   0  0  0  0  0  0  0  0  0  0  0  0
  148.1510  135.2231  158.3211 C   0  0  0  0  0  0  0  0  0  0  0  0
  149.2859  134.7429  158.3662 O   0  0  0  0  0  0  0  0  0  0  0  0
  148.3133  132.8690  154.6551 N   0  0  0  0  0  0  0  0  0  0  0  0
  147.9826  131.6733  153.9621 C   0  0  0  0  0  0  0  0  0  0  0  0
  146.6899  131.5786  153.4137 C   0  0  0  0  0  0  0  0  0  0  0  0
  146.2996  130.4246  152.7111 C   0  0  0  0  0  0  0  0  0  0  0  0
  147.1861  129.3411  152.5508 C   0  0  0  0  0  0  0  0  0  0  0  0
  148.4710  129.3981  153.1664 C   0  0  0  0  0  0  0  0  0  0  0  0
  148.8607  130.5705  153.8457 C   0  0  0  0  0  0  0  0  0  0  0  0
  149.3779  128.3606  153.1672 O   0  0  0  0  0  0  0  0  0  0  0  0
  148.8312  127.0508  153.2117 C   0  0  0  0  0  0  0  0  0  0  0  0
  148.4537  126.5614  151.8120 C   0  0  0  0  0  0  0  0  0  0  0  0
  147.7233  127.6303  150.9966 C   0  0  0  0  0  0  0  0  0  0  0  0
  146.7398  128.2899  151.7804 O   0  0  0  0  0  0  0  0  0  0  0  0
  149.2082  134.7059  156.0562 H   0  0  0  0  0  0  0  0  0  0  0  0
  148.2695  135.8232  155.1469 H   0  0  0  0  0  0  0  0  0  0  0  0
  145.6733  136.3677  160.3392 H   0  0  0  0  0  0  0  0  0  0  0  0
  149.2038  135.1285  160.6035 H   0  0  0  0  0  0  0  0  0  0  0  0
  146.9031  133.6194  161.0520 H   0  0  0  0  0  0  0  0  0  0  0  0
  148.1455  133.8324  162.3021 H   0  0  0  0  0  0  0  0  0  0  0  0
  145.6197  135.4876  161.9393 H   0  0  0  0  0  0  0  0  0  0  0  0
  146.1938  134.7375  163.4329 H   0  0  0  0  0  0  0  0  0  0  0  0
  146.7997  137.3406  162.9609 H   0  0  0  0  0  0  0  0  0  0  0  0
  148.0662  136.2730  163.5731 H   0  0  0  0  0  0  0  0  0  0  0  0
  149.2870  132.9725  154.9015 H   0  0  0  0  0  0  0  0  0  0  0  0
  145.9959  132.4010  153.5111 H   0  0  0  0  0  0  0  0  0  0  0  0
  145.3158  130.3804  152.2673 H   0  0  0  0  0  0  0  0  0  0  0  0
  149.8364  130.5886  154.3059 H   0  0  0  0  0  0  0  0  0  0  0  0
  149.5713  126.3791  153.6471 H   0  0  0  0  0  0  0  0  0  0  0  0
  147.9678  127.0205  153.8796 H   0  0  0  0  0  0  0  0  0  0  0  0
  149.3486  126.2541  151.2703 H   0  0  0  0  0  0  0  0  0  0  0  0
  147.8295  125.6724  151.9053 H   0  0  0  0  0  0  0  0  0  0  0  0
  148.4293  128.3534  150.5834 H   0  0  0  0  0  0  0  0  0  0  0  0
  147.2336  127.1665  150.1403 H   0  0  0  0  0  0  0  0  0  0  0  0
  1  2  2  0  0  0  0
  2  3  1  0  0  0  0
  2 18  1  0  0  0  0
  3  4  1  0  0  0  0
  3 30  1  0  0  0  0
  3 31  1  0  0  0  0
  4 16  1  0  0  0  0
  4  5  1  0  0  0  0
  5  6  2  0  0  0  0
  5  7  1  0  0  0  0
  7  8  1  0  0  0  0
  7  9  2  0  0  0  0
  9 10  1  0  0  0  0
  9 32  1  0  0  0  0
 10 11  1  0  0  0  0
 10 16  1  0  0  0  0
 11 15  1  0  0  0  0
 11 12  1  0  0  0  0
 11 33  1  0  0  0  0
 12 13  1  0  0  0  0
 12 34  1  0  0  0  0
 12 35  1  0  0  0  0
 13 14  1  0  0  0  0
 13 36  1  0  0  0  0
 13 37  1  0  0  0  0
 14 15  1  0  0  0  0
 14 38  1  0  0  0  0
 14 39  1  0  0  0  0
 16 17  2  0  0  0  0
 18 19  1  0  0  0  0
 18 40  1  0  0  0  0
 19 24  1  0  0  0  0
 19 20  2  0  0  0  0
 20 21  1  0  0  0  0
 20 41  1  0  0  0  0
 21 22  2  0  0  0  0
 21 42  1  0  0  0  0
 22 29  1  0  0  0  0
 22 23  1  0  0  0  0
 23 24  2  0  0  0  0
 23 25  1  0  0  0  0
 24 43  1  0  0  0  0
 25 26  1  0  0  0  0
 26 27  1  0  0  0  0
 26 44  1  0  0  0  0
 26 45  1  0  0  0  0
 27 28  1  0  0  0  0
 27 46  1  0  0  0  0
 27 47  1  0  0  0  0
 28 29  1  0  0  0  0
 28 48  1  0  0  0  0
 28 49  1  0  0  0  0
M  END
> <s_m_source_file>
AV-unprocessed.smi

> <i_m_source_file_index>
31

> <i_lp_mmshare_version>
43012

> <i_f3d_flags>
0

> <s_epik_input>
TzFbQ0gyXVtDSDJdW0NIMl1PYyhjMTIpW2NIXWMoW2NIXVtjSF0yKVtOSF1DKD1PKVtDSDJdbjNjKD1PKWMoRilbY0hdbihjMz1PKVtDQEBIXTRbQ0gyXVtDSDJdW0NIMl1PNA==

> <s_epik_cmdline>
J2VwaWtfcHl0aG9uJywgJy1waCcsICc3LjAnLCAnLXRuJywgJzgnLCAnLW1hJywgJzIwMCcsICctbWV0YWxfYmluZGluZycsICctaW1hZScsICc8aW5maWxlLm1hZT4nLCAnLW9tYWUnLCAnPG91dGZpbGUubWFlPic=

> <r_lp_tautomer_probability>
1

> <r_epik_Ionization_Penalty>
1.0483e-05

> <r_epik_Ionization_Penalty_Charging>
3.88729e-08

> <r_epik_Ionization_Penalty_Neutral>
1.04441e-05

> <r_epik_State_Penalty>
-0

> <r_epik_Charging_Adjusted_Penalty>
3.88729e-08

> <i_epik_Tot_Q>
0

> <i_epik_Tot_abs_Q>
0

> <r_epik_Metal_State_Penalty>
-0

> <b_epik_Metal_Only>
0

> <s_epik_Chemistry_Notes>
This compound contains an acetal/aminal-like group ( X-CH(R)-Y where X, Y are N, S, or O) that may be acid/base labile, releasing an aldehyde.

> <s_lp_Force_Field>
OPLS_2005

> <r_lp_Energy>
45.2544

> <b_lp_Chiralities_Consistent>
1

> <s_lp_Variant>
AV-unprocessed.smi:31-1

> <Gold.Version>
5.8.1

> <Gold.Id.Protein>
6NUR|6NUR_protein|mol2

> <Gold.PLP.Fitness>
42.9600

> <Gold.PLP.PLP>
-37.6736

> <Gold.PLP.part.hbond>
-2.0000

> <Gold.PLP.part.metal>
0.0000

> <Gold.PLP.part.buried>
-6.1269

> <Gold.PLP.part.nonpolar>
-29.9971

> <Gold.PLP.part.repulsive>
0.4590

> <Gold.PLP.ligand.clash>
0.0000

> <Gold.PLP.ligand.torsion>
0.3682

> <Gold.PLP.Chemscore.Hbond>
2.0000

> <Gold.PLP.Chemscore.CHOScore>
0.0000

> <Gold.PLP.Chemscore.Metal>
0.0000

> <Gold.Chemscore.Hbonds>
donor molecule, donor type, donor heavy atom, donor atom, acceptor molecule, acceptor atom, score
      P1  H  6896  6908       L1    17  1.00
      P1  H  6931  6943       L1    15  1.00

> <Gold.PLP.Chemscore.Internal.Correction>
0.0228

> <Gold.Rescore>
     Score         DG    S(hbond)    S(metal)    S(lipo)     H(rot)  DE(clash)    DE(int)     intcor
     11.65     -17.64       1.87        0.00      86.56       1.64       0.09       5.90       ----

> <Gold.Chemscore.Fitness>
11.6477

> <Gold.Chemscore.DG>
-17.6431

> <Gold.Chemscore.ZeroCoef>
-5.4800

> <Gold.Chemscore.Hbond>
1.8686

> <Gold.Chemscore.Metal>
0.0000

> <Gold.Chemscore.Lipo>
86.5591

> <Gold.Chemscore.Internal_Hbond>
0.0000

> <Gold.Chemscore.DEClash>
0.0907

> <Gold.Chemscore.DEInternal>
5.9047

> <Gold.Chemscore.Rot>
1.6427

> <Gold.Chemscore.Internal.Correction>
   9.000000E+99

> <Gold.Chemscore.Hbonds>
donor molecule, donor type, donor heavy atom, donor atom, acceptor molecule, acceptor atom, score
      P1  H  6896  6908       L1    17  1.00
      P1  H  6931  6943       L1    15  0.30

> <Gold.Chemscore.Hbond.Weighted>
-6.2410

> <Gold.Chemscore.Metal.Weighted>
-0.0000

> <Gold.Chemscore.Lipo.Weighted>
-10.1274

> <Gold.Chemscore.Internal_Hbond.Weighted>
0.0000

> <Gold.Chemscore.DEClash.Weighted>
0.0907

> <Gold.Chemscore.DEInternal.Weighted>
5.9047

> <Gold.Chemscore.Rot.Weighted>
4.2053

> <Gold.Chemscore.Internal.Correction.Weighted>
   9.000000E+99

> <Gold.Protein.RotatedTorsions>
[ 6907 6896 6895 6894 ] final  160.61 input  -60.11 | X-H torsion
[ 7974 7965 7964 7962 ] final -127.35 input  175.53 | X-H torsion
[ 8008 7997 7996 7995 ] final   94.01 input   59.86 | X-H torsion
[ 10167 10162 10161 10158 ] final   51.80 input  -65.29 | X-H torsion
[ 10718 10713 10712 10709 ] final -107.80 input   66.30 | X-H torsion
[ 10763 10752 10751 10750 ] final  121.39 input  -60.55 | X-H torsion
[ 11005 11000 10999 10996 ] final -116.37 input  -57.11 | X-H torsion

> <Gold.Protein.ActiveResidues>
 VAL166  LYS551  ARG553  GLY616  TRP617  ASP618  TYR619  PRO620  LYS621  CYS622 
 ASP623  PHE694  ASN695  SER759  ASP760  ASP761  ALA762  ILE779  LEU786  VAL792 
 PHE793  MET794  SER795  GLU796  ALA797  LYS798  CYS799  TRP800  GLU811  SER814 

> <Gold.Protein.RotatedAtoms>
  151.9681  133.3717  159.4060 H   0  0  0  0  0  0  0  0  0  0  0  0  # atno 6907 bound_to 6896
  150.6953  134.4169  159.5196 H   0  0  0  0  0  0  0  0  0  0  0  0  # atno 6908 bound_to 6896
  152.1869  134.8706  160.0572 H   0  0  0  0  0  0  0  0  0  0  0  0  # atno 6909 bound_to 6896
  144.9780  140.7612  143.4629 H   0  0  0  0  0  0  0  0  0  0  0  0  # atno 7974 bound_to 7965
  156.0531  140.3305  155.7374 H   0  0  0  0  0  0  0  0  0  0  0  0  # atno 8008 bound_to 7997
  155.5570  140.0615  157.2855 H   0  0  0  0  0  0  0  0  0  0  0  0  # atno 8009 bound_to 7997
  154.4445  140.1884  156.0733 H   0  0  0  0  0  0  0  0  0  0  0  0  # atno 8010 bound_to 7997
  140.2581  144.3404  150.6326 H   0  0  0  0  0  0  0  0  0  0  0  0  # atno 10167 bound_to 10162
  156.0454  130.5680  150.7872 H   0  0  0  0  0  0  0  0  0  0  0  0  # atno 10718 bound_to 10713
  153.6134  135.3426  155.2986 H   0  0  0  0  0  0  0  0  0  0  0  0  # atno 10763 bound_to 10752
  154.8614  135.4255  154.2285 H   0  0  0  0  0  0  0  0  0  0  0  0  # atno 10764 bound_to 10752
  153.3141  135.7033  153.7161 H   0  0  0  0  0  0  0  0  0  0  0  0  # atno 10765 bound_to 10752
  141.0427  133.9811  157.2969 H   0  0  0  0  0  0  0  0  0  0  0  0  # atno 11005 bound_to 11000
  145.2462  139.2051  143.4966 LP  0  0  0  0  0  0  0  0  0  0  0  0  # atno 17320 bound_to 7965
  146.3400  140.2366  142.8594 LP  0  0  0  0  0  0  0  0  0  0  0  0  # atno 17321 bound_to 7965
  140.5987  143.2167  151.7113 LP  0  0  0  0  0  0  0  0  0  0  0  0  # atno 17342 bound_to 10162
  139.5025  144.3826  152.0361 LP  0  0  0  0  0  0  0  0  0  0  0  0  # atno 17343 bound_to 10162
  157.5323  131.0937  150.9939 LP  0  0  0  0  0  0  0  0  0  0  0  0  # atno 17370 bound_to 10713
  157.0242  130.5686  149.5335 LP  0  0  0  0  0  0  0  0  0  0  0  0  # atno 17371 bound_to 10713
  139.9288  135.0201  156.8327 LP  0  0  0  0  0  0  0  0  0  0  0  0  # atno 17394 bound_to 11000
  140.6205  133.9998  155.7616 LP  0  0  0  0  0  0  0  0  0  0  0  0  # atno 17395 bound_to 11000

$$$$
