AV-unprocessed.smi:2310|AV-procd|sdf|9256|dock3
  -GOLD-   2272012473D 1   1.00000     0.00000
 Structure written by MMmdl.
 45 46  0  0  0  0  0  0  0  0  1 V2000
  144.4101  135.4600  150.3626 C   0  0  0  0  0  0  0  0  0  0  0  0
  145.5508  135.7163  151.3581 C   0  0  0  0  0  0  0  0  0  0  0  0
  145.5190  137.1193  151.9929 C   0  0  1  0  0  0  0  0  0  0  0  0
  144.5715  137.1623  153.2018 C   0  0  0  0  0  0  0  0  0  0  0  0
  143.3086  136.4405  152.9775 C   0  0  0  0  0  0  0  0  0  0  0  0
  142.3160  135.8731  152.8021 N   0  0  0  0  0  0  0  0  0  0  0  0
  146.8636  137.5203  152.4097 N   0  0  0  0  0  0  0  0  0  0  0  0
  147.1589  138.5215  153.2523 C   0  0  0  0  0  0  0  0  0  0  0  0
  146.3117  139.2482  153.7707 O   0  0  0  0  0  0  0  0  0  0  0  0
  148.4872  138.6301  153.4282 N   0  0  0  0  0  0  0  0  0  0  0  0
  149.2007  139.5600  154.2361 C   0  0  0  0  0  0  0  0  0  0  0  0
  148.6493  140.7986  154.6451 C   0  0  0  0  0  0  0  0  0  0  0  0
  149.4094  141.6547  155.4627 C   0  0  0  0  0  0  0  0  0  0  0  0
  150.6965  141.2469  155.8621 C   0  0  0  0  0  0  0  0  0  0  0  0
  151.4536  142.0996  156.6798 N   0  0  0  0  0  0  0  0  0  0  0  0
  151.0691  143.5011  156.6451 C   0  0  0  0  0  0  0  0  0  0  0  0
  151.7443  144.1384  157.8618 C   0  0  0  0  0  0  0  0  0  0  0  0
  152.0078  142.9710  158.8210 C   0  0  0  0  0  0  0  0  0  0  0  0
  151.4902  141.7317  158.0855 C   0  0  0  0  0  0  0  0  0  0  0  0
  151.2277  140.0593  155.4898 N   0  0  0  0  0  0  0  0  0  0  0  0
  150.5006  139.2358  154.7030 C   0  0  0  0  0  0  0  0  0  0  0  0
  151.2009  137.9313  154.3563 C   0  0  0  0  0  0  0  0  0  0  0  0
  144.4482  134.4379  149.9855 H   0  0  0  0  0  0  0  0  0  0  0  0
  144.4674  136.1294  149.5040 H   0  0  0  0  0  0  0  0  0  0  0  0
  143.4379  135.6036  150.8347 H   0  0  0  0  0  0  0  0  0  0  0  0
  145.4938  134.9674  152.1490 H   0  0  0  0  0  0  0  0  0  0  0  0
  146.5083  135.5569  150.8604 H   0  0  0  0  0  0  0  0  0  0  0  0
  145.1273  137.8138  151.2476 H   0  0  0  0  0  0  0  0  0  0  0  0
  145.0494  136.7100  154.0711 H   0  0  0  0  0  0  0  0  0  0  0  0
  144.3311  138.1920  153.4679 H   0  0  0  0  0  0  0  0  0  0  0  0
  147.6308  136.9863  152.0285 H   0  0  0  0  0  0  0  0  0  0  0  0
  149.0606  138.0215  152.8627 H   0  0  0  0  0  0  0  0  0  0  0  0
  147.6537  141.1025  154.3617 H   0  0  0  0  0  0  0  0  0  0  0  0
  149.0052  142.6043  155.7818 H   0  0  0  0  0  0  0  0  0  0  0  0
  151.3884  143.9731  155.7155 H   0  0  0  0  0  0  0  0  0  0  0  0
  149.9858  143.6058  156.7222 H   0  0  0  0  0  0  0  0  0  0  0  0
  152.6890  144.5999  157.5715 H   0  0  0  0  0  0  0  0  0  0  0  0
  151.1199  144.9123  158.3091 H   0  0  0  0  0  0  0  0  0  0  0  0
  153.0779  142.8812  159.0118 H   0  0  0  0  0  0  0  0  0  0  0  0
  151.5091  143.1030  159.7816 H   0  0  0  0  0  0  0  0  0  0  0  0
  150.4911  141.4751  158.4408 H   0  0  0  0  0  0  0  0  0  0  0  0
  152.1368  140.8690  158.2488 H   0  0  0  0  0  0  0  0  0  0  0  0
  150.6302  137.2978  153.6788 H   0  0  0  0  0  0  0  0  0  0  0  0
  151.3923  137.3598  155.2647 H   0  0  0  0  0  0  0  0  0  0  0  0
  152.1602  138.1393  153.8810 H   0  0  0  0  0  0  0  0  0  0  0  0
  1  2  1  0  0  0  0
  1 23  1  0  0  0  0
  1 24  1  0  0  0  0
  1 25  1  0  0  0  0
  2  3  1  0  0  0  0
  2 26  1  0  0  0  0
  2 27  1  0  0  0  0
  3  4  1  0  0  0  0
  3  7  1  0  0  0  0
  3 28  1  0  0  0  0
  4  5  1  0  0  0  0
  4 29  1  0  0  0  0
  4 30  1  0  0  0  0
  5  6  3  0  0  0  0
  7  8  1  0  0  0  0
  7 31  1  0  0  0  0
  8  9  2  0  0  0  0
  8 10  1  0  0  0  0
 10 11  1  0  0  0  0
 10 32  1  0  0  0  0
 11 21  1  0  0  0  0
 11 12  2  0  0  0  0
 12 13  1  0  0  0  0
 12 33  1  0  0  0  0
 13 14  2  0  0  0  0
 13 34  1  0  0  0  0
 14 15  1  0  0  0  0
 14 20  1  0  0  0  0
 15 19  1  0  0  0  0
 15 16  1  0  0  0  0
 16 17  1  0  0  0  0
 16 35  1  0  0  0  0
 16 36  1  0  0  0  0
 17 18  1  0  0  0  0
 17 37  1  0  0  0  0
 17 38  1  0  0  0  0
 18 19  1  0  0  0  0
 18 39  1  0  0  0  0
 18 40  1  0  0  0  0
 19 41  1  0  0  0  0
 19 42  1  0  0  0  0
 20 21  2  0  0  0  0
 21 22  1  0  0  0  0
 22 43  1  0  0  0  0
 22 44  1  0  0  0  0
 22 45  1  0  0  0  0
M  END
> <s_m_source_file>
AV-unprocessed.smi

> <i_m_source_file_index>
2310

> <i_lp_mmshare_version>
43012

> <i_f3d_flags>
0

> <s_epik_input>
TiNDW0NIMl1bQ0BASF0oW0NIMl1bQ0gzXSlbTkhdQyg9TylbTkhdYzFbY0hdW2NIXWMobmMxW0NIM10pTjJbQ0gyXVtDSDJdW0NIMl1bQ0gyXTI=

> <s_epik_cmdline>
J2VwaWtfcHl0aG9uJywgJy1waCcsICc3LjAnLCAnLXRuJywgJzgnLCAnLW1hJywgJzIwMCcsICctbWV0YWxfYmluZGluZycsICctaW1hZScsICc8aW5maWxlLm1hZT4nLCAnLW9tYWUnLCAnPG91dGZpbGUubWFlPic=

> <r_lp_tautomer_probability>
1

> <r_epik_Ionization_Penalty>
0.281354

> <r_epik_Ionization_Penalty_Charging>
0

> <r_epik_Ionization_Penalty_Neutral>
0.281354

> <r_epik_State_Penalty>
0.273364

> <r_epik_Charging_Adjusted_Penalty>
0.273364

> <i_epik_Tot_Q>
0

> <i_epik_Tot_abs_Q>
0

> <r_epik_Metal_State_Penalty>
0.18752

> <b_epik_Metal_Only>
0

> <s_lp_Force_Field>
OPLS_2005

> <r_lp_Energy>
36.0303

> <b_lp_Chiralities_Consistent>
1

> <s_lp_Variant>
AV-unprocessed.smi:2310-2

> <Gold.Version>
5.8.1

> <Gold.Id.Protein>
6NUR|6NUR_protein|mol2

> <Gold.PLP.Fitness>
40.9511

> <Gold.PLP.PLP>
-38.0116

> <Gold.PLP.part.hbond>
-3.7409

> <Gold.PLP.part.metal>
0.0000

> <Gold.PLP.part.buried>
1.8142

> <Gold.PLP.part.nonpolar>
-38.2312

> <Gold.PLP.part.repulsive>
0.5347

> <Gold.PLP.ligand.clash>
0.0034

> <Gold.PLP.ligand.torsion>
1.3104

> <Gold.PLP.Chemscore.Hbond>
1.8160

> <Gold.PLP.Chemscore.CHOScore>
0.0000

> <Gold.PLP.Chemscore.Metal>
0.0000

> <Gold.Chemscore.Hbonds>
donor molecule, donor type, donor heavy atom, donor atom, acceptor molecule, acceptor atom, score
      L1  H     7    31       P1  7948  0.96
      L1  H    10    32       P1  7948  0.83

> <Gold.PLP.Chemscore.Internal.Correction>
0.1158

> <Gold.Rescore>
     Score         DG    S(hbond)    S(metal)    S(lipo)     H(rot)  DE(clash)    DE(int)     intcor
     13.65     -19.14       1.96        0.00      97.10       1.65       2.20       3.29       ----

> <Gold.Chemscore.Fitness>
13.6533

> <Gold.Chemscore.DG>
-19.1446

> <Gold.Chemscore.ZeroCoef>
-5.4800

> <Gold.Chemscore.Hbond>
1.9556

> <Gold.Chemscore.Metal>
0.0000

> <Gold.Chemscore.Lipo>
97.0989

> <Gold.Chemscore.Internal_Hbond>
0.0000

> <Gold.Chemscore.DEClash>
2.1998

> <Gold.Chemscore.DEInternal>
3.2916

> <Gold.Chemscore.Rot>
1.6514

> <Gold.Chemscore.Internal.Correction>
   9.000000E+99

> <Gold.Chemscore.Hbonds>
donor molecule, donor type, donor heavy atom, donor atom, acceptor molecule, acceptor atom, score
      L1  H     7    31       P1  7948  0.91
      L1  H    10    32       P1  7948  0.78

> <Gold.Chemscore.Hbond.Weighted>
-6.5317

> <Gold.Chemscore.Metal.Weighted>
-0.0000

> <Gold.Chemscore.Lipo.Weighted>
-11.3606

> <Gold.Chemscore.Internal_Hbond.Weighted>
0.0000

> <Gold.Chemscore.DEClash.Weighted>
2.1998

> <Gold.Chemscore.DEInternal.Weighted>
3.2916

> <Gold.Chemscore.Rot.Weighted>
4.2276

> <Gold.Chemscore.Internal.Correction.Weighted>
   9.000000E+99

> <Gold.Protein.RotatedTorsions>
[ 6907 6896 6895 6894 ] final -122.39 input  -60.11 | X-H torsion
[ 7974 7965 7964 7962 ] final  -84.71 input  175.53 | X-H torsion
[ 8008 7997 7996 7995 ] final   62.25 input   59.86 | X-H torsion
[ 10167 10162 10161 10158 ] final   41.76 input  -65.29 | X-H torsion
[ 10718 10713 10712 10709 ] final   25.14 input   66.30 | X-H torsion
[ 10763 10752 10751 10750 ] final  -57.16 input  -60.55 | X-H torsion
[ 11005 11000 10999 10996 ] final  -82.72 input  -57.11 | X-H torsion

> <Gold.Protein.ActiveResidues>
 VAL166  LYS551  ARG553  GLY616  TRP617  ASP618  TYR619  PRO620  LYS621  CYS622 
 ASP623  PHE694  ASN695  SER759  ASP760  ASP761  ALA762  ILE779  LEU786  VAL792 
 PHE793  MET794  SER795  GLU796  ALA797  LYS798  CYS799  TRP800  GLU811  SER814 

> <Gold.Protein.RotatedAtoms>
  150.8572  133.7698  159.3004 H   0  0  0  0  0  0  0  0  0  0  0  0  # atno 6907 bound_to 6896
  151.5352  135.1067  159.9922 H   0  0  0  0  0  0  0  0  0  0  0  0  # atno 6908 bound_to 6896
  152.4598  133.7755  159.6878 H   0  0  0  0  0  0  0  0  0  0  0  0  # atno 6909 bound_to 6896
  145.5030  140.9546  143.1749 H   0  0  0  0  0  0  0  0  0  0  0  0  # atno 7974 bound_to 7965
  155.6113  140.3495  155.4623 H   0  0  0  0  0  0  0  0  0  0  0  0  # atno 8008 bound_to 7997
  156.0152  140.1241  157.0438 H   0  0  0  0  0  0  0  0  0  0  0  0  # atno 8009 bound_to 7997
  154.4295  140.1073  156.5871 H   0  0  0  0  0  0  0  0  0  0  0  0  # atno 8010 bound_to 7997
  140.3612  144.2226  150.6138 H   0  0  0  0  0  0  0  0  0  0  0  0  # atno 10167 bound_to 10162
  157.1893  130.6838  149.6143 H   0  0  0  0  0  0  0  0  0  0  0  0  # atno 10718 bound_to 10713
  154.2180  135.6383  153.5136 H   0  0  0  0  0  0  0  0  0  0  0  0  # atno 10763 bound_to 10752
  152.9975  135.5490  154.6144 H   0  0  0  0  0  0  0  0  0  0  0  0  # atno 10764 bound_to 10752
  154.5597  135.2908  155.0904 H   0  0  0  0  0  0  0  0  0  0  0  0  # atno 10765 bound_to 10752
  141.1662  133.7258  156.8613 H   0  0  0  0  0  0  0  0  0  0  0  0  # atno 11005 bound_to 11000
  144.7769  139.6610  143.7171 LP  0  0  0  0  0  0  0  0  0  0  0  0  # atno 17320 bound_to 7965
  146.2214  139.5643  142.9616 LP  0  0  0  0  0  0  0  0  0  0  0  0  # atno 17321 bound_to 7965
  140.5125  143.2287  151.8513 LP  0  0  0  0  0  0  0  0  0  0  0  0  # atno 17342 bound_to 10162
  139.4814  144.4932  151.9157 LP  0  0  0  0  0  0  0  0  0  0  0  0  # atno 17343 bound_to 10162
  155.9714  130.4620  150.6130 LP  0  0  0  0  0  0  0  0  0  0  0  0  # atno 17370 bound_to 10713
  157.3877  131.0791  151.1422 LP  0  0  0  0  0  0  0  0  0  0  0  0  # atno 17371 bound_to 10713
  140.1846  134.9009  157.2989 LP  0  0  0  0  0  0  0  0  0  0  0  0  # atno 17394 bound_to 11000
  140.2357  134.3856  155.7502 LP  0  0  0  0  0  0  0  0  0  0  0  0  # atno 17395 bound_to 11000

$$$$
