AV-unprocessed.smi:1641|AV-procd|sdf|6561|dock9
  -GOLD-   22720 7243D 1   1.00000     0.00000
 Structure written by MMmdl.
 42 43  0  0  0  0  0  0  0  0  2 V2000
  136.3394  138.5674  154.2219 C   0  0  0  0  0  0  0  0  0  0  0  0
  137.7715  138.8410  153.9129 C   0  0  0  0  0  0  0  0  0  0  0  0
  138.3117  140.0629  153.9972 N   0  0  0  0  0  0  0  0  0  0  0  0
  139.6563  140.0683  153.6541 N   0  0  0  0  0  0  0  0  0  0  0  0
  140.0917  138.8456  153.3202 C   0  0  0  0  0  0  0  0  0  0  0  0
  141.4248  138.5659  152.9187 N   0  0  0  0  0  0  0  0  0  0  0  0
  142.1087  137.4159  153.0508 C   0  0  0  0  0  0  0  0  0  0  0  0
  141.6665  136.3740  153.5358 O   0  0  0  0  0  0  0  0  0  0  0  0
  143.3609  137.5359  152.5865 N   0  0  0  0  0  0  0  0  0  0  0  0
  144.3535  136.4676  152.5931 C   0  0  0  0  0  0  0  0  0  0  0  0
  143.7640  135.1430  152.0702 C   0  0  0  0  0  0  0  0  0  0  0  0
  144.8140  134.1938  151.6259 N   0  3  1  0  0  0  0  0  0  0  0  0
  145.9840  134.1807  152.5337 C   0  0  0  0  0  0  0  0  0  0  0  0
  147.0887  133.2662  151.9750 C   0  0  1  0  0  0  0  0  0  0  0  0
  148.2810  133.1568  152.9315 C   0  0  0  0  0  0  0  0  0  0  0  0
  146.5646  131.9557  151.7763 O   0  0  0  0  0  0  0  0  0  0  0  0
  145.4335  131.8856  150.9081 C   0  0  2  0  0  0  0  0  0  0  0  0
  145.8112  132.1298  149.4361 C   0  0  0  0  0  0  0  0  0  0  0  0
  144.3126  132.8128  151.4172 C   0  0  0  0  0  0  0  0  0  0  0  0
  138.8830  137.5755  153.4044 S   0  0  0  0  0  0  0  0  0  0  0  0
  135.8251  139.4847  154.5105 H   0  0  0  0  0  0  0  0  0  0  0  0
  136.2652  137.8524  155.0413 H   0  0  0  0  0  0  0  0  0  0  0  0
  135.8434  138.1503  153.3453 H   0  0  0  0  0  0  0  0  0  0  0  0
  141.9187  139.3374  152.4950 H   0  0  0  0  0  0  0  0  0  0  0  0
  143.6448  138.4240  152.1982 H   0  0  0  0  0  0  0  0  0  0  0  0
  145.2166  136.7828  152.0061 H   0  0  0  0  0  0  0  0  0  0  0  0
  144.7055  136.3382  153.6169 H   0  0  0  0  0  0  0  0  0  0  0  0
  143.1890  134.6880  152.8782 H   0  0  0  0  0  0  0  0  0  0  0  0
  143.0619  135.3159  151.2530 H   0  0  0  0  0  0  0  0  0  0  0  0
  146.3733  135.1932  152.6486 H   0  0  0  0  0  0  0  0  0  0  0  0
  145.6734  133.8423  153.5238 H   0  0  0  0  0  0  0  0  0  0  0  0
  147.4511  133.6662  151.0279 H   0  0  0  0  0  0  0  0  0  0  0  0
  148.7326  134.1330  153.1105 H   0  0  0  0  0  0  0  0  0  0  0  0
  149.0518  132.5048  152.5200 H   0  0  0  0  0  0  0  0  0  0  0  0
  147.9782  132.7464  153.8953 H   0  0  0  0  0  0  0  0  0  0  0  0
  145.0690  130.8600  150.9725 H   0  0  0  0  0  0  0  0  0  0  0  0
  144.9601  131.9378  148.7824 H   0  0  0  0  0  0  0  0  0  0  0  0
  146.6187  131.4658  149.1268 H   0  0  0  0  0  0  0  0  0  0  0  0
  146.1326  133.1550  149.2542 H   0  0  0  0  0  0  0  0  0  0  0  0
  143.9239  132.4298  152.3623 H   0  0  0  0  0  0  0  0  0  0  0  0
  143.4827  132.8008  150.7114 H   0  0  0  0  0  0  0  0  0  0  0  0
  145.1493  134.5281  150.7338 H   0  0  0  0  0  0  0  0  0  0  0  0
  1  2  1  0  0  0  0
  1 21  1  0  0  0  0
  1 22  1  0  0  0  0
  1 23  1  0  0  0  0
  2 20  1  0  0  0  0
  2  3  2  0  0  0  0
  3  4  1  0  0  0  0
  4  5  2  0  0  0  0
  5  6  1  0  0  0  0
  5 20  1  0  0  0  0
  6  7  1  0  0  0  0
  6 24  1  0  0  0  0
  7  8  2  0  0  0  0
  7  9  1  0  0  0  0
  9 10  1  0  0  0  0
  9 25  1  0  0  0  0
 10 11  1  0  0  0  0
 10 26  1  0  0  0  0
 10 27  1  0  0  0  0
 11 12  1  0  0  0  0
 11 28  1  0  0  0  0
 11 29  1  0  0  0  0
 12 19  1  0  0  0  0
 12 13  1  0  0  0  0
 12 42  1  0  0  0  0
 13 14  1  0  0  0  0
 13 30  1  0  0  0  0
 13 31  1  0  0  0  0
 14 15  1  0  0  0  0
 14 16  1  0  0  0  0
 14 32  1  0  0  0  0
 15 33  1  0  0  0  0
 15 34  1  0  0  0  0
 15 35  1  0  0  0  0
 16 17  1  0  0  0  0
 17 18  1  0  0  0  0
 17 19  1  0  0  0  0
 17 36  1  0  0  0  0
 18 37  1  0  0  0  0
 18 38  1  0  0  0  0
 18 39  1  0  0  0  0
 19 40  1  0  0  0  0
 19 41  1  0  0  0  0
M  CHG  1  12   1
M  END
> <s_m_source_file>
AV-unprocessed.smi

> <i_m_source_file_index>
1641

> <i_lp_mmshare_version>
43012

> <i_f3d_flags>
0

> <s_epik_input>
W0NIM11jMW5uYyhzMSlbTkhdQyg9TylbTkhdW0NIMl1bQ0gyXU4yW0NIMl1bQ0BASF0oW0NIM10pT1tDQEBIXShbQ0gzXSlbQ0gyXTI=

> <s_epik_cmdline>
J2VwaWtfcHl0aG9uJywgJy1waCcsICc3LjAnLCAnLXRuJywgJzgnLCAnLW1hJywgJzIwMCcsICctbWV0YWxfYmluZGluZycsICctaW1hZScsICc8aW5maWxlLm1hZT4nLCAnLW9tYWUnLCAnPG91dGZpbGUubWFlPic=

> <r_lp_tautomer_probability>
1

> <r_epik_Ionization_Penalty>
0.700114

> <r_epik_Ionization_Penalty_Charging>
0.695697

> <r_epik_Ionization_Penalty_Neutral>
0.00441638

> <r_epik_State_Penalty>
0.717972

> <r_epik_Charging_Adjusted_Penalty>
1.41367

> <i_epik_Tot_Q>
1

> <i_epik_Tot_abs_Q>
1

> <r_epik_Metal_State_Penalty>
1.06958

> <b_epik_Metal_Only>
0

> <s_lp_Force_Field>
OPLS_2005

> <r_lp_Energy>
15.7554

> <b_lp_Chiralities_Consistent>
1

> <s_lp_Variant>
AV-unprocessed.smi:1641-6

> <Gold.Version>
5.8.1

> <Gold.Id.Protein>
6NUR|6NUR_protein|mol2

> <Gold.PLP.Fitness>
40.0605

> <Gold.PLP.PLP>
-35.0788

> <Gold.PLP.part.hbond>
-3.5534

> <Gold.PLP.part.metal>
0.0000

> <Gold.PLP.part.buried>
-6.3667

> <Gold.PLP.part.nonpolar>
-26.4275

> <Gold.PLP.part.repulsive>
1.2036

> <Gold.PLP.ligand.clash>
0.0000

> <Gold.PLP.ligand.torsion>
0.4661

> <Gold.PLP.Chemscore.Hbond>
1.9675

> <Gold.PLP.Chemscore.CHOScore>
0.0000

> <Gold.PLP.Chemscore.Metal>
0.0000

> <Gold.Chemscore.Hbonds>
donor molecule, donor type, donor heavy atom, donor atom, acceptor molecule, acceptor atom, score
      L1  H     6    24       P1 10175  0.96
      L1  H     9    25       P1 10175  0.91

> <Gold.PLP.Chemscore.Internal.Correction>
0.0116

> <Gold.Rescore>
     Score         DG    S(hbond)    S(metal)    S(lipo)     H(rot)  DE(clash)    DE(int)     intcor
     13.10     -15.71       1.82        0.00      71.32       1.64       0.13       2.48       ----

> <Gold.Chemscore.Fitness>
13.1036

> <Gold.Chemscore.DG>
-15.7084

> <Gold.Chemscore.ZeroCoef>
-5.4800

> <Gold.Chemscore.Hbond>
1.8178

> <Gold.Chemscore.Metal>
0.0000

> <Gold.Chemscore.Lipo>
71.3223

> <Gold.Chemscore.Internal_Hbond>
0.0000

> <Gold.Chemscore.DEClash>
0.1258

> <Gold.Chemscore.DEInternal>
2.4789

> <Gold.Chemscore.Rot>
1.6358

> <Gold.Chemscore.Internal.Correction>
   9.000000E+99

> <Gold.Chemscore.Hbonds>
donor molecule, donor type, donor heavy atom, donor atom, acceptor molecule, acceptor atom, score
      L1  H     6    24       P1 10175  0.45
      L1  H     9    25       P1 10175  0.85

> <Gold.Chemscore.Hbond.Weighted>
-6.0714

> <Gold.Chemscore.Metal.Weighted>
-0.0000

> <Gold.Chemscore.Lipo.Weighted>
-8.3447

> <Gold.Chemscore.Internal_Hbond.Weighted>
0.0000

> <Gold.Chemscore.DEClash.Weighted>
0.1258

> <Gold.Chemscore.DEInternal.Weighted>
2.4789

> <Gold.Chemscore.Rot.Weighted>
4.1878

> <Gold.Chemscore.Internal.Correction.Weighted>
   9.000000E+99

> <Gold.Protein.RotatedTorsions>
[ 6907 6896 6895 6894 ] final   26.69 input  -60.11 | X-H torsion
[ 7974 7965 7964 7962 ] final  -97.56 input  175.53 | X-H torsion
[ 8008 7997 7996 7995 ] final  -88.37 input   59.86 | X-H torsion
[ 10167 10162 10161 10158 ] final -173.00 input  -65.29 | X-H torsion
[ 10718 10713 10712 10709 ] final  169.24 input   66.30 | X-H torsion
[ 10763 10752 10751 10750 ] final   52.52 input  -60.55 | X-H torsion
[ 11005 11000 10999 10996 ] final -149.18 input  -57.11 | X-H torsion

> <Gold.Protein.ActiveResidues>
 VAL166  LYS551  ARG553  GLY616  TRP617  ASP618  TYR619  PRO620  LYS621  CYS622 
 ASP623  PHE694  ASN695  SER759  ASP760  ASP761  ALA762  ILE779  LEU786  VAL792 
 PHE793  MET794  SER795  GLU796  ALA797  LYS798  CYS799  TRP800  GLU811  SER814 

> <Gold.Protein.RotatedAtoms>
  151.9913  134.9978  160.0561 H   0  0  0  0  0  0  0  0  0  0  0  0  # atno 6907 bound_to 6896
  152.1606  133.4574  159.4867 H   0  0  0  0  0  0  0  0  0  0  0  0  # atno 6908 bound_to 6896
  150.6887  134.1994  159.4359 H   0  0  0  0  0  0  0  0  0  0  0  0  # atno 6909 bound_to 6896
  145.3321  140.9443  143.2656 H   0  0  0  0  0  0  0  0  0  0  0  0  # atno 7974 bound_to 7965
  154.6740  140.0554  157.0196 H   0  0  0  0  0  0  0  0  0  0  0  0  # atno 8008 bound_to 7997
  155.1047  140.3232  155.4519 H   0  0  0  0  0  0  0  0  0  0  0  0  # atno 8009 bound_to 7997
  156.2669  140.2025  156.6172 H   0  0  0  0  0  0  0  0  0  0  0  0  # atno 8010 bound_to 7997
  139.5712  144.1636  152.1387 H   0  0  0  0  0  0  0  0  0  0  0  0  # atno 10167 bound_to 10162
  157.0256  131.0244  151.2761 H   0  0  0  0  0  0  0  0  0  0  0  0  # atno 10718 bound_to 10713
  152.9789  135.5810  154.4591 H   0  0  0  0  0  0  0  0  0  0  0  0  # atno 10763 bound_to 10752
  154.4170  135.2771  155.2002 H   0  0  0  0  0  0  0  0  0  0  0  0  # atno 10764 bound_to 10752
  154.3768  135.6155  153.5823 H   0  0  0  0  0  0  0  0  0  0  0  0  # atno 10765 bound_to 10752
  140.7535  134.3379  157.5120 H   0  0  0  0  0  0  0  0  0  0  0  0  # atno 11005 bound_to 11000
  144.8856  139.4844  143.6702 LP  0  0  0  0  0  0  0  0  0  0  0  0  # atno 17320 bound_to 7965
  146.3041  139.7523  142.9069 LP  0  0  0  0  0  0  0  0  0  0  0  0  # atno 17321 bound_to 7965
  140.1170  144.5407  150.6888 LP  0  0  0  0  0  0  0  0  0  0  0  0  # atno 17342 bound_to 10162
  140.6997  143.2426  151.4900 LP  0  0  0  0  0  0  0  0  0  0  0  0  # atno 17343 bound_to 10162
  157.5217  130.8002  149.7816 LP  0  0  0  0  0  0  0  0  0  0  0  0  # atno 17370 bound_to 10713
  156.0087  130.3843  150.2339 LP  0  0  0  0  0  0  0  0  0  0  0  0  # atno 17371 bound_to 10713
  139.8783  134.9157  156.3137 LP  0  0  0  0  0  0  0  0  0  0  0  0  # atno 17394 bound_to 11000
  140.9729  133.7316  156.0560 LP  0  0  0  0  0  0  0  0  0  0  0  0  # atno 17395 bound_to 11000

$$$$
