#       Name:                AV-unprocessed.smi:1692
#       Creating user name   scv26
#       Creation time:       Fri Mar 27 07:53:50 2020


#       File generated by GOLD software.
#

@<TRIPOS>MOLECULE
AV-unprocessed.smi:1692
    51    52     1
SMALL
NO_CHARGES


@<TRIPOS>ATOM
      1 ****        -1.7269   4.0046   0.6803 C.3            1 S1                 0.0000
      2 ****        -2.0558   3.2415  -0.6154 C.3            1 S1                 0.0000
      3 ****        -1.4827   1.8114  -0.6500 C.3            1 S1                 0.0000
      4 ****        -0.0155   1.8256  -0.8610 N.4            1 S1                 1.0000
      5 ****         0.5704   0.4622  -0.8362 C.3            1 S1                 0.0000
      6 ****         2.0706   0.4699  -0.4835 C.3            1 S1                 0.0000
      7 ****         2.7175  -0.9278  -0.4595 C.3            1 S1                 0.0000
      8 ****         2.2151  -1.7658   0.6265 N.am           1 S1                 0.0000
      9 ****         1.2285  -2.6683   0.5180 C.2            1 S1                 0.0000
     10 ****         0.6045  -2.8660  -0.5250 O.2            1 S1                 0.0000
     11 ****         1.0193  -3.3068   1.6828 N.am           1 S1                 0.0000
     12 ****         0.0568  -4.3115   1.9709 C.ar           1 S1                 0.0000
     13 ****         0.1082  -4.8313   3.2841 C.ar           1 S1                 0.0000
     14 ****        -0.8042  -5.8326   3.6693 C.ar           1 S1                 0.0000
     15 ****        -1.7469  -6.2880   2.7304 C.ar           1 S1                 0.0000
     16 ****        -1.7321  -5.7161   1.4449 C.ar           1 S1                 0.0000
     17 ****        -0.8588  -4.7560   1.0739 N.ar           1 S1                 0.0000
     18 ****         0.3188   2.5923  -2.0854 C.3            1 S1                 0.0000
     19 ****        -0.2504   4.0200  -1.9987 C.3            1 S1                 0.0000
     20 ****        -0.0068   4.8146  -3.2867 C.3            1 S1                 0.0000
     21 ****        -1.6579   3.9597  -1.7829 O.3            1 S1                 0.0000
     22 ****        -2.1599   3.5012   1.5451 H              1 S1                 0.0000
     23 ****        -2.1353   5.0149   0.6505 H              1 S1                 0.0000
     24 ****        -0.6544   4.0824   0.8555 H              1 S1                 0.0000
     25 ****        -3.1422   3.1636  -0.6664 H              1 S1                 0.0000
     26 ****        -1.7264   1.2930   0.2784 H              1 S1                 0.0000
     27 ****        -1.9510   1.2471  -1.4584 H              1 S1                 0.0000
     28 ****         0.0444  -0.1225  -0.0815 H              1 S1                 0.0000
     29 ****         0.3962  -0.0375  -1.7903 H              1 S1                 0.0000
     30 ****         2.6163   1.0725  -1.2087 H              1 S1                 0.0000
     31 ****         2.2176   0.9550   0.4824 H              1 S1                 0.0000
     32 ****         2.5934  -1.4215  -1.4249 H              1 S1                 0.0000
     33 ****         3.7928  -0.8205  -0.3143 H              1 S1                 0.0000
     34 ****         2.6728  -1.6694   1.5214 H              1 S1                 0.0000
     35 ****         1.6189  -3.0483   2.4523 H              1 S1                 0.0000
     36 ****         0.8399  -4.4709   3.9929 H              1 S1                 0.0000
     37 ****        -0.7796  -6.2438   4.6677 H              1 S1                 0.0000
     38 ****        -2.4623  -7.0549   2.9878 H              1 S1                 0.0000
     39 ****        -2.4392  -6.0377   0.6946 H              1 S1                 0.0000
     40 ****         1.3988   2.6453  -2.2187 H              1 S1                 0.0000
     41 ****        -0.0848   2.0773  -2.9588 H              1 S1                 0.0000
     42 ****         0.2259   4.5558  -1.1775 H              1 S1                 0.0000
     43 ****         1.0591   4.9020  -3.4992 H              1 S1                 0.0000
     44 ****        -0.4126   5.8231  -3.2044 H              1 S1                 0.0000
     45 ****        -0.4807   4.3344  -4.1433 H              1 S1                 0.0000
     46 ****         0.3787   2.3257  -0.0770 H              1 S1                 0.0000
     47 ****         0.8249  -2.3404  -1.3468 LP             1 S1                 0.0000
     48 ****        -0.1226  -3.5520  -0.5503 LP             1 S1                 0.0000
     49 ****        -0.8864  -4.3769   0.1489 LP             1 S1                 0.0000
     50 ****        -2.0005   4.8959  -1.7038 LP             1 S1                 0.0000
     51 ****        -2.0754   3.5179  -2.5770 LP             1 S1                 0.0000
@<TRIPOS>BOND
    1    1    2 1     
    2    1   22 1     
    3    1   23 1     
    4    1   24 1     
    5    2   21 1     
    6    2    3 1     
    7    2   25 1     
    8    3    4 1     
    9    3   26 1     
   10    3   27 1     
   11    4    5 1     
   12    4   18 1     
   13    4   46 1     
   14    5    6 1     
   15    5   28 1     
   16    5   29 1     
   17    6    7 1     
   18    6   30 1     
   19    6   31 1     
   20    7    8 1     
   21    7   32 1     
   22    7   33 1     
   23    8    9 am    
   24    8   34 1     
   25    9   10 2     
   26    9   11 am    
   27   11   12 1     
   28   11   35 1     
   29   12   17 ar    
   30   12   13 ar    
   31   13   14 ar    
   32   13   36 1     
   33   14   15 ar    
   34   14   37 1     
   35   15   16 ar    
   36   15   38 1     
   37   16   17 ar    
   38   16   39 1     
   39   18   19 1     
   40   18   40 1     
   41   18   41 1     
   42   19   20 1     
   43   19   21 1     
   44   19   42 1     
   45   20   43 1     
   46   20   44 1     
   47   20   45 1     
   48   10   47 1     
   49   10   48 1     
   50   17   49 1     
   51   21   50 1     
   52   21   51 1     
@<TRIPOS>SUBSTRUCTURE
      1 S1             1
@<TRIPOS>SET
LONE_PAIRS      STATIC     ATOMS    <user>   **** ""
5 47 48 49 50 51
DONOR_HYDROGENS      STATIC     ATOMS    <user>   **** ""
3 46 34 35
ATOM$BLUE        STATIC     ATOMS    COLORGROUP SYSTEM
5 47 48 49 50 51
ATOM$RED        STATIC     ATOMS    COLORGROUP SYSTEM
3 46 34 35
