AV-unprocessed.smi:1065|AV-procd|sdf|4667|dock9
  -GOLD-   22720 3183D 1   1.00000     0.00000
 Structure written by MMmdl.
 39 40  0  0  0  0  0  0  0  0  1 V2000
  153.6796  141.8934  161.9632 C   0  0  0  0  0  0  0  0  0  0  0  0
  153.7061  142.3899  160.5109 C   0  0  0  0  0  0  0  0  0  0  0  0
  152.3596  142.2494  159.7720 C   0  0  2  0  0  0  0  0  0  0  0  0
  152.1062  140.7813  159.3735 C   0  0  0  0  0  0  0  0  0  0  0  0
  150.7710  140.6079  158.6277 C   0  0  0  0  0  0  0  0  0  0  0  0
  150.6640  141.5180  157.3878 C   0  0  2  0  0  0  0  0  0  0  0  0
  151.5526  141.0235  156.2254 C   0  0  0  0  0  0  0  0  0  0  0  0
  151.4223  139.5850  156.0375 N   0  0  0  0  0  0  0  0  0  0  0  0
  150.8144  138.9960  154.9976 C   0  0  0  0  0  0  0  0  0  0  0  0
  150.3506  139.6155  154.0409 O   0  0  0  0  0  0  0  0  0  0  0  0
  150.7032  137.4720  155.0502 C   0  0  0  0  0  0  0  0  0  0  0  0
  151.1332  136.9661  156.3409 N   0  0  0  0  0  0  0  0  0  0  0  0
  150.5946  137.0912  157.5557 C   0  0  0  0  0  0  0  0  0  0  0  0
  151.3266  136.4867  158.4790 N   0  0  0  0  0  0  0  0  0  0  0  0
  152.3813  135.9613  157.7508 N   0  0  0  0  0  0  0  0  0  0  0  0
  152.2724  136.2427  156.4816 N   0  0  0  0  0  0  0  0  0  0  0  0
  150.9284  142.9857  157.7930 C   0  0  0  0  0  0  0  0  0  0  0  0
  152.2681  143.1600  158.5286 C   0  0  0  0  0  0  0  0  0  0  0  0
  154.6752  141.9437  162.4047 H   0  0  0  0  0  0  0  0  0  0  0  0
  153.3447  140.8574  162.0199 H   0  0  0  0  0  0  0  0  0  0  0  0
  153.0185  142.4967  162.5849 H   0  0  0  0  0  0  0  0  0  0  0  0
  154.0374  143.4288  160.4859 H   0  0  0  0  0  0  0  0  0  0  0  0
  154.4657  141.8196  159.9752 H   0  0  0  0  0  0  0  0  0  0  0  0
  151.5678  142.5418  160.4633 H   0  0  0  0  0  0  0  0  0  0  0  0
  152.9269  140.4189  158.7536 H   0  0  0  0  0  0  0  0  0  0  0  0
  152.1017  140.1520  160.2642 H   0  0  0  0  0  0  0  0  0  0  0  0
  150.6363  139.5640  158.3429 H   0  0  0  0  0  0  0  0  0  0  0  0
  149.9535  140.8404  159.3113 H   0  0  0  0  0  0  0  0  0  0  0  0
  149.6325  141.4602  157.0363 H   0  0  0  0  0  0  0  0  0  0  0  0
  151.2950  141.5405  155.3002 H   0  0  0  0  0  0  0  0  0  0  0  0
  152.5992  141.2505  156.4311 H   0  0  0  0  0  0  0  0  0  0  0  0
  151.7779  138.9951  156.7762 H   0  0  0  0  0  0  0  0  0  0  0  0
  149.6711  137.1633  154.8800 H   0  0  0  0  0  0  0  0  0  0  0  0
  151.3105  137.0258  154.2611 H   0  0  0  0  0  0  0  0  0  0  0  0
  149.6788  137.6259  157.7617 H   0  0  0  0  0  0  0  0  0  0  0  0
  150.8923  143.6452  156.9254 H   0  0  0  0  0  0  0  0  0  0  0  0
  150.1239  143.3208  158.4489 H   0  0  0  0  0  0  0  0  0  0  0  0
  152.3720  144.2057  158.8172 H   0  0  0  0  0  0  0  0  0  0  0  0
  153.0942  142.9487  157.8489 H   0  0  0  0  0  0  0  0  0  0  0  0
  1  2  1  0  0  0  0
  1 19  1  0  0  0  0
  1 20  1  0  0  0  0
  1 21  1  0  0  0  0
  2  3  1  0  0  0  0
  2 22  1  0  0  0  0
  2 23  1  0  0  0  0
  3 18  1  0  0  0  0
  3  4  1  0  0  0  0
  3 24  1  0  0  0  0
  4  5  1  0  0  0  0
  4 25  1  0  0  0  0
  4 26  1  0  0  0  0
  5  6  1  0  0  0  0
  5 27  1  0  0  0  0
  5 28  1  0  0  0  0
  6  7  1  0  0  0  0
  6 17  1  0  0  0  0
  6 29  1  0  0  0  0
  7  8  1  0  0  0  0
  7 30  1  0  0  0  0
  7 31  1  0  0  0  0
  8  9  1  0  0  0  0
  8 32  1  0  0  0  0
  9 10  2  0  0  0  0
  9 11  1  0  0  0  0
 11 12  1  0  0  0  0
 11 33  1  0  0  0  0
 11 34  1  0  0  0  0
 12 16  1  0  0  0  0
 12 13  1  0  0  0  0
 13 14  2  0  0  0  0
 13 35  1  0  0  0  0
 14 15  1  0  0  0  0
 15 16  2  0  0  0  0
 17 18  1  0  0  0  0
 17 36  1  0  0  0  0
 17 37  1  0  0  0  0
 18 38  1  0  0  0  0
 18 39  1  0  0  0  0
M  END
> <s_m_source_file>
AV-unprocessed.smi

> <i_m_source_file_index>
1065

> <i_lp_mmshare_version>
43012

> <i_f3d_flags>
0

> <s_epik_input>
W0NIM11bQ0gyXVtDQEBIXTFbQ0gyXVtDSDJdW0NASF0oW0NIMl1bQ0gyXTEpW0NIMl1bTkhdQyg9TylbQ0gyXW4yW2NIXW5ubjI=

> <s_epik_cmdline>
J2VwaWtfcHl0aG9uJywgJy1waCcsICc3LjAnLCAnLXRuJywgJzgnLCAnLW1hJywgJzIwMCcsICctbWV0YWxfYmluZGluZycsICctaW1hZScsICc8aW5maWxlLm1hZT4nLCAnLW9tYWUnLCAnPG91dGZpbGUubWFlPic=

> <r_lp_tautomer_probability>
1

> <r_epik_Ionization_Penalty>
4.54759e-07

> <r_epik_Ionization_Penalty_Charging>
0

> <r_epik_Ionization_Penalty_Neutral>
4.54759e-07

> <r_epik_State_Penalty>
-0

> <r_epik_Charging_Adjusted_Penalty>
0

> <i_epik_Tot_Q>
0

> <i_epik_Tot_abs_Q>
0

> <r_epik_Metal_State_Penalty>
-0

> <b_epik_Metal_Only>
0

> <s_lp_Force_Field>
OPLS_2005

> <r_lp_Energy>
15.297

> <b_lp_Chiralities_Consistent>
1

> <s_lp_Variant>
AV-unprocessed.smi:1065-2

> <Gold.Version>
5.8.1

> <Gold.Id.Protein>
6NUR|6NUR_protein|mol2

> <Gold.PLP.Fitness>
40.3980

> <Gold.PLP.PLP>
-33.2184

> <Gold.PLP.part.hbond>
-4.0000

> <Gold.PLP.part.metal>
0.0000

> <Gold.PLP.part.buried>
-5.5055

> <Gold.PLP.part.nonpolar>
-24.1435

> <Gold.PLP.part.repulsive>
1.0206

> <Gold.PLP.ligand.clash>
0.0000

> <Gold.PLP.ligand.torsion>
0.4047

> <Gold.PLP.Chemscore.Hbond>
2.6560

> <Gold.PLP.Chemscore.CHOScore>
0.0000

> <Gold.PLP.Chemscore.Metal>
0.0000

> <Gold.Chemscore.Hbonds>
donor molecule, donor type, donor heavy atom, donor atom, acceptor molecule, acceptor atom, score
      P1  H  6896  6909       L1    14  0.62
      P1  H  7989  7998       L1    10  1.00
      P1  H 10752 10763       L1    16  1.00

> <Gold.PLP.Chemscore.Internal.Correction>
0.0210

> <Gold.Rescore>
     Score         DG    S(hbond)    S(metal)    S(lipo)     H(rot)  DE(clash)    DE(int)     intcor
     14.78     -15.96       2.17        0.00      81.34       2.45       0.63       0.55       ----

> <Gold.Chemscore.Fitness>
14.7823

> <Gold.Chemscore.DG>
-15.9622

> <Gold.Chemscore.ZeroCoef>
-5.4800

> <Gold.Chemscore.Hbond>
2.1679

> <Gold.Chemscore.Metal>
0.0000

> <Gold.Chemscore.Lipo>
81.3373

> <Gold.Chemscore.Internal_Hbond>
0.0000

> <Gold.Chemscore.DEClash>
0.6347

> <Gold.Chemscore.DEInternal>
0.5452

> <Gold.Chemscore.Rot>
2.4512

> <Gold.Chemscore.Internal.Correction>
   9.000000E+99

> <Gold.Chemscore.Hbonds>
donor molecule, donor type, donor heavy atom, donor atom, acceptor molecule, acceptor atom, score
      P1  H  6896  6909       L1    14  0.12
      P1  H  7989  7998       L1    10  0.69
      P1  H 10752 10763       L1    16  0.99

> <Gold.Chemscore.Hbond.Weighted>
-7.2408

> <Gold.Chemscore.Metal.Weighted>
-0.0000

> <Gold.Chemscore.Lipo.Weighted>
-9.5165

> <Gold.Chemscore.Internal_Hbond.Weighted>
0.0000

> <Gold.Chemscore.DEClash.Weighted>
0.6347

> <Gold.Chemscore.DEInternal.Weighted>
0.5452

> <Gold.Chemscore.Rot.Weighted>
6.2750

> <Gold.Chemscore.Internal.Correction.Weighted>
   9.000000E+99

> <Gold.Protein.RotatedTorsions>
[ 6907 6896 6895 6894 ] final   98.03 input  -60.11 | X-H torsion
[ 7974 7965 7964 7962 ] final   37.95 input  175.53 | X-H torsion
[ 8008 7997 7996 7995 ] final  170.53 input   59.86 | X-H torsion
[ 10167 10162 10161 10158 ] final   56.30 input  -65.29 | X-H torsion
[ 10718 10713 10712 10709 ] final  -45.02 input   66.30 | X-H torsion
[ 10763 10752 10751 10750 ] final  101.75 input  -60.55 | X-H torsion
[ 11005 11000 10999 10996 ] final  -52.61 input  -57.11 | X-H torsion

> <Gold.Protein.ActiveResidues>
 VAL166  LYS551  ARG553  GLY616  TRP617  ASP618  TYR619  PRO620  LYS621  CYS622 
 ASP623  PHE694  ASN695  SER759  ASP760  ASP761  ALA762  ILE779  LEU786  VAL792 
 PHE793  MET794  SER795  GLU796  ALA797  LYS798  CYS799  TRP800  GLU811  SER814 

> <Gold.Protein.RotatedAtoms>
  152.5415  134.0642  159.8165 H   0  0  0  0  0  0  0  0  0  0  0  0  # atno 6907 bound_to 6896
  151.0765  133.5416  159.2631 H   0  0  0  0  0  0  0  0  0  0  0  0  # atno 6908 bound_to 6896
  151.2259  135.0544  159.9022 H   0  0  0  0  0  0  0  0  0  0  0  0  # atno 6909 bound_to 6896
  146.1099  139.5831  142.9359 H   0  0  0  0  0  0  0  0  0  0  0  0  # atno 7974 bound_to 7965
  156.1357  140.1535  156.8998 H   0  0  0  0  0  0  0  0  0  0  0  0  # atno 8008 bound_to 7997
  154.4945  140.0842  156.7706 H   0  0  0  0  0  0  0  0  0  0  0  0  # atno 8009 bound_to 7997
  155.4174  140.3421  155.4270 H   0  0  0  0  0  0  0  0  0  0  0  0  # atno 8010 bound_to 7997
  140.2102  144.3896  150.6492 H   0  0  0  0  0  0  0  0  0  0  0  0  # atno 10167 bound_to 10162
  156.2326  130.4174  149.8856 H   0  0  0  0  0  0  0  0  0  0  0  0  # atno 10718 bound_to 10713
  153.3307  135.4034  155.1493 H   0  0  0  0  0  0  0  0  0  0  0  0  # atno 10763 bound_to 10752
  154.8622  135.3610  154.5474 H   0  0  0  0  0  0  0  0  0  0  0  0  # atno 10764 bound_to 10752
  153.5913  135.7074  153.5481 H   0  0  0  0  0  0  0  0  0  0  0  0  # atno 10765 bound_to 10752
  141.0933  133.6629  156.4050 H   0  0  0  0  0  0  0  0  0  0  0  0  # atno 11005 bound_to 11000
  145.5685  141.0397  143.2187 LP  0  0  0  0  0  0  0  0  0  0  0  0  # atno 17320 bound_to 7965
  144.7502  139.7213  143.7276 LP  0  0  0  0  0  0  0  0  0  0  0  0  # atno 17321 bound_to 7965
  140.6328  143.2190  151.6458 LP  0  0  0  0  0  0  0  0  0  0  0  0  # atno 17342 bound_to 10162
  139.5183  144.3289  152.0844 LP  0  0  0  0  0  0  0  0  0  0  0  0  # atno 17343 bound_to 10162
  156.6465  130.8726  151.3523 LP  0  0  0  0  0  0  0  0  0  0  0  0  # atno 17370 bound_to 10713
  157.7140  130.9474  150.1189 LP  0  0  0  0  0  0  0  0  0  0  0  0  # atno 17371 bound_to 10713
  140.5200  134.6313  157.5314 LP  0  0  0  0  0  0  0  0  0  0  0  0  # atno 17394 bound_to 11000
  139.9764  134.7208  155.9942 LP  0  0  0  0  0  0  0  0  0  0  0  0  # atno 17395 bound_to 11000

$$$$
