AV-unprocessed.smi:2511|AV-procd|sdf|9886|dock1
  -GOLD-   2272013523D 1   1.00000     0.00000
 Structure written by MMmdl.
 40 41  0  0  0  0  0  0  0  0  1 V2000
  143.4147  133.6767  147.9771 N   0  0  0  0  0  0  0  0  0  0  0  0
  143.8602  132.9883  149.0336 C   0  0  0  0  0  0  0  0  0  0  0  0
  143.6146  131.7927  149.1868 O   0  0  0  0  0  0  0  0  0  0  0  0
  144.6463  133.7673  150.0547 C   0  0  0  0  0  0  0  0  0  0  0  0
  145.6766  133.1332  150.7856 C   0  0  0  0  0  0  0  0  0  0  0  0
  146.4058  133.8788  151.7314 C   0  0  0  0  0  0  0  0  0  0  0  0
  146.0823  135.2423  151.9249 C   0  0  0  0  0  0  0  0  0  0  0  0
  146.7487  136.1059  152.8358 N   0  0  0  0  0  0  0  0  0  0  0  0
  146.2445  137.1286  153.5540 C   0  0  0  0  0  0  0  0  0  0  0  0
  145.0684  137.4845  153.5363 O   0  0  0  0  0  0  0  0  0  0  0  0
  147.1525  137.7757  154.3073 N   0  0  0  0  0  0  0  0  0  0  0  0
  146.9557  138.9216  155.2018 C   0  0  2  0  0  0  0  0  0  0  0  0
  146.6053  140.1770  154.3802 C   0  0  0  0  0  0  0  0  0  0  0  0
  147.8079  140.6985  153.5754 C   0  0  0  0  0  0  0  0  0  0  0  0
  149.0217  140.9530  154.4827 C   0  0  0  0  0  0  0  0  0  0  0  0
  149.4118  139.6913  155.2812 C   0  0  1  0  0  0  0  0  0  0  0  0
  150.6400  139.9333  156.1829 C   0  0  0  0  0  0  0  0  0  0  0  0
  150.8122  138.9202  157.0325 F   0  0  0  0  0  0  0  0  0  0  0  0
  151.7366  140.0602  155.4356 F   0  0  0  0  0  0  0  0  0  0  0  0
  150.4802  141.0580  156.8807 F   0  0  0  0  0  0  0  0  0  0  0  0
  148.1969  139.1774  156.0866 C   0  0  0  0  0  0  0  0  0  0  0  0
  145.0526  135.7886  151.1327 C   0  0  0  0  0  0  0  0  0  0  0  0
  144.3492  135.0785  150.2260 N   0  0  0  0  0  0  0  0  0  0  0  0
  142.8845  133.2088  147.2568 H   0  0  0  0  0  0  0  0  0  0  0  0
  143.6169  134.6636  147.9071 H   0  0  0  0  0  0  0  0  0  0  0  0
  145.9129  132.0905  150.6298 H   0  0  0  0  0  0  0  0  0  0  0  0
  147.2009  133.3929  152.2747 H   0  0  0  0  0  0  0  0  0  0  0  0
  147.7479  135.9760  152.9002 H   0  0  0  0  0  0  0  0  0  0  0  0
  148.1010  137.4342  154.2466 H   0  0  0  0  0  0  0  0  0  0  0  0
  146.1018  138.7110  155.8479 H   0  0  0  0  0  0  0  0  0  0  0  0
  145.7688  139.9703  153.7115 H   0  0  0  0  0  0  0  0  0  0  0  0
  146.2641  140.9620  155.0565 H   0  0  0  0  0  0  0  0  0  0  0  0
  148.0754  139.9793  152.8005 H   0  0  0  0  0  0  0  0  0  0  0  0
  147.5340  141.6180  153.0575 H   0  0  0  0  0  0  0  0  0  0  0  0
  149.8624  141.2862  153.8736 H   0  0  0  0  0  0  0  0  0  0  0  0
  148.7964  141.7707  155.1686 H   0  0  0  0  0  0  0  0  0  0  0  0
  149.6894  138.9182  154.5630 H   0  0  0  0  0  0  0  0  0  0  0  0
  147.9371  139.9133  156.8485 H   0  0  0  0  0  0  0  0  0  0  0  0
  148.4647  138.2714  156.6306 H   0  0  0  0  0  0  0  0  0  0  0  0
  144.7782  136.8287  151.2321 H   0  0  0  0  0  0  0  0  0  0  0  0
  1  2  1  0  0  0  0
  1 24  1  0  0  0  0
  1 25  1  0  0  0  0
  2  3  2  0  0  0  0
  2  4  1  0  0  0  0
  4 23  1  0  0  0  0
  4  5  2  0  0  0  0
  5  6  1  0  0  0  0
  5 26  1  0  0  0  0
  6  7  2  0  0  0  0
  6 27  1  0  0  0  0
  7  8  1  0  0  0  0
  7 22  1  0  0  0  0
  8  9  1  0  0  0  0
  8 28  1  0  0  0  0
  9 10  2  0  0  0  0
  9 11  1  0  0  0  0
 11 12  1  0  0  0  0
 11 29  1  0  0  0  0
 12 21  1  0  0  0  0
 12 13  1  0  0  0  0
 12 30  1  0  0  0  0
 13 14  1  0  0  0  0
 13 31  1  0  0  0  0
 13 32  1  0  0  0  0
 14 15  1  0  0  0  0
 14 33  1  0  0  0  0
 14 34  1  0  0  0  0
 15 16  1  0  0  0  0
 15 35  1  0  0  0  0
 15 36  1  0  0  0  0
 16 17  1  0  0  0  0
 16 21  1  0  0  0  0
 16 37  1  0  0  0  0
 17 18  1  0  0  0  0
 17 19  1  0  0  0  0
 17 20  1  0  0  0  0
 21 38  1  0  0  0  0
 21 39  1  0  0  0  0
 22 23  2  0  0  0  0
 22 40  1  0  0  0  0
M  END
> <s_m_source_file>
AV-unprocessed.smi

> <i_m_source_file_index>
2511

> <i_lp_mmshare_version>
43012

> <i_f3d_flags>
0

> <s_epik_input>
W05IMl1DKD1PKWMxW2NIXVtjSF1jKFtjSF1uMSlbTkhdQyg9TylbTkhdW0NAQEhdMltDSDJdW0NIMl1bQ0gyXVtDQEBIXShDKEYpKEYpRilbQ0gyXTI=

> <s_epik_cmdline>
J2VwaWtfcHl0aG9uJywgJy1waCcsICc3LjAnLCAnLXRuJywgJzgnLCAnLW1hJywgJzIwMCcsICctbWV0YWxfYmluZGluZycsICctaW1hZScsICc8aW5maWxlLm1hZT4nLCAnLW9tYWUnLCAnPG91dGZpbGUubWFlPic=

> <r_lp_tautomer_probability>
1

> <r_epik_Ionization_Penalty>
4.28758e-05

> <r_epik_Ionization_Penalty_Charging>
0

> <r_epik_Ionization_Penalty_Neutral>
4.28758e-05

> <r_epik_State_Penalty>
-0

> <r_epik_Charging_Adjusted_Penalty>
0

> <i_epik_Tot_Q>
0

> <i_epik_Tot_abs_Q>
0

> <r_epik_Metal_State_Penalty>
-0

> <b_epik_Metal_Only>
0

> <s_lp_Force_Field>
OPLS_2005

> <r_lp_Energy>
27.7433

> <b_lp_Chiralities_Consistent>
1

> <s_lp_Variant>
AV-unprocessed.smi:2511-1

> <Gold.Version>
5.8.1

> <Gold.Id.Protein>
6NUR|6NUR_protein|mol2

> <Gold.PLP.Fitness>
41.5679

> <Gold.PLP.PLP>
-33.1101

> <Gold.PLP.part.hbond>
-4.7056

> <Gold.PLP.part.metal>
0.0000

> <Gold.PLP.part.buried>
-1.4379

> <Gold.PLP.part.nonpolar>
-28.4131

> <Gold.PLP.part.repulsive>
1.0388

> <Gold.PLP.ligand.clash>
0.0000

> <Gold.PLP.ligand.torsion>
1.0243

> <Gold.PLP.Chemscore.Hbond>
2.4923

> <Gold.PLP.Chemscore.CHOScore>
1.0000

> <Gold.PLP.Chemscore.Metal>
0.0000

> <Gold.Chemscore.Hbonds>
donor molecule, donor type, donor heavy atom, donor atom, acceptor molecule, acceptor atom, score
      L1  H     1    24       P1 10195  0.99
      L1  H     8    28       P1  7948  0.66
      P1  H 10785 10796       L1     3  0.88
      L1  C    22    40       P1 10171  1.00

> <Gold.PLP.Chemscore.Internal.Correction>
0.0296

> <Gold.Rescore>
     Score         DG    S(hbond)    S(metal)    S(lipo)     H(rot)  DE(clash)    DE(int)     intcor
     15.40     -17.86       2.34        0.00      60.92       1.00       0.46       2.00       ----

> <Gold.Chemscore.Fitness>
15.4030

> <Gold.Chemscore.DG>
-17.8601

> <Gold.Chemscore.ZeroCoef>
-5.4800

> <Gold.Chemscore.Hbond>
2.3392

> <Gold.Chemscore.Metal>
0.0000

> <Gold.Chemscore.Lipo>
60.9157

> <Gold.Chemscore.Internal_Hbond>
0.0000

> <Gold.Chemscore.DEClash>
0.4592

> <Gold.Chemscore.DEInternal>
1.9979

> <Gold.Chemscore.Rot>
1.0000

> <Gold.Chemscore.Internal.Correction>
   9.000000E+99

> <Gold.Chemscore.Hbonds>
donor molecule, donor type, donor heavy atom, donor atom, acceptor molecule, acceptor atom, score
      L1  H     1    24       P1 10195  0.89
      L1  H     8    28       P1  7948  0.65
      P1  H 10785 10796       L1     3  0.87

> <Gold.Chemscore.Hbond.Weighted>
-7.8129

> <Gold.Chemscore.Metal.Weighted>
-0.0000

> <Gold.Chemscore.Lipo.Weighted>
-7.1271

> <Gold.Chemscore.Internal_Hbond.Weighted>
0.0000

> <Gold.Chemscore.DEClash.Weighted>
0.4592

> <Gold.Chemscore.DEInternal.Weighted>
1.9979

> <Gold.Chemscore.Rot.Weighted>
2.5600

> <Gold.Chemscore.Internal.Correction.Weighted>
   9.000000E+99

> <Gold.Protein.RotatedTorsions>
[ 6907 6896 6895 6894 ] final   45.01 input  -60.11 | X-H torsion
[ 7974 7965 7964 7962 ] final   50.78 input  175.53 | X-H torsion
[ 8008 7997 7996 7995 ] final  -84.69 input   59.86 | X-H torsion
[ 10167 10162 10161 10158 ] final    0.39 input  -65.29 | X-H torsion
[ 10718 10713 10712 10709 ] final   51.30 input   66.30 | X-H torsion
[ 10763 10752 10751 10750 ] final   20.68 input  -60.55 | X-H torsion
[ 11005 11000 10999 10996 ] final   32.73 input  -57.11 | X-H torsion

> <Gold.Protein.ActiveResidues>
 VAL166  LYS551  ARG553  GLY616  TRP617  ASP618  TYR619  PRO620  LYS621  CYS622 
 ASP623  PHE694  ASN695  SER759  ASP760  ASP761  ALA762  ILE779  LEU786  VAL792 
 PHE793  MET794  SER795  GLU796  ALA797  LYS798  CYS799  TRP800  GLU811  SER814 

> <Gold.Protein.RotatedAtoms>
  152.2394  134.8243  160.0462 H   0  0  0  0  0  0  0  0  0  0  0  0  # atno 6907 bound_to 6896
  151.8963  133.3522  159.3823 H   0  0  0  0  0  0  0  0  0  0  0  0  # atno 6908 bound_to 6896
  150.7049  134.4799  159.5509 H   0  0  0  0  0  0  0  0  0  0  0  0  # atno 6909 bound_to 6896
  145.9978  139.4407  143.0034 H   0  0  0  0  0  0  0  0  0  0  0  0  # atno 7974 bound_to 7965
  154.6325  140.0601  156.9749 H   0  0  0  0  0  0  0  0  0  0  0  0  # atno 8008 bound_to 7997
  155.1643  140.3285  155.4387 H   0  0  0  0  0  0  0  0  0  0  0  0  # atno 8009 bound_to 7997
  156.2490  140.1925  156.6748 H   0  0  0  0  0  0  0  0  0  0  0  0  # atno 8010 bound_to 7997
  140.6731  143.6993  150.7964 H   0  0  0  0  0  0  0  0  0  0  0  0  # atno 10167 bound_to 10162
  157.4968  130.8411  149.8268 H   0  0  0  0  0  0  0  0  0  0  0  0  # atno 10718 bound_to 10713
  153.1057  135.6684  153.9591 H   0  0  0  0  0  0  0  0  0  0  0  0  # atno 10763 bound_to 10752
  153.9149  135.3021  155.3449 H   0  0  0  0  0  0  0  0  0  0  0  0  # atno 10764 bound_to 10752
  154.7478  135.5049  153.9311 H   0  0  0  0  0  0  0  0  0  0  0  0  # atno 10765 bound_to 10752
  140.2704  134.3089  155.7829 H   0  0  0  0  0  0  0  0  0  0  0  0  # atno 11005 bound_to 11000
  145.7533  140.9964  143.1238 LP  0  0  0  0  0  0  0  0  0  0  0  0  # atno 17320 bound_to 7965
  144.6909  139.9241  143.7469 LP  0  0  0  0  0  0  0  0  0  0  0  0  # atno 17321 bound_to 7965
  140.0682  143.5087  152.2593 LP  0  0  0  0  0  0  0  0  0  0  0  0  # atno 17342 bound_to 10162
  139.6009  144.7582  151.3175 LP  0  0  0  0  0  0  0  0  0  0  0  0  # atno 17343 bound_to 10162
  156.0205  130.3797  150.1976 LP  0  0  0  0  0  0  0  0  0  0  0  0  # atno 17370 bound_to 10713
  157.0166  130.9967  151.3351 LP  0  0  0  0  0  0  0  0  0  0  0  0  # atno 17371 bound_to 10713
  141.2178  133.7463  156.9325 LP  0  0  0  0  0  0  0  0  0  0  0  0  # atno 17394 bound_to 11000
  140.1379  134.9313  157.2426 LP  0  0  0  0  0  0  0  0  0  0  0  0  # atno 17395 bound_to 11000

$$$$
