AV-unprocessed.smi:3216|AV-procd|sdf|12288|dock7
  -GOLD-   2272018133D 1   1.00000     0.00000
 Structure written by MMmdl.
 36 36  0  0  0  0  0  0  0  0  1 V2000
  149.1111  141.6524  156.7396 C   0  0  0  0  0  0  0  0  0  0  0  0
  148.8416  140.6839  155.5745 C   0  0  0  0  0  0  0  0  0  0  0  0
  150.0788  139.8187  155.2933 C   0  0  0  0  0  0  0  0  0  0  0  0
  148.3860  141.4160  154.2977 C   0  0  0  0  0  0  0  0  0  0  0  0
  148.0127  140.4791  153.2456 N   0  0  0  0  0  0  0  0  0  0  0  0
  147.0561  139.5476  153.3631 C   0  0  0  0  0  0  0  0  0  0  0  0
  146.3877  139.3895  154.3846 O   0  0  0  0  0  0  0  0  0  0  0  0
  146.8075  138.6624  152.1360 C   0  0  0  0  0  0  0  0  0  0  0  0
  145.3885  138.3841  151.8632 N   0  0  0  0  0  0  0  0  0  0  0  0
  144.9821  137.0245  152.2050 C   0  0  0  0  0  0  0  0  0  0  0  0
  145.5461  136.0246  151.1817 C   0  0  0  0  0  0  0  0  0  0  0  0
  144.8170  134.7683  151.1766 N   0  0  0  0  0  0  0  0  0  0  0  0
  145.0272  133.6599  150.3833 C   0  0  0  0  0  0  0  0  0  0  0  0
  144.0962  132.7252  150.7356 C   0  0  0  0  0  0  0  0  0  0  0  0
  143.3530  133.3619  151.7686 C   0  0  0  0  0  0  0  0  0  0  0  0
  143.7888  134.5832  152.0328 N   0  0  0  0  0  0  0  0  0  0  0  0
  149.8912  142.3701  156.4840 H   0  0  0  0  0  0  0  0  0  0  0  0
  149.4357  141.1129  157.6300 H   0  0  0  0  0  0  0  0  0  0  0  0
  148.2176  142.2149  157.0115 H   0  0  0  0  0  0  0  0  0  0  0  0
  148.0385  140.0119  155.8805 H   0  0  0  0  0  0  0  0  0  0  0  0
  150.9267  140.4293  154.9809 H   0  0  0  0  0  0  0  0  0  0  0  0
  149.8812  139.0942  154.5028 H   0  0  0  0  0  0  0  0  0  0  0  0
  150.3793  139.2610  156.1808 H   0  0  0  0  0  0  0  0  0  0  0  0
  147.5408  142.0689  154.5227 H   0  0  0  0  0  0  0  0  0  0  0  0
  149.1899  142.0533  153.9256 H   0  0  0  0  0  0  0  0  0  0  0  0
  148.5134  140.5445  152.3714 H   0  0  0  0  0  0  0  0  0  0  0  0
  147.2624  139.1082  151.2496 H   0  0  0  0  0  0  0  0  0  0  0  0
  147.3200  137.7138  152.2980 H   0  0  0  0  0  0  0  0  0  0  0  0
  144.7856  139.0424  152.3355 H   0  0  0  0  0  0  0  0  0  0  0  0
  145.3158  136.7506  153.2065 H   0  0  0  0  0  0  0  0  0  0  0  0
  143.8929  136.9673  152.2018 H   0  0  0  0  0  0  0  0  0  0  0  0
  145.4840  136.4505  150.1797 H   0  0  0  0  0  0  0  0  0  0  0  0
  146.6036  135.8323  151.3718 H   0  0  0  0  0  0  0  0  0  0  0  0
  145.8107  133.6311  149.6406 H   0  0  0  0  0  0  0  0  0  0  0  0
  143.9652  131.7380  150.3182 H   0  0  0  0  0  0  0  0  0  0  0  0
  142.5161  132.9754  152.3314 H   0  0  0  0  0  0  0  0  0  0  0  0
  1  2  1  0  0  0  0
  1 17  1  0  0  0  0
  1 18  1  0  0  0  0
  1 19  1  0  0  0  0
  2  3  1  0  0  0  0
  2  4  1  0  0  0  0
  2 20  1  0  0  0  0
  3 21  1  0  0  0  0
  3 22  1  0  0  0  0
  3 23  1  0  0  0  0
  4  5  1  0  0  0  0
  4 24  1  0  0  0  0
  4 25  1  0  0  0  0
  5  6  1  0  0  0  0
  5 26  1  0  0  0  0
  6  7  2  0  0  0  0
  6  8  1  0  0  0  0
  8  9  1  0  0  0  0
  8 27  1  0  0  0  0
  8 28  1  0  0  0  0
  9 10  1  0  0  0  0
  9 29  1  0  0  0  0
 10 11  1  0  0  0  0
 10 30  1  0  0  0  0
 10 31  1  0  0  0  0
 11 12  1  0  0  0  0
 11 32  1  0  0  0  0
 11 33  1  0  0  0  0
 12 16  1  0  0  0  0
 12 13  1  0  0  0  0
 13 14  2  0  0  0  0
 13 34  1  0  0  0  0
 14 15  1  0  0  0  0
 14 35  1  0  0  0  0
 15 16  2  0  0  0  0
 15 36  1  0  0  0  0
M  END
> <s_m_source_file>
AV-unprocessed.smi

> <i_m_source_file_index>
3216

> <i_lp_mmshare_version>
43012

> <i_f3d_flags>
0

> <s_epik_input>
W0NIM11bQ0hdKFtDSDNdKVtDSDJdW05IXUMoPU8pW0NIMl1bTkhdW0NIMl1bQ0gyXW4xW2NIXVtjSF1bY0hdbjE=

> <s_epik_cmdline>
J2VwaWtfcHl0aG9uJywgJy1waCcsICc3LjAnLCAnLXRuJywgJzgnLCAnLW1hJywgJzIwMCcsICctbWV0YWxfYmluZGluZycsICctaW1hZScsICc8aW5maWxlLm1hZT4nLCAnLW9tYWUnLCAnPG91dGZpbGUubWFlPic=

> <r_lp_tautomer_probability>
1

> <r_epik_Ionization_Penalty>
0.724936

> <r_epik_Ionization_Penalty_Charging>
0

> <r_epik_Ionization_Penalty_Neutral>
0.724936

> <r_epik_State_Penalty>
0.747957

> <r_epik_Charging_Adjusted_Penalty>
0.747957

> <i_epik_Tot_Q>
0

> <i_epik_Tot_abs_Q>
0

> <r_epik_Metal_State_Penalty>
0.746186

> <b_epik_Metal_Only>
0

> <s_lp_Force_Field>
OPLS_2005

> <r_lp_Energy>
6.66152

> <b_lp_Chiralities_Consistent>
1

> <s_lp_Variant>
AV-unprocessed.smi:3216-2

> <Gold.Version>
5.8.1

> <Gold.Id.Protein>
6NUR|6NUR_protein|mol2

> <Gold.PLP.Fitness>
42.8636

> <Gold.PLP.PLP>
-32.2939

> <Gold.PLP.part.hbond>
-2.8788

> <Gold.PLP.part.metal>
0.0000

> <Gold.PLP.part.buried>
-1.0802

> <Gold.PLP.part.nonpolar>
-28.3724

> <Gold.PLP.part.repulsive>
0.3874

> <Gold.PLP.ligand.clash>
0.0000

> <Gold.PLP.ligand.torsion>
0.7534

> <Gold.PLP.Chemscore.Hbond>
1.9840

> <Gold.PLP.Chemscore.CHOScore>
1.9881

> <Gold.PLP.Chemscore.Metal>
0.0000

> <Gold.Chemscore.Hbonds>
donor molecule, donor type, donor heavy atom, donor atom, acceptor molecule, acceptor atom, score
      L1  H     5    26       P1  7957  1.00
      L1  H     9    29       P1 10175  1.00
      L1  C    13    34       P1  7921  0.92
      L1  C    15    36       P1 10957  0.42

> <Gold.PLP.Chemscore.Internal.Correction>
0.1602

> <Gold.Rescore>
     Score         DG    S(hbond)    S(metal)    S(lipo)     H(rot)  DE(clash)    DE(int)     intcor
     12.81     -13.98       1.99        0.00      64.45       2.22       0.08       1.08       ----

> <Gold.Chemscore.Fitness>
12.8144

> <Gold.Chemscore.DG>
-13.9822

> <Gold.Chemscore.ZeroCoef>
-5.4800

> <Gold.Chemscore.Hbond>
1.9916

> <Gold.Chemscore.Metal>
0.0000

> <Gold.Chemscore.Lipo>
64.4473

> <Gold.Chemscore.Internal_Hbond>
0.0000

> <Gold.Chemscore.DEClash>
0.0835

> <Gold.Chemscore.DEInternal>
1.0843

> <Gold.Chemscore.Rot>
2.2227

> <Gold.Chemscore.Internal.Correction>
   9.000000E+99

> <Gold.Chemscore.Hbonds>
donor molecule, donor type, donor heavy atom, donor atom, acceptor molecule, acceptor atom, score
      L1  H     5    26       P1  7957  0.99
      L1  H     9    29       P1 10175  0.98

> <Gold.Chemscore.Hbond.Weighted>
-6.6521

> <Gold.Chemscore.Metal.Weighted>
-0.0000

> <Gold.Chemscore.Lipo.Weighted>
-7.5403

> <Gold.Chemscore.Internal_Hbond.Weighted>
0.0000

> <Gold.Chemscore.DEClash.Weighted>
0.0835

> <Gold.Chemscore.DEInternal.Weighted>
1.0843

> <Gold.Chemscore.Rot.Weighted>
5.6902

> <Gold.Chemscore.Internal.Correction.Weighted>
   9.000000E+99

> <Gold.Protein.RotatedTorsions>
[ 6907 6896 6895 6894 ] final   -6.93 input  -60.11 | X-H torsion
[ 7974 7965 7964 7962 ] final    6.40 input  175.53 | X-H torsion
[ 8008 7997 7996 7995 ] final  130.65 input   59.86 | X-H torsion
[ 10167 10162 10161 10158 ] final  120.91 input  -65.29 | X-H torsion
[ 10718 10713 10712 10709 ] final  109.04 input   66.30 | X-H torsion
[ 10763 10752 10751 10750 ] final  142.21 input  -60.55 | X-H torsion
[ 11005 11000 10999 10996 ] final  -46.35 input  -57.11 | X-H torsion

> <Gold.Protein.ActiveResidues>
 VAL166  LYS551  ARG553  GLY616  TRP617  ASP618  TYR619  PRO620  LYS621  CYS622 
 ASP623  PHE694  ASN695  SER759  ASP760  ASP761  ALA762  ILE779  LEU786  VAL792 
 PHE793  MET794  SER795  GLU796  ALA797  LYS798  CYS799  TRP800  GLU811  SER814 

> <Gold.Protein.RotatedAtoms>
  151.4577  135.1035  159.9715 H   0  0  0  0  0  0  0  0  0  0  0  0  # atno 6907 bound_to 6896
  152.4864  133.8381  159.7149 H   0  0  0  0  0  0  0  0  0  0  0  0  # atno 6908 bound_to 6896
  150.8978  133.7098  159.2914 H   0  0  0  0  0  0  0  0  0  0  0  0  # atno 6909 bound_to 6896
  146.2435  140.0240  142.8395 H   0  0  0  0  0  0  0  0  0  0  0  0  # atno 7974 bound_to 7965
  156.2958  140.2591  156.2796 H   0  0  0  0  0  0  0  0  0  0  0  0  # atno 8008 bound_to 7997
  154.9614  140.0392  157.2210 H   0  0  0  0  0  0  0  0  0  0  0  0  # atno 8009 bound_to 7997
  154.7943  140.2817  155.5973 H   0  0  0  0  0  0  0  0  0  0  0  0  # atno 8010 bound_to 7997
  139.5953  144.7039  151.3192 H   0  0  0  0  0  0  0  0  0  0  0  0  # atno 10167 bound_to 10162
  157.6559  131.0906  150.6394 H   0  0  0  0  0  0  0  0  0  0  0  0  # atno 10718 bound_to 10713
  153.9521  135.2969  155.3438 H   0  0  0  0  0  0  0  0  0  0  0  0  # atno 10763 bound_to 10752
  154.7421  135.5020  153.9143 H   0  0  0  0  0  0  0  0  0  0  0  0  # atno 10764 bound_to 10752
  153.0989  135.6729  153.9819 H   0  0  0  0  0  0  0  0  0  0  0  0  # atno 10765 bound_to 10752
  141.0573  133.6721  156.3142 H   0  0  0  0  0  0  0  0  0  0  0  0  # atno 11005 bound_to 11000
  145.1215  140.9465  143.4597 LP  0  0  0  0  0  0  0  0  0  0  0  0  # atno 17320 bound_to 7965
  145.0476  139.3208  143.5945 LP  0  0  0  0  0  0  0  0  0  0  0  0  # atno 17321 bound_to 7965
  140.7206  143.7145  150.7743 LP  0  0  0  0  0  0  0  0  0  0  0  0  # atno 17342 bound_to 10162
  140.0710  143.5061  152.2580 LP  0  0  0  0  0  0  0  0  0  0  0  0  # atno 17343 bound_to 10162
  156.6701  130.4537  149.5660 LP  0  0  0  0  0  0  0  0  0  0  0  0  # atno 17370 bound_to 10713
  156.2004  130.6616  151.1161 LP  0  0  0  0  0  0  0  0  0  0  0  0  # atno 17371 bound_to 10713
  140.5938  134.5624  157.5505 LP  0  0  0  0  0  0  0  0  0  0  0  0  # atno 17394 bound_to 11000
  139.9401  134.7802  156.0700 LP  0  0  0  0  0  0  0  0  0  0  0  0  # atno 17395 bound_to 11000

$$$$
