AV-unprocessed.smi:69|AV-procd|sdf|650|dock8
  -GOLD-   2262016543D 1   1.00000     0.00000
 Structure written by MMmdl.
 32 34  0  0  0  0  0  0  0  0  1 V2000
  155.1403  140.3380  161.1698 N   0  0  0  0  0  0  0  0  0  0  0  0
  154.0619  141.0489  160.8133 C   0  0  0  0  0  0  0  0  0  0  0  0
  153.6425  142.0395  161.6358 N   0  0  0  0  0  0  0  0  0  0  0  0
  152.5664  142.7613  161.3035 C   0  0  0  0  0  0  0  0  0  0  0  0
  151.7893  142.6554  160.2216 N   0  0  0  0  0  0  0  0  0  0  0  0
  152.2182  141.6573  159.3950 C   0  0  0  0  0  0  0  0  0  0  0  0
  153.3387  140.8111  159.6172 C   0  0  0  0  0  0  0  0  0  0  0  0
  153.4657  139.9102  158.5674 N   0  0  0  0  0  0  0  0  0  0  0  0
  152.4729  140.2109  157.7726 C   0  0  0  0  0  0  0  0  0  0  0  0
  151.6753  141.2528  158.1964 N   0  0  0  0  0  0  0  0  0  0  0  0
  150.4685  141.8387  157.5394 C   0  0  1  0  0  0  0  0  0  0  0  0
  150.5199  141.5592  156.1798 O   0  0  0  0  0  0  0  0  0  0  0  0
  149.1955  141.5881  155.6610 C   0  0  1  0  0  0  0  0  0  0  0  0
  149.0676  140.5606  154.5221 C   0  0  0  0  0  0  0  0  0  0  0  0
  149.4667  141.1009  153.2792 O   0  0  0  0  0  0  0  0  0  0  0  0
  148.2342  141.4024  156.8560 C   0  0  2  0  0  0  0  0  0  0  0  0
  147.4570  142.5733  157.0210 O   0  0  0  0  0  0  0  0  0  0  0  0
  149.1599  141.2263  158.0553 C   0  0  1  0  0  0  0  0  0  0  0  0
  149.2861  139.8588  158.4027 O   0  0  0  0  0  0  0  0  0  0  0  0
  150.5334  142.9166  157.6991 H   0  0  0  0  0  0  0  0  0  0  0  0
  149.0646  142.5830  155.2311 H   0  0  0  0  0  0  0  0  0  0  0  0
  147.5529  140.5591  156.7348 H   0  0  0  0  0  0  0  0  0  0  0  0
  148.8242  141.7696  158.9400 H   0  0  0  0  0  0  0  0  0  0  0  0
  155.4706  139.5932  160.5729 H   0  0  0  0  0  0  0  0  0  0  0  0
  155.6190  140.5465  162.0340 H   0  0  0  0  0  0  0  0  0  0  0  0
  152.2873  143.5334  162.0051 H   0  0  0  0  0  0  0  0  0  0  0  0
  152.2902  139.6741  156.8526 H   0  0  0  0  0  0  0  0  0  0  0  0
  149.7026  139.6996  154.7314 H   0  0  0  0  0  0  0  0  0  0  0  0
  148.0438  140.1926  154.4492 H   0  0  0  0  0  0  0  0  0  0  0  0
  149.3050  140.4584  152.6053 H   0  0  0  0  0  0  0  0  0  0  0  0
  147.7604  143.2237  156.4059 H   0  0  0  0  0  0  0  0  0  0  0  0
  148.4495  139.5557  158.7213 H   0  0  0  0  0  0  0  0  0  0  0  0
  1  2  1  0  0  0  0
  1 24  1  0  0  0  0
  1 25  1  0  0  0  0
  2  7  1  0  0  0  0
  2  3  2  0  0  0  0
  3  4  1  0  0  0  0
  4  5  2  0  0  0  0
  4 26  1  0  0  0  0
  5  6  1  0  0  0  0
  6 10  1  0  0  0  0
  6  7  2  0  0  0  0
  7  8  1  0  0  0  0
  8  9  2  0  0  0  0
  9 10  1  0  0  0  0
  9 27  1  0  0  0  0
 10 11  1  0  0  0  0
 11 20  1  0  0  0  0
 11 18  1  0  0  0  0
 11 12  1  0  0  0  0
 12 13  1  0  0  0  0
 13 21  1  0  0  0  0
 13 14  1  0  0  0  0
 13 16  1  0  0  0  0
 14 15  1  0  0  0  0
 14 28  1  0  0  0  0
 14 29  1  0  0  0  0
 15 30  1  0  0  0  0
 16 22  1  0  0  0  0
 16 17  1  0  0  0  0
 16 18  1  0  0  0  0
 17 31  1  0  0  0  0
 18 23  1  0  0  0  0
 18 19  1  0  0  0  0
 19 32  1  0  0  0  0
M  END
> <s_m_source_file>
AV-unprocessed.smi

> <i_m_source_file_index>
69

> <i_lp_mmshare_version>
43012

> <i_f3d_flags>
0

> <s_epik_input>
bjFbY0hdbmMoW05IMl0pYyhjMTIpbltjSF1uMltDQEBIXTNPW0NASF0oW0NIMl1bT0hdKVtDQEBIXShbT0hdKVtDQEhdM1tPSF0=

> <s_epik_cmdline>
J2VwaWtfcHl0aG9uJywgJy1waCcsICc3LjAnLCAnLXRuJywgJzgnLCAnLW1hJywgJzIwMCcsICctbWV0YWxfYmluZGluZycsICctaW1hZScsICc8aW5maWxlLm1hZT4nLCAnLW9tYWUnLCAnPG91dGZpbGUubWFlPic=

> <r_lp_tautomer_probability>
1

> <r_epik_Ionization_Penalty>
0.000428445

> <r_epik_Ionization_Penalty_Charging>
0

> <r_epik_Ionization_Penalty_Neutral>
0.000428445

> <r_epik_State_Penalty>
-0

> <r_epik_Charging_Adjusted_Penalty>
0

> <i_epik_Tot_Q>
0

> <i_epik_Tot_abs_Q>
0

> <r_epik_Metal_State_Penalty>
-0

> <b_epik_Metal_Only>
0

> <s_epik_Chemistry_Notes>
This compound contains an acetal/aminal-like group ( X-CH(R)-Y where X, Y are N, S, or O) that may be acid/base labile, releasing an aldehyde.

> <s_lp_Force_Field>
OPLS_2005

> <r_lp_Energy>
41.0304

> <b_lp_Chiralities_Consistent>
1

> <s_lp_Variant>
AV-unprocessed.smi:69-8

> <Gold.Version>
5.8.1

> <Gold.Id.Protein>
6NUR|6NUR_protein|mol2

> <Gold.PLP.Fitness>
39.9972

> <Gold.PLP.PLP>
-31.1609

> <Gold.PLP.part.hbond>
-5.4374

> <Gold.PLP.part.metal>
0.0000

> <Gold.PLP.part.buried>
-2.7116

> <Gold.PLP.part.nonpolar>
-21.4158

> <Gold.PLP.part.repulsive>
0.1208

> <Gold.PLP.ligand.clash>
0.0000

> <Gold.PLP.ligand.torsion>
0.9922

> <Gold.PLP.Chemscore.Hbond>
3.6042

> <Gold.PLP.Chemscore.CHOScore>
0.0000

> <Gold.PLP.Chemscore.Metal>
0.0000

> <Gold.Chemscore.Hbonds>
donor molecule, donor type, donor heavy atom, donor atom, acceptor molecule, acceptor atom, score
      L1  H    15    30       P1  7957  0.90
      L1  H    17    31       P1  8028  0.70
      P1  H  7989  7998       L1    15  0.10
      P1  H  7997  8009       L1     8  0.86
      P1  H  8011  8017       L1    15  0.95

> <Gold.PLP.Chemscore.Internal.Correction>
0.0082

> <Gold.Rescore>
     Score         DG    S(hbond)    S(metal)    S(lipo)     H(rot)  DE(clash)    DE(int)     intcor
      3.66      -5.05       1.96        0.00      28.49       4.03       0.59       0.80       ----

> <Gold.Chemscore.Fitness>
3.6615

> <Gold.Chemscore.DG>
-5.0466

> <Gold.Chemscore.ZeroCoef>
-5.4800

> <Gold.Chemscore.Hbond>
1.9592

> <Gold.Chemscore.Metal>
0.0000

> <Gold.Chemscore.Lipo>
28.4939

> <Gold.Chemscore.Internal_Hbond>
0.0000

> <Gold.Chemscore.DEClash>
0.5878

> <Gold.Chemscore.DEInternal>
0.7973

> <Gold.Chemscore.Rot>
4.0277

> <Gold.Chemscore.Internal.Correction>
   9.000000E+99

> <Gold.Chemscore.Hbonds>
donor molecule, donor type, donor heavy atom, donor atom, acceptor molecule, acceptor atom, score
      L1  H    15    30       P1  7957  0.82
      L1  H    17    31       P1  8028  0.07
      P1  H  7989  7998       L1    15  0.01
      P1  H  7997  8009       L1     8  0.21
      P1  H  8011  8017       L1    15  0.21

> <Gold.Chemscore.Hbond.Weighted>
-6.5438

> <Gold.Chemscore.Metal.Weighted>
-0.0000

> <Gold.Chemscore.Lipo.Weighted>
-3.3338

> <Gold.Chemscore.Internal_Hbond.Weighted>
0.0000

> <Gold.Chemscore.DEClash.Weighted>
0.5878

> <Gold.Chemscore.DEInternal.Weighted>
0.7973

> <Gold.Chemscore.Rot.Weighted>
10.3110

> <Gold.Chemscore.Internal.Correction.Weighted>
   9.000000E+99

> <Gold.Protein.RotatedTorsions>
[ 6907 6896 6895 6894 ] final  103.05 input  -60.11 | X-H torsion
[ 7974 7965 7964 7962 ] final  105.53 input  175.53 | X-H torsion
[ 8008 7997 7996 7995 ] final  127.37 input   59.86 | X-H torsion
[ 10167 10162 10161 10158 ] final   16.80 input  -65.29 | X-H torsion
[ 10718 10713 10712 10709 ] final   73.79 input   66.30 | X-H torsion
[ 10763 10752 10751 10750 ] final -147.73 input  -60.55 | X-H torsion
[ 11005 11000 10999 10996 ] final  -51.40 input  -57.11 | X-H torsion

> <Gold.Protein.ActiveResidues>
 VAL166  LYS551  ARG553  GLY616  TRP617  ASP618  TYR619  PRO620  LYS621  CYS622 
 ASP623  PHE694  ASN695  SER759  ASP760  ASP761  ALA762  ILE779  LEU786  VAL792 
 PHE793  MET794  SER795  GLU796  ALA797  LYS798  CYS799  TRP800  GLU811  SER814 

> <Gold.Protein.RotatedAtoms>
  152.5307  133.9884  159.7839 H   0  0  0  0  0  0  0  0  0  0  0  0  # atno 6907 bound_to 6896
  151.0125  133.5944  159.2688 H   0  0  0  0  0  0  0  0  0  0  0  0  # atno 6908 bound_to 6896
  151.3013  135.0776  159.9293 H   0  0  0  0  0  0  0  0  0  0  0  0  # atno 6909 bound_to 6896
  145.3184  139.2520  143.3725 H   0  0  0  0  0  0  0  0  0  0  0  0  # atno 7974 bound_to 7965
  156.2889  140.2670  156.2262 H   0  0  0  0  0  0  0  0  0  0  0  0  # atno 8008 bound_to 7997
  155.0118  140.0387  157.2420 H   0  0  0  0  0  0  0  0  0  0  0  0  # atno 8009 bound_to 7997
  154.7511  140.2743  155.6296 H   0  0  0  0  0  0  0  0  0  0  0  0  # atno 8010 bound_to 7997
  140.5771  143.9051  150.6759 H   0  0  0  0  0  0  0  0  0  0  0  0  # atno 10167 bound_to 10162
  157.6563  130.9646  150.1119 H   0  0  0  0  0  0  0  0  0  0  0  0  # atno 10718 bound_to 10713
  154.8270  135.3352  154.6864 H   0  0  0  0  0  0  0  0  0  0  0  0  # atno 10763 bound_to 10752
  153.7489  135.6940  153.4954 H   0  0  0  0  0  0  0  0  0  0  0  0  # atno 10764 bound_to 10752
  153.2191  135.4455  155.0418 H   0  0  0  0  0  0  0  0  0  0  0  0  # atno 10765 bound_to 10752
  141.0869  133.6640  156.3871 H   0  0  0  0  0  0  0  0  0  0  0  0  # atno 11005 bound_to 11000
  146.3091  140.3736  142.8676 LP  0  0  0  0  0  0  0  0  0  0  0  0  # atno 17320 bound_to 7965
  144.8959  140.7582  143.5897 LP  0  0  0  0  0  0  0  0  0  0  0  0  # atno 17321 bound_to 7965
  140.2541  143.3572  152.1380 LP  0  0  0  0  0  0  0  0  0  0  0  0  # atno 17342 bound_to 10162
  139.5149  144.6955  151.5643 LP  0  0  0  0  0  0  0  0  0  0  0  0  # atno 17343 bound_to 10162
  156.2013  130.3660  149.8785 LP  0  0  0  0  0  0  0  0  0  0  0  0  # atno 17370 bound_to 10713
  156.6687  130.8811  151.3559 LP  0  0  0  0  0  0  0  0  0  0  0  0  # atno 17371 bound_to 10713
  140.5343  134.6182  157.5360 LP  0  0  0  0  0  0  0  0  0  0  0  0  # atno 17394 bound_to 11000
  139.9688  134.7327  156.0083 LP  0  0  0  0  0  0  0  0  0  0  0  0  # atno 17395 bound_to 11000

$$$$
