#       Name:                AV-unprocessed.smi:2880
#       Creating user name   scv26
#       Creation time:       Fri Mar 27 15:52:22 2020


#       File generated by GOLD software.
#

@<TRIPOS>MOLECULE
AV-unprocessed.smi:2880
    52    53     1
SMALL
NO_CHARGES


@<TRIPOS>ATOM
      1 ****        -4.4091   3.7509  -0.9851 C.3            1 S1                 0.0000
      2 ****        -3.5855   3.4160   0.2740 C.3            1 S1                 0.0000
      3 ****        -2.2989   4.2754   0.2596 C.3            1 S1                 0.0000
      4 ****        -4.3958   3.7701   1.5360 C.3            1 S1                 0.0000
      5 ****        -3.2926   1.9764   0.2841 N.pl3          1 S1                 0.0000
      6 ****        -4.1950   0.9258   0.2780 C.2            1 S1                 0.0000
      7 ****        -3.4874  -0.2420   0.2959 C.2            1 S1                 0.0000
      8 ****        -2.1370   0.1972   0.3153 C.2            1 S1                 0.0000
      9 ****        -1.0709  -0.7377   0.3325 N.am           1 S1                 0.0000
     10 ****         0.2477  -0.4781   0.3363 C.2            1 S1                 0.0000
     11 ****         0.7484   0.6469   0.3567 O.2            1 S1                 0.0000
     12 ****         0.9625  -1.6130   0.3068 N.am           1 S1                 0.0000
     13 ****         2.4211  -1.7092   0.2617 C.3            1 S1                 0.0000
     14 ****         2.9028  -2.4536   1.5230 C.3            1 S1                 0.0000
     15 ****         4.4279  -2.6253   1.5335 C.3            1 S1                 0.0000
     16 ****         4.9037  -3.3414   0.2636 C.3            1 S1                 0.0000
     17 ****         4.4369  -2.5959  -0.9955 C.3            1 S1                 0.0000
     18 ****         2.9033  -2.4185  -1.0353 C.3            1 S1                 0.0000
     19 ****         2.4949  -1.6809  -2.3318 C.3            1 S1                 0.0000
     20 ****         1.1434  -1.9168  -2.6704 O.3            1 S1                 0.0000
     21 ****        -2.0183   1.5164   0.3112 N.2            1 S1                 0.0000
     22 ****        -4.6400   4.8154  -1.0353 H              1 S1                 0.0000
     23 ****        -5.3574   3.2131  -1.0050 H              1 S1                 0.0000
     24 ****        -3.8642   3.4902  -1.8933 H              1 S1                 0.0000
     25 ****        -1.6880   4.0712  -0.6206 H              1 S1                 0.0000
     26 ****        -1.6832   4.0953   1.1419 H              1 S1                 0.0000
     27 ****        -2.5367   5.3397   0.2459 H              1 S1                 0.0000
     28 ****        -4.6265   4.8353   1.5729 H              1 S1                 0.0000
     29 ****        -3.8424   3.5225   2.4427 H              1 S1                 0.0000
     30 ****        -5.3436   3.2323   1.5732 H              1 S1                 0.0000
     31 ****        -5.2615   1.0942   0.2609 H              1 S1                 0.0000
     32 ****        -3.8767  -1.2491   0.2948 H              1 S1                 0.0000
     33 ****        -1.3407  -1.7102   0.3199 H              1 S1                 0.0000
     34 ****         0.4561  -2.4859   0.2870 H              1 S1                 0.0000
     35 ****         2.8615  -0.7105   0.2804 H              1 S1                 0.0000
     36 ****         2.5913  -1.9130   2.4178 H              1 S1                 0.0000
     37 ****         2.4296  -3.4354   1.5757 H              1 S1                 0.0000
     38 ****         4.9074  -1.6483   1.6066 H              1 S1                 0.0000
     39 ****         4.7342  -3.1877   2.4158 H              1 S1                 0.0000
     40 ****         5.9911  -3.4220   0.2671 H              1 S1                 0.0000
     41 ****         4.5178  -4.3615   0.2499 H              1 S1                 0.0000
     42 ****         4.9205  -1.6189  -1.0380 H              1 S1                 0.0000
     43 ****         4.7721  -3.1427  -1.8776 H              1 S1                 0.0000
     44 ****         2.4688  -3.4194  -1.0653 H              1 S1                 0.0000
     45 ****         2.6680  -0.6082  -2.2395 H              1 S1                 0.0000
     46 ****         3.0964  -2.0269  -3.1728 H              1 S1                 0.0000
     47 ****         0.9420  -1.4312  -3.4559 H              1 S1                 0.0000
     48 ****         0.1605   1.4556   0.3721 LP             1 S1                 0.0000
     49 ****         1.7429   0.7516   0.3579 LP             1 S1                 0.0000
     50 ****         0.5508  -1.6128  -1.9245 LP             1 S1                 0.0000
     51 ****         1.0016  -2.8935  -2.8318 LP             1 S1                 0.0000
     52 ****        -1.1751   2.0538   0.3251 LP             1 S1                 0.0000
@<TRIPOS>BOND
    1    1    2 1     
    2    1   22 1     
    3    1   23 1     
    4    1   24 1     
    5    2    3 1     
    6    2    4 1     
    7    2    5 1     
    8    3   25 1     
    9    3   26 1     
   10    3   27 1     
   11    4   28 1     
   12    4   29 1     
   13    4   30 1     
   14    5   21 1     
   15    5    6 1     
   16    6    7 2     
   17    6   31 1     
   18    7    8 1     
   19    7   32 1     
   20    8    9 1     
   21    8   21 2     
   22    9   10 am    
   23    9   33 1     
   24   10   11 2     
   25   10   12 am    
   26   12   13 1     
   27   12   34 1     
   28   13   18 1     
   29   13   14 1     
   30   13   35 1     
   31   14   15 1     
   32   14   36 1     
   33   14   37 1     
   34   15   16 1     
   35   15   38 1     
   36   15   39 1     
   37   16   17 1     
   38   16   40 1     
   39   16   41 1     
   40   17   18 1     
   41   17   42 1     
   42   17   43 1     
   43   18   19 1     
   44   18   44 1     
   45   19   20 1     
   46   19   45 1     
   47   19   46 1     
   48   20   47 1     
   49   11   48 1     
   50   11   49 1     
   51   20   50 1     
   52   20   51 1     
   53   21   52 1     
@<TRIPOS>SUBSTRUCTURE
      1 S1             1
@<TRIPOS>SET
LONE_PAIRS      STATIC     ATOMS    <user>   **** ""
5 48 49 50 51 52
DONOR_HYDROGENS      STATIC     ATOMS    <user>   **** ""
3 33 34 47
ATOM$BLUE        STATIC     ATOMS    COLORGROUP SYSTEM
5 48 49 50 51 52
ATOM$RED        STATIC     ATOMS    COLORGROUP SYSTEM
3 33 34 47
