AV-unprocessed.smi:1403|AV-procd|sdf|5697|dock9
  -GOLD-   22720 5323D 1   1.00000     0.00000
 Structure written by MMmdl.
 36 37  0  0  0  0  0  0  0  0  1 V2000
  151.9772  141.6824  158.4964 C   0  0  0  0  0  0  0  0  0  0  0  0
  150.5958  142.3588  158.4870 C   0  0  2  0  0  0  0  0  0  0  0  0
  150.1484  142.5316  157.1074 N   0  0  0  0  0  0  0  0  0  0  0  0
  150.0434  141.5551  156.1933 C   0  0  0  0  0  0  0  0  0  0  0  0
  150.3539  140.3841  156.4154 O   0  0  0  0  0  0  0  0  0  0  0  0
  149.5341  141.9755  154.8080 C   0  0  0  0  0  0  0  0  0  0  0  0
  148.7330  140.9278  154.1593 N   0  0  0  0  0  0  0  0  0  0  0  0
  147.4042  141.1596  153.8332 C   0  0  0  0  0  0  0  0  0  0  0  0
  146.6149  140.2427  153.2250 C   0  0  0  0  0  0  0  0  0  0  0  0
  147.1438  138.9287  152.8748 C   0  0  0  0  0  0  0  0  0  0  0  0
  146.5082  138.0316  152.3255 O   0  0  0  0  0  0  0  0  0  0  0  0
  148.4846  138.7347  153.2169 N   0  0  0  0  0  0  0  0  0  0  0  0
  149.3041  139.6761  153.8415 C   0  0  0  0  0  0  0  0  0  0  0  0
  150.4769  139.4034  154.0951 O   0  0  0  0  0  0  0  0  0  0  0  0
  150.6058  143.7300  159.1904 C   0  0  2  0  0  0  0  0  0  0  0  0
  151.6143  144.7312  158.6208 C   0  0  0  0  0  0  0  0  0  0  0  0
  151.8894  145.6126  159.8169 C   0  0  0  0  0  0  0  0  0  0  0  0
  151.8988  144.5919  160.9484 C   0  0  0  0  0  0  0  0  0  0  0  0
  150.9731  143.5804  160.5623 O   0  0  0  0  0  0  0  0  0  0  0  0
  148.8956  137.8405  152.9918 H   0  0  0  0  0  0  0  0  0  0  0  0
  152.3223  141.4971  159.5135 H   0  0  0  0  0  0  0  0  0  0  0  0
  152.7252  142.3001  157.9982 H   0  0  0  0  0  0  0  0  0  0  0  0
  151.9474  140.7192  157.9858 H   0  0  0  0  0  0  0  0  0  0  0  0
  149.8905  141.7150  159.0156 H   0  0  0  0  0  0  0  0  0  0  0  0
  149.8730  143.4640  156.8348 H   0  0  0  0  0  0  0  0  0  0  0  0
  148.9557  142.8991  154.8814 H   0  0  0  0  0  0  0  0  0  0  0  0
  150.3997  142.2272  154.1936 H   0  0  0  0  0  0  0  0  0  0  0  0
  146.9711  142.1210  154.0701 H   0  0  0  0  0  0  0  0  0  0  0  0
  145.5871  140.4833  152.9950 H   0  0  0  0  0  0  0  0  0  0  0  0
  149.6101  144.1759  159.1653 H   0  0  0  0  0  0  0  0  0  0  0  0
  152.5314  144.2253  158.3153 H   0  0  0  0  0  0  0  0  0  0  0  0
  151.2277  145.2847  157.7643 H   0  0  0  0  0  0  0  0  0  0  0  0
  152.8231  146.1696  159.7364 H   0  0  0  0  0  0  0  0  0  0  0  0
  151.0741  146.3239  159.9552 H   0  0  0  0  0  0  0  0  0  0  0  0
  152.8862  144.1383  161.0431 H   0  0  0  0  0  0  0  0  0  0  0  0
  151.6338  145.0310  161.9104 H   0  0  0  0  0  0  0  0  0  0  0  0
  1  2  1  0  0  0  0
  1 21  1  0  0  0  0
  1 22  1  0  0  0  0
  1 23  1  0  0  0  0
  2  3  1  0  0  0  0
  2 15  1  0  0  0  0
  2 24  1  0  0  0  0
  3  4  1  0  0  0  0
  3 25  1  0  0  0  0
  4  5  2  0  0  0  0
  4  6  1  0  0  0  0
  6  7  1  0  0  0  0
  6 26  1  0  0  0  0
  6 27  1  0  0  0  0
  7 13  1  0  0  0  0
  7  8  1  0  0  0  0
  8  9  2  0  0  0  0
  8 28  1  0  0  0  0
  9 10  1  0  0  0  0
  9 29  1  0  0  0  0
 10 11  2  0  0  0  0
 10 12  1  0  0  0  0
 12 20  1  0  0  0  0
 12 13  1  0  0  0  0
 13 14  2  0  0  0  0
 15 19  1  0  0  0  0
 15 16  1  0  0  0  0
 15 30  1  0  0  0  0
 16 17  1  0  0  0  0
 16 31  1  0  0  0  0
 16 32  1  0  0  0  0
 17 18  1  0  0  0  0
 17 33  1  0  0  0  0
 17 34  1  0  0  0  0
 18 19  1  0  0  0  0
 18 35  1  0  0  0  0
 18 36  1  0  0  0  0
M  END
> <s_m_source_file>
AV-unprocessed.smi

> <i_m_source_file_index>
1403

> <i_lp_mmshare_version>
43012

> <i_f3d_flags>
0

> <s_epik_input>
TzFbQ0gyXVtDSDJdW0NIMl1bQ0BIXTFbQ0BIXShbQ0gzXSlbTkhdQyg9TylbQ0gyXW4yW2NIXVtjSF1jKD1PKVtuSF1jMj1P

> <s_epik_cmdline>
J2VwaWtfcHl0aG9uJywgJy1waCcsICc3LjAnLCAnLXRuJywgJzgnLCAnLW1hJywgJzIwMCcsICctbWV0YWxfYmluZGluZycsICctaW1hZScsICc8aW5maWxlLm1hZT4nLCAnLW9tYWUnLCAnPG91dGZpbGUubWFlPic=

> <r_lp_tautomer_probability>
0.999537

> <r_epik_Ionization_Penalty>
0.00331407

> <r_epik_Ionization_Penalty_Charging>
0.00331405

> <r_epik_Ionization_Penalty_Neutral>
2.30132e-08

> <r_epik_State_Penalty>
0.00234266

> <r_epik_Charging_Adjusted_Penalty>
0.00565671

> <i_epik_Tot_Q>
0

> <i_epik_Tot_abs_Q>
0

> <r_epik_Metal_State_Penalty>
0.365604

> <b_epik_Metal_Only>
0

> <s_lp_Force_Field>
OPLS_2005

> <r_lp_Energy>
18.7727

> <b_lp_Chiralities_Consistent>
1

> <s_lp_Variant>
AV-unprocessed.smi:1403-1

> <Gold.Version>
5.8.1

> <Gold.Id.Protein>
6NUR|6NUR_protein|mol2

> <Gold.PLP.Fitness>
44.5699

> <Gold.PLP.PLP>
-36.3326

> <Gold.PLP.part.hbond>
-5.0000

> <Gold.PLP.part.metal>
0.0000

> <Gold.PLP.part.buried>
2.5733

> <Gold.PLP.part.nonpolar>
-34.2631

> <Gold.PLP.part.repulsive>
0.8781

> <Gold.PLP.ligand.clash>
0.0000

> <Gold.PLP.ligand.torsion>
0.3881

> <Gold.PLP.Chemscore.Hbond>
3.0000

> <Gold.PLP.Chemscore.CHOScore>
0.0000

> <Gold.PLP.Chemscore.Metal>
0.0000

> <Gold.Chemscore.Hbonds>
donor molecule, donor type, donor heavy atom, donor atom, acceptor molecule, acceptor atom, score
      L1  H     3    25       P1  8028  1.00
      L1  H    12    20       P1  7948  1.00
      P1  H  7989  7998       L1    14  1.00

> <Gold.PLP.Chemscore.Internal.Correction>
0.0135

> <Gold.Rescore>
     Score         DG    S(hbond)    S(metal)    S(lipo)     H(rot)  DE(clash)    DE(int)     intcor
     12.46     -19.49       2.82        0.00      83.72       2.04       2.61       4.41       ----

> <Gold.Chemscore.Fitness>
12.4644

> <Gold.Chemscore.DG>
-19.4851

> <Gold.Chemscore.ZeroCoef>
-5.4800

> <Gold.Chemscore.Hbond>
2.8236

> <Gold.Chemscore.Metal>
0.0000

> <Gold.Chemscore.Lipo>
83.7206

> <Gold.Chemscore.Internal_Hbond>
0.0000

> <Gold.Chemscore.DEClash>
2.6127

> <Gold.Chemscore.DEInternal>
4.4079

> <Gold.Chemscore.Rot>
2.0395

> <Gold.Chemscore.Internal.Correction>
   9.000000E+99

> <Gold.Chemscore.Hbonds>
donor molecule, donor type, donor heavy atom, donor atom, acceptor molecule, acceptor atom, score
      L1  H     3    25       P1  8028  0.95
      L1  H    12    20       P1  7948  0.94
      P1  H  7989  7998       L1    14  0.69

> <Gold.Chemscore.Hbond.Weighted>
-9.4309

> <Gold.Chemscore.Metal.Weighted>
-0.0000

> <Gold.Chemscore.Lipo.Weighted>
-9.7953

> <Gold.Chemscore.Internal_Hbond.Weighted>
0.0000

> <Gold.Chemscore.DEClash.Weighted>
2.6127

> <Gold.Chemscore.DEInternal.Weighted>
4.4079

> <Gold.Chemscore.Rot.Weighted>
5.2211

> <Gold.Chemscore.Internal.Correction.Weighted>
   9.000000E+99

> <Gold.Protein.RotatedTorsions>
[ 6907 6896 6895 6894 ] final  100.26 input  -60.11 | X-H torsion
[ 7974 7965 7964 7962 ] final  -76.75 input  175.53 | X-H torsion
[ 8008 7997 7996 7995 ] final    9.46 input   59.86 | X-H torsion
[ 10167 10162 10161 10158 ] final   12.78 input  -65.29 | X-H torsion
[ 10718 10713 10712 10709 ] final  -25.12 input   66.30 | X-H torsion
[ 10763 10752 10751 10750 ] final   37.86 input  -60.55 | X-H torsion
[ 11005 11000 10999 10996 ] final  118.78 input  -57.11 | X-H torsion

> <Gold.Protein.ActiveResidues>
 VAL166  LYS551  ARG553  GLY616  TRP617  ASP618  TYR619  PRO620  LYS621  CYS622 
 ASP623  PHE694  ASN695  SER759  ASP760  ASP761  ALA762  ILE779  LEU786  VAL792 
 PHE793  MET794  SER795  GLU796  ALA797  LYS798  CYS799  TRP800  GLU811  SER814 

> <Gold.Protein.RotatedAtoms>
  152.5376  134.0304  159.8021 H   0  0  0  0  0  0  0  0  0  0  0  0  # atno 6907 bound_to 6896
  151.0476  133.5644  159.2652 H   0  0  0  0  0  0  0  0  0  0  0  0  # atno 6908 bound_to 6896
  151.2590  135.0655  159.9145 H   0  0  0  0  0  0  0  0  0  0  0  0  # atno 6909 bound_to 6896
  145.6088  140.9391  143.1201 H   0  0  0  0  0  0  0  0  0  0  0  0  # atno 7974 bound_to 7965
  154.7803  140.2817  155.6069 H   0  0  0  0  0  0  0  0  0  0  0  0  # atno 8008 bound_to 7997
  156.2949  140.2624  156.2555 H   0  0  0  0  0  0  0  0  0  0  0  0  # atno 8009 bound_to 7997
  154.9792  140.0375  157.2260 H   0  0  0  0  0  0  0  0  0  0  0  0  # atno 8010 bound_to 7997
  140.6046  143.8535  150.7000 H   0  0  0  0  0  0  0  0  0  0  0  0  # atno 10167 bound_to 10162
  156.4686  130.4519  149.6883 H   0  0  0  0  0  0  0  0  0  0  0  0  # atno 10718 bound_to 10713
  153.0022  135.6266  154.2213 H   0  0  0  0  0  0  0  0  0  0  0  0  # atno 10763 bound_to 10752
  154.1955  135.2806  155.3009 H   0  0  0  0  0  0  0  0  0  0  0  0  # atno 10764 bound_to 10752
  154.5725  135.5672  153.7168 H   0  0  0  0  0  0  0  0  0  0  0  0  # atno 10765 bound_to 10752
  139.9122  134.9623  156.7555 H   0  0  0  0  0  0  0  0  0  0  0  0  # atno 11005 bound_to 11000
  144.7278  139.7819  143.7358 LP  0  0  0  0  0  0  0  0  0  0  0  0  # atno 17320 bound_to 7965
  146.1520  139.4606  143.0042 LP  0  0  0  0  0  0  0  0  0  0  0  0  # atno 17321 bound_to 7965
  140.2089  143.3899  152.1734 LP  0  0  0  0  0  0  0  0  0  0  0  0  # atno 17342 bound_to 10162
  139.5315  144.7164  151.5039 LP  0  0  0  0  0  0  0  0  0  0  0  0  # atno 17343 bound_to 10162
  156.3642  130.7497  151.2472 LP  0  0  0  0  0  0  0  0  0  0  0  0  # atno 17370 bound_to 10713
  157.7493  131.0342  150.4305 LP  0  0  0  0  0  0  0  0  0  0  0  0  # atno 17371 bound_to 10713
  140.6739  133.9535  155.7872 LP  0  0  0  0  0  0  0  0  0  0  0  0  # atno 17394 bound_to 11000
  141.0558  134.0418  157.3724 LP  0  0  0  0  0  0  0  0  0  0  0  0  # atno 17395 bound_to 11000

$$$$
