AV-unprocessed.smi:2355|AV-procd|sdf|9385|dock2
  -GOLD-   2272013 13D 1   1.00000     0.00000
 Structure written by MMmdl.
 48 49  0  0  0  0  0  0  0  0  1 V2000
  151.7192  145.6708  160.1708 C   0  0  0  0  0  0  0  0  0  0  0  0
  151.8679  144.2938  159.5590 C   0  0  0  0  0  0  0  0  0  0  0  0
  151.2039  143.9575  158.3637 C   0  0  0  0  0  0  0  0  0  0  0  0
  151.3833  142.6595  157.8465 C   0  0  0  0  0  0  0  0  0  0  0  0
  150.6965  142.2283  156.5678 C   0  0  0  0  0  0  0  0  0  0  0  0
  152.1597  141.7297  158.4426 N   0  0  0  0  0  0  0  0  0  0  0  0
  152.8053  142.0428  159.5934 C   0  0  0  0  0  0  0  0  0  0  0  0
  153.6482  141.1403  160.2949 N   0  0  0  0  0  0  0  0  0  0  0  0
  154.2823  140.0546  159.8182 C   0  0  0  0  0  0  0  0  0  0  0  0
  154.2085  139.6377  158.6617 O   0  0  0  0  0  0  0  0  0  0  0  0
  155.0228  139.4714  160.7722 N   0  0  0  0  0  0  0  0  0  0  0  0
  155.8782  138.2980  160.5935 C   0  0  2  0  0  0  0  0  0  0  0  0
  156.5965  138.3808  159.2344 C   0  0  0  0  0  0  0  0  0  0  0  0
  155.0661  136.9843  160.8222 C   0  0  2  0  0  0  0  0  0  0  0  0
  153.6392  137.1372  160.2341 C   0  0  0  0  0  0  0  0  0  0  0  0
  155.0532  136.5282  162.2358 N   0  0  0  0  0  0  0  0  0  0  0  0
  154.0417  137.2198  163.0435 C   0  0  0  0  0  0  0  0  0  0  0  0
  154.0129  136.7413  164.5056 C   0  0  0  0  0  0  0  0  0  0  0  0
  153.7958  135.3380  164.5472 O   0  0  0  0  0  0  0  0  0  0  0  0
  154.8013  134.6232  163.8430 C   0  0  0  0  0  0  0  0  0  0  0  0
  154.8331  135.0832  162.3755 C   0  0  0  0  0  0  0  0  0  0  0  0
  152.6782  143.3219  160.1800 C   0  0  0  0  0  0  0  0  0  0  0  0
  151.0811  146.3104  159.5602 H   0  0  0  0  0  0  0  0  0  0  0  0
  152.6941  146.1503  160.2628 H   0  0  0  0  0  0  0  0  0  0  0  0
  151.2769  145.5961  161.1645 H   0  0  0  0  0  0  0  0  0  0  0  0
  150.5739  144.6740  157.8572 H   0  0  0  0  0  0  0  0  0  0  0  0
  150.1799  143.0640  156.0948 H   0  0  0  0  0  0  0  0  0  0  0  0
  149.9637  141.4488  156.7774 H   0  0  0  0  0  0  0  0  0  0  0  0
  151.4248  141.8335  155.8585 H   0  0  0  0  0  0  0  0  0  0  0  0
  153.7998  141.3564  161.2688 H   0  0  0  0  0  0  0  0  0  0  0  0
  155.0211  139.8881  161.6915 H   0  0  0  0  0  0  0  0  0  0  0  0
  156.6943  138.3198  161.3141 H   0  0  0  0  0  0  0  0  0  0  0  0
  157.1667  137.4735  159.0343 H   0  0  0  0  0  0  0  0  0  0  0  0
  157.2982  139.2157  159.2228 H   0  0  0  0  0  0  0  0  0  0  0  0
  155.9057  138.5378  158.4065 H   0  0  0  0  0  0  0  0  0  0  0  0
  155.5625  136.2110  160.2336 H   0  0  0  0  0  0  0  0  0  0  0  0
  153.6504  137.4988  159.2079 H   0  0  0  0  0  0  0  0  0  0  0  0
  153.0343  137.8281  160.8221 H   0  0  0  0  0  0  0  0  0  0  0  0
  153.1093  136.1873  160.1851 H   0  0  0  0  0  0  0  0  0  0  0  0
  154.2325  138.2909  163.0651 H   0  0  0  0  0  0  0  0  0  0  0  0
  153.0553  137.0816  162.5982 H   0  0  0  0  0  0  0  0  0  0  0  0
  154.9469  136.9892  165.0120 H   0  0  0  0  0  0  0  0  0  0  0  0
  153.2117  137.2405  165.0507 H   0  0  0  0  0  0  0  0  0  0  0  0
  155.7714  134.7798  164.3174 H   0  0  0  0  0  0  0  0  0  0  0  0
  154.5860  133.5562  163.9006 H   0  0  0  0  0  0  0  0  0  0  0  0
  153.9009  134.8001  161.8843 H   0  0  0  0  0  0  0  0  0  0  0  0
  155.6308  134.5219  161.8935 H   0  0  0  0  0  0  0  0  0  0  0  0
  153.1974  143.5590  161.0976 H   0  0  0  0  0  0  0  0  0  0  0  0
  1  2  1  0  0  0  0
  1 23  1  0  0  0  0
  1 24  1  0  0  0  0
  1 25  1  0  0  0  0
  2 22  1  0  0  0  0
  2  3  2  0  0  0  0
  3  4  1  0  0  0  0
  3 26  1  0  0  0  0
  4  5  1  0  0  0  0
  4  6  2  0  0  0  0
  5 27  1  0  0  0  0
  5 28  1  0  0  0  0
  5 29  1  0  0  0  0
  6  7  1  0  0  0  0
  7  8  1  0  0  0  0
  7 22  2  0  0  0  0
  8  9  1  0  0  0  0
  8 30  1  0  0  0  0
  9 10  2  0  0  0  0
  9 11  1  0  0  0  0
 11 12  1  0  0  0  0
 11 31  1  0  0  0  0
 12 13  1  0  0  0  0
 12 14  1  0  0  0  0
 12 32  1  0  0  0  0
 13 33  1  0  0  0  0
 13 34  1  0  0  0  0
 13 35  1  0  0  0  0
 14 15  1  0  0  0  0
 14 16  1  0  0  0  0
 14 36  1  0  0  0  0
 15 37  1  0  0  0  0
 15 38  1  0  0  0  0
 15 39  1  0  0  0  0
 16 21  1  0  0  0  0
 16 17  1  0  0  0  0
 17 18  1  0  0  0  0
 17 40  1  0  0  0  0
 17 41  1  0  0  0  0
 18 19  1  0  0  0  0
 18 42  1  0  0  0  0
 18 43  1  0  0  0  0
 19 20  1  0  0  0  0
 20 21  1  0  0  0  0
 20 44  1  0  0  0  0
 20 45  1  0  0  0  0
 21 46  1  0  0  0  0
 21 47  1  0  0  0  0
 22 48  1  0  0  0  0
M  END
> <s_m_source_file>
AV-unprocessed.smi

> <i_m_source_file_index>
2355

> <i_lp_mmshare_version>
43012

> <i_f3d_flags>
0

> <s_epik_input>
W0NIM11jMVtjSF1jKFtDSDNdKW5jKFtjSF0xKVtOSF1DKD1PKVtOSF1bQ0BIXShbQ0gzXSlbQ0BIXShbQ0gzXSlOMltDSDJdW0NIMl1PW0NIMl1bQ0gyXTI=

> <s_epik_cmdline>
J2VwaWtfcHl0aG9uJywgJy1waCcsICc3LjAnLCAnLXRuJywgJzgnLCAnLW1hJywgJzIwMCcsICctbWV0YWxfYmluZGluZycsICctaW1hZScsICc8aW5maWxlLm1hZT4nLCAnLW9tYWUnLCAnPG91dGZpbGUubWFlPic=

> <r_epik_Ionization_Penalty>
0.266238

> <r_epik_Ionization_Penalty_Charging>
0

> <r_epik_Ionization_Penalty_Neutral>
0.266238

> <r_epik_State_Penalty>
0.257924

> <r_epik_Charging_Adjusted_Penalty>
0.257924

> <i_epik_Tot_Q>
0

> <i_epik_Tot_abs_Q>
0

> <r_epik_Metal_State_Penalty>
0.257904

> <b_epik_Metal_Only>
0

> <s_lp_Force_Field>
OPLS_2005

> <r_lp_Energy>
36.7742

> <b_lp_Chiralities_Consistent>
1

> <s_lp_Variant>
AV-unprocessed.smi:2355-1

> <Gold.Version>
5.8.1

> <Gold.Id.Protein>
6NUR|6NUR_protein|mol2

> <Gold.PLP.Fitness>
42.6097

> <Gold.PLP.PLP>
-42.5144

> <Gold.PLP.part.hbond>
-0.9801

> <Gold.PLP.part.metal>
0.0000

> <Gold.PLP.part.buried>
-4.5934

> <Gold.PLP.part.nonpolar>
-36.8476

> <Gold.PLP.part.repulsive>
0.1830

> <Gold.PLP.ligand.clash>
0.0000

> <Gold.PLP.ligand.torsion>
1.5106

> <Gold.PLP.Chemscore.Hbond>
1.0000

> <Gold.PLP.Chemscore.CHOScore>
0.0000

> <Gold.PLP.Chemscore.Metal>
0.0000

> <Gold.Chemscore.Hbonds>
donor molecule, donor type, donor heavy atom, donor atom, acceptor molecule, acceptor atom, score
      P1  H  7997  8009       L1    10  1.00

> <Gold.PLP.Chemscore.Internal.Correction>
0.1166

> <Gold.Rescore>
     Score         DG    S(hbond)    S(metal)    S(lipo)     H(rot)  DE(clash)    DE(int)     intcor
     12.66     -18.30       0.97        0.00     112.57       1.40       0.09       5.55       ----

> <Gold.Chemscore.Fitness>
12.6595

> <Gold.Chemscore.DG>
-18.2988

> <Gold.Chemscore.ZeroCoef>
-5.4800

> <Gold.Chemscore.Hbond>
0.9690

> <Gold.Chemscore.Metal>
0.0000

> <Gold.Chemscore.Lipo>
112.5651

> <Gold.Chemscore.Internal_Hbond>
0.0000

> <Gold.Chemscore.DEClash>
0.0872

> <Gold.Chemscore.DEInternal>
5.5520

> <Gold.Chemscore.Rot>
1.4015

> <Gold.Chemscore.Internal.Correction>
   9.000000E+99

> <Gold.Chemscore.Hbonds>
donor molecule, donor type, donor heavy atom, donor atom, acceptor molecule, acceptor atom, score
      P1  H  7997  8009       L1    10  0.99

> <Gold.Chemscore.Hbond.Weighted>
-3.2364

> <Gold.Chemscore.Metal.Weighted>
-0.0000

> <Gold.Chemscore.Lipo.Weighted>
-13.1701

> <Gold.Chemscore.Internal_Hbond.Weighted>
0.0000

> <Gold.Chemscore.DEClash.Weighted>
0.0872

> <Gold.Chemscore.DEInternal.Weighted>
5.5520

> <Gold.Chemscore.Rot.Weighted>
3.5878

> <Gold.Chemscore.Internal.Correction.Weighted>
   9.000000E+99

> <Gold.Protein.RotatedTorsions>
[ 6907 6896 6895 6894 ] final   27.59 input  -60.11 | X-H torsion
[ 7974 7965 7964 7962 ] final   -5.88 input  175.53 | X-H torsion
[ 8008 7997 7996 7995 ] final  124.74 input   59.86 | X-H torsion
[ 10167 10162 10161 10158 ] final  -60.10 input  -65.29 | X-H torsion
[ 10718 10713 10712 10709 ] final  -75.16 input   66.30 | X-H torsion
[ 10763 10752 10751 10750 ] final  130.00 input  -60.55 | X-H torsion
[ 11005 11000 10999 10996 ] final  169.43 input  -57.11 | X-H torsion

> <Gold.Protein.ActiveResidues>
 VAL166  LYS551  ARG553  GLY616  TRP617  ASP618  TYR619  PRO620  LYS621  CYS622 
 ASP623  PHE694  ASN695  SER759  ASP760  ASP761  ALA762  ILE779  LEU786  VAL792 
 PHE793  MET794  SER795  GLU796  ALA797  LYS798  CYS799  TRP800  GLU811  SER814 

> <Gold.Protein.RotatedAtoms>
  152.0045  134.9910  160.0565 H   0  0  0  0  0  0  0  0  0  0  0  0  # atno 6907 bound_to 6896
  152.1487  133.4504  159.4811 H   0  0  0  0  0  0  0  0  0  0  0  0  # atno 6908 bound_to 6896
  150.6873  134.2133  159.4411 H   0  0  0  0  0  0  0  0  0  0  0  0  # atno 6909 bound_to 6896
  146.2343  140.2087  142.8335 H   0  0  0  0  0  0  0  0  0  0  0  0  # atno 7974 bound_to 7965
  156.2811  140.2733  156.1836 H   0  0  0  0  0  0  0  0  0  0  0  0  # atno 8008 bound_to 7997
  155.0531  140.0386  157.2568 H   0  0  0  0  0  0  0  0  0  0  0  0  # atno 8009 bound_to 7997
  154.7179  140.2682  155.6574 H   0  0  0  0  0  0  0  0  0  0  0  0  # atno 8010 bound_to 7997
  140.6093  143.2382  151.5748 H   0  0  0  0  0  0  0  0  0  0  0  0  # atno 10167 bound_to 10162
  156.0217  130.4434  150.3000 H   0  0  0  0  0  0  0  0  0  0  0  0  # atno 10718 bound_to 10713
  153.7509  135.3210  155.3321 H   0  0  0  0  0  0  0  0  0  0  0  0  # atno 10763 bound_to 10752
  154.8263  135.4567  154.0933 H   0  0  0  0  0  0  0  0  0  0  0  0  # atno 10764 bound_to 10752
  153.2135  135.6939  153.8167 H   0  0  0  0  0  0  0  0  0  0  0  0  # atno 10765 bound_to 10752
  140.2977  134.7621  157.3890 H   0  0  0  0  0  0  0  0  0  0  0  0  # atno 11005 bound_to 11000
  144.9724  140.8381  143.5447 LP  0  0  0  0  0  0  0  0  0  0  0  0  # atno 17320 bound_to 7965
  145.2070  139.2223  143.5163 LP  0  0  0  0  0  0  0  0  0  0  0  0  # atno 17321 bound_to 7965
  139.5349  144.2811  152.1228 LP  0  0  0  0  0  0  0  0  0  0  0  0  # atno 17342 bound_to 10162
  140.2007  144.4661  150.6433 LP  0  0  0  0  0  0  0  0  0  0  0  0  # atno 17343 bound_to 10162
  157.1103  131.0219  151.3050 LP  0  0  0  0  0  0  0  0  0  0  0  0  # atno 17370 bound_to 10713
  157.4710  130.7708  149.7323 LP  0  0  0  0  0  0  0  0  0  0  0  0  # atno 17371 bound_to 10713
  140.1138  134.5311  155.8243 LP  0  0  0  0  0  0  0  0  0  0  0  0  # atno 17394 bound_to 11000
  141.2134  133.6733  156.6738 LP  0  0  0  0  0  0  0  0  0  0  0  0  # atno 17395 bound_to 11000

$$$$
