AV-unprocessed.smi:1340|AV-procd|sdf|5503|dock10
  -GOLD-   22720 5 83D 1   1.00000     0.00000
 Structure written by MMmdl.
 40 41  0  0  0  0  0  0  0  0  1 V2000
  148.9492  139.6911  154.4119 C   0  0  0  0  0  0  0  0  0  0  0  0
  150.2201  138.8390  154.3273 C   0  0  0  0  0  0  0  0  0  0  0  0
  151.2269  139.1616  155.4472 C   0  0  0  0  0  0  0  0  0  0  0  0
  151.0164  138.3337  156.7308 C   0  0  2  0  0  0  0  0  0  0  0  0
  149.6363  138.5877  157.3556 C   0  0  0  0  0  0  0  0  0  0  0  0
  152.0655  138.6481  157.6953 N   0  0  0  0  0  0  0  0  0  0  0  0
  152.3460  137.9598  158.8133 C   0  0  0  0  0  0  0  0  0  0  0  0
  151.6644  137.0215  159.2255 O   0  0  0  0  0  0  0  0  0  0  0  0
  153.6064  138.3874  159.5704 C   0  0  0  0  0  0  0  0  0  0  0  0
  153.4465  139.7950  160.0725 C   0  0  0  0  0  0  0  0  0  0  0  0
  153.9524  140.3186  161.2374 C   0  0  0  0  0  0  0  0  0  0  0  0
  153.5903  142.0157  161.4024 S   0  0  0  0  0  0  0  0  0  0  0  0
  152.7444  141.9515  159.8538 C   0  0  0  0  0  0  0  0  0  0  0  0
  152.1316  143.0449  159.1738 N   0  0  0  0  0  0  0  0  0  0  0  0
  152.2146  144.4093  159.6858 C   0  0  0  0  0  0  0  0  0  0  0  0
  151.3778  145.2208  158.7021 C   0  0  0  0  0  0  0  0  0  0  0  0
  150.9528  144.2116  157.7606 N   0  0  0  0  0  0  0  0  0  0  0  0
  151.3921  142.9845  158.0487 C   0  0  0  0  0  0  0  0  0  0  0  0
  151.1442  141.9886  157.3717 O   0  0  0  0  0  0  0  0  0  0  0  0
  152.7362  140.7302  159.3113 N   0  0  0  0  0  0  0  0  0  0  0  0
  148.2620  139.4432  153.6025 H   0  0  0  0  0  0  0  0  0  0  0  0
  149.1814  140.7536  154.3350 H   0  0  0  0  0  0  0  0  0  0  0  0
  148.4270  139.5279  155.3549 H   0  0  0  0  0  0  0  0  0  0  0  0
  149.9504  137.7833  154.3715 H   0  0  0  0  0  0  0  0  0  0  0  0
  150.6777  138.9964  153.3511 H   0  0  0  0  0  0  0  0  0  0  0  0
  152.2412  139.0060  155.0764 H   0  0  0  0  0  0  0  0  0  0  0  0
  151.1537  140.2222  155.6910 H   0  0  0  0  0  0  0  0  0  0  0  0
  151.0787  137.2777  156.4610 H   0  0  0  0  0  0  0  0  0  0  0  0
  148.8383  138.3448  156.6537 H   0  0  0  0  0  0  0  0  0  0  0  0
  149.5175  139.6320  157.6463 H   0  0  0  0  0  0  0  0  0  0  0  0
  149.4876  137.9745  158.2452 H   0  0  0  0  0  0  0  0  0  0  0  0
  152.6861  139.4064  157.4505 H   0  0  0  0  0  0  0  0  0  0  0  0
  153.7827  137.6967  160.3960 H   0  0  0  0  0  0  0  0  0  0  0  0
  154.4712  138.3089  158.9102 H   0  0  0  0  0  0  0  0  0  0  0  0
  154.5314  139.8146  161.9971 H   0  0  0  0  0  0  0  0  0  0  0  0
  151.8112  144.4706  160.6976 H   0  0  0  0  0  0  0  0  0  0  0  0
  153.2510  144.7499  159.7029 H   0  0  0  0  0  0  0  0  0  0  0  0
  150.5150  145.6837  159.1829 H   0  0  0  0  0  0  0  0  0  0  0  0
  151.9647  145.9922  158.2021 H   0  0  0  0  0  0  0  0  0  0  0  0
  150.3767  144.4277  156.9598 H   0  0  0  0  0  0  0  0  0  0  0  0
  1  2  1  0  0  0  0
  1 21  1  0  0  0  0
  1 22  1  0  0  0  0
  1 23  1  0  0  0  0
  2  3  1  0  0  0  0
  2 24  1  0  0  0  0
  2 25  1  0  0  0  0
  3  4  1  0  0  0  0
  3 26  1  0  0  0  0
  3 27  1  0  0  0  0
  4  5  1  0  0  0  0
  4  6  1  0  0  0  0
  4 28  1  0  0  0  0
  5 29  1  0  0  0  0
  5 30  1  0  0  0  0
  5 31  1  0  0  0  0
  6  7  1  0  0  0  0
  6 32  1  0  0  0  0
  7  8  2  0  0  0  0
  7  9  1  0  0  0  0
  9 10  1  0  0  0  0
  9 33  1  0  0  0  0
  9 34  1  0  0  0  0
 10 20  1  0  0  0  0
 10 11  2  0  0  0  0
 11 12  1  0  0  0  0
 11 35  1  0  0  0  0
 12 13  1  0  0  0  0
 13 14  1  0  0  0  0
 13 20  2  0  0  0  0
 14 18  1  0  0  0  0
 14 15  1  0  0  0  0
 15 16  1  0  0  0  0
 15 36  1  0  0  0  0
 15 37  1  0  0  0  0
 16 17  1  0  0  0  0
 16 38  1  0  0  0  0
 16 39  1  0  0  0  0
 17 18  1  0  0  0  0
 17 40  1  0  0  0  0
 18 19  2  0  0  0  0
M  END
> <s_m_source_file>
AV-unprocessed.smi

> <i_m_source_file_index>
1340

> <i_lp_mmshare_version>
43012

> <i_f3d_flags>
0

> <s_epik_input>
W0NIM11bQ0gyXVtDSDJdW0NASF0oW0NIM10pW05IXUMoPU8pW0NIMl1jMVtjSF1zYyhuMSlOMltDSDJdW0NIMl1bTkhdQzI9Tw==

> <s_epik_cmdline>
J2VwaWtfcHl0aG9uJywgJy1waCcsICc3LjAnLCAnLXRuJywgJzgnLCAnLW1hJywgJzIwMCcsICctbWV0YWxfYmluZGluZycsICctaW1hZScsICc8aW5maWxlLm1hZT4nLCAnLW9tYWUnLCAnPG91dGZpbGUubWFlPic=

> <r_lp_tautomer_probability>
1

> <r_epik_Ionization_Penalty>
0.00012151

> <r_epik_Ionization_Penalty_Charging>
0

> <r_epik_Ionization_Penalty_Neutral>
0.00012151

> <r_epik_State_Penalty>
-0

> <r_epik_Charging_Adjusted_Penalty>
0

> <i_epik_Tot_Q>
0

> <i_epik_Tot_abs_Q>
0

> <r_epik_Metal_State_Penalty>
-0

> <b_epik_Metal_Only>
0

> <s_lp_Force_Field>
OPLS_2005

> <r_lp_Energy>
29.8855

> <b_lp_Chiralities_Consistent>
1

> <s_lp_Variant>
AV-unprocessed.smi:1340-1

> <Gold.Version>
5.8.1

> <Gold.Id.Protein>
6NUR|6NUR_protein|mol2

> <Gold.PLP.Fitness>
44.8178

> <Gold.PLP.PLP>
-40.1666

> <Gold.PLP.part.hbond>
-2.0000

> <Gold.PLP.part.metal>
0.0000

> <Gold.PLP.part.buried>
-6.5322

> <Gold.PLP.part.nonpolar>
-32.4644

> <Gold.PLP.part.repulsive>
0.1486

> <Gold.PLP.ligand.clash>
0.0000

> <Gold.PLP.ligand.torsion>
0.6748

> <Gold.PLP.Chemscore.Hbond>
1.9913

> <Gold.PLP.Chemscore.CHOScore>
0.0000

> <Gold.PLP.Chemscore.Metal>
0.0000

> <Gold.Chemscore.Hbonds>
donor molecule, donor type, donor heavy atom, donor atom, acceptor molecule, acceptor atom, score
      L1  H    17    40       P1  8028  1.00
      P1  H  6896  6907       L1     8  1.00

> <Gold.PLP.Chemscore.Internal.Correction>
0.0270

> <Gold.Rescore>
     Score         DG    S(hbond)    S(metal)    S(lipo)     H(rot)  DE(clash)    DE(int)     intcor
     13.44     -17.07       1.95        0.00      85.29       1.92       0.08       3.55       ----

> <Gold.Chemscore.Fitness>
13.4407

> <Gold.Chemscore.DG>
-17.0710

> <Gold.Chemscore.ZeroCoef>
-5.4800

> <Gold.Chemscore.Hbond>
1.9524

> <Gold.Chemscore.Metal>
0.0000

> <Gold.Chemscore.Lipo>
85.2904

> <Gold.Chemscore.Internal_Hbond>
0.0000

> <Gold.Chemscore.DEClash>
0.0816

> <Gold.Chemscore.DEInternal>
3.5487

> <Gold.Chemscore.Rot>
1.9176

> <Gold.Chemscore.Internal.Correction>
   9.000000E+99

> <Gold.Chemscore.Hbonds>
donor molecule, donor type, donor heavy atom, donor atom, acceptor molecule, acceptor atom, score
      L1  H    17    40       P1  8028  0.87
      P1  H  6896  6907       L1     8  0.94

> <Gold.Chemscore.Hbond.Weighted>
-6.5211

> <Gold.Chemscore.Metal.Weighted>
-0.0000

> <Gold.Chemscore.Lipo.Weighted>
-9.9790

> <Gold.Chemscore.Internal_Hbond.Weighted>
0.0000

> <Gold.Chemscore.DEClash.Weighted>
0.0816

> <Gold.Chemscore.DEInternal.Weighted>
3.5487

> <Gold.Chemscore.Rot.Weighted>
4.9091

> <Gold.Chemscore.Internal.Correction.Weighted>
   9.000000E+99

> <Gold.Protein.RotatedTorsions>
[ 6907 6896 6895 6894 ] final   -9.17 input  -60.11 | X-H torsion
[ 7974 7965 7964 7962 ] final   17.45 input  175.53 | X-H torsion
[ 8008 7997 7996 7995 ] final -113.31 input   59.86 | X-H torsion
[ 10167 10162 10161 10158 ] final   74.56 input  -65.29 | X-H torsion
[ 10718 10713 10712 10709 ] final  145.42 input   66.30 | X-H torsion
[ 10763 10752 10751 10750 ] final -142.58 input  -60.55 | X-H torsion
[ 11005 11000 10999 10996 ] final   89.19 input  -57.11 | X-H torsion

> <Gold.Protein.ActiveResidues>
 VAL166  LYS551  ARG553  GLY616  TRP617  ASP618  TYR619  PRO620  LYS621  CYS622 
 ASP623  PHE694  ASN695  SER759  ASP760  ASP761  ALA762  ILE779  LEU786  VAL792 
 PHE793  MET794  SER795  GLU796  ALA797  LYS798  CYS799  TRP800  GLU811  SER814 

> <Gold.Protein.RotatedAtoms>
  151.4220  135.0999  159.9616 H   0  0  0  0  0  0  0  0  0  0  0  0  # atno 6907 bound_to 6896
  152.4985  133.8698  159.7303 H   0  0  0  0  0  0  0  0  0  0  0  0  # atno 6908 bound_to 6896
  150.9216  133.6815  159.2858 H   0  0  0  0  0  0  0  0  0  0  0  0  # atno 6909 bound_to 6896
  146.2218  139.8601  142.8606 H   0  0  0  0  0  0  0  0  0  0  0  0  # atno 7974 bound_to 7965
  155.0187  140.0393  157.2428 H   0  0  0  0  0  0  0  0  0  0  0  0  # atno 8008 bound_to 7997
  154.7397  140.2746  155.6361 H   0  0  0  0  0  0  0  0  0  0  0  0  # atno 8009 bound_to 7997
  156.2861  140.2668  156.2121 H   0  0  0  0  0  0  0  0  0  0  0  0  # atno 8010 bound_to 7997
  140.0124  144.5604  150.7647 H   0  0  0  0  0  0  0  0  0  0  0  0  # atno 10167 bound_to 10162
  157.3455  131.0942  151.1045 H   0  0  0  0  0  0  0  0  0  0  0  0  # atno 10718 bound_to 10713
  154.8503  135.3492  154.6051 H   0  0  0  0  0  0  0  0  0  0  0  0  # atno 10763 bound_to 10752
  153.6660  135.6987  153.5167 H   0  0  0  0  0  0  0  0  0  0  0  0  # atno 10764 bound_to 10752
  153.2780  135.4272  155.1008 H   0  0  0  0  0  0  0  0  0  0  0  0  # atno 10765 bound_to 10752
  139.8880  134.8536  156.3107 H   0  0  0  0  0  0  0  0  0  0  0  0  # atno 11005 bound_to 11000
  145.2713  141.0109  143.3770 LP  0  0  0  0  0  0  0  0  0  0  0  0  # atno 17320 bound_to 7965
  144.9221  139.4399  143.6536 LP  0  0  0  0  0  0  0  0  0  0  0  0  # atno 17321 bound_to 7965
  140.7376  143.2767  151.3720 LP  0  0  0  0  0  0  0  0  0  0  0  0  # atno 17342 bound_to 10162
  139.6196  144.0934  152.2378 LP  0  0  0  0  0  0  0  0  0  0  0  0  # atno 17343 bound_to 10162
  157.2241  130.6495  149.5823 LP  0  0  0  0  0  0  0  0  0  0  0  0  # atno 17370 bound_to 10713
  155.9714  130.4620  150.6129 LP  0  0  0  0  0  0  0  0  0  0  0  0  # atno 17371 bound_to 10713
  140.9852  133.7242  156.0731 LP  0  0  0  0  0  0  0  0  0  0  0  0  # atno 17394 bound_to 11000
  140.7697  134.3846  157.5510 LP  0  0  0  0  0  0  0  0  0  0  0  0  # atno 17395 bound_to 11000

$$$$
