#       Name:                AV-unprocessed.smi:1803
#       Creating user name   scv26
#       Creation time:       Fri Mar 27 08:54:32 2020


#       File generated by GOLD software.
#

@<TRIPOS>MOLECULE
AV-unprocessed.smi:1803
    40    42     1
SMALL
NO_CHARGES


@<TRIPOS>ATOM
      1 ****        -2.0263  -2.6933  -0.8612 O.2            1 S1                 0.0000
      2 ****        -0.8033  -2.7169  -0.7303 C.2            1 S1                 0.0000
      3 ****        -0.0720  -3.8616  -0.7431 N.pl3          1 S1                -1.0000
      4 ****         1.2619  -3.8727  -0.5630 C.2            1 S1                 0.0000
      5 ****         2.1285  -3.8124  -1.5870 N.2            1 S1                 0.0000
      6 ****         3.4556  -3.8293  -1.1803 N.2            1 S1                 0.0000
      7 ****         3.5566  -3.9173   0.1458 C.2            1 S1                 0.0000
      8 ****         2.0398  -3.9752   1.0187 S.3            1 S1                 0.0000
      9 ****        -0.1449  -1.5542  -0.5665 N.am           1 S1                 0.0000
     10 ****        -0.7515  -0.2298  -0.5130 C.3            1 S1                 0.0000
     11 ****        -1.1781   0.3195  -1.8835 C.3            1 S1                 0.0000
     12 ****        -0.8190   1.8179  -1.8523 C.3            1 S1                 0.0000
     13 ****        -0.3194   2.1076  -0.4884 N.4            1 S1                 1.0000
     14 ****        -1.3792   2.6799   0.3866 C.3            1 S1                 0.0000
     15 ****        -0.9377   2.7582   1.8541 C.3            1 S1                 0.0000
     16 ****        -0.5484   1.3683   2.3641 C.3            1 S1                 0.0000
     17 ****         0.5767   0.8001   1.4923 C.3            1 S1                 0.0000
     18 ****         0.2450   0.8205  -0.0167 C.3            1 S1                 0.0000
     19 ****         4.5297  -3.9461   0.6128 H              1 S1                 0.0000
     20 ****         0.8590  -1.6011  -0.4698 H              1 S1                 0.0000
     21 ****        -1.6168  -0.2525   0.1515 H              1 S1                 0.0000
     22 ****        -0.6440  -0.1735  -2.6973 H              1 S1                 0.0000
     23 ****        -2.2443   0.1620  -2.0496 H              1 S1                 0.0000
     24 ****        -0.0124   2.0137  -2.5598 H              1 S1                 0.0000
     25 ****        -1.6580   2.4549  -2.1358 H              1 S1                 0.0000
     26 ****        -1.6382   3.6754   0.0246 H              1 S1                 0.0000
     27 ****        -2.2863   2.0774   0.3147 H              1 S1                 0.0000
     28 ****        -0.0950   3.4437   1.9546 H              1 S1                 0.0000
     29 ****        -1.7452   3.1646   2.4636 H              1 S1                 0.0000
     30 ****        -0.2243   1.4250   3.4035 H              1 S1                 0.0000
     31 ****        -1.4138   0.7050   2.3437 H              1 S1                 0.0000
     32 ****         1.4765   1.3937   1.6592 H              1 S1                 0.0000
     33 ****         0.8236  -0.2134   1.8099 H              1 S1                 0.0000
     34 ****         1.1811   0.6741  -0.5598 H              1 S1                 0.0000
     35 ****         0.4258   2.7869  -0.5418 H              1 S1                 0.0000
     36 ****        -2.5325  -3.5468  -0.9849 LP             1 S1                 0.0000
     37 ****        -2.5143  -1.8206  -0.8439 LP             1 S1                 0.0000
     38 ****        -0.5435  -4.7307  -0.8923 LP             1 S1                 0.0000
     39 ****         1.8465  -3.7606  -2.5450 LP             1 S1                 0.0000
     40 ****         4.2365  -3.7815  -1.8031 LP             1 S1                 0.0000
@<TRIPOS>BOND
    1    1    2 2     
    2    2    3 1     
    3    2    9 am    
    4    3    4 1     
    5    4    8 1     
    6    4    5 2     
    7    5    6 1     
    8    6    7 2     
    9    7    8 1     
   10    7   19 1     
   11    9   10 1     
   12    9   20 1     
   13   10   18 1     
   14   10   11 1     
   15   10   21 1     
   16   11   12 1     
   17   11   22 1     
   18   11   23 1     
   19   12   13 1     
   20   12   24 1     
   21   12   25 1     
   22   13   18 1     
   23   13   14 1     
   24   13   35 1     
   25   14   15 1     
   26   14   26 1     
   27   14   27 1     
   28   15   16 1     
   29   15   28 1     
   30   15   29 1     
   31   16   17 1     
   32   16   30 1     
   33   16   31 1     
   34   17   18 1     
   35   17   32 1     
   36   17   33 1     
   37   18   34 1     
   38    1   36 1     
   39    1   37 1     
   40    3   38 1     
   41    5   39 1     
   42    6   40 1     
@<TRIPOS>SUBSTRUCTURE
      1 S1             1
@<TRIPOS>SET
LONE_PAIRS      STATIC     ATOMS    <user>   **** ""
5 36 37 38 39 40
DONOR_HYDROGENS      STATIC     ATOMS    <user>   **** ""
2 20 35
ATOM$BLUE        STATIC     ATOMS    COLORGROUP SYSTEM
5 36 37 38 39 40
ATOM$RED        STATIC     ATOMS    COLORGROUP SYSTEM
2 20 35
