AV-unprocessed.smi:2973|AV-procd|sdf|11346|dock5
  -GOLD-   2272016263D 1   1.00000     0.00000
 Structure written by MMmdl.
 48 50  0  0  0  0  0  0  0  0  2 V2000
  152.8052  138.0624  158.9234 C   0  0  0  0  0  0  0  0  0  0  0  0
  152.1737  139.4581  159.1218 C   0  0  1  0  0  0  0  0  0  0  0  0
  153.1793  140.4232  159.7863 C   0  0  0  0  0  0  0  0  0  0  0  0
  152.5453  141.7875  160.0947 C   0  0  0  0  0  0  0  0  0  0  0  0
  151.9572  142.4239  158.8287 C   0  0  0  0  0  0  0  0  0  0  0  0
  150.9444  141.4848  158.1517 C   0  0  0  0  0  0  0  0  0  0  0  0
  151.5391  140.0870  157.8380 C   0  0  1  0  0  0  0  0  0  0  0  0
  152.4996  140.1821  156.7497 N   0  5  0  0  0  0  0  0  0  0  0  0
  152.0446  139.4660  155.6959 C   0  0  0  0  0  0  0  0  0  0  0  0
  152.5951  139.3341  154.6036 O   0  0  0  0  0  0  0  0  0  0  0  0
  150.8599  138.8905  155.9782 N   0  0  0  0  0  0  0  0  0  0  0  0
  150.0769  138.0636  155.0462 C   0  0  0  0  0  0  0  0  0  0  0  0
  149.8422  136.6132  155.5031 C   0  0  0  0  0  0  0  0  0  0  0  0
  150.2884  136.2515  156.5917 O   0  0  0  0  0  0  0  0  0  0  0  0
  149.1586  135.7898  154.6901 N   0  0  0  0  0  0  0  0  0  0  0  0
  148.8725  134.3859  154.9571 C   0  0  0  0  0  0  0  0  0  0  0  0
  149.5798  133.4661  153.9473 C   0  0  0  0  0  0  0  0  0  0  0  0
  148.7131  132.2941  153.5272 C   0  0  0  0  0  0  0  0  0  0  0  0
  147.4688  132.5080  152.8962 C   0  0  0  0  0  0  0  0  0  0  0  0
  146.7029  131.3861  152.5249 C   0  0  0  0  0  0  0  0  0  0  0  0
  147.2076  130.1001  152.7967 C   0  0  0  0  0  0  0  0  0  0  0  0
  148.4626  129.9927  153.4286 C   0  0  0  0  0  0  0  0  0  0  0  0
  149.2056  131.0617  153.7879 N   0  0  0  0  0  0  0  0  0  0  0  0
  150.4693  139.1984  157.2200 C   0  0  0  0  0  0  0  0  0  0  0  0
  149.4344  138.8487  157.7895 O   0  0  0  0  0  0  0  0  0  0  0  0
  153.6475  138.0980  158.2322 H   0  0  0  0  0  0  0  0  0  0  0  0
  152.0865  137.3406  158.5360 H   0  0  0  0  0  0  0  0  0  0  0  0
  153.1770  137.6674  159.8688 H   0  0  0  0  0  0  0  0  0  0  0  0
  151.3630  139.3207  159.8399 H   0  0  0  0  0  0  0  0  0  0  0  0
  153.5578  139.9868  160.7111 H   0  0  0  0  0  0  0  0  0  0  0  0
  154.0455  140.5613  159.1378 H   0  0  0  0  0  0  0  0  0  0  0  0
  151.7609  141.6670  160.8428 H   0  0  0  0  0  0  0  0  0  0  0  0
  153.2907  142.4526  160.5311 H   0  0  0  0  0  0  0  0  0  0  0  0
  151.4750  143.3691  159.0787 H   0  0  0  0  0  0  0  0  0  0  0  0
  152.7608  142.6643  158.1319 H   0  0  0  0  0  0  0  0  0  0  0  0
  150.0840  141.3744  158.8139 H   0  0  0  0  0  0  0  0  0  0  0  0
  150.5632  141.9549  157.2432 H   0  0  0  0  0  0  0  0  0  0  0  0
  149.1056  138.5289  154.8715 H   0  0  0  0  0  0  0  0  0  0  0  0
  150.5653  138.0396  154.0706 H   0  0  0  0  0  0  0  0  0  0  0  0
  148.8301  136.1641  153.8109 H   0  0  0  0  0  0  0  0  0  0  0  0
  149.1627  134.1310  155.9778 H   0  0  0  0  0  0  0  0  0  0  0  0
  147.7927  134.2468  154.8962 H   0  0  0  0  0  0  0  0  0  0  0  0
  149.8613  134.0347  153.0594 H   0  0  0  0  0  0  0  0  0  0  0  0
  150.5091  133.0840  154.3719 H   0  0  0  0  0  0  0  0  0  0  0  0
  147.1095  133.5074  152.7000 H   0  0  0  0  0  0  0  0  0  0  0  0
  145.7457  131.5097  152.0402 H   0  0  0  0  0  0  0  0  0  0  0  0
  146.6474  129.2172  152.5270 H   0  0  0  0  0  0  0  0  0  0  0  0
  148.8800  129.0221  153.6521 H   0  0  0  0  0  0  0  0  0  0  0  0
  1  2  1  0  0  0  0
  1 26  1  0  0  0  0
  1 27  1  0  0  0  0
  1 28  1  0  0  0  0
  2  7  1  0  0  0  0
  2  3  1  0  0  0  0
  2 29  1  0  0  0  0
  3  4  1  0  0  0  0
  3 30  1  0  0  0  0
  3 31  1  0  0  0  0
  4  5  1  0  0  0  0
  4 32  1  0  0  0  0
  4 33  1  0  0  0  0
  5  6  1  0  0  0  0
  5 34  1  0  0  0  0
  5 35  1  0  0  0  0
  6  7  1  0  0  0  0
  6 36  1  0  0  0  0
  6 37  1  0  0  0  0
  7 24  1  0  0  0  0
  7  8  1  0  0  0  0
  8  9  1  0  0  0  0
  9 10  2  0  0  0  0
  9 11  1  0  0  0  0
 11 12  1  0  0  0  0
 11 24  1  0  0  0  0
 12 13  1  0  0  0  0
 12 38  1  0  0  0  0
 12 39  1  0  0  0  0
 13 14  2  0  0  0  0
 13 15  1  0  0  0  0
 15 16  1  0  0  0  0
 15 40  1  0  0  0  0
 16 17  1  0  0  0  0
 16 41  1  0  0  0  0
 16 42  1  0  0  0  0
 17 18  1  0  0  0  0
 17 43  1  0  0  0  0
 17 44  1  0  0  0  0
 18 23  1  0  0  0  0
 18 19  2  0  0  0  0
 19 20  1  0  0  0  0
 19 45  1  0  0  0  0
 20 21  2  0  0  0  0
 20 46  1  0  0  0  0
 21 22  1  0  0  0  0
 21 47  1  0  0  0  0
 22 23  2  0  0  0  0
 22 48  1  0  0  0  0
 24 25  2  0  0  0  0
M  CHG  1   8  -1
M  END
> <s_m_source_file>
AV-unprocessed.smi

> <i_m_source_file_index>
2973

> <i_lp_mmshare_version>
43012

> <i_f3d_flags>
0

> <s_epik_input>
W0NIMl0xW0NIMl1bQ0gyXVtDSDJdW0NAQEhdKFtDSDNdKVtDQF0xMltOSF1DKD1PKU4oQzI9TylbQ0gyXUMoPU8pW05IXVtDSDJdW0NIMl1jM1tjSF1bY0hdW2NIXVtjSF1uMw==

> <s_epik_cmdline>
J2VwaWtfcHl0aG9uJywgJy1waCcsICc3LjAnLCAnLXRuJywgJzgnLCAnLW1hJywgJzIwMCcsICctbWV0YWxfYmluZGluZycsICctaW1hZScsICc8aW5maWxlLm1hZT4nLCAnLW9tYWUnLCAnPG91dGZpbGUubWFlPic=

> <r_lp_tautomer_probability>
1

> <r_epik_Ionization_Penalty>
6.04175

> <r_epik_Ionization_Penalty_Charging>
6.01728

> <r_epik_Ionization_Penalty_Neutral>
0.0244696

> <r_epik_State_Penalty>
6.03712

> <r_epik_Charging_Adjusted_Penalty>
12.0544

> <i_epik_Tot_Q>
-1

> <i_epik_Tot_abs_Q>
1

> <r_epik_Metal_State_Penalty>
2.01153

> <b_epik_Metal_Only>
1

> <s_lp_Force_Field>
OPLS_2005

> <r_lp_Energy>
16.8957

> <b_lp_Chiralities_Consistent>
1

> <s_lp_Variant>
AV-unprocessed.smi:2973-10

> <Gold.Version>
5.8.1

> <Gold.Id.Protein>
6NUR|6NUR_protein|mol2

> <Gold.PLP.Fitness>
48.8659

> <Gold.PLP.PLP>
-39.0936

> <Gold.PLP.part.hbond>
-3.0000

> <Gold.PLP.part.metal>
0.0000

> <Gold.PLP.part.buried>
-3.9463

> <Gold.PLP.part.nonpolar>
-31.9826

> <Gold.PLP.part.repulsive>
0.1386

> <Gold.PLP.ligand.clash>
0.0000

> <Gold.PLP.ligand.torsion>
0.2952

> <Gold.PLP.Chemscore.Hbond>
3.4404

> <Gold.PLP.Chemscore.CHOScore>
0.0000

> <Gold.PLP.Chemscore.Metal>
0.0000

> <Gold.Chemscore.Hbonds>
donor molecule, donor type, donor heavy atom, donor atom, acceptor molecule, acceptor atom, score
      L1  H    15    40       P1  7948  0.96
      P1  H  7989  7998       L1    10  0.50
      P1  H  7997  8009       L1     8  2.00

> <Gold.PLP.Chemscore.Internal.Correction>
0.0416

> <Gold.Rescore>
     Score         DG    S(hbond)    S(metal)    S(lipo)     H(rot)  DE(clash)    DE(int)     intcor
     16.99     -18.32       1.86        0.00      96.23       1.81       0.96       0.38       ----

> <Gold.Chemscore.Fitness>
16.9868

> <Gold.Chemscore.DG>
-18.3233

> <Gold.Chemscore.ZeroCoef>
-5.4800

> <Gold.Chemscore.Hbond>
1.8608

> <Gold.Chemscore.Metal>
0.0000

> <Gold.Chemscore.Lipo>
96.2328

> <Gold.Chemscore.Internal_Hbond>
0.0000

> <Gold.Chemscore.DEClash>
0.9605

> <Gold.Chemscore.DEInternal>
0.3759

> <Gold.Chemscore.Rot>
1.8090

> <Gold.Chemscore.Internal.Correction>
   9.000000E+99

> <Gold.Chemscore.Hbonds>
donor molecule, donor type, donor heavy atom, donor atom, acceptor molecule, acceptor atom, score
      L1  H    15    40       P1  7948  0.91
      P1  H  7989  7998       L1    10  0.17
      P1  H  7997  8009       L1     8  0.34

> <Gold.Chemscore.Hbond.Weighted>
-6.2150

> <Gold.Chemscore.Metal.Weighted>
-0.0000

> <Gold.Chemscore.Lipo.Weighted>
-11.2592

> <Gold.Chemscore.Internal_Hbond.Weighted>
0.0000

> <Gold.Chemscore.DEClash.Weighted>
0.9605

> <Gold.Chemscore.DEInternal.Weighted>
0.3759

> <Gold.Chemscore.Rot.Weighted>
4.6310

> <Gold.Chemscore.Internal.Correction.Weighted>
   9.000000E+99

> <Gold.Protein.RotatedTorsions>
[ 6907 6896 6895 6894 ] final  144.15 input  -60.11 | X-H torsion
[ 7974 7965 7964 7962 ] final   96.08 input  175.53 | X-H torsion
[ 8008 7997 7996 7995 ] final -172.12 input   59.86 | X-H torsion
[ 10167 10162 10161 10158 ] final -157.03 input  -65.29 | X-H torsion
[ 10718 10713 10712 10709 ] final -167.60 input   66.30 | X-H torsion
[ 10763 10752 10751 10750 ] final  -76.38 input  -60.55 | X-H torsion
[ 11005 11000 10999 10996 ] final  -51.55 input  -57.11 | X-H torsion

> <Gold.Protein.ActiveResidues>
 VAL166  LYS551  ARG553  GLY616  TRP617  ASP618  TYR619  PRO620  LYS621  CYS622 
 ASP623  PHE694  ASN695  SER759  ASP760  ASP761  ALA762  ILE779  LEU786  VAL792 
 PHE793  MET794  SER795  GLU796  ALA797  LYS798  CYS799  TRP800  GLU811  SER814 

> <Gold.Protein.RotatedAtoms>
  152.1973  133.4816  159.5039 H   0  0  0  0  0  0  0  0  0  0  0  0  # atno 6907 bound_to 6896
  150.6962  134.1635  159.4194 H   0  0  0  0  0  0  0  0  0  0  0  0  # atno 6908 bound_to 6896
  151.9552  135.0150  160.0595 H   0  0  0  0  0  0  0  0  0  0  0  0  # atno 6909 bound_to 6896
  145.4436  139.2299  143.3078 H   0  0  0  0  0  0  0  0  0  0  0  0  # atno 7974 bound_to 7965
  155.9405  140.1108  157.1059 H   0  0  0  0  0  0  0  0  0  0  0  0  # atno 8008 bound_to 7997
  154.4088  140.1220  156.4986 H   0  0  0  0  0  0  0  0  0  0  0  0  # atno 8009 bound_to 7997
  155.6968  140.3472  155.4918 H   0  0  0  0  0  0  0  0  0  0  0  0  # atno 8010 bound_to 7997
  139.6803  143.9592  152.2333 H   0  0  0  0  0  0  0  0  0  0  0  0  # atno 10167 bound_to 10162
  156.6848  130.9136  151.3061 H   0  0  0  0  0  0  0  0  0  0  0  0  # atno 10718 bound_to 10713
  154.4991  135.5799  153.6517 H   0  0  0  0  0  0  0  0  0  0  0  0  # atno 10763 bound_to 10752
  152.9875  135.6131  154.3025 H   0  0  0  0  0  0  0  0  0  0  0  0  # atno 10764 bound_to 10752
  154.2931  135.2848  155.2625 H   0  0  0  0  0  0  0  0  0  0  0  0  # atno 10765 bound_to 10752
  141.0877  133.6639  156.3894 H   0  0  0  0  0  0  0  0  0  0  0  0  # atno 11005 bound_to 11000
  146.2543  140.5187  142.8880 LP  0  0  0  0  0  0  0  0  0  0  0  0  # atno 17320 bound_to 7965
  144.8106  140.6378  143.6418 LP  0  0  0  0  0  0  0  0  0  0  0  0  # atno 17321 bound_to 7965
  139.9381  144.6699  150.8294 LP  0  0  0  0  0  0  0  0  0  0  0  0  # atno 17342 bound_to 10162
  140.7650  143.3263  151.2508 LP  0  0  0  0  0  0  0  0  0  0  0  0  # atno 17343 bound_to 10162
  157.7030  130.9354  150.0845 LP  0  0  0  0  0  0  0  0  0  0  0  0  # atno 17370 bound_to 10713
  156.1841  130.3651  149.8996 LP  0  0  0  0  0  0  0  0  0  0  0  0  # atno 17371 bound_to 10713
  140.5324  134.6199  157.5354 LP  0  0  0  0  0  0  0  0  0  0  0  0  # atno 17394 bound_to 11000
  139.9698  134.7312  156.0065 LP  0  0  0  0  0  0  0  0  0  0  0  0  # atno 17395 bound_to 11000

$$$$
