AV-unprocessed.smi:1041|AV-procd|sdf|4534|dock4
  -GOLD-   22720 2563D 1   1.00000     0.00000
 Structure written by MMmdl.
 52 53  0  0  0  0  0  0  0  0  3 V2000
  146.0702  129.9730  151.4800 C   0  0  0  0  0  0  0  0  0  0  0  0
  145.4436  131.2283  151.2818 O   0  0  0  0  0  0  0  0  0  0  0  0
  145.7181  132.1434  152.3294 C   0  0  0  0  0  0  0  0  0  0  0  0
  146.6560  133.2402  151.8006 C   0  0  0  0  0  0  0  0  0  0  0  0
  147.6130  133.7181  152.8309 N   0  3  2  0  0  0  0  0  0  0  0  0
  148.7909  132.8266  153.0054 C   0  0  0  0  0  0  0  0  0  0  0  0
  149.8069  133.4289  153.9938 C   0  0  0  0  0  0  0  0  0  0  0  0
  149.1715  133.7602  155.3561 C   0  0  2  0  0  0  0  0  0  0  0  0
  148.8996  132.4910  156.1992 C   0  0  0  0  0  0  0  0  0  0  0  0
  147.9800  132.7470  157.2999 N   0  0  0  0  0  0  0  0  0  0  0  0
  148.1344  133.6860  158.2471 C   0  0  0  0  0  0  0  0  0  0  0  0
  149.1383  134.3920  158.3347 O   0  0  0  0  0  0  0  0  0  0  0  0
  146.9771  133.8894  159.2321 C   0  0  0  0  0  0  0  0  0  0  0  0
  147.2961  134.6345  160.5305 C   0  0  0  0  0  0  0  0  0  0  0  0
  147.1777  134.0718  161.7667 C   0  0  0  0  0  0  0  0  0  0  0  0
  146.7289  132.6370  161.9808 C   0  0  0  0  0  0  0  0  0  0  0  0
  147.4638  134.8066  162.9295 N   0  0  0  0  0  0  0  0  0  0  0  0
  147.8307  136.0272  162.8288 C   0  0  0  0  0  0  0  0  0  0  0  0
  148.1380  136.8109  164.0869 C   0  0  0  0  0  0  0  0  0  0  0  0
  147.9627  136.6935  161.6307 N   0  5  0  0  0  0  0  0  0  0  0  0
  147.7142  136.0459  160.4573 C   0  0  0  0  0  0  0  0  0  0  0  0
  147.8116  136.6072  159.3667 O   0  0  0  0  0  0  0  0  0  0  0  0
  147.9262  134.6418  155.1238 C   0  0  0  0  0  0  0  0  0  0  0  0
  146.9451  134.0041  154.1264 C   0  0  0  0  0  0  0  0  0  0  0  0
  145.8228  129.3046  150.6555 H   0  0  0  0  0  0  0  0  0  0  0  0
  145.7330  129.5050  152.4057 H   0  0  0  0  0  0  0  0  0  0  0  0
  147.1555  130.0771  151.5148 H   0  0  0  0  0  0  0  0  0  0  0  0
  144.7848  132.5979  152.6652 H   0  0  0  0  0  0  0  0  0  0  0  0
  146.1462  131.6290  153.1899 H   0  0  0  0  0  0  0  0  0  0  0  0
  147.2048  132.8315  150.9509 H   0  0  0  0  0  0  0  0  0  0  0  0
  146.0800  134.0833  151.4164 H   0  0  0  0  0  0  0  0  0  0  0  0
  148.4606  131.8446  153.3457 H   0  0  0  0  0  0  0  0  0  0  0  0
  149.2918  132.6704  152.0513 H   0  0  0  0  0  0  0  0  0  0  0  0
  150.6501  132.7499  154.1255 H   0  0  0  0  0  0  0  0  0  0  0  0
  150.2202  134.3415  153.5620 H   0  0  0  0  0  0  0  0  0  0  0  0
  149.8944  134.3595  155.9110 H   0  0  0  0  0  0  0  0  0  0  0  0
  148.4618  131.7042  155.5860 H   0  0  0  0  0  0  0  0  0  0  0  0
  149.8347  132.0865  156.5901 H   0  0  0  0  0  0  0  0  0  0  0  0
  147.1245  132.2098  157.3119 H   0  0  0  0  0  0  0  0  0  0  0  0
  146.1851  134.4186  158.7027 H   0  0  0  0  0  0  0  0  0  0  0  0
  146.5480  132.9139  159.4632 H   0  0  0  0  0  0  0  0  0  0  0  0
  147.4692  131.9431  161.5821 H   0  0  0  0  0  0  0  0  0  0  0  0
  145.7762  132.4540  161.4832 H   0  0  0  0  0  0  0  0  0  0  0  0
  146.5996  132.4179  163.0415 H   0  0  0  0  0  0  0  0  0  0  0  0
  149.0146  137.4435  163.9420 H   0  0  0  0  0  0  0  0  0  0  0  0
  148.3394  136.1416  164.9244 H   0  0  0  0  0  0  0  0  0  0  0  0
  147.2918  137.4462  164.3494 H   0  0  0  0  0  0  0  0  0  0  0  0
  147.4165  134.8594  156.0628 H   0  0  0  0  0  0  0  0  0  0  0  0
  148.2448  135.6092  154.7332 H   0  0  0  0  0  0  0  0  0  0  0  0
  146.1119  134.6895  153.9660 H   0  0  0  0  0  0  0  0  0  0  0  0
  146.5217  133.0862  154.5367 H   0  0  0  0  0  0  0  0  0  0  0  0
  147.9630  134.6057  152.4989 H   0  0  0  0  0  0  0  0  0  0  0  0
  1  2  1  0  0  0  0
  1 25  1  0  0  0  0
  1 26  1  0  0  0  0
  1 27  1  0  0  0  0
  2  3  1  0  0  0  0
  3  4  1  0  0  0  0
  3 28  1  0  0  0  0
  3 29  1  0  0  0  0
  4  5  1  0  0  0  0
  4 30  1  0  0  0  0
  4 31  1  0  0  0  0
  5 24  1  0  0  0  0
  5  6  1  0  0  0  0
  5 52  1  0  0  0  0
  6  7  1  0  0  0  0
  6 32  1  0  0  0  0
  6 33  1  0  0  0  0
  7  8  1  0  0  0  0
  7 34  1  0  0  0  0
  7 35  1  0  0  0  0
  8  9  1  0  0  0  0
  8 23  1  0  0  0  0
  8 36  1  0  0  0  0
  9 10  1  0  0  0  0
  9 37  1  0  0  0  0
  9 38  1  0  0  0  0
 10 11  1  0  0  0  0
 10 39  1  0  0  0  0
 11 12  2  0  0  0  0
 11 13  1  0  0  0  0
 13 14  1  0  0  0  0
 13 40  1  0  0  0  0
 13 41  1  0  0  0  0
 14 21  1  0  0  0  0
 14 15  2  0  0  0  0
 15 16  1  0  0  0  0
 15 17  1  0  0  0  0
 16 42  1  0  0  0  0
 16 43  1  0  0  0  0
 16 44  1  0  0  0  0
 17 18  2  0  0  0  0
 18 19  1  0  0  0  0
 18 20  1  0  0  0  0
 19 45  1  0  0  0  0
 19 46  1  0  0  0  0
 19 47  1  0  0  0  0
 20 21  1  0  0  0  0
 21 22  2  0  0  0  0
 23 24  1  0  0  0  0
 23 48  1  0  0  0  0
 23 49  1  0  0  0  0
 24 50  1  0  0  0  0
 24 51  1  0  0  0  0
M  CHG  1   5   1
M  CHG  1  20  -1
M  END
> <s_m_source_file>
AV-unprocessed.smi

> <i_m_source_file_index>
1041

> <i_lp_mmshare_version>
43012

> <i_f3d_flags>
0

> <s_epik_input>
W0NIM11PW0NIMl1bQ0gyXU4xW0NIMl1bQ0gyXVtDSF0oW0NIMl1bQ0gyXTEpW0NIMl1bTkhdQyg9TylbQ0gyXWMyYyhbQ0gzXSluYyhbQ0gzXSlbbkhdYzI9Tw==

> <s_epik_cmdline>
J2VwaWtfcHl0aG9uJywgJy1waCcsICc3LjAnLCAnLXRuJywgJzgnLCAnLW1hJywgJzIwMCcsICctbWV0YWxfYmluZGluZycsICctaW1hZScsICc8aW5maWxlLm1hZT4nLCAnLW9tYWUnLCAnPG91dGZpbGUubWFlPic=

> <r_lp_tautomer_probability>
0.839158

> <r_epik_Ionization_Penalty>
6.54961

> <r_epik_Ionization_Penalty_Charging>
0.00968647

> <r_epik_Ionization_Penalty_Neutral>
6.53992

> <r_epik_State_Penalty>
4.43892

> <r_epik_Charging_Adjusted_Penalty>
4.44861

> <i_epik_Tot_Q>
0

> <i_epik_Tot_abs_Q>
2

> <r_epik_Metal_State_Penalty>
0.818645

> <b_epik_Metal_Only>
1

> <s_lp_Force_Field>
OPLS_2005

> <r_lp_Energy>
22.1122

> <b_lp_Chiralities_Consistent>
1

> <s_lp_Variant>
AV-unprocessed.smi:1041-7

> <Gold.Version>
5.8.1

> <Gold.Id.Protein>
6NUR|6NUR_protein|mol2

> <Gold.PLP.Fitness>
54.0140

> <Gold.PLP.PLP>
-36.9962

> <Gold.PLP.part.hbond>
-4.0000

> <Gold.PLP.part.metal>
0.0000

> <Gold.PLP.part.buried>
-3.3407

> <Gold.PLP.part.nonpolar>
-29.0674

> <Gold.PLP.part.repulsive>
0.1620

> <Gold.PLP.ligand.clash>
0.0000

> <Gold.PLP.ligand.torsion>
1.1513

> <Gold.PLP.Chemscore.Hbond>
6.4080

> <Gold.PLP.Chemscore.CHOScore>
0.0000

> <Gold.PLP.Chemscore.Metal>
0.0000

> <Gold.Chemscore.Hbonds>
donor molecule, donor type, donor heavy atom, donor atom, acceptor molecule, acceptor atom, score
      L1  H     5    52       P1  7948  2.00
      P1  H  6896  6908       L1    12  1.00
      P1  H  6931  6943       L1    20  2.00

> <Gold.PLP.Chemscore.Internal.Correction>
0.0964

> <Gold.Rescore>
     Score         DG    S(hbond)    S(metal)    S(lipo)     H(rot)  DE(clash)    DE(int)     intcor
     13.88     -18.42       2.80        0.00      82.26       2.35       1.59       2.95       ----

> <Gold.Chemscore.Fitness>
13.8792

> <Gold.Chemscore.DG>
-18.4188

> <Gold.Chemscore.ZeroCoef>
-5.4800

> <Gold.Chemscore.Hbond>
2.7951

> <Gold.Chemscore.Metal>
0.0000

> <Gold.Chemscore.Lipo>
82.2600

> <Gold.Chemscore.Internal_Hbond>
0.0000

> <Gold.Chemscore.DEClash>
1.5932

> <Gold.Chemscore.DEInternal>
2.9464

> <Gold.Chemscore.Rot>
2.3520

> <Gold.Chemscore.Internal.Correction>
   9.000000E+99

> <Gold.Chemscore.Hbonds>
donor molecule, donor type, donor heavy atom, donor atom, acceptor molecule, acceptor atom, score
      L1  H     5    52       P1  7948  0.54
      P1  H  6896  6908       L1    12  1.00
      P1  H  6931  6943       L1    20  0.65

> <Gold.Chemscore.Hbond.Weighted>
-9.3355

> <Gold.Chemscore.Metal.Weighted>
-0.0000

> <Gold.Chemscore.Lipo.Weighted>
-9.6244

> <Gold.Chemscore.Internal_Hbond.Weighted>
0.0000

> <Gold.Chemscore.DEClash.Weighted>
1.5932

> <Gold.Chemscore.DEInternal.Weighted>
2.9464

> <Gold.Chemscore.Rot.Weighted>
6.0211

> <Gold.Chemscore.Internal.Correction.Weighted>
   9.000000E+99

> <Gold.Protein.RotatedTorsions>
[ 6907 6896 6895 6894 ] final  145.07 input  -60.11 | X-H torsion
[ 7974 7965 7964 7962 ] final  155.44 input  175.53 | X-H torsion
[ 8008 7997 7996 7995 ] final  133.62 input   59.86 | X-H torsion
[ 10167 10162 10161 10158 ] final  -39.86 input  -65.29 | X-H torsion
[ 10718 10713 10712 10709 ] final  -37.92 input   66.30 | X-H torsion
[ 10763 10752 10751 10750 ] final -152.50 input  -60.55 | X-H torsion
[ 11005 11000 10999 10996 ] final   77.33 input  -57.11 | X-H torsion

> <Gold.Protein.ActiveResidues>
 VAL166  LYS551  ARG553  GLY616  TRP617  ASP618  TYR619  PRO620  LYS621  CYS622 
 ASP623  PHE694  ASN695  SER759  ASP760  ASP761  ALA762  ILE779  LEU786  VAL792 
 PHE793  MET794  SER795  GLU796  ALA797  LYS798  CYS799  TRP800  GLU811  SER814 

> <Gold.Protein.RotatedAtoms>
  152.1855  133.4737  159.4980 H   0  0  0  0  0  0  0  0  0  0  0  0  # atno 6907 bound_to 6896
  150.6942  134.1778  159.4246 H   0  0  0  0  0  0  0  0  0  0  0  0  # atno 6908 bound_to 6896
  151.9691  135.0085  160.0602 H   0  0  0  0  0  0  0  0  0  0  0  0  # atno 6909 bound_to 6896
  144.8024  139.7069  143.6176 H   0  0  0  0  0  0  0  0  0  0  0  0  # atno 7974 bound_to 7965
  156.2993  140.2517  156.3283 H   0  0  0  0  0  0  0  0  0  0  0  0  # atno 8008 bound_to 7997
  154.9169  140.0402  157.1996 H   0  0  0  0  0  0  0  0  0  0  0  0  # atno 8009 bound_to 7997
  154.8349  140.2881  155.5702 H   0  0  0  0  0  0  0  0  0  0  0  0  # atno 8010 bound_to 7997
  140.7051  143.3188  151.2842 H   0  0  0  0  0  0  0  0  0  0  0  0  # atno 10167 bound_to 10162
  156.3096  130.4251  149.8063 H   0  0  0  0  0  0  0  0  0  0  0  0  # atno 10718 bound_to 10713
  154.7990  135.3235  154.7597 H   0  0  0  0  0  0  0  0  0  0  0  0  # atno 10763 bound_to 10752
  153.8269  135.6883  153.4824 H   0  0  0  0  0  0  0  0  0  0  0  0  # atno 10764 bound_to 10752
  153.1696  135.4628  154.9827 H   0  0  0  0  0  0  0  0  0  0  0  0  # atno 10765 bound_to 10752
  139.9259  134.7674  156.1508 H   0  0  0  0  0  0  0  0  0  0  0  0  # atno 11005 bound_to 11000
  146.2309  139.5811  142.9556 LP  0  0  0  0  0  0  0  0  0  0  0  0  # atno 17320 bound_to 7965
  145.5520  141.0412  143.2273 LP  0  0  0  0  0  0  0  0  0  0  0  0  # atno 17321 bound_to 7965
  139.6636  144.0146  152.2708 LP  0  0  0  0  0  0  0  0  0  0  0  0  # atno 17342 bound_to 10162
  139.9721  144.6486  150.7979 LP  0  0  0  0  0  0  0  0  0  0  0  0  # atno 17343 bound_to 10162
  156.5411  130.8300  151.3269 LP  0  0  0  0  0  0  0  0  0  0  0  0  # atno 17370 bound_to 10713
  157.7388  130.9819  150.2273 LP  0  0  0  0  0  0  0  0  0  0  0  0  # atno 17371 bound_to 10713
  141.0816  133.6752  156.2349 LP  0  0  0  0  0  0  0  0  0  0  0  0  # atno 17394 bound_to 11000
  140.6337  134.5237  157.5562 LP  0  0  0  0  0  0  0  0  0  0  0  0  # atno 17395 bound_to 11000

$$$$
