AV-unprocessed.smi:1809|AV-procd|sdf|7313|dock5
  -GOLD-   22720 8573D 1   1.00000     0.00000
 Structure written by MMmdl.
 40 42  0  0  0  0  0  0  0  0  2 V2000
  136.0647  141.3581  153.7641 C   0  0  0  0  0  0  0  0  0  0  0  0
  137.5316  141.1036  153.8314 C   0  0  0  0  0  0  0  0  0  0  0  0
  138.3995  142.0010  154.3146 N   0  0  0  0  0  0  0  0  0  0  0  0
  139.7081  141.5401  154.2781 N   0  0  0  0  0  0  0  0  0  0  0  0
  139.7886  140.3038  153.7671 C   0  0  0  0  0  0  0  0  0  0  0  0
  141.0069  139.5893  153.6195 N   0  0  0  0  0  0  0  0  0  0  0  0
  141.2304  138.2775  153.8111 C   0  0  0  0  0  0  0  0  0  0  0  0
  140.3905  137.4586  154.1851 O   0  0  0  0  0  0  0  0  0  0  0  0
  142.5027  137.9549  153.5366 N   0  0  0  0  0  0  0  0  0  0  0  0
  143.0808  136.6200  153.6652 C   0  0  0  0  0  0  0  0  0  0  0  0
  143.3854  135.9705  152.3015 C   0  0  2  0  0  0  0  0  0  0  0  0
  143.0932  134.4581  152.2571 C   0  0  0  0  0  0  0  0  0  0  0  0
  143.4852  133.8577  150.9570 N   0  3  2  0  0  0  0  0  0  0  0  0
  143.5034  132.3793  151.0078 C   0  0  0  0  0  0  0  0  0  0  0  0
  144.9632  131.9664  151.2708 C   0  0  0  0  0  0  0  0  0  0  0  0
  145.7782  133.2644  151.2183 C   0  0  0  0  0  0  0  0  0  0  0  0
  144.8419  134.2510  150.5201 C   0  0  2  0  0  0  0  0  0  0  0  0
  145.1430  135.7456  150.7449 C   0  0  0  0  0  0  0  0  0  0  0  0
  144.7741  136.1505  152.0549 O   0  0  0  0  0  0  0  0  0  0  0  0
  138.2557  139.5942  153.2893 S   0  0  0  0  0  0  0  0  0  0  0  0
  135.8696  142.4177  153.5967 H   0  0  0  0  0  0  0  0  0  0  0  0
  135.5920  141.0568  154.6989 H   0  0  0  0  0  0  0  0  0  0  0  0
  135.6202  140.7895  152.9470 H   0  0  0  0  0  0  0  0  0  0  0  0
  141.7996  140.1429  153.3296 H   0  0  0  0  0  0  0  0  0  0  0  0
  143.1250  138.6910  153.2359 H   0  0  0  0  0  0  0  0  0  0  0  0
  144.0087  136.7240  154.2286 H   0  0  0  0  0  0  0  0  0  0  0  0
  142.4379  135.9714  154.2628 H   0  0  0  0  0  0  0  0  0  0  0  0
  142.8089  136.4861  151.5310 H   0  0  0  0  0  0  0  0  0  0  0  0
  143.6282  133.9642  153.0704 H   0  0  0  0  0  0  0  0  0  0  0  0
  142.0319  134.2644  152.4129 H   0  0  0  0  0  0  0  0  0  0  0  0
  142.8128  131.9762  151.7505 H   0  0  0  0  0  0  0  0  0  0  0  0
  143.1868  132.0009  150.0350 H   0  0  0  0  0  0  0  0  0  0  0  0
  145.0736  131.4782  152.2397 H   0  0  0  0  0  0  0  0  0  0  0  0
  145.2997  131.2631  150.5082 H   0  0  0  0  0  0  0  0  0  0  0  0
  145.9979  133.6043  152.2316 H   0  0  0  0  0  0  0  0  0  0  0  0
  146.7276  133.1453  150.6949 H   0  0  0  0  0  0  0  0  0  0  0  0
  144.9020  134.0521  149.4485 H   0  0  0  0  0  0  0  0  0  0  0  0
  146.2042  135.9443  150.5936 H   0  0  0  0  0  0  0  0  0  0  0  0
  144.6060  136.3537  150.0151 H   0  0  0  0  0  0  0  0  0  0  0  0
  142.8157  134.1658  150.2663 H   0  0  0  0  0  0  0  0  0  0  0  0
  1  2  1  0  0  0  0
  1 21  1  0  0  0  0
  1 22  1  0  0  0  0
  1 23  1  0  0  0  0
  2 20  1  0  0  0  0
  2  3  2  0  0  0  0
  3  4  1  0  0  0  0
  4  5  2  0  0  0  0
  5  6  1  0  0  0  0
  5 20  1  0  0  0  0
  6  7  1  0  0  0  0
  6 24  1  0  0  0  0
  7  8  2  0  0  0  0
  7  9  1  0  0  0  0
  9 10  1  0  0  0  0
  9 25  1  0  0  0  0
 10 11  1  0  0  0  0
 10 26  1  0  0  0  0
 10 27  1  0  0  0  0
 11 19  1  0  0  0  0
 11 12  1  0  0  0  0
 11 28  1  0  0  0  0
 12 13  1  0  0  0  0
 12 29  1  0  0  0  0
 12 30  1  0  0  0  0
 13 17  1  0  0  0  0
 13 14  1  0  0  0  0
 13 40  1  0  0  0  0
 14 15  1  0  0  0  0
 14 31  1  0  0  0  0
 14 32  1  0  0  0  0
 15 16  1  0  0  0  0
 15 33  1  0  0  0  0
 15 34  1  0  0  0  0
 16 17  1  0  0  0  0
 16 35  1  0  0  0  0
 16 36  1  0  0  0  0
 17 18  1  0  0  0  0
 17 37  1  0  0  0  0
 18 19  1  0  0  0  0
 18 38  1  0  0  0  0
 18 39  1  0  0  0  0
M  CHG  1  13   1
M  END
> <s_m_source_file>
AV-unprocessed.smi

> <i_m_source_file_index>
1809

> <i_lp_mmshare_version>
43012

> <i_f3d_flags>
0

> <s_epik_input>
W0NIM11jMW5uYyhzMSlbTkhdQyg9TylbTkhdW0NIMl1bQ0BIXShbQ0gyXTIpT1tDSDJdW0NAQEhdKE4yMylbQ0gyXVtDSDJdW0NIMl0z

> <s_epik_cmdline>
J2VwaWtfcHl0aG9uJywgJy1waCcsICc3LjAnLCAnLXRuJywgJzgnLCAnLW1hJywgJzIwMCcsICctbWV0YWxfYmluZGluZycsICctaW1hZScsICc8aW5maWxlLm1hZT4nLCAnLW9tYWUnLCAnPG91dGZpbGUubWFlPic=

> <r_lp_tautomer_probability>
1

> <r_epik_Ionization_Penalty>
0.112474

> <r_epik_Ionization_Penalty_Charging>
0.108916

> <r_epik_Ionization_Penalty_Neutral>
0.00355844

> <r_epik_State_Penalty>
0.0565397

> <r_epik_Charging_Adjusted_Penalty>
0.165456

> <i_epik_Tot_Q>
1

> <i_epik_Tot_abs_Q>
1

> <r_epik_Metal_State_Penalty>
0.422831

> <b_epik_Metal_Only>
0

> <s_lp_Force_Field>
OPLS_2005

> <r_lp_Energy>
35.4297

> <b_lp_Chiralities_Consistent>
1

> <s_lp_Variant>
AV-unprocessed.smi:1809-5

> <Gold.Version>
5.8.1

> <Gold.Id.Protein>
6NUR|6NUR_protein|mol2

> <Gold.PLP.Fitness>
44.5611

> <Gold.PLP.PLP>
-34.3200

> <Gold.PLP.part.hbond>
-4.0000

> <Gold.PLP.part.metal>
0.0000

> <Gold.PLP.part.buried>
-3.5375

> <Gold.PLP.part.nonpolar>
-27.0304

> <Gold.PLP.part.repulsive>
0.5295

> <Gold.PLP.ligand.clash>
0.0000

> <Gold.PLP.ligand.torsion>
0.8798

> <Gold.PLP.Chemscore.Hbond>
4.0000

> <Gold.PLP.Chemscore.CHOScore>
0.0000

> <Gold.PLP.Chemscore.Metal>
0.0000

> <Gold.Chemscore.Hbonds>
donor molecule, donor type, donor heavy atom, donor atom, acceptor molecule, acceptor atom, score
      L1  H     6    24       P1 10175  1.00
      L1  H     9    25       P1 10175  1.00
      L1  H    13    40       P1 10186  2.00

> <Gold.PLP.Chemscore.Internal.Correction>
0.0006

> <Gold.Rescore>
     Score         DG    S(hbond)    S(metal)    S(lipo)     H(rot)  DE(clash)    DE(int)     intcor
     17.29     -18.33       2.45        0.00      69.11       1.34       0.08       0.95       ----

> <Gold.Chemscore.Fitness>
17.2900

> <Gold.Chemscore.DG>
-18.3264

> <Gold.Chemscore.ZeroCoef>
-5.4800

> <Gold.Chemscore.Hbond>
2.4518

> <Gold.Chemscore.Metal>
0.0000

> <Gold.Chemscore.Lipo>
69.1061

> <Gold.Chemscore.Internal_Hbond>
0.0000

> <Gold.Chemscore.DEClash>
0.0816

> <Gold.Chemscore.DEInternal>
0.9547

> <Gold.Chemscore.Rot>
1.3391

> <Gold.Chemscore.Internal.Correction>
   9.000000E+99

> <Gold.Chemscore.Hbonds>
donor molecule, donor type, donor heavy atom, donor atom, acceptor molecule, acceptor atom, score
      L1  H     6    24       P1 10175  0.24
      L1  H     9    25       P1 10175  0.97
      L1  H    13    40       P1 10186  0.89

> <Gold.Chemscore.Hbond.Weighted>
-8.1890

> <Gold.Chemscore.Metal.Weighted>
-0.0000

> <Gold.Chemscore.Lipo.Weighted>
-8.0854

> <Gold.Chemscore.Internal_Hbond.Weighted>
0.0000

> <Gold.Chemscore.DEClash.Weighted>
0.0816

> <Gold.Chemscore.DEInternal.Weighted>
0.9547

> <Gold.Chemscore.Rot.Weighted>
3.4281

> <Gold.Chemscore.Internal.Correction.Weighted>
   9.000000E+99

> <Gold.Protein.RotatedTorsions>
[ 6907 6896 6895 6894 ] final -164.48 input  -60.11 | X-H torsion
[ 7974 7965 7964 7962 ] final  -34.86 input  175.53 | X-H torsion
[ 8008 7997 7996 7995 ] final  -72.15 input   59.86 | X-H torsion
[ 10167 10162 10161 10158 ] final   79.09 input  -65.29 | X-H torsion
[ 10718 10713 10712 10709 ] final   96.30 input   66.30 | X-H torsion
[ 10763 10752 10751 10750 ] final   39.97 input  -60.55 | X-H torsion
[ 11005 11000 10999 10996 ] final -124.83 input  -57.11 | X-H torsion

> <Gold.Protein.ActiveResidues>
 VAL166  LYS551  ARG553  GLY616  TRP617  ASP618  TYR619  PRO620  LYS621  CYS622 
 ASP623  PHE694  ASN695  SER759  ASP760  ASP761  ALA762  ILE779  LEU786  VAL792 
 PHE793  MET794  SER795  GLU796  ALA797  LYS798  CYS799  TRP800  GLU811  SER814 

> <Gold.Protein.RotatedAtoms>
  151.4125  133.3723  159.2745 H   0  0  0  0  0  0  0  0  0  0  0  0  # atno 6907 bound_to 6896
  150.9352  134.8767  159.7588 H   0  0  0  0  0  0  0  0  0  0  0  0  # atno 6908 bound_to 6896
  152.5047  134.4072  159.9488 H   0  0  0  0  0  0  0  0  0  0  0  0  # atno 6909 bound_to 6896
  146.0795  140.6089  142.8915 H   0  0  0  0  0  0  0  0  0  0  0  0  # atno 7974 bound_to 7965
  154.5143  140.0802  156.8051 H   0  0  0  0  0  0  0  0  0  0  0  0  # atno 8008 bound_to 7997
  155.3715  140.3423  155.4225 H   0  0  0  0  0  0  0  0  0  0  0  0  # atno 8009 bound_to 7997
  156.1610  140.1588  156.8600 H   0  0  0  0  0  0  0  0  0  0  0  0  # atno 8010 bound_to 7997
  139.9640  144.5941  150.8046 H   0  0  0  0  0  0  0  0  0  0  0  0  # atno 10167 bound_to 10162
  157.6928  131.0573  150.4471 H   0  0  0  0  0  0  0  0  0  0  0  0  # atno 10718 bound_to 10713
  152.9950  135.6205  154.2550 H   0  0  0  0  0  0  0  0  0  0  0  0  # atno 10763 bound_to 10752
  154.2288  135.2793  155.2899 H   0  0  0  0  0  0  0  0  0  0  0  0  # atno 10764 bound_to 10752
  154.5467  135.5745  153.6944 H   0  0  0  0  0  0  0  0  0  0  0  0  # atno 10765 bound_to 10752
  140.9810  134.0673  157.3765 H   0  0  0  0  0  0  0  0  0  0  0  0  # atno 11005 bound_to 11000
  144.7283  140.4595  143.6956 LP  0  0  0  0  0  0  0  0  0  0  0  0  # atno 17320 bound_to 7965
  145.6245  139.1528  143.3004 LP  0  0  0  0  0  0  0  0  0  0  0  0  # atno 17321 bound_to 7965
  140.7544  143.3026  151.3042 LP  0  0  0  0  0  0  0  0  0  0  0  0  # atno 17342 bound_to 10162
  139.6532  144.0324  152.2641 LP  0  0  0  0  0  0  0  0  0  0  0  0  # atno 17343 bound_to 10162
  156.4825  130.4077  149.6453 LP  0  0  0  0  0  0  0  0  0  0  0  0  # atno 17370 bound_to 10713
  156.3494  130.7424  151.2381 LP  0  0  0  0  0  0  0  0  0  0  0  0  # atno 17371 bound_to 10713
  139.8950  135.0139  156.6980 LP  0  0  0  0  0  0  0  0  0  0  0  0  # atno 17394 bound_to 11000
  140.7187  133.9160  155.8132 LP  0  0  0  0  0  0  0  0  0  0  0  0  # atno 17395 bound_to 11000

$$$$
