AV-unprocessed.smi:701|AV-procd|sdf|3411|dock9
  -GOLD-   22720 0393D 1   1.00000     0.00000
 Structure written by MMmdl.
 49 51  0  0  0  0  0  0  0  0  1 V2000
  155.1783  139.3476  161.4897 C   0  0  0  0  0  0  0  0  0  0  0  0
  154.4437  139.6700  160.1868 C   0  0  0  0  0  0  0  0  0  0  0  0
  154.1969  141.0651  160.1342 O   0  0  0  0  0  0  0  0  0  0  0  0
  153.2738  141.4236  159.1179 C   0  0  1  0  0  0  0  0  0  0  0  0
  151.9544  140.6469  159.1508 C   0  0  0  0  0  0  0  0  0  0  0  0
  151.2472  141.9734  158.8547 C   0  0  2  0  0  0  0  0  0  0  0  0
  151.0616  142.1531  157.4140 N   0  0  0  0  0  0  0  0  0  0  0  0
  150.1858  141.4756  156.6581 C   0  0  0  0  0  0  0  0  0  0  0  0
  149.4259  140.6169  157.1070 O   0  0  0  0  0  0  0  0  0  0  0  0
  150.1413  141.8523  155.1714 C   0  0  0  0  0  0  0  0  0  0  0  0
  149.1603  141.0581  154.4189 N   0  0  0  0  0  0  0  0  0  0  0  0
  147.8741  141.5383  154.2172 C   0  0  0  0  0  0  0  0  0  0  0  0
  146.9216  140.8553  153.5389 C   0  0  0  0  0  0  0  0  0  0  0  0
  147.2154  139.5432  152.9726 C   0  0  0  0  0  0  0  0  0  0  0  0
  146.4220  138.8500  152.3399 O   0  0  0  0  0  0  0  0  0  0  0  0
  148.5184  139.0930  153.2006 N   0  0  0  0  0  0  0  0  0  0  0  0
  149.5037  139.7903  153.9013 C   0  0  0  0  0  0  0  0  0  0  0  0
  150.6221  139.2990  154.0497 O   0  0  0  0  0  0  0  0  0  0  0  0
  152.4878  142.7212  159.4270 C   0  0  0  0  0  0  0  0  0  0  0  0
  152.3751  143.0890  160.9227 C   0  0  0  0  0  0  0  0  0  0  0  0
  151.4414  144.2858  161.1764 C   0  0  0  0  0  0  0  0  0  0  0  0
  151.8916  145.5216  160.3868 C   0  0  0  0  0  0  0  0  0  0  0  0
  152.0616  145.1965  158.8976 C   0  0  0  0  0  0  0  0  0  0  0  0
  152.9884  143.9852  158.6986 C   0  0  0  0  0  0  0  0  0  0  0  0
  148.7665  138.1875  152.8293 H   0  0  0  0  0  0  0  0  0  0  0  0
  155.3800  138.2793  161.5698 H   0  0  0  0  0  0  0  0  0  0  0  0
  154.5851  139.6424  162.3556 H   0  0  0  0  0  0  0  0  0  0  0  0
  156.1320  139.8734  161.5408 H   0  0  0  0  0  0  0  0  0  0  0  0
  155.0480  139.3629  159.3320 H   0  0  0  0  0  0  0  0  0  0  0  0
  153.5050  139.1161  160.1441 H   0  0  0  0  0  0  0  0  0  0  0  0
  153.7230  141.4431  158.1225 H   0  0  0  0  0  0  0  0  0  0  0  0
  151.8568  139.8810  158.3804 H   0  0  0  0  0  0  0  0  0  0  0  0
  151.7155  140.2515  160.1392 H   0  0  0  0  0  0  0  0  0  0  0  0
  150.3408  142.1006  159.4484 H   0  0  0  0  0  0  0  0  0  0  0  0
  151.6419  142.8447  156.9622 H   0  0  0  0  0  0  0  0  0  0  0  0
  149.9027  142.9146  155.1017 H   0  0  0  0  0  0  0  0  0  0  0  0
  151.1320  141.7507  154.7234 H   0  0  0  0  0  0  0  0  0  0  0  0
  147.6105  142.5045  154.6231 H   0  0  0  0  0  0  0  0  0  0  0  0
  145.9367  141.2821  153.4153 H   0  0  0  0  0  0  0  0  0  0  0  0
  152.0174  142.2382  161.5032 H   0  0  0  0  0  0  0  0  0  0  0  0
  153.3621  143.3204  161.3255 H   0  0  0  0  0  0  0  0  0  0  0  0
  150.4211  144.0248  160.8936 H   0  0  0  0  0  0  0  0  0  0  0  0
  151.4150  144.5172  162.2415 H   0  0  0  0  0  0  0  0  0  0  0  0
  151.1736  146.3319  160.5151 H   0  0  0  0  0  0  0  0  0  0  0  0
  152.8397  145.8815  160.7886 H   0  0  0  0  0  0  0  0  0  0  0  0
  151.0864  144.9930  158.4546 H   0  0  0  0  0  0  0  0  0  0  0  0
  152.4631  146.0635  158.3726 H   0  0  0  0  0  0  0  0  0  0  0  0
  153.9865  144.2425  159.0561 H   0  0  0  0  0  0  0  0  0  0  0  0
  153.1107  143.8003  157.6313 H   0  0  0  0  0  0  0  0  0  0  0  0
  1  2  1  0  0  0  0
  1 26  1  0  0  0  0
  1 27  1  0  0  0  0
  1 28  1  0  0  0  0
  2  3  1  0  0  0  0
  2 29  1  0  0  0  0
  2 30  1  0  0  0  0
  3  4  1  0  0  0  0
  4 19  1  0  0  0  0
  4  5  1  0  0  0  0
  4 31  1  0  0  0  0
  5  6  1  0  0  0  0
  5 32  1  0  0  0  0
  5 33  1  0  0  0  0
  6  7  1  0  0  0  0
  6 19  1  0  0  0  0
  6 34  1  0  0  0  0
  7  8  1  0  0  0  0
  7 35  1  0  0  0  0
  8  9  2  0  0  0  0
  8 10  1  0  0  0  0
 10 11  1  0  0  0  0
 10 36  1  0  0  0  0
 10 37  1  0  0  0  0
 11 17  1  0  0  0  0
 11 12  1  0  0  0  0
 12 13  2  0  0  0  0
 12 38  1  0  0  0  0
 13 14  1  0  0  0  0
 13 39  1  0  0  0  0
 14 15  2  0  0  0  0
 14 16  1  0  0  0  0
 16 25  1  0  0  0  0
 16 17  1  0  0  0  0
 17 18  2  0  0  0  0
 19 24  1  0  0  0  0
 19 20  1  0  0  0  0
 20 21  1  0  0  0  0
 20 40  1  0  0  0  0
 20 41  1  0  0  0  0
 21 22  1  0  0  0  0
 21 42  1  0  0  0  0
 21 43  1  0  0  0  0
 22 23  1  0  0  0  0
 22 44  1  0  0  0  0
 22 45  1  0  0  0  0
 23 24  1  0  0  0  0
 23 46  1  0  0  0  0
 23 47  1  0  0  0  0
 24 48  1  0  0  0  0
 24 49  1  0  0  0  0
M  END
> <s_m_source_file>
AV-unprocessed.smi

> <i_m_source_file_index>
701

> <i_lp_mmshare_version>
43012

> <i_f3d_flags>
0

> <s_epik_input>
W0NIMl0xW0NIMl1bQ0gyXVtDSDJdW0NIMl1DMTJbQ0BIXShPW0NIMl1bQ0gzXSlbQ0gyXVtDQEhdMltOSF1DKD1PKVtDSDJdbjNbY0hdW2NIXWMoPU8pW25IXWMzPU8=

> <s_epik_cmdline>
J2VwaWtfcHl0aG9uJywgJy1waCcsICc3LjAnLCAnLXRuJywgJzgnLCAnLW1hJywgJzIwMCcsICctbWV0YWxfYmluZGluZycsICctaW1hZScsICc8aW5maWxlLm1hZT4nLCAnLW9tYWUnLCAnPG91dGZpbGUubWFlPic=

> <r_lp_tautomer_probability>
0.999537

> <r_epik_Ionization_Penalty>
0.00304597

> <r_epik_Ionization_Penalty_Charging>
0.00304595

> <r_epik_Ionization_Penalty_Neutral>
1.88422e-08

> <r_epik_State_Penalty>
0.00214084

> <r_epik_Charging_Adjusted_Penalty>
0.00518679

> <i_epik_Tot_Q>
0

> <i_epik_Tot_abs_Q>
0

> <r_epik_Metal_State_Penalty>
0.361872

> <b_epik_Metal_Only>
0

> <s_lp_Force_Field>
OPLS_2005

> <r_lp_Energy>
29.1408

> <b_lp_Chiralities_Consistent>
1

> <s_lp_Variant>
AV-unprocessed.smi:701-4

> <Gold.Version>
5.8.1

> <Gold.Id.Protein>
6NUR|6NUR_protein|mol2

> <Gold.PLP.Fitness>
54.7582

> <Gold.PLP.PLP>
-49.9418

> <Gold.PLP.part.hbond>
-2.7641

> <Gold.PLP.part.metal>
0.0000

> <Gold.PLP.part.buried>
-1.8529

> <Gold.PLP.part.nonpolar>
-45.6710

> <Gold.PLP.part.repulsive>
0.6434

> <Gold.PLP.ligand.clash>
0.0000

> <Gold.PLP.ligand.torsion>
0.6842

> <Gold.PLP.Chemscore.Hbond>
1.6125

> <Gold.PLP.Chemscore.CHOScore>
0.3336

> <Gold.PLP.Chemscore.Metal>
0.0000

> <Gold.Chemscore.Hbonds>
donor molecule, donor type, donor heavy atom, donor atom, acceptor molecule, acceptor atom, score
      L1  H    16    25       P1  7948  0.67
      P1  H  7989  7998       L1    18  0.85
      L1  C    12    38       P1  8028  0.52

> <Gold.PLP.Chemscore.Internal.Correction>
0.3464

> <Gold.Rescore>
     Score         DG    S(hbond)    S(metal)    S(lipo)     H(rot)  DE(clash)    DE(int)     intcor
     18.06     -19.96       1.27        0.00     133.26       2.09       1.35       0.55       ----

> <Gold.Chemscore.Fitness>
18.0599

> <Gold.Chemscore.DG>
-19.9571

> <Gold.Chemscore.ZeroCoef>
-5.4800

> <Gold.Chemscore.Hbond>
1.2709

> <Gold.Chemscore.Metal>
0.0000

> <Gold.Chemscore.Lipo>
133.2565

> <Gold.Chemscore.Internal_Hbond>
0.0000

> <Gold.Chemscore.DEClash>
1.3482

> <Gold.Chemscore.DEInternal>
0.5491

> <Gold.Chemscore.Rot>
2.0933

> <Gold.Chemscore.Internal.Correction>
   9.000000E+99

> <Gold.Chemscore.Hbonds>
donor molecule, donor type, donor heavy atom, donor atom, acceptor molecule, acceptor atom, score
      L1  H    16    25       P1  7948  0.67
      P1  H  7989  7998       L1    18  0.14

> <Gold.Chemscore.Hbond.Weighted>
-4.2449

> <Gold.Chemscore.Metal.Weighted>
-0.0000

> <Gold.Chemscore.Lipo.Weighted>
-15.5910

> <Gold.Chemscore.Internal_Hbond.Weighted>
0.0000

> <Gold.Chemscore.DEClash.Weighted>
1.3482

> <Gold.Chemscore.DEInternal.Weighted>
0.5491

> <Gold.Chemscore.Rot.Weighted>
5.3588

> <Gold.Chemscore.Internal.Correction.Weighted>
   9.000000E+99

> <Gold.Protein.RotatedTorsions>
[ 6907 6896 6895 6894 ] final   87.42 input  -60.11 | X-H torsion
[ 7974 7965 7964 7962 ] final -137.86 input  175.53 | X-H torsion
[ 8008 7997 7996 7995 ] final -106.24 input   59.86 | X-H torsion
[ 10167 10162 10161 10158 ] final -166.58 input  -65.29 | X-H torsion
[ 10718 10713 10712 10709 ] final  -88.23 input   66.30 | X-H torsion
[ 10763 10752 10751 10750 ] final -127.93 input  -60.55 | X-H torsion
[ 11005 11000 10999 10996 ] final   13.94 input  -57.11 | X-H torsion

> <Gold.Protein.ActiveResidues>
 VAL166  LYS551  ARG553  GLY616  TRP617  ASP618  TYR619  PRO620  LYS621  CYS622 
 ASP623  PHE694  ASN695  SER759  ASP760  ASP761  ALA762  ILE779  LEU786  VAL792 
 PHE793  MET794  SER795  GLU796  ALA797  LYS798  CYS799  TRP800  GLU811  SER814 

> <Gold.Protein.RotatedAtoms>
  152.5411  134.2279  159.8813 H   0  0  0  0  0  0  0  0  0  0  0  0  # atno 6907 bound_to 6896
  151.2253  133.4473  159.2609 H   0  0  0  0  0  0  0  0  0  0  0  0  # atno 6908 bound_to 6896
  151.0767  134.9846  159.8391 H   0  0  0  0  0  0  0  0  0  0  0  0  # atno 6909 bound_to 6896
  144.8806  140.6502  143.5208 H   0  0  0  0  0  0  0  0  0  0  0  0  # atno 7974 bound_to 7965
  154.9117  140.0410  157.1949 H   0  0  0  0  0  0  0  0  0  0  0  0  # atno 8008 bound_to 7997
  154.8342  140.2904  155.5681 H   0  0  0  0  0  0  0  0  0  0  0  0  # atno 8009 bound_to 7997
  156.2988  140.2495  156.3273 H   0  0  0  0  0  0  0  0  0  0  0  0  # atno 8010 bound_to 7997
  139.6106  144.0823  152.1837 H   0  0  0  0  0  0  0  0  0  0  0  0  # atno 10167 bound_to 10162
  155.9984  130.4828  150.4988 H   0  0  0  0  0  0  0  0  0  0  0  0  # atno 10718 bound_to 10713
  154.8754  135.3945  154.3674 H   0  0  0  0  0  0  0  0  0  0  0  0  # atno 10763 bound_to 10752
  153.4438  135.7027  153.6157 H   0  0  0  0  0  0  0  0  0  0  0  0  # atno 10764 bound_to 10752
  153.4726  135.3787  155.2368 H   0  0  0  0  0  0  0  0  0  0  0  0  # atno 10765 bound_to 10752
  140.4751  134.0992  155.7740 H   0  0  0  0  0  0  0  0  0  0  0  0  # atno 11005 bound_to 11000
  145.3961  139.1607  143.4202 LP  0  0  0  0  0  0  0  0  0  0  0  0  # atno 17320 bound_to 7965
  146.2992  140.4054  142.8710 LP  0  0  0  0  0  0  0  0  0  0  0  0  # atno 17321 bound_to 7965
  140.0441  144.5984  150.7387 LP  0  0  0  0  0  0  0  0  0  0  0  0  # atno 17342 bound_to 10162
  140.7316  143.2696  151.3931 LP  0  0  0  0  0  0  0  0  0  0  0  0  # atno 17343 bound_to 10162
  157.2974  131.0638  151.2092 LP  0  0  0  0  0  0  0  0  0  0  0  0  # atno 17370 bound_to 10713
  157.3083  130.6877  149.6201 LP  0  0  0  0  0  0  0  0  0  0  0  0  # atno 17371 bound_to 10713
  141.1558  133.8885  157.1980 LP  0  0  0  0  0  0  0  0  0  0  0  0  # atno 17394 bound_to 11000
  139.9861  135.0081  156.9865 LP  0  0  0  0  0  0  0  0  0  0  0  0  # atno 17395 bound_to 11000

$$$$
