AV-unprocessed.smi:3191|AV-procd|sdf|12199|dock3
  -GOLD-   2272018 33D 1   1.00000     0.00000
 Structure written by MMmdl.
 35 36  0  0  0  0  0  0  0  0  1 V2000
  146.3044  141.9958  154.0382 C   0  0  0  0  0  0  0  0  0  0  0  0
  146.9315  140.6906  154.0953 N   0  0  0  0  0  0  0  0  0  0  0  0
  146.3388  139.5045  153.9025 C   0  0  0  0  0  0  0  0  0  0  0  0
  147.1493  138.4609  154.0124 N   0  0  0  0  0  0  0  0  0  0  0  0
  148.3847  139.0318  154.3052 C   0  0  0  0  0  0  0  0  0  0  0  0
  148.2680  140.4048  154.3607 C   0  0  0  0  0  0  0  0  0  0  0  0
  149.2889  141.4659  154.6369 C   0  0  0  0  0  0  0  0  0  0  0  0
  150.0794  141.2581  155.9408 C   0  0  0  0  0  0  0  0  0  0  0  0
  150.4693  142.5290  156.5408 N   0  0  0  0  0  0  0  0  0  0  0  0
  151.3024  142.6663  157.5834 C   0  0  0  0  0  0  0  0  0  0  0  0
  151.8326  141.7059  158.1433 O   0  0  0  0  0  0  0  0  0  0  0  0
  151.5291  144.0903  157.9881 C   0  0  2  0  0  0  0  0  0  0  0  0
  152.9429  144.6308  157.9256 C   0  0  0  0  0  0  0  0  0  0  0  0
  152.2885  144.4173  159.2725 C   0  0  0  0  0  0  0  0  0  0  0  0
  151.8294  145.6172  160.0825 C   0  0  0  0  0  0  0  0  0  0  0  0
  152.8371  143.3459  160.2072 C   0  0  0  0  0  0  0  0  0  0  0  0
  150.7315  144.7818  157.7198 H   0  0  0  0  0  0  0  0  0  0  0  0
  145.2491  141.8975  153.7817 H   0  0  0  0  0  0  0  0  0  0  0  0
  146.7962  142.6079  153.2817 H   0  0  0  0  0  0  0  0  0  0  0  0
  146.3889  142.4871  155.0078 H   0  0  0  0  0  0  0  0  0  0  0  0
  145.2876  139.4023  153.6757 H   0  0  0  0  0  0  0  0  0  0  0  0
  149.2578  138.4130  154.4526 H   0  0  0  0  0  0  0  0  0  0  0  0
  149.9825  141.5121  153.7965 H   0  0  0  0  0  0  0  0  0  0  0  0
  148.7913  142.4357  154.6719 H   0  0  0  0  0  0  0  0  0  0  0  0
  149.4683  140.7192  156.6655 H   0  0  0  0  0  0  0  0  0  0  0  0
  150.9642  140.6450  155.7609 H   0  0  0  0  0  0  0  0  0  0  0  0
  150.0754  143.3653  156.1345 H   0  0  0  0  0  0  0  0  0  0  0  0
  153.7483  143.9551  157.6425 H   0  0  0  0  0  0  0  0  0  0  0  0
  153.0626  145.6517  157.5685 H   0  0  0  0  0  0  0  0  0  0  0  0
  152.6623  146.0381  160.6467 H   0  0  0  0  0  0  0  0  0  0  0  0
  151.0459  145.3247  160.7823 H   0  0  0  0  0  0  0  0  0  0  0  0
  151.4330  146.3965  159.4307 H   0  0  0  0  0  0  0  0  0  0  0  0
  153.5352  143.7846  160.9207 H   0  0  0  0  0  0  0  0  0  0  0  0
  153.3761  142.5728  159.6611 H   0  0  0  0  0  0  0  0  0  0  0  0
  152.0244  142.8774  160.7628 H   0  0  0  0  0  0  0  0  0  0  0  0
  1  2  1  0  0  0  0
  1 18  1  0  0  0  0
  1 19  1  0  0  0  0
  1 20  1  0  0  0  0
  2  6  1  0  0  0  0
  2  3  1  0  0  0  0
  3  4  2  0  0  0  0
  3 21  1  0  0  0  0
  4  5  1  0  0  0  0
  5  6  2  0  0  0  0
  5 22  1  0  0  0  0
  6  7  1  0  0  0  0
  7  8  1  0  0  0  0
  7 23  1  0  0  0  0
  7 24  1  0  0  0  0
  8  9  1  0  0  0  0
  8 25  1  0  0  0  0
  8 26  1  0  0  0  0
  9 10  1  0  0  0  0
  9 27  1  0  0  0  0
 10 11  2  0  0  0  0
 10 12  1  0  0  0  0
 12 17  1  0  0  0  0
 12 14  1  0  0  0  0
 12 13  1  0  0  0  0
 13 14  1  0  0  0  0
 13 28  1  0  0  0  0
 13 29  1  0  0  0  0
 14 15  1  0  0  0  0
 14 16  1  0  0  0  0
 15 30  1  0  0  0  0
 15 31  1  0  0  0  0
 15 32  1  0  0  0  0
 16 33  1  0  0  0  0
 16 34  1  0  0  0  0
 16 35  1  0  0  0  0
M  END
> <s_m_source_file>
AV-unprocessed.smi

> <i_m_source_file_index>
3191

> <i_lp_mmshare_version>
43012

> <i_f3d_flags>
0

> <s_epik_input>
W0NIM11uMVtjSF1uW2NIXWMxW0NIMl1bQ0gyXVtOSF1DKD1PKVtDQEBIXShbQ0gyXTIpQzIoW0NIM10pW0NIM10=

> <s_epik_cmdline>
J2VwaWtfcHl0aG9uJywgJy1waCcsICc3LjAnLCAnLXRuJywgJzgnLCAnLW1hJywgJzIwMCcsICctbWV0YWxfYmluZGluZycsICctaW1hZScsICc8aW5maWxlLm1hZT4nLCAnLW9tYWUnLCAnPG91dGZpbGUubWFlPic=

> <r_lp_tautomer_probability>
1

> <r_epik_Ionization_Penalty>
0.874249

> <r_epik_Ionization_Penalty_Charging>
0.874249

> <r_epik_Ionization_Penalty_Neutral>
1.97773e-08

> <r_epik_State_Penalty>
0.911868

> <r_epik_Charging_Adjusted_Penalty>
1.78612

> <i_epik_Tot_Q>
0

> <i_epik_Tot_abs_Q>
0

> <r_epik_Metal_State_Penalty>
0.361186

> <b_epik_Metal_Only>
0

> <s_lp_Force_Field>
OPLS_2005

> <r_lp_Energy>
11.6999

> <b_lp_Chiralities_Consistent>
1

> <s_lp_Variant>
AV-unprocessed.smi:3191-4

> <Gold.Version>
5.8.1

> <Gold.Id.Protein>
6NUR|6NUR_protein|mol2

> <Gold.PLP.Fitness>
46.2902

> <Gold.PLP.PLP>
-40.9220

> <Gold.PLP.part.hbond>
-1.0000

> <Gold.PLP.part.metal>
0.0000

> <Gold.PLP.part.buried>
-2.5894

> <Gold.PLP.part.nonpolar>
-37.6191

> <Gold.PLP.part.repulsive>
0.2630

> <Gold.PLP.ligand.clash>
0.0000

> <Gold.PLP.ligand.torsion>
0.3611

> <Gold.PLP.Chemscore.Hbond>
1.0000

> <Gold.PLP.Chemscore.CHOScore>
1.0000

> <Gold.PLP.Chemscore.Metal>
0.0000

> <Gold.Chemscore.Hbonds>
donor molecule, donor type, donor heavy atom, donor atom, acceptor molecule, acceptor atom, score
      L1  H     9    27       P1  8028  1.00
      L1  C     3    21       P1 10175  1.00

> <Gold.PLP.Chemscore.Internal.Correction>
0.0904

> <Gold.Rescore>
     Score         DG    S(hbond)    S(metal)    S(lipo)     H(rot)  DE(clash)    DE(int)     intcor
     14.31     -16.03       1.00        0.00      98.62       1.69       0.03       1.69       ----

> <Gold.Chemscore.Fitness>
14.3125

> <Gold.Chemscore.DG>
-16.0267

> <Gold.Chemscore.ZeroCoef>
-5.4800

> <Gold.Chemscore.Hbond>
0.9999

> <Gold.Chemscore.Metal>
0.0000

> <Gold.Chemscore.Lipo>
98.6158

> <Gold.Chemscore.Internal_Hbond>
0.0000

> <Gold.Chemscore.DEClash>
0.0280

> <Gold.Chemscore.DEInternal>
1.6862

> <Gold.Chemscore.Rot>
1.6919

> <Gold.Chemscore.Internal.Correction>
   9.000000E+99

> <Gold.Chemscore.Hbonds>
donor molecule, donor type, donor heavy atom, donor atom, acceptor molecule, acceptor atom, score
      L1  H     9    27       P1  8028  1.00

> <Gold.Chemscore.Hbond.Weighted>
-3.3398

> <Gold.Chemscore.Metal.Weighted>
-0.0000

> <Gold.Chemscore.Lipo.Weighted>
-11.5380

> <Gold.Chemscore.Internal_Hbond.Weighted>
0.0000

> <Gold.Chemscore.DEClash.Weighted>
0.0280

> <Gold.Chemscore.DEInternal.Weighted>
1.6862

> <Gold.Chemscore.Rot.Weighted>
4.3312

> <Gold.Chemscore.Internal.Correction.Weighted>
   9.000000E+99

> <Gold.Protein.RotatedTorsions>
[ 6907 6896 6895 6894 ] final -141.44 input  -60.11 | X-H torsion
[ 7974 7965 7964 7962 ] final  151.71 input  175.53 | X-H torsion
[ 8008 7997 7996 7995 ] final -141.18 input   59.86 | X-H torsion
[ 10167 10162 10161 10158 ] final  -27.86 input  -65.29 | X-H torsion
[ 10718 10713 10712 10709 ] final -147.64 input   66.30 | X-H torsion
[ 10763 10752 10751 10750 ] final   75.78 input  -60.55 | X-H torsion
[ 11005 11000 10999 10996 ] final   -1.89 input  -57.11 | X-H torsion

> <Gold.Protein.ActiveResidues>
 VAL166  LYS551  ARG553  GLY616  TRP617  ASP618  TYR619  PRO620  LYS621  CYS622 
 ASP623  PHE694  ASN695  SER759  ASP760  ASP761  ALA762  ILE779  LEU786  VAL792 
 PHE793  MET794  SER795  GLU796  ALA797  LYS798  CYS799  TRP800  GLU811  SER814 

> <Gold.Protein.RotatedAtoms>
  151.0738  133.5445  159.2625 H   0  0  0  0  0  0  0  0  0  0  0  0  # atno 6907 bound_to 6896
  151.2374  135.0576  159.9021 H   0  0  0  0  0  0  0  0  0  0  0  0  # atno 6908 bound_to 6896
  152.5415  134.0518  159.8167 H   0  0  0  0  0  0  0  0  0  0  0  0  # atno 6909 bound_to 6896
  144.8273  139.6573  143.6074 H   0  0  0  0  0  0  0  0  0  0  0  0  # atno 7974 bound_to 7965
  155.4735  140.0555  157.2976 H   0  0  0  0  0  0  0  0  0  0  0  0  # atno 8008 bound_to 7997
  154.4689  140.2031  156.0000 H   0  0  0  0  0  0  0  0  0  0  0  0  # atno 8009 bound_to 7997
  156.1022  140.3217  155.7961 H   0  0  0  0  0  0  0  0  0  0  0  0  # atno 8010 bound_to 7997
  140.7274  143.4058  151.1187 H   0  0  0  0  0  0  0  0  0  0  0  0  # atno 10167 bound_to 10162
  156.4101  130.7977  151.2194 H   0  0  0  0  0  0  0  0  0  0  0  0  # atno 10718 bound_to 10713
  153.0679  135.4976  154.8240 H   0  0  0  0  0  0  0  0  0  0  0  0  # atno 10763 bound_to 10752
  154.6980  135.2996  154.9385 H   0  0  0  0  0  0  0  0  0  0  0  0  # atno 10764 bound_to 10752
  154.0118  135.6753  153.4819 H   0  0  0  0  0  0  0  0  0  0  0  0  # atno 10765 bound_to 10752
  140.6523  133.9393  155.8387 H   0  0  0  0  0  0  0  0  0  0  0  0  # atno 11005 bound_to 11000
  146.2578  139.6341  142.9383 LP  0  0  0  0  0  0  0  0  0  0  0  0  # atno 17320 bound_to 7965
  145.4972  141.0438  143.2560 LP  0  0  0  0  0  0  0  0  0  0  0  0  # atno 17321 bound_to 7965
  139.7685  143.8530  152.3115 LP  0  0  0  0  0  0  0  0  0  0  0  0  # atno 17342 bound_to 10162
  139.8440  144.7196  150.9296 LP  0  0  0  0  0  0  0  0  0  0  0  0  # atno 17343 bound_to 10162
  157.7507  131.0260  150.3943 LP  0  0  0  0  0  0  0  0  0  0  0  0  # atno 17370 bound_to 10713
  156.4240  130.3958  149.6805 LP  0  0  0  0  0  0  0  0  0  0  0  0  # atno 17371 bound_to 10713
  141.0527  134.0461  157.3762 LP  0  0  0  0  0  0  0  0  0  0  0  0  # atno 17394 bound_to 11000
  139.9041  135.0174  156.7407 LP  0  0  0  0  0  0  0  0  0  0  0  0  # atno 17395 bound_to 11000

$$$$
