AV-unprocessed.smi:1598|AV-procd|sdf|6422|dock4
  -GOLD-   22720 7 63D 1   1.00000     0.00000
 Structure written by MMmdl.
 39 39  0  0  0  0  0  0  0  0  1 V2000
  147.2624  144.6804  160.9126 C   0  0  0  0  0  0  0  0  0  0  0  0
  147.6007  143.6820  159.9661 O   0  0  0  0  0  0  0  0  0  0  0  0
  146.7020  143.6457  158.8698 C   0  0  0  0  0  0  0  0  0  0  0  0
  147.1606  142.5777  157.8646 C   0  0  1  0  0  0  0  0  0  0  0  0
  146.4122  142.6853  156.5253 C   0  0  0  0  0  0  0  0  0  0  0  0
  148.5964  142.7173  157.6469 N   0  0  0  0  0  0  0  0  0  0  0  0
  149.5307  141.7959  157.9392 C   0  0  0  0  0  0  0  0  0  0  0  0
  149.2571  140.7006  158.4282 O   0  0  0  0  0  0  0  0  0  0  0  0
  151.0041  142.1339  157.6401 C   0  0  0  0  0  0  0  0  0  0  0  0
  151.9309  142.0198  158.7973 N   0  0  0  0  0  0  0  0  0  0  0  0
  152.3102  143.1890  159.5291 C   0  0  0  0  0  0  0  0  0  0  0  0
  151.7054  144.5481  159.1478 C   0  0  0  0  0  0  0  0  0  0  0  0
  152.1119  145.5069  159.9811 F   0  0  0  0  0  0  0  0  0  0  0  0
  152.0896  144.9112  157.9238 F   0  0  0  0  0  0  0  0  0  0  0  0
  150.3740  144.5367  159.2055 F   0  0  0  0  0  0  0  0  0  0  0  0
  153.1625  143.0825  160.5652 C   0  0  0  0  0  0  0  0  0  0  0  0
  153.6981  141.8008  160.9327 C   0  0  0  0  0  0  0  0  0  0  0  0
  153.3458  140.6849  160.2552 C   0  0  0  0  0  0  0  0  0  0  0  0
  153.8678  139.3421  160.5984 C   0  0  0  0  0  0  0  0  0  0  0  0
  154.6907  139.3245  161.6546 N   0  0  0  0  0  0  0  0  0  0  0  0
  153.6205  138.2819  160.0241 O   0  0  0  0  0  0  0  0  0  0  0  0
  152.4014  140.7634  159.1110 C   0  0  0  0  0  0  0  0  0  0  0  0
  152.0285  139.7836  158.4587 O   0  0  0  0  0  0  0  0  0  0  0  0
  147.9830  144.6686  161.7301 H   0  0  0  0  0  0  0  0  0  0  0  0
  146.2720  144.5040  161.3344 H   0  0  0  0  0  0  0  0  0  0  0  0
  147.2807  145.6738  160.4625 H   0  0  0  0  0  0  0  0  0  0  0  0
  145.6894  143.4316  159.2165 H   0  0  0  0  0  0  0  0  0  0  0  0
  146.6817  144.6252  158.3883 H   0  0  0  0  0  0  0  0  0  0  0  0
  146.9636  141.5975  158.3026 H   0  0  0  0  0  0  0  0  0  0  0  0
  145.3370  142.5725  156.6652 H   0  0  0  0  0  0  0  0  0  0  0  0
  146.7333  141.9095  155.8297 H   0  0  0  0  0  0  0  0  0  0  0  0
  146.5860  143.6513  156.0501 H   0  0  0  0  0  0  0  0  0  0  0  0
  148.9074  143.5904  157.2472 H   0  0  0  0  0  0  0  0  0  0  0  0
  151.3335  141.4831  156.8278 H   0  0  0  0  0  0  0  0  0  0  0  0
  151.0341  143.1150  157.1759 H   0  0  0  0  0  0  0  0  0  0  0  0
  153.4542  143.9500  161.1384 H   0  0  0  0  0  0  0  0  0  0  0  0
  154.3851  141.7745  161.7654 H   0  0  0  0  0  0  0  0  0  0  0  0
  155.0977  138.4549  161.9658 H   0  0  0  0  0  0  0  0  0  0  0  0
  154.9010  140.1863  162.1371 H   0  0  0  0  0  0  0  0  0  0  0  0
  1  2  1  0  0  0  0
  1 24  1  0  0  0  0
  1 25  1  0  0  0  0
  1 26  1  0  0  0  0
  2  3  1  0  0  0  0
  3  4  1  0  0  0  0
  3 27  1  0  0  0  0
  3 28  1  0  0  0  0
  4  5  1  0  0  0  0
  4  6  1  0  0  0  0
  4 29  1  0  0  0  0
  5 30  1  0  0  0  0
  5 31  1  0  0  0  0
  5 32  1  0  0  0  0
  6  7  1  0  0  0  0
  6 33  1  0  0  0  0
  7  8  2  0  0  0  0
  7  9  1  0  0  0  0
  9 10  1  0  0  0  0
  9 34  1  0  0  0  0
  9 35  1  0  0  0  0
 10 22  1  0  0  0  0
 10 11  1  0  0  0  0
 11 12  1  0  0  0  0
 11 16  2  0  0  0  0
 12 13  1  0  0  0  0
 12 14  1  0  0  0  0
 12 15  1  0  0  0  0
 16 17  1  0  0  0  0
 16 36  1  0  0  0  0
 17 18  2  0  0  0  0
 17 37  1  0  0  0  0
 18 19  1  0  0  0  0
 18 22  1  0  0  0  0
 19 20  1  0  0  0  0
 19 21  2  0  0  0  0
 20 38  1  0  0  0  0
 20 39  1  0  0  0  0
 22 23  2  0  0  0  0
M  END
> <s_m_source_file>
AV-unprocessed.smi

> <i_m_source_file_index>
1598

> <i_lp_mmshare_version>
43012

> <i_f3d_flags>
0

> <s_epik_input>
W0NIM11PW0NIMl1bQ0BIXShbQ0gzXSlbTkhdQyg9TylbQ0gyXW4xYyhDKEYpKEYpRilbY0hdW2NIXWMoYzE9TylDKD1PKVtOSDJd

> <s_epik_cmdline>
J2VwaWtfcHl0aG9uJywgJy1waCcsICc3LjAnLCAnLXRuJywgJzgnLCAnLW1hJywgJzIwMCcsICctbWV0YWxfYmluZGluZycsICctaW1hZScsICc8aW5maWxlLm1hZT4nLCAnLW9tYWUnLCAnPG91dGZpbGUubWFlPic=

> <r_lp_tautomer_probability>
1

> <r_epik_Ionization_Penalty>
2.07884e-06

> <r_epik_Ionization_Penalty_Charging>
8.00383e-10

> <r_epik_Ionization_Penalty_Neutral>
2.07804e-06

> <r_epik_State_Penalty>
-0

> <r_epik_Charging_Adjusted_Penalty>
8.00383e-10

> <i_epik_Tot_Q>
0

> <i_epik_Tot_abs_Q>
0

> <r_epik_Metal_State_Penalty>
-0

> <b_epik_Metal_Only>
0

> <s_lp_Force_Field>
OPLS_2005

> <r_lp_Energy>
25.2492

> <b_lp_Chiralities_Consistent>
1

> <s_lp_Variant>
AV-unprocessed.smi:1598-2

> <Gold.Version>
5.8.1

> <Gold.Id.Protein>
6NUR|6NUR_protein|mol2

> <Gold.PLP.Fitness>
50.8330

> <Gold.PLP.PLP>
-47.2106

> <Gold.PLP.part.hbond>
-2.2803

> <Gold.PLP.part.metal>
0.0000

> <Gold.PLP.part.buried>
-7.9051

> <Gold.PLP.part.nonpolar>
-36.9190

> <Gold.PLP.part.repulsive>
0.1507

> <Gold.PLP.ligand.clash>
3.8455

> <Gold.PLP.ligand.torsion>
0.4453

> <Gold.PLP.Chemscore.Hbond>
1.4440

> <Gold.PLP.Chemscore.CHOScore>
0.0000

> <Gold.PLP.Chemscore.Metal>
0.0000

> <Gold.Chemscore.Hbonds>
donor molecule, donor type, donor heavy atom, donor atom, acceptor molecule, acceptor atom, score
      L1  H     6    33       P1  8028  0.91
      P1  H  6933  6944       L1     2  0.49

> <Gold.PLP.Chemscore.Internal.Correction>
4.0265

> <Gold.Rescore>
     Score         DG    S(hbond)    S(metal)    S(lipo)     H(rot)  DE(clash)    DE(int)     intcor
      4.46      -9.72       0.73        0.00      68.48       2.43       0.06       5.20       ----

> <Gold.Chemscore.Fitness>
4.4650

> <Gold.Chemscore.DG>
-9.7226

> <Gold.Chemscore.ZeroCoef>
-5.4800

> <Gold.Chemscore.Hbond>
0.7330

> <Gold.Chemscore.Metal>
0.0000

> <Gold.Chemscore.Lipo>
68.4818

> <Gold.Chemscore.Internal_Hbond>
0.0000

> <Gold.Chemscore.DEClash>
0.0588

> <Gold.Chemscore.DEInternal>
5.1988

> <Gold.Chemscore.Rot>
2.4289

> <Gold.Chemscore.Internal.Correction>
   9.000000E+99

> <Gold.Chemscore.Hbonds>
donor molecule, donor type, donor heavy atom, donor atom, acceptor molecule, acceptor atom, score
      L1  H     6    33       P1  8028  0.27
      P1  H  6933  6944       L1     2  0.06

> <Gold.Chemscore.Hbond.Weighted>
-2.4482

> <Gold.Chemscore.Metal.Weighted>
-0.0000

> <Gold.Chemscore.Lipo.Weighted>
-8.0124

> <Gold.Chemscore.Internal_Hbond.Weighted>
0.0000

> <Gold.Chemscore.DEClash.Weighted>
0.0588

> <Gold.Chemscore.DEInternal.Weighted>
5.1988

> <Gold.Chemscore.Rot.Weighted>
6.2180

> <Gold.Chemscore.Internal.Correction.Weighted>
   9.000000E+99

> <Gold.Protein.RotatedTorsions>
[ 6907 6896 6895 6894 ] final   35.56 input  -60.11 | X-H torsion
[ 7974 7965 7964 7962 ] final -131.80 input  175.53 | X-H torsion
[ 8008 7997 7996 7995 ] final  -59.89 input   59.86 | X-H torsion
[ 10167 10162 10161 10158 ] final -176.83 input  -65.29 | X-H torsion
[ 10718 10713 10712 10709 ] final  -25.75 input   66.30 | X-H torsion
[ 10763 10752 10751 10750 ] final   49.01 input  -60.55 | X-H torsion
[ 11005 11000 10999 10996 ] final -133.74 input  -57.11 | X-H torsion

> <Gold.Protein.ActiveResidues>
 VAL166  LYS551  ARG553  GLY616  TRP617  ASP618  TYR619  PRO620  LYS621  CYS622 
 ASP623  PHE694  ASN695  SER759  ASP760  ASP761  ALA762  ILE779  LEU786  VAL792 
 PHE793  MET794  SER795  GLU796  ALA797  LYS798  CYS799  TRP800  GLU811  SER814 

> <Gold.Protein.RotatedAtoms>
  152.1178  134.9228  160.0564 H   0  0  0  0  0  0  0  0  0  0  0  0  # atno 6907 bound_to 6896
  152.0381  133.3960  159.4333 H   0  0  0  0  0  0  0  0  0  0  0  0  # atno 6908 bound_to 6896
  150.6847  134.3367  159.4894 H   0  0  0  0  0  0  0  0  0  0  0  0  # atno 6909 bound_to 6896
  144.9345  140.7167  143.4885 H   0  0  0  0  0  0  0  0  0  0  0  0  # atno 7974 bound_to 7965
  154.4373  140.1051  156.6187 H   0  0  0  0  0  0  0  0  0  0  0  0  # atno 8008 bound_to 7997
  155.5731  140.3489  155.4501 H   0  0  0  0  0  0  0  0  0  0  0  0  # atno 8009 bound_to 7997
  156.0375  140.1274  157.0181 H   0  0  0  0  0  0  0  0  0  0  0  0  # atno 8010 bound_to 7997
  139.5510  144.2109  152.1077 H   0  0  0  0  0  0  0  0  0  0  0  0  # atno 10167 bound_to 10162
  156.4602  130.4502  149.6933 H   0  0  0  0  0  0  0  0  0  0  0  0  # atno 10718 bound_to 10713
  152.9789  135.5926  154.4018 H   0  0  0  0  0  0  0  0  0  0  0  0  # atno 10763 bound_to 10752
  154.3663  135.2767  155.2293 H   0  0  0  0  0  0  0  0  0  0  0  0  # atno 10764 bound_to 10752
  154.4268  135.6046  153.6099 H   0  0  0  0  0  0  0  0  0  0  0  0  # atno 10765 bound_to 10752
  140.9053  134.1637  157.4430 H   0  0  0  0  0  0  0  0  0  0  0  0  # atno 11005 bound_to 11000
  145.3089  139.1825  143.4649 LP  0  0  0  0  0  0  0  0  0  0  0  0  # atno 17320 bound_to 7965
  146.3261  140.3091  142.8625 LP  0  0  0  0  0  0  0  0  0  0  0  0  # atno 17321 bound_to 7965
  140.1604  144.5031  150.6635 LP  0  0  0  0  0  0  0  0  0  0  0  0  # atno 17342 bound_to 10162
  140.6772  143.2310  151.5476 LP  0  0  0  0  0  0  0  0  0  0  0  0  # atno 17343 bound_to 10162
  156.3724  130.7537  151.2522 LP  0  0  0  0  0  0  0  0  0  0  0  0  # atno 17370 bound_to 10713
  157.7498  131.0319  150.4203 LP  0  0  0  0  0  0  0  0  0  0  0  0  # atno 17371 bound_to 10713
  139.8748  134.9914  156.5550 LP  0  0  0  0  0  0  0  0  0  0  0  0  # atno 17394 bound_to 11000
  140.8178  133.8378  155.8868 LP  0  0  0  0  0  0  0  0  0  0  0  0  # atno 17395 bound_to 11000

$$$$
