#       Name:                AV-unprocessed.smi:3237
#       Creating user name   scv26
#       Creation time:       Fri Mar 27 18:22:59 2020


#       File generated by GOLD software.
#

@<TRIPOS>MOLECULE
AV-unprocessed.smi:3237
    42    44     1
SMALL
NO_CHARGES


@<TRIPOS>ATOM
      1 ****        -7.2290  -1.0366  -0.2777 C.3            1 S1                 0.0000
      2 ****        -5.8288  -0.9503  -0.7806 C.2            1 S1                 0.0000
      3 ****        -4.6291  -1.3456  -0.2605 C.2            1 S1                 0.0000
      4 ****        -3.6967  -0.9496  -1.2579 C.2            1 S1                 0.0000
      5 ****        -2.3681  -1.1327  -1.2130 N.pl3          1 S1                -1.0000
      6 ****        -1.5788  -0.2351  -0.5806 C.2            1 S1                 0.0000
      7 ****        -1.9500   0.7862   0.0023 O.2            1 S1                 0.0000
      8 ****        -0.2751  -0.5415  -0.6244 N.am           1 S1                 0.0000
      9 ****         0.7994   0.2419  -0.0262 C.3            1 S1                 0.0000
     10 ****         0.9102   0.1141   1.4899 C.3            1 S1                 0.0000
     11 ****         2.3533   0.5556   1.7564 C.3            1 S1                 0.0000
     12 ****         3.1291   0.2467   0.5291 N.4            1 S1                 1.0000
     13 ****         3.9723   1.3701   0.0649 C.3            1 S1                 0.0000
     14 ****         5.2155   0.9293  -0.6702 C.3            1 S1                 0.0000
     15 ****         5.3158   1.4405   0.7507 C.3            1 S1                 0.0000
     16 ****         2.1731  -0.2360  -0.4912 C.3            1 S1                 0.0000
     17 ****        -4.2806  -0.3800  -2.2987 N.2            1 S1                 0.0000
     18 ****        -5.6476  -0.3693  -1.9970 O.3            1 S1                 0.0000
     19 ****        -7.3706  -1.9367   0.3207 H              1 S1                 0.0000
     20 ****        -7.9405  -1.0657  -1.1033 H              1 S1                 0.0000
     21 ****        -7.4676  -0.1746   0.3452 H              1 S1                 0.0000
     22 ****        -4.4462  -1.8356   0.6840 H              1 S1                 0.0000
     23 ****        -0.0149  -1.3851  -1.1143 H              1 S1                 0.0000
     24 ****         0.6825   1.2935  -0.2961 H              1 S1                 0.0000
     25 ****         0.1776   0.7201   2.0239 H              1 S1                 0.0000
     26 ****         0.7753  -0.9253   1.7936 H              1 S1                 0.0000
     27 ****         2.3725   1.6287   1.9548 H              1 S1                 0.0000
     28 ****         2.7800   0.0543   2.6254 H              1 S1                 0.0000
     29 ****         3.4503   2.2798  -0.2274 H              1 S1                 0.0000
     30 ****         5.3661  -0.1363  -0.8339 H              1 S1                 0.0000
     31 ****         5.5866   1.5781  -1.4610 H              1 S1                 0.0000
     32 ****         5.7540   2.4258   0.8962 H              1 S1                 0.0000
     33 ****         5.5339   0.7147   1.5323 H              1 S1                 0.0000
     34 ****         2.2144  -1.3263  -0.4978 H              1 S1                 0.0000
     35 ****         2.4148   0.1077  -1.4981 H              1 S1                 0.0000
     36 ****         3.7475  -0.5236   0.7395 H              1 S1                 0.0000
     37 ****        -1.9605  -1.9354  -1.6485 LP             1 S1                 0.0000
     38 ****        -2.9226   1.0161   0.0379 LP             1 S1                 0.0000
     39 ****        -1.2785   1.3844   0.4395 LP             1 S1                 0.0000
     40 ****        -3.8395  -0.0311  -3.1255 LP             1 S1                 0.0000
     41 ****        -5.9797   0.5736  -1.9726 LP             1 S1                 0.0000
     42 ****        -6.1502  -0.8819  -2.6932 LP             1 S1                 0.0000
@<TRIPOS>BOND
    1    1    2 1     
    2    1   19 1     
    3    1   20 1     
    4    1   21 1     
    5    2   18 1     
    6    2    3 2     
    7    3    4 1     
    8    3   22 1     
    9    4    5 1     
   10    4   17 2     
   11    5    6 1     
   12    6    7 2     
   13    6    8 am    
   14    8    9 1     
   15    8   23 1     
   16    9   16 1     
   17    9   10 1     
   18    9   24 1     
   19   10   11 1     
   20   10   25 1     
   21   10   26 1     
   22   11   12 1     
   23   11   27 1     
   24   11   28 1     
   25   12   13 1     
   26   12   16 1     
   27   12   36 1     
   28   13   15 1     
   29   13   14 1     
   30   13   29 1     
   31   14   15 1     
   32   14   30 1     
   33   14   31 1     
   34   15   32 1     
   35   15   33 1     
   36   16   34 1     
   37   16   35 1     
   38   17   18 1     
   39    5   37 1     
   40    7   38 1     
   41    7   39 1     
   42   17   40 1     
   43   18   41 1     
   44   18   42 1     
@<TRIPOS>SUBSTRUCTURE
      1 S1             1
@<TRIPOS>SET
LONE_PAIRS      STATIC     ATOMS    <user>   **** ""
6 37 38 39 40 41 42
DONOR_HYDROGENS      STATIC     ATOMS    <user>   **** ""
2 23 36
ATOM$BLUE        STATIC     ATOMS    COLORGROUP SYSTEM
6 37 38 39 40 41 42
ATOM$RED        STATIC     ATOMS    COLORGROUP SYSTEM
2 23 36
