AV-unprocessed.smi:3109|AV-procd|sdf|11827|dock5
  -GOLD-   2272017203D 1   1.00000     0.00000
 Structure written by MMmdl.
 37 38  0  0  0  0  0  0  0  0  2 V2000
  146.8606  141.9489  153.8418 C   0  0  0  0  0  0  0  0  0  0  0  0
  146.7088  142.1015  155.2480 C   0  0  0  0  0  0  0  0  0  0  0  0
  147.8031  141.7748  155.9164 N   0  0  0  0  0  0  0  0  0  0  0  0
  148.6836  141.3945  154.9647 N   0  0  0  0  0  0  0  0  0  0  0  0
  150.0277  140.9840  155.3373 C   0  0  0  0  0  0  0  0  0  0  0  0
  150.7517  142.0160  156.2199 C   0  0  0  0  0  0  0  0  0  0  0  0
  149.8507  142.5656  157.2564 N   0  3  0  0  0  0  0  0  0  0  0  0
  150.5133  143.0277  158.4974 C   0  0  0  0  0  0  0  0  0  0  0  0
  151.0278  144.4689  158.2979 C   0  0  0  0  0  0  0  0  0  0  0  0
  151.0524  145.2905  159.6000 C   0  0  0  0  0  0  0  0  0  0  0  0
  152.1755  144.9264  160.5812 C   0  0  0  0  0  0  0  0  0  0  0  0
  152.1983  143.4514  161.0136 C   0  0  0  0  0  0  0  0  0  0  0  0
  152.6892  142.5184  159.8965 C   0  0  0  0  0  0  0  0  0  0  0  0
  151.6055  142.0173  158.9251 C   0  0  0  0  0  0  0  0  0  0  0  0
  148.1438  141.5038  153.7001 C   0  0  0  0  0  0  0  0  0  0  0  0
  146.1421  142.1433  153.0593 H   0  0  0  0  0  0  0  0  0  0  0  0
  145.8434  142.4401  155.7986 H   0  0  0  0  0  0  0  0  0  0  0  0
  149.9697  140.0241  155.8524 H   0  0  0  0  0  0  0  0  0  0  0  0
  150.5951  140.8144  154.4215 H   0  0  0  0  0  0  0  0  0  0  0  0
  151.6041  141.5411  156.7066 H   0  0  0  0  0  0  0  0  0  0  0  0
  151.1518  142.8194  155.6015 H   0  0  0  0  0  0  0  0  0  0  0  0
  149.3307  143.3368  156.8621 H   0  0  0  0  0  0  0  0  0  0  0  0
  149.7438  143.0585  159.2705 H   0  0  0  0  0  0  0  0  0  0  0  0
  152.0034  144.4746  157.8097 H   0  0  0  0  0  0  0  0  0  0  0  0
  150.3552  144.9899  157.6147 H   0  0  0  0  0  0  0  0  0  0  0  0
  151.1622  146.3443  159.3414 H   0  0  0  0  0  0  0  0  0  0  0  0
  150.0874  145.2139  160.1025 H   0  0  0  0  0  0  0  0  0  0  0  0
  153.1402  145.1988  160.1512 H   0  0  0  0  0  0  0  0  0  0  0  0
  152.0654  145.5485  161.4702 H   0  0  0  0  0  0  0  0  0  0  0  0
  152.8904  143.3648  161.8521 H   0  0  0  0  0  0  0  0  0  0  0  0
  151.2269  143.1340  161.3948 H   0  0  0  0  0  0  0  0  0  0  0  0
  153.4849  143.0104  159.3357 H   0  0  0  0  0  0  0  0  0  0  0  0
  153.1601  141.6449  160.3490 H   0  0  0  0  0  0  0  0  0  0  0  0
  151.1163  141.1554  159.3801 H   0  0  0  0  0  0  0  0  0  0  0  0
  152.1127  141.6299  158.0400 H   0  0  0  0  0  0  0  0  0  0  0  0
  148.7094  141.2579  152.8132 H   0  0  0  0  0  0  0  0  0  0  0  0
  149.1991  141.8361  157.5077 H   0  0  0  0  0  0  0  0  0  0  0  0
  1 15  2  0  0  0  0
  1  2  1  0  0  0  0
  1 16  1  0  0  0  0
  2  3  2  0  0  0  0
  2 17  1  0  0  0  0
  3  4  1  0  0  0  0
  4  5  1  0  0  0  0
  4 15  1  0  0  0  0
  5  6  1  0  0  0  0
  5 18  1  0  0  0  0
  5 19  1  0  0  0  0
  6  7  1  0  0  0  0
  6 20  1  0  0  0  0
  6 21  1  0  0  0  0
  7  8  1  0  0  0  0
  7 22  1  0  0  0  0
  7 37  1  0  0  0  0
  8 14  1  0  0  0  0
  8  9  1  0  0  0  0
  8 23  1  0  0  0  0
  9 10  1  0  0  0  0
  9 24  1  0  0  0  0
  9 25  1  0  0  0  0
 10 11  1  0  0  0  0
 10 26  1  0  0  0  0
 10 27  1  0  0  0  0
 11 12  1  0  0  0  0
 11 28  1  0  0  0  0
 11 29  1  0  0  0  0
 12 13  1  0  0  0  0
 12 30  1  0  0  0  0
 12 31  1  0  0  0  0
 13 14  1  0  0  0  0
 13 32  1  0  0  0  0
 13 33  1  0  0  0  0
 14 34  1  0  0  0  0
 14 35  1  0  0  0  0
 15 36  1  0  0  0  0
M  CHG  1   7   1
M  END
> <s_m_source_file>
AV-unprocessed.smi

> <i_m_source_file_index>
3109

> <i_lp_mmshare_version>
43012

> <i_f3d_flags>
0

> <s_epik_input>
W2NIXTFbY0hdW2NIXW5uMVtDSDJdW0NIMl1bTkhdW0NIXTJbQ0gyXVtDSDJdW0NIMl1bQ0gyXVtDSDJdW0NIMl0y

> <s_epik_cmdline>
J2VwaWtfcHl0aG9uJywgJy1waCcsICc3LjAnLCAnLXRuJywgJzgnLCAnLW1hJywgJzIwMCcsICctbWV0YWxfYmluZGluZycsICctaW1hZScsICc8aW5maWxlLm1hZT4nLCAnLW9tYWUnLCAnPG91dGZpbGUubWFlPic=

> <r_lp_tautomer_probability>
1

> <r_epik_Ionization_Penalty>
0.00143219

> <r_epik_Ionization_Penalty_Charging>
0.00142912

> <r_epik_Ionization_Penalty_Neutral>
3.07097e-06

> <r_epik_State_Penalty>
-0

> <r_epik_Charging_Adjusted_Penalty>
0.00142912

> <i_epik_Tot_Q>
1

> <i_epik_Tot_abs_Q>
1

> <r_epik_Metal_State_Penalty>
-0

> <b_epik_Metal_Only>
0

> <s_lp_Force_Field>
OPLS_2005

> <r_lp_Energy>
18.9936

> <b_lp_Chiralities_Consistent>
1

> <s_lp_Variant>
AV-unprocessed.smi:3109-1

> <Gold.Version>
5.8.1

> <Gold.Id.Protein>
6NUR|6NUR_protein|mol2

> <Gold.PLP.Fitness>
47.4713

> <Gold.PLP.PLP>
-39.4116

> <Gold.PLP.part.hbond>
-1.0000

> <Gold.PLP.part.metal>
0.0000

> <Gold.PLP.part.buried>
-5.4803

> <Gold.PLP.part.nonpolar>
-33.3623

> <Gold.PLP.part.repulsive>
0.1522

> <Gold.PLP.ligand.clash>
0.0000

> <Gold.PLP.ligand.torsion>
0.4818

> <Gold.PLP.Chemscore.Hbond>
2.0000

> <Gold.PLP.Chemscore.CHOScore>
1.0000

> <Gold.PLP.Chemscore.Metal>
0.0000

> <Gold.Chemscore.Hbonds>
donor molecule, donor type, donor heavy atom, donor atom, acceptor molecule, acceptor atom, score
      L1  H     7    22       P1  8028  2.00
      L1  C    15    36       P1  7957  1.00

> <Gold.PLP.Chemscore.Internal.Correction>
0.0234

> <Gold.Rescore>
     Score         DG    S(hbond)    S(metal)    S(lipo)     H(rot)  DE(clash)    DE(int)     intcor
     16.95     -17.38       0.93        0.00     107.07       1.46       0.04       0.40       ----

> <Gold.Chemscore.Fitness>
16.9450

> <Gold.Chemscore.DG>
-17.3803

> <Gold.Chemscore.ZeroCoef>
-5.4800

> <Gold.Chemscore.Hbond>
0.9289

> <Gold.Chemscore.Metal>
0.0000

> <Gold.Chemscore.Lipo>
107.0693

> <Gold.Chemscore.Internal_Hbond>
0.0000

> <Gold.Chemscore.DEClash>
0.0351

> <Gold.Chemscore.DEInternal>
0.4002

> <Gold.Chemscore.Rot>
1.4568

> <Gold.Chemscore.Internal.Correction>
   9.000000E+99

> <Gold.Chemscore.Hbonds>
donor molecule, donor type, donor heavy atom, donor atom, acceptor molecule, acceptor atom, score
      L1  H     7    22       P1  8028  0.96

> <Gold.Chemscore.Hbond.Weighted>
-3.1025

> <Gold.Chemscore.Metal.Weighted>
-0.0000

> <Gold.Chemscore.Lipo.Weighted>
-12.5271

> <Gold.Chemscore.Internal_Hbond.Weighted>
0.0000

> <Gold.Chemscore.DEClash.Weighted>
0.0351

> <Gold.Chemscore.DEInternal.Weighted>
0.4002

> <Gold.Chemscore.Rot.Weighted>
3.7293

> <Gold.Chemscore.Internal.Correction.Weighted>
   9.000000E+99

> <Gold.Protein.RotatedTorsions>
[ 6907 6896 6895 6894 ] final  -23.77 input  -60.11 | X-H torsion
[ 7974 7965 7964 7962 ] final  -26.36 input  175.53 | X-H torsion
[ 8008 7997 7996 7995 ] final    3.84 input   59.86 | X-H torsion
[ 10167 10162 10161 10158 ] final  135.78 input  -65.29 | X-H torsion
[ 10718 10713 10712 10709 ] final -105.04 input   66.30 | X-H torsion
[ 10763 10752 10751 10750 ] final  -51.54 input  -60.55 | X-H torsion
[ 11005 11000 10999 10996 ] final   89.97 input  -57.11 | X-H torsion

> <Gold.Protein.ActiveResidues>
 VAL166  LYS551  ARG553  GLY616  TRP617  ASP618  TYR619  PRO620  LYS621  CYS622 
 ASP623  PHE694  ASN695  SER759  ASP760  ASP761  ALA762  ILE779  LEU786  VAL792 
 PHE793  MET794  SER795  GLU796  ALA797  LYS798  CYS799  TRP800  GLU811  SER814 

> <Gold.Protein.RotatedAtoms>
  151.1992  135.0435  159.8864 H   0  0  0  0  0  0  0  0  0  0  0  0  # atno 6907 bound_to 6896
  152.5434  134.0869  159.8270 H   0  0  0  0  0  0  0  0  0  0  0  0  # atno 6908 bound_to 6896
  151.1008  133.5198  159.2642 H   0  0  0  0  0  0  0  0  0  0  0  0  # atno 6909 bound_to 6896
  146.1430  140.5009  142.8644 H   0  0  0  0  0  0  0  0  0  0  0  0  # atno 7974 bound_to 7965
  154.7086  140.2688  155.6650 H   0  0  0  0  0  0  0  0  0  0  0  0  # atno 8008 bound_to 7997
  156.2788  140.2758  156.1645 H   0  0  0  0  0  0  0  0  0  0  0  0  # atno 8009 bound_to 7997
  155.0665  140.0372  157.2584 H   0  0  0  0  0  0  0  0  0  0  0  0  # atno 8010 bound_to 7997
  139.5204  144.6499  151.5333 H   0  0  0  0  0  0  0  0  0  0  0  0  # atno 10167 bound_to 10162
  156.0329  130.5544  150.7483 H   0  0  0  0  0  0  0  0  0  0  0  0  # atno 10718 bound_to 10713
  154.1282  135.6524  153.4916 H   0  0  0  0  0  0  0  0  0  0  0  0  # atno 10763 bound_to 10752
  153.0203  135.5286  154.7028 H   0  0  0  0  0  0  0  0  0  0  0  0  # atno 10764 bound_to 10752
  154.6255  135.2970  155.0247 H   0  0  0  0  0  0  0  0  0  0  0  0  # atno 10765 bound_to 10752
  139.8865  134.8584  156.3217 H   0  0  0  0  0  0  0  0  0  0  0  0  # atno 11005 bound_to 11000
  144.7814  140.5848  143.6603 LP  0  0  0  0  0  0  0  0  0  0  0  0  # atno 17320 bound_to 7965
  145.5002  139.1484  143.3661 LP  0  0  0  0  0  0  0  0  0  0  0  0  # atno 17321 bound_to 7965
  140.6299  143.9096  150.6596 LP  0  0  0  0  0  0  0  0  0  0  0  0  # atno 17342 bound_to 10162
  140.2397  143.3673  152.1497 LP  0  0  0  0  0  0  0  0  0  0  0  0  # atno 17343 bound_to 10162
  157.5034  131.0920  151.0287 LP  0  0  0  0  0  0  0  0  0  0  0  0  # atno 17370 bound_to 10713
  157.0662  130.5845  149.5394 LP  0  0  0  0  0  0  0  0  0  0  0  0  # atno 17371 bound_to 10713
  140.9782  133.7284  156.0633 LP  0  0  0  0  0  0  0  0  0  0  0  0  # atno 17394 bound_to 11000
  140.7783  134.3754  157.5493 LP  0  0  0  0  0  0  0  0  0  0  0  0  # atno 17395 bound_to 11000

$$$$
