#       Name:                AV-unprocessed.smi:1158
#       Creating user name   scv26
#       Creation time:       Fri Mar 27 03:49:14 2020


#       File generated by GOLD software.
#

@<TRIPOS>MOLECULE
AV-unprocessed.smi:1158
    48    49     1
SMALL
NO_CHARGES


@<TRIPOS>ATOM
      1 ****        -3.9616  -3.8431   0.6039 C.3            1 S1                 0.0000
      2 ****        -3.2964  -2.5847   0.6106 O.3            1 S1                 0.0000
      3 ****        -4.0612  -1.4338   0.5855 C.ar           1 S1                 0.0000
      4 ****        -5.4119  -1.5573   0.5614 N.ar           1 S1                 0.0000
      5 ****        -6.1592  -0.4350   0.5308 C.ar           1 S1                 0.0000
      6 ****        -5.6061   0.8584   0.5151 C.ar           1 S1                 0.0000
      7 ****        -4.2053   0.9894   0.5416 C.ar           1 S1                 0.0000
      8 ****        -3.4069  -0.1794   0.5888 C.ar           1 S1                 0.0000
      9 ****        -1.9845  -0.1693   0.6025 N.am           1 S1                 0.0000
     10 ****        -1.1500   0.8212   0.9593 C.2            1 S1                 0.0000
     11 ****        -1.4885   1.9422   1.3370 O.2            1 S1                 0.0000
     12 ****         0.1282   0.4285   0.8646 N.am           1 S1                 0.0000
     13 ****         1.2952   1.2437   1.1999 C.3            1 S1                 0.0000
     14 ****         1.6114   2.2783   0.1032 C.3            1 S1                 0.0000
     15 ****         2.1299   1.6104  -1.1822 C.3            1 S1                 0.0000
     16 ****         3.3227   0.7643  -0.9141 N.4            1 S1                 1.0000
     17 ****         3.9021   0.2183  -2.1698 C.3            1 S1                 0.0000
     18 ****         5.3657  -0.2348  -2.0243 C.3            1 S1                 0.0000
     19 ****         5.4642  -1.3980  -1.3824 F              1 S1                 0.0000
     20 ****         5.9068  -0.3767  -3.2335 F              1 S1                 0.0000
     21 ****         3.0346  -0.2757   0.1101 C.3            1 S1                 0.0000
     22 ****         2.5248   0.3486   1.4231 C.3            1 S1                 0.0000
     23 ****        -3.2209  -4.6423   0.6212 H              1 S1                 0.0000
     24 ****        -4.5648  -3.9714  -0.2961 H              1 S1                 0.0000
     25 ****        -4.5978  -3.9627   1.4820 H              1 S1                 0.0000
     26 ****        -7.2301  -0.5729   0.5115 H              1 S1                 0.0000
     27 ****        -6.2418   1.7306   0.4787 H              1 S1                 0.0000
     28 ****        -3.7770   1.9789   0.5105 H              1 S1                 0.0000
     29 ****        -1.5515  -1.0540   0.3815 H              1 S1                 0.0000
     30 ****         0.3070  -0.5163   0.5573 H              1 S1                 0.0000
     31 ****         1.0820   1.7690   2.1326 H              1 S1                 0.0000
     32 ****         0.7335   2.8861  -0.1188 H              1 S1                 0.0000
     33 ****         2.3682   2.9708   0.4741 H              1 S1                 0.0000
     34 ****         1.3455   1.0030  -1.6367 H              1 S1                 0.0000
     35 ****         2.3836   2.3872  -1.9045 H              1 S1                 0.0000
     36 ****         3.2798  -0.5884  -2.5602 H              1 S1                 0.0000
     37 ****         3.8830   1.0084  -2.9219 H              1 S1                 0.0000
     38 ****         5.9704   0.4987  -1.4901 H              1 S1                 0.0000
     39 ****         2.3037  -0.9839  -0.2833 H              1 S1                 0.0000
     40 ****         3.9342  -0.8447   0.3354 H              1 S1                 0.0000
     41 ****         3.3240   0.9433   1.8677 H              1 S1                 0.0000
     42 ****         2.2950  -0.4354   2.1459 H              1 S1                 0.0000
     43 ****         4.0203   1.3794  -0.5197 H              1 S1                 0.0000
     44 ****        -2.7014  -2.5611  -0.1927 LP             1 S1                 0.0000
     45 ****        -2.7385  -2.5502   1.4398 LP             1 S1                 0.0000
     46 ****        -5.8434  -2.4594   0.5663 LP             1 S1                 0.0000
     47 ****        -2.4585   2.1776   1.3980 LP             1 S1                 0.0000
     48 ****        -0.7936   2.6180   1.5830 LP             1 S1                 0.0000
@<TRIPOS>BOND
    1    1    2 1     
    2    1   23 1     
    3    1   24 1     
    4    1   25 1     
    5    2    3 1     
    6    3    8 ar    
    7    3    4 ar    
    8    4    5 ar    
    9    5    6 ar    
   10    5   26 1     
   11    6    7 ar    
   12    6   27 1     
   13    7    8 ar    
   14    7   28 1     
   15    8    9 1     
   16    9   10 am    
   17    9   29 1     
   18   10   11 2     
   19   10   12 am    
   20   12   13 1     
   21   12   30 1     
   22   13   22 1     
   23   13   14 1     
   24   13   31 1     
   25   14   15 1     
   26   14   32 1     
   27   14   33 1     
   28   15   16 1     
   29   15   34 1     
   30   15   35 1     
   31   16   17 1     
   32   16   21 1     
   33   16   43 1     
   34   17   18 1     
   35   17   36 1     
   36   17   37 1     
   37   18   19 1     
   38   18   20 1     
   39   18   38 1     
   40   21   22 1     
   41   21   39 1     
   42   21   40 1     
   43   22   41 1     
   44   22   42 1     
   45    2   44 1     
   46    2   45 1     
   47    4   46 1     
   48   11   47 1     
   49   11   48 1     
@<TRIPOS>SUBSTRUCTURE
      1 S1             1
@<TRIPOS>SET
LONE_PAIRS      STATIC     ATOMS    <user>   **** ""
5 44 45 46 47 48
DONOR_HYDROGENS      STATIC     ATOMS    <user>   **** ""
3 29 30 43
ATOM$BLUE        STATIC     ATOMS    COLORGROUP SYSTEM
5 44 45 46 47 48
ATOM$RED        STATIC     ATOMS    COLORGROUP SYSTEM
3 29 30 43
