AV-unprocessed.smi:3287|AV-procd|sdf|12596|dock1
  -GOLD-   2272018523D 1   1.00000     0.00000
 Structure written by MMmdl.
 43 44  0  0  0  0  0  0  0  0  2 V2000
  149.5394  141.1270  157.0622 C   0  0  0  0  0  0  0  0  0  0  0  0
  149.0185  141.3381  155.6294 C   0  0  2  0  0  0  0  0  0  0  0  0
  147.5850  141.9050  155.6737 C   0  0  0  0  0  0  0  0  0  0  0  0
  147.0168  142.1486  154.2677 C   0  0  0  0  0  0  0  0  0  0  0  0
  147.0465  140.8703  153.4073 C   0  0  2  0  0  0  0  0  0  0  0  0
  146.0901  139.8448  153.8845 N   0  3  0  0  0  0  0  0  0  0  0  0
  146.4120  138.4493  153.5155 C   0  0  0  0  0  0  0  0  0  0  0  0
  146.2006  138.2069  152.0111 C   0  0  1  0  0  0  0  0  0  0  0  0
  147.4655  138.1035  151.3861 O   0  0  0  0  0  0  0  0  0  0  0  0
  145.3489  136.9711  151.7679 C   0  0  0  0  0  0  0  0  0  0  0  0
  145.6986  136.0244  150.7805 C   0  0  0  0  0  0  0  0  0  0  0  0
  144.8722  134.8964  150.6054 C   0  0  0  0  0  0  0  0  0  0  0  0
  143.7600  134.6718  151.3372 N   0  0  0  0  0  0  0  0  0  0  0  0
  143.4314  135.5787  152.2817 C   0  0  0  0  0  0  0  0  0  0  0  0
  144.1892  136.7393  152.5369 C   0  0  0  0  0  0  0  0  0  0  0  0
  148.4740  140.2947  153.3665 C   0  0  0  0  0  0  0  0  0  0  0  0
  149.0726  140.0473  154.7697 C   0  0  1  0  0  0  0  0  0  0  0  0
  150.4964  139.4789  154.6333 C   0  0  0  0  0  0  0  0  0  0  0  0
  148.9923  140.3327  157.5711 H   0  0  0  0  0  0  0  0  0  0  0  0
  149.4307  142.0353  157.6554 H   0  0  0  0  0  0  0  0  0  0  0  0
  150.5977  140.8679  157.0749 H   0  0  0  0  0  0  0  0  0  0  0  0
  149.6552  142.0878  155.1568 H   0  0  0  0  0  0  0  0  0  0  0  0
  146.9328  141.2219  156.2196 H   0  0  0  0  0  0  0  0  0  0  0  0
  147.5754  142.8429  156.2301 H   0  0  0  0  0  0  0  0  0  0  0  0
  146.0096  142.5579  154.3361 H   0  0  0  0  0  0  0  0  0  0  0  0
  147.6131  142.9192  153.7771 H   0  0  0  0  0  0  0  0  0  0  0  0
  146.7649  141.1279  152.3853 H   0  0  0  0  0  0  0  0  0  0  0  0
  146.0671  139.8913  154.8930 H   0  0  0  0  0  0  0  0  0  0  0  0
  147.4402  138.2119  153.7885 H   0  0  0  0  0  0  0  0  0  0  0  0
  145.7667  137.7817  154.0881 H   0  0  0  0  0  0  0  0  0  0  0  0
  145.6916  139.0677  151.5746 H   0  0  0  0  0  0  0  0  0  0  0  0
  148.0086  137.5266  151.9025 H   0  0  0  0  0  0  0  0  0  0  0  0
  146.5794  136.1546  150.1686 H   0  0  0  0  0  0  0  0  0  0  0  0
  145.1119  134.1543  149.8585 H   0  0  0  0  0  0  0  0  0  0  0  0
  142.5376  135.3735  152.8522 H   0  0  0  0  0  0  0  0  0  0  0  0
  143.8812  137.4317  153.3065 H   0  0  0  0  0  0  0  0  0  0  0  0
  148.4799  139.3699  152.7878 H   0  0  0  0  0  0  0  0  0  0  0  0
  149.1172  140.9895  152.8240 H   0  0  0  0  0  0  0  0  0  0  0  0
  148.4673  139.2860  155.2637 H   0  0  0  0  0  0  0  0  0  0  0  0
  151.1804  140.2178  154.2146 H   0  0  0  0  0  0  0  0  0  0  0  0
  150.5093  138.6079  153.9775 H   0  0  0  0  0  0  0  0  0  0  0  0
  150.8981  139.1557  155.5932 H   0  0  0  0  0  0  0  0  0  0  0  0
  145.1698  140.0714  153.5348 H   0  0  0  0  0  0  0  0  0  0  0  0
  1  2  1  0  0  0  0
  1 19  1  0  0  0  0
  1 20  1  0  0  0  0
  1 21  1  0  0  0  0
  2 17  1  0  0  0  0
  2  3  1  0  0  0  0
  2 22  1  0  0  0  0
  3  4  1  0  0  0  0
  3 23  1  0  0  0  0
  3 24  1  0  0  0  0
  4  5  1  0  0  0  0
  4 25  1  0  0  0  0
  4 26  1  0  0  0  0
  5  6  1  0  0  0  0
  5 16  1  0  0  0  0
  5 27  1  0  0  0  0
  6  7  1  0  0  0  0
  6 28  1  0  0  0  0
  6 43  1  0  0  0  0
  7  8  1  0  0  0  0
  7 29  1  0  0  0  0
  7 30  1  0  0  0  0
  8  9  1  0  0  0  0
  8 10  1  0  0  0  0
  8 31  1  0  0  0  0
  9 32  1  0  0  0  0
 10 15  1  0  0  0  0
 10 11  2  0  0  0  0
 11 12  1  0  0  0  0
 11 33  1  0  0  0  0
 12 13  2  0  0  0  0
 12 34  1  0  0  0  0
 13 14  1  0  0  0  0
 14 15  2  0  0  0  0
 14 35  1  0  0  0  0
 15 36  1  0  0  0  0
 16 17  1  0  0  0  0
 16 37  1  0  0  0  0
 16 38  1  0  0  0  0
 17 18  1  0  0  0  0
 17 39  1  0  0  0  0
 18 40  1  0  0  0  0
 18 41  1  0  0  0  0
 18 42  1  0  0  0  0
M  CHG  1   6   1
M  END
> <s_m_source_file>
AV-unprocessed.smi

> <i_m_source_file_index>
3287

> <i_lp_mmshare_version>
43012

> <i_f3d_flags>
0

> <s_epik_input>
W0NIM11bQ0BASF0xW0NIMl1bQ0gyXVtDQEhdKFtDSDJdW0NASF0xW0NIM10pW05IXVtDSDJdW0NASF0oW09IXSljMltjSF1bY0hdbltjSF1bY0hdMg==

> <s_epik_cmdline>
J2VwaWtfcHl0aG9uJywgJy1waCcsICc3LjAnLCAnLXRuJywgJzgnLCAnLW1hJywgJzIwMCcsICctbWV0YWxfYmluZGluZycsICctaW1hZScsICc8aW5maWxlLm1hZT4nLCAnLW9tYWUnLCAnPG91dGZpbGUubWFlPic=

> <r_lp_tautomer_probability>
1

> <r_epik_Ionization_Penalty>
0.00537262

> <r_epik_Ionization_Penalty_Charging>
0.00321624

> <r_epik_Ionization_Penalty_Neutral>
0.00215638

> <r_epik_State_Penalty>
-0

> <r_epik_Charging_Adjusted_Penalty>
0.00321624

> <i_epik_Tot_Q>
1

> <i_epik_Tot_abs_Q>
1

> <r_epik_Metal_State_Penalty>
-0

> <b_epik_Metal_Only>
0

> <s_lp_Force_Field>
OPLS_2005

> <r_lp_Energy>
19.2096

> <b_lp_Chiralities_Consistent>
1

> <s_lp_Variant>
AV-unprocessed.smi:3287-7

> <Gold.Version>
5.8.1

> <Gold.Id.Protein>
6NUR|6NUR_protein|mol2

> <Gold.PLP.Fitness>
43.7854

> <Gold.PLP.PLP>
-32.5162

> <Gold.PLP.part.hbond>
-3.5086

> <Gold.PLP.part.metal>
0.0000

> <Gold.PLP.part.buried>
3.5494

> <Gold.PLP.part.nonpolar>
-33.8010

> <Gold.PLP.part.repulsive>
0.1949

> <Gold.PLP.ligand.clash>
0.0000

> <Gold.PLP.ligand.torsion>
1.3751

> <Gold.PLP.Chemscore.Hbond>
3.8480

> <Gold.PLP.Chemscore.CHOScore>
0.8062

> <Gold.PLP.Chemscore.Metal>
0.0000

> <Gold.Chemscore.Hbonds>
donor molecule, donor type, donor heavy atom, donor atom, acceptor molecule, acceptor atom, score
      L1  H     6    43       P1 10175  2.00
      L1  H     9    32       P1  7948  0.86
      P1  H  7954  7966       L1     9  0.95
      L1  C    12    34       P1  7921  0.82

> <Gold.PLP.Chemscore.Internal.Correction>
0.0567

> <Gold.Rescore>
     Score         DG    S(hbond)    S(metal)    S(lipo)     H(rot)  DE(clash)    DE(int)     intcor
     15.64     -18.98       2.30        0.00      91.31       1.90       2.11       1.23       ----

> <Gold.Chemscore.Fitness>
15.6390

> <Gold.Chemscore.DG>
-18.9831

> <Gold.Chemscore.ZeroCoef>
-5.4800

> <Gold.Chemscore.Hbond>
2.3031

> <Gold.Chemscore.Metal>
0.0000

> <Gold.Chemscore.Lipo>
91.3129

> <Gold.Chemscore.Internal_Hbond>
0.0000

> <Gold.Chemscore.DEClash>
2.1120

> <Gold.Chemscore.DEInternal>
1.2320

> <Gold.Chemscore.Rot>
1.9035

> <Gold.Chemscore.Internal.Correction>
   9.000000E+99

> <Gold.Chemscore.Hbonds>
donor molecule, donor type, donor heavy atom, donor atom, acceptor molecule, acceptor atom, score
      L1  H     6    43       P1 10175  1.00
      L1  H     9    32       P1  7948  0.83
      P1  H  7954  7966       L1     9  0.21

> <Gold.Chemscore.Hbond.Weighted>
-7.6923

> <Gold.Chemscore.Metal.Weighted>
-0.0000

> <Gold.Chemscore.Lipo.Weighted>
-10.6836

> <Gold.Chemscore.Internal_Hbond.Weighted>
0.0000

> <Gold.Chemscore.DEClash.Weighted>
2.1120

> <Gold.Chemscore.DEInternal.Weighted>
1.2320

> <Gold.Chemscore.Rot.Weighted>
4.8729

> <Gold.Chemscore.Internal.Correction.Weighted>
   9.000000E+99

> <Gold.Protein.RotatedTorsions>
[ 6907 6896 6895 6894 ] final  -20.93 input  -60.11 | X-H torsion
[ 7974 7965 7964 7962 ] final -126.80 input  175.53 | X-H torsion
[ 8008 7997 7996 7995 ] final  -38.34 input   59.86 | X-H torsion
[ 10167 10162 10161 10158 ] final -137.25 input  -65.29 | X-H torsion
[ 10718 10713 10712 10709 ] final  166.25 input   66.30 | X-H torsion
[ 10763 10752 10751 10750 ] final  -36.11 input  -60.55 | X-H torsion
[ 11005 11000 10999 10996 ] final   28.38 input  -57.11 | X-H torsion

> <Gold.Protein.ActiveResidues>
 VAL166  LYS551  ARG553  GLY616  TRP617  ASP618  TYR619  PRO620  LYS621  CYS622 
 ASP623  PHE694  ASN695  SER759  ASP760  ASP761  ALA762  ILE779  LEU786  VAL792 
 PHE793  MET794  SER795  GLU796  ALA797  LYS798  CYS799  TRP800  GLU811  SER814 

> <Gold.Protein.RotatedAtoms>
  151.2409  135.0588  159.9024 H   0  0  0  0  0  0  0  0  0  0  0  0  # atno 6907 bound_to 6896
  152.5393  134.0435  159.8088 H   0  0  0  0  0  0  0  0  0  0  0  0  # atno 6908 bound_to 6896
  151.0629  133.5480  159.2664 H   0  0  0  0  0  0  0  0  0  0  0  0  # atno 6909 bound_to 6896
  144.9836  140.7664  143.4597 H   0  0  0  0  0  0  0  0  0  0  0  0  # atno 7974 bound_to 7965
  154.4038  140.1580  156.2683 H   0  0  0  0  0  0  0  0  0  0  0  0  # atno 8008 bound_to 7997
  155.8975  140.3435  155.5980 H   0  0  0  0  0  0  0  0  0  0  0  0  # atno 8009 bound_to 7997
  155.7486  140.0802  157.2202 H   0  0  0  0  0  0  0  0  0  0  0  0  # atno 8010 bound_to 7997
  139.8596  143.7093  152.2651 H   0  0  0  0  0  0  0  0  0  0  0  0  # atno 10167 bound_to 10162
  157.0686  131.0360  151.2620 H   0  0  0  0  0  0  0  0  0  0  0  0  # atno 10718 bound_to 10713
  153.8743  135.6828  153.4772 H   0  0  0  0  0  0  0  0  0  0  0  0  # atno 10763 bound_to 10752
  153.1269  135.4715  154.9285 H   0  0  0  0  0  0  0  0  0  0  0  0  # atno 10764 bound_to 10752
  154.7699  135.3235  154.8161 H   0  0  0  0  0  0  0  0  0  0  0  0  # atno 10765 bound_to 10752
  140.3161  134.2595  155.7725 H   0  0  0  0  0  0  0  0  0  0  0  0  # atno 11005 bound_to 11000
  145.2386  139.2083  143.5005 LP  0  0  0  0  0  0  0  0  0  0  0  0  # atno 17320 bound_to 7965
  146.3414  140.2277  142.8592 LP  0  0  0  0  0  0  0  0  0  0  0  0  # atno 17321 bound_to 7965
  139.7386  144.7565  151.0688 LP  0  0  0  0  0  0  0  0  0  0  0  0  # atno 17342 bound_to 10162
  140.7777  143.5000  150.9784 LP  0  0  0  0  0  0  0  0  0  0  0  0  # atno 17343 bound_to 10162
  157.4896  130.7814  149.7495 LP  0  0  0  0  0  0  0  0  0  0  0  0  # atno 17370 bound_to 10713
  155.9957  130.3910  150.2808 LP  0  0  0  0  0  0  0  0  0  0  0  0  # atno 17371 bound_to 10713
  141.2097  133.7741  156.9979 LP  0  0  0  0  0  0  0  0  0  0  0  0  # atno 17394 bound_to 11000
  140.0982  134.9551  157.1882 LP  0  0  0  0  0  0  0  0  0  0  0  0  # atno 17395 bound_to 11000

$$$$
