AV-unprocessed.smi:1734|AV-procd|sdf|6983|dock5
  -GOLD-   22720 8193D 1   1.00000     0.00000
 Structure written by MMmdl.
 50 52  0  0  0  0  0  0  0  0  1 V2000
  147.7087  133.0433  152.6597 C   0  0  0  0  0  0  0  0  0  0  0  0
  146.4008  133.0894  151.8865 C   0  0  0  0  0  0  0  0  0  0  0  0
  145.8213  131.8833  151.4383 C   0  0  0  0  0  0  0  0  0  0  0  0
  144.6121  131.9274  150.7240 C   0  0  0  0  0  0  0  0  0  0  0  0
  144.0296  133.1839  150.4863 C   0  0  0  0  0  0  0  0  0  0  0  0
  144.5768  134.3413  150.9100 N   0  0  0  0  0  0  0  0  0  0  0  0
  145.7443  134.3168  151.6011 C   0  0  0  0  0  0  0  0  0  0  0  0
  146.3812  135.4984  152.0757 N   0  0  0  0  0  0  0  0  0  0  0  0
  145.8143  136.6257  152.5405 C   0  0  0  0  0  0  0  0  0  0  0  0
  144.6040  136.8157  152.6650 O   0  0  0  0  0  0  0  0  0  0  0  0
  146.7448  137.5409  152.8491 N   0  0  0  0  0  0  0  0  0  0  0  0
  146.4831  138.8937  153.3341 C   0  0  0  0  0  0  0  0  0  0  0  0
  147.7931  139.6404  153.7074 C   0  0  1  0  0  0  0  0  0  0  0  0
  147.5377  140.9316  154.5448 C   0  0  1  0  0  0  0  0  0  0  0  0
  146.5619  141.9742  153.9910 C   0  0  0  0  0  0  0  0  0  0  0  0
  145.7024  142.3574  155.1968 C   0  0  0  0  0  0  0  0  0  0  0  0
  146.4760  141.9651  156.3202 O   0  0  0  0  0  0  0  0  0  0  0  0
  147.0682  140.7200  155.9901 C   0  0  0  0  0  0  0  0  0  0  0  0
  148.8773  138.7765  154.2155 N   0  0  0  0  0  0  0  0  0  0  0  0
  150.1385  139.4536  154.5111 C   0  0  0  0  0  0  0  0  0  0  0  0
  151.2330  138.4589  154.9362 C   0  0  0  0  0  0  0  0  0  0  0  0
  150.7822  137.6813  156.0406 O   0  0  0  0  0  0  0  0  0  0  0  0
  149.5872  136.9628  155.7535 C   0  0  0  0  0  0  0  0  0  0  0  0
  148.4806  137.9532  155.3557 C   0  0  0  0  0  0  0  0  0  0  0  0
  148.0661  132.0195  152.7749 H   0  0  0  0  0  0  0  0  0  0  0  0
  147.5778  133.4667  153.6559 H   0  0  0  0  0  0  0  0  0  0  0  0
  148.4804  133.6109  152.1390 H   0  0  0  0  0  0  0  0  0  0  0  0
  146.2955  130.9334  151.6376 H   0  0  0  0  0  0  0  0  0  0  0  0
  144.1432  131.0220  150.3679 H   0  0  0  0  0  0  0  0  0  0  0  0
  143.1004  133.2631  149.9415 H   0  0  0  0  0  0  0  0  0  0  0  0
  147.3894  135.4894  152.0364 H   0  0  0  0  0  0  0  0  0  0  0  0
  147.7140  137.2912  152.7164 H   0  0  0  0  0  0  0  0  0  0  0  0
  145.9045  139.4683  152.6102 H   0  0  0  0  0  0  0  0  0  0  0  0
  145.8411  138.7829  154.2066 H   0  0  0  0  0  0  0  0  0  0  0  0
  148.1675  140.0316  152.7600 H   0  0  0  0  0  0  0  0  0  0  0  0
  148.4959  141.4475  154.6265 H   0  0  0  0  0  0  0  0  0  0  0  0
  147.1148  142.8437  153.6338 H   0  0  0  0  0  0  0  0  0  0  0  0
  145.9526  141.6239  153.1595 H   0  0  0  0  0  0  0  0  0  0  0  0
  145.4671  143.4215  155.2239 H   0  0  0  0  0  0  0  0  0  0  0  0
  144.7638  141.8009  155.1939 H   0  0  0  0  0  0  0  0  0  0  0  0
  146.3092  139.9418  156.0769 H   0  0  0  0  0  0  0  0  0  0  0  0
  147.8876  140.4736  156.6656 H   0  0  0  0  0  0  0  0  0  0  0  0
  150.4976  139.9879  153.6349 H   0  0  0  0  0  0  0  0  0  0  0  0
  149.9951  140.1900  155.3021 H   0  0  0  0  0  0  0  0  0  0  0  0
  151.4970  137.8019  154.1061 H   0  0  0  0  0  0  0  0  0  0  0  0
  152.1395  138.9927  155.2216 H   0  0  0  0  0  0  0  0  0  0  0  0
  149.7678  136.2421  154.9545 H   0  0  0  0  0  0  0  0  0  0  0  0
  149.2905  136.3964  156.6363 H   0  0  0  0  0  0  0  0  0  0  0  0
  148.2550  138.5813  156.2172 H   0  0  0  0  0  0  0  0  0  0  0  0
  147.5706  137.4011  155.1193 H   0  0  0  0  0  0  0  0  0  0  0  0
  1  2  1  0  0  0  0
  1 25  1  0  0  0  0
  1 26  1  0  0  0  0
  1 27  1  0  0  0  0
  2  7  1  0  0  0  0
  2  3  2  0  0  0  0
  3  4  1  0  0  0  0
  3 28  1  0  0  0  0
  4  5  2  0  0  0  0
  4 29  1  0  0  0  0
  5  6  1  0  0  0  0
  5 30  1  0  0  0  0
  6  7  2  0  0  0  0
  7  8  1  0  0  0  0
  8  9  1  0  0  0  0
  8 31  1  0  0  0  0
  9 10  2  0  0  0  0
  9 11  1  0  0  0  0
 11 12  1  0  0  0  0
 11 32  1  0  0  0  0
 12 13  1  0  0  0  0
 12 33  1  0  0  0  0
 12 34  1  0  0  0  0
 13 14  1  0  0  0  0
 13 19  1  0  0  0  0
 13 35  1  0  0  0  0
 14 18  1  0  0  0  0
 14 15  1  0  0  0  0
 14 36  1  0  0  0  0
 15 16  1  0  0  0  0
 15 37  1  0  0  0  0
 15 38  1  0  0  0  0
 16 17  1  0  0  0  0
 16 39  1  0  0  0  0
 16 40  1  0  0  0  0
 17 18  1  0  0  0  0
 18 41  1  0  0  0  0
 18 42  1  0  0  0  0
 19 24  1  0  0  0  0
 19 20  1  0  0  0  0
 20 21  1  0  0  0  0
 20 43  1  0  0  0  0
 20 44  1  0  0  0  0
 21 22  1  0  0  0  0
 21 45  1  0  0  0  0
 21 46  1  0  0  0  0
 22 23  1  0  0  0  0
 23 24  1  0  0  0  0
 23 47  1  0  0  0  0
 23 48  1  0  0  0  0
 24 49  1  0  0  0  0
 24 50  1  0  0  0  0
M  END
> <s_m_source_file>
AV-unprocessed.smi

> <i_m_source_file_index>
1734

> <i_lp_mmshare_version>
43012

> <i_f3d_flags>
0

> <s_epik_input>
W0NIM11jMVtjSF1bY0hdW2NIXW5jMVtOSF1DKD1PKVtOSF1bQ0gyXVtDQEhdKFtDQEBIXTJbQ0gyXVtDSDJdT1tDSDJdMilOM1tDSDJdW0NIMl1PW0NIMl1bQ0gyXTM=

> <s_epik_cmdline>
J2VwaWtfcHl0aG9uJywgJy1waCcsICc3LjAnLCAnLXRuJywgJzgnLCAnLW1hJywgJzIwMCcsICctbWV0YWxfYmluZGluZycsICctaW1hZScsICc8aW5maWxlLm1hZT4nLCAnLW9tYWUnLCAnPG91dGZpbGUubWFlPic=

> <r_epik_Ionization_Penalty>
0.125073

> <r_epik_Ionization_Penalty_Charging>
0

> <r_epik_Ionization_Penalty_Neutral>
0.125073

> <r_epik_State_Penalty>
0.114484

> <r_epik_Charging_Adjusted_Penalty>
0.114484

> <i_epik_Tot_Q>
0

> <i_epik_Tot_abs_Q>
0

> <r_epik_Metal_State_Penalty>
0.114483

> <b_epik_Metal_Only>
0

> <s_lp_Force_Field>
OPLS_2005

> <r_lp_Energy>
55.6911

> <b_lp_Chiralities_Consistent>
1

> <s_lp_Variant>
AV-unprocessed.smi:1734-4

> <Gold.Version>
5.8.1

> <Gold.Id.Protein>
6NUR|6NUR_protein|mol2

> <Gold.PLP.Fitness>
45.3934

> <Gold.PLP.PLP>
-37.3130

> <Gold.PLP.part.hbond>
-2.0000

> <Gold.PLP.part.metal>
0.0000

> <Gold.PLP.part.buried>
-5.2565

> <Gold.PLP.part.nonpolar>
-31.7362

> <Gold.PLP.part.repulsive>
1.1305

> <Gold.PLP.ligand.clash>
0.0000

> <Gold.PLP.ligand.torsion>
0.6600

> <Gold.PLP.Chemscore.Hbond>
1.9760

> <Gold.PLP.Chemscore.CHOScore>
1.0000

> <Gold.PLP.Chemscore.Metal>
0.0000

> <Gold.Chemscore.Hbonds>
donor molecule, donor type, donor heavy atom, donor atom, acceptor molecule, acceptor atom, score
      L1  H     8    31       P1  7948  1.00
      L1  H    11    32       P1  7948  0.96
      L1  C     5    30       P1 10186  1.00

> <Gold.PLP.Chemscore.Internal.Correction>
0.4724

> <Gold.Rescore>
     Score         DG    S(hbond)    S(metal)    S(lipo)     H(rot)  DE(clash)    DE(int)     intcor
     16.70     -18.70       1.92        0.00      94.37       1.65       0.44       1.57       ----

> <Gold.Chemscore.Fitness>
16.6959

> <Gold.Chemscore.DG>
-18.7023

> <Gold.Chemscore.ZeroCoef>
-5.4800

> <Gold.Chemscore.Hbond>
1.9161

> <Gold.Chemscore.Metal>
0.0000

> <Gold.Chemscore.Lipo>
94.3723

> <Gold.Chemscore.Internal_Hbond>
0.0000

> <Gold.Chemscore.DEClash>
0.4361

> <Gold.Chemscore.DEInternal>
1.5703

> <Gold.Chemscore.Rot>
1.6480

> <Gold.Chemscore.Internal.Correction>
   9.000000E+99

> <Gold.Chemscore.Hbonds>
donor molecule, donor type, donor heavy atom, donor atom, acceptor molecule, acceptor atom, score
      L1  H     8    31       P1  7948  0.98
      L1  H    11    32       P1  7948  0.92

> <Gold.Chemscore.Hbond.Weighted>
-6.3996

> <Gold.Chemscore.Metal.Weighted>
-0.0000

> <Gold.Chemscore.Lipo.Weighted>
-11.0416

> <Gold.Chemscore.Internal_Hbond.Weighted>
0.0000

> <Gold.Chemscore.DEClash.Weighted>
0.4361

> <Gold.Chemscore.DEInternal.Weighted>
1.5703

> <Gold.Chemscore.Rot.Weighted>
4.2188

> <Gold.Chemscore.Internal.Correction.Weighted>
   9.000000E+99

> <Gold.Protein.RotatedTorsions>
[ 6907 6896 6895 6894 ] final  103.17 input  -60.11 | X-H torsion
[ 7974 7965 7964 7962 ] final  -89.74 input  175.53 | X-H torsion
[ 8008 7997 7996 7995 ] final -148.54 input   59.86 | X-H torsion
[ 10167 10162 10161 10158 ] final   55.31 input  -65.29 | X-H torsion
[ 10718 10713 10712 10709 ] final   -6.84 input   66.30 | X-H torsion
[ 10763 10752 10751 10750 ] final -167.53 input  -60.55 | X-H torsion
[ 11005 11000 10999 10996 ] final   35.37 input  -57.11 | X-H torsion

> <Gold.Protein.ActiveResidues>
 VAL166  LYS551  ARG553  GLY616  TRP617  ASP618  TYR619  PRO620  LYS621  CYS622 
 ASP623  PHE694  ASN695  SER759  ASP760  ASP761  ALA762  ILE779  LEU786  VAL792 
 PHE793  MET794  SER795  GLU796  ALA797  LYS798  CYS799  TRP800  GLU811  SER814 

> <Gold.Protein.RotatedAtoms>
  152.5303  133.9865  159.7830 H   0  0  0  0  0  0  0  0  0  0  0  0  # atno 6907 bound_to 6896
  151.0109  133.5958  159.2690 H   0  0  0  0  0  0  0  0  0  0  0  0  # atno 6908 bound_to 6896
  151.3033  135.0781  159.9299 H   0  0  0  0  0  0  0  0  0  0  0  0  # atno 6909 bound_to 6896
  145.4357  140.9557  143.2103 H   0  0  0  0  0  0  0  0  0  0  0  0  # atno 7974 bound_to 7965
  155.5933  140.0655  157.2753 H   0  0  0  0  0  0  0  0  0  0  0  0  # atno 8008 bound_to 7997
  154.4299  140.1831  156.1144 H   0  0  0  0  0  0  0  0  0  0  0  0  # atno 8009 bound_to 7997
  156.0216  140.3316  155.7048 H   0  0  0  0  0  0  0  0  0  0  0  0  # atno 8010 bound_to 7997
  140.2208  144.3790  150.6451 H   0  0  0  0  0  0  0  0  0  0  0  0  # atno 10167 bound_to 10162
  156.7260  130.5165  149.5857 H   0  0  0  0  0  0  0  0  0  0  0  0  # atno 10718 bound_to 10713
  154.6722  135.2941  154.9727 H   0  0  0  0  0  0  0  0  0  0  0  0  # atno 10763 bound_to 10752
  154.0750  135.6612  153.4833 H   0  0  0  0  0  0  0  0  0  0  0  0  # atno 10764 bound_to 10752
  153.0494  135.5184  154.7723 H   0  0  0  0  0  0  0  0  0  0  0  0  # atno 10765 bound_to 10752
  140.2434  134.3388  155.7917 H   0  0  0  0  0  0  0  0  0  0  0  0  # atno 11005 bound_to 11000
  144.8154  139.5887  143.7011 LP  0  0  0  0  0  0  0  0  0  0  0  0  # atno 17320 bound_to 7965
  146.2583  139.6352  142.9379 LP  0  0  0  0  0  0  0  0  0  0  0  0  # atno 17321 bound_to 7965
  140.6256  143.2181  151.6603 LP  0  0  0  0  0  0  0  0  0  0  0  0  # atno 17342 bound_to 10162
  139.5145  144.3410  152.0740 LP  0  0  0  0  0  0  0  0  0  0  0  0  # atno 17343 bound_to 10162
  156.1562  130.6343  151.0660 LP  0  0  0  0  0  0  0  0  0  0  0  0  # atno 17370 bound_to 10713
  157.6878  131.0819  150.7192 LP  0  0  0  0  0  0  0  0  0  0  0  0  # atno 17371 bound_to 10713
  141.2208  133.7312  156.8921 LP  0  0  0  0  0  0  0  0  0  0  0  0  # atno 17394 bound_to 11000
  140.1630  134.9152  157.2739 LP  0  0  0  0  0  0  0  0  0  0  0  0  # atno 17395 bound_to 11000

$$$$
