#       Name:                AV-unprocessed.smi:96
#       Creating user name   scv26
#       Creation time:       Thu Mar 26 17:30:44 2020


#       File generated by GOLD software.
#

@<TRIPOS>MOLECULE
AV-unprocessed.smi:96
    55    58     1
SMALL
NO_CHARGES


@<TRIPOS>ATOM
      1 ****        -0.8736   0.9580   0.7227 O.2            1 S1                 0.0000
      2 ****        -0.3215   0.2851   1.5946 C.2            1 S1                 0.0000
      3 ****         1.1961   0.3890   1.8162 C.3            1 S1                 0.0000
      4 ****         1.9037   1.1007   0.7290 N.am           1 S1                 0.0000
      5 ****         2.1132   2.4970   0.8482 C.2            1 S1                 0.0000
      6 ****         1.7265   3.1187   1.8388 O.2            1 S1                 0.0000
      7 ****         2.8013   3.1284  -0.2723 C.2            1 S1                 0.0000
      8 ****         3.0554   4.4477  -0.2389 F              1 S1                 0.0000
      9 ****         3.1889   2.4087  -1.3455 C.2            1 S1                 0.0000
     10 ****         2.9614   1.0484  -1.4565 N.am           1 S1                 0.0000
     11 ****         3.3929   0.2555  -2.6724 C.3            1 S1                 0.0000
     12 ****         2.1735  -0.1150  -3.5385 C.3            1 S1                 0.0000
     13 ****         2.5891   0.3513  -4.9194 C.3            1 S1                 0.0000
     14 ****         3.5150   1.5135  -4.5933 C.3            1 S1                 0.0000
     15 ****         4.2414   1.0311  -3.4706 O.3            1 S1                 0.0000
     16 ****         2.3130   0.3625  -0.4068 C.2            1 S1                 0.0000
     17 ****         2.1028  -0.8502  -0.4852 O.2            1 S1                 0.0000
     18 ****        -0.9585  -0.5841   2.4000 N.am           1 S1                 0.0000
     19 ****        -2.3423  -0.9030   2.4288 C.ar           1 S1                 0.0000
     20 ****        -3.3612   0.0300   2.0805 C.ar           1 S1                 0.0000
     21 ****        -4.7259  -0.3322   2.1425 C.ar           1 S1                 0.0000
     22 ****        -5.0410  -1.6328   2.5662 C.ar           1 S1                 0.0000
     23 ****        -4.0602  -2.5348   2.9209 C.ar           1 S1                 0.0000
     24 ****        -2.6973  -2.2000   2.8707 C.ar           1 S1                 0.0000
     25 ****        -4.6342  -3.7063   3.2957 O.3            1 S1                 0.0000
     26 ****        -6.0190  -3.5156   3.1617 C.3            1 S1                 0.0000
     27 ****        -6.2618  -2.2093   2.7072 O.3            1 S1                 0.0000
     28 ****         1.3670   0.8678   2.7814 H              1 S1                 0.0000
     29 ****         1.6043  -0.6151   1.9445 H              1 S1                 0.0000
     30 ****         3.6952   2.9366  -2.1388 H              1 S1                 0.0000
     31 ****         3.9446  -0.6031  -2.2852 H              1 S1                 0.0000
     32 ****         1.9683  -1.1846  -3.4889 H              1 S1                 0.0000
     33 ****         1.2905   0.4316  -3.2027 H              1 S1                 0.0000
     34 ****         3.1437  -0.4363  -5.4312 H              1 S1                 0.0000
     35 ****         1.7446   0.6400  -5.5457 H              1 S1                 0.0000
     36 ****         4.1775   1.7714  -5.4197 H              1 S1                 0.0000
     37 ****         2.9422   2.4008  -4.3199 H              1 S1                 0.0000
     38 ****        -0.3711  -1.1404   3.0040 H              1 S1                 0.0000
     39 ****        -3.1146   1.0355   1.7752 H              1 S1                 0.0000
     40 ****        -5.5019   0.3705   1.8772 H              1 S1                 0.0000
     41 ****        -1.9447  -2.9212   3.1546 H              1 S1                 0.0000
     42 ****        -6.4190  -4.2324   2.4437 H              1 S1                 0.0000
     43 ****        -6.5030  -3.6628   4.1276 H              1 S1                 0.0000
     44 ****        -0.3340   1.5776   0.1527 LP             1 S1                 0.0000
     45 ****        -1.8614   0.8845   0.5850 LP             1 S1                 0.0000
     46 ****         1.2549   2.6380   2.5781 LP             1 S1                 0.0000
     47 ****         1.8842   4.1040   1.9037 LP             1 S1                 0.0000
     48 ****         5.0091   0.4722  -3.7840 LP             1 S1                 0.0000
     49 ****         4.5870   1.8041  -2.9386 LP             1 S1                 0.0000
     50 ****         1.6368  -1.3261   0.2607 LP             1 S1                 0.0000
     51 ****         2.3983  -1.3576  -1.2947 LP             1 S1                 0.0000
     52 ****        -4.4025  -3.9194   4.2449 LP             1 S1                 0.0000
     53 ****        -4.3264  -4.4501   2.7024 LP             1 S1                 0.0000
     54 ****        -6.7407  -2.2295   1.8295 LP             1 S1                 0.0000
     55 ****        -6.8100  -1.7049   3.3744 LP             1 S1                 0.0000
@<TRIPOS>BOND
    1    1    2 2     
    2    2    3 1     
    3    2   18 am    
    4    3    4 1     
    5    3   28 1     
    6    3   29 1     
    7    4   16 am    
    8    4    5 am    
    9    5    6 2     
   10    5    7 1     
   11    7    8 1     
   12    7    9 2     
   13    9   10 1     
   14    9   30 1     
   15   10   11 1     
   16   10   16 am    
   17   11   15 1     
   18   11   12 1     
   19   11   31 1     
   20   12   13 1     
   21   12   32 1     
   22   12   33 1     
   23   13   14 1     
   24   13   34 1     
   25   13   35 1     
   26   14   15 1     
   27   14   36 1     
   28   14   37 1     
   29   16   17 2     
   30   18   19 1     
   31   18   38 1     
   32   19   24 ar    
   33   19   20 ar    
   34   20   21 ar    
   35   20   39 1     
   36   21   22 ar    
   37   21   40 1     
   38   22   27 1     
   39   22   23 ar    
   40   23   24 ar    
   41   23   25 1     
   42   24   41 1     
   43   25   26 1     
   44   26   27 1     
   45   26   42 1     
   46   26   43 1     
   47    1   44 1     
   48    1   45 1     
   49    6   46 1     
   50    6   47 1     
   51   15   48 1     
   52   15   49 1     
   53   17   50 1     
   54   17   51 1     
   55   25   52 1     
   56   25   53 1     
   57   27   54 1     
   58   27   55 1     
@<TRIPOS>SUBSTRUCTURE
      1 S1             1
@<TRIPOS>SET
LONE_PAIRS      STATIC     ATOMS    <user>   **** ""
12 44 45 46 47 48 49 50 51 52 53 54 55
DONOR_HYDROGENS      STATIC     ATOMS    <user>   **** ""
1 38
ATOM$BLUE        STATIC     ATOMS    COLORGROUP SYSTEM
12 44 45 46 47 48 49 50 51 52 53 54 55
ATOM$RED        STATIC     ATOMS    COLORGROUP SYSTEM
1 38
