#       Name:                AV-unprocessed.smi:100
#       Creating user name   scv26
#       Creation time:       Thu Mar 26 17:40:00 2020


#       File generated by GOLD software.
#

@<TRIPOS>MOLECULE
AV-unprocessed.smi:100
    40    42     1
SMALL
NO_CHARGES


@<TRIPOS>ATOM
      1 ****        -4.9215   0.5304  -0.4206 N.pl3          1 S1                 0.0000
      2 ****        -3.5961   0.7130  -0.3425 C.ar           1 S1                 0.0000
      3 ****        -3.1331   1.9583  -0.0851 N.ar           1 S1                 0.0000
      4 ****        -1.8151   2.1659  -0.0051 C.ar           1 S1                 0.0000
      5 ****        -0.8210   1.2858  -0.1476 N.ar           1 S1                 0.0000
      6 ****        -1.2879   0.0278  -0.4032 C.ar           1 S1                 0.0000
      7 ****        -2.6589  -0.3365  -0.5179 C.ar           1 S1                 0.0000
      8 ****        -2.7689  -1.6933  -0.7885 N.2            1 S1                 0.0000
      9 ****        -1.5305  -2.1046  -0.8306 C.2            1 S1                 0.0000
     10 ****        -0.5735  -1.1386  -0.6052 N.pl3          1 S1                 0.0000
     11 ****         0.9150  -1.3280  -0.5858 C.3            1 S1                 0.0000
     12 ****         1.5251  -0.1479  -1.0176 O.3            1 S1                 0.0000
     13 ****         2.6054   0.1723  -0.1473 C.3            1 S1                 0.0000
     14 ****         2.9357   1.6716  -0.2137 C.3            1 S1                 0.0000
     15 ****         4.0986   1.9490   0.5371 O.3            1 S1                 0.0000
     16 ****         2.1421  -0.3450   1.2174 C.3            1 S1                 0.0000
     17 ****         1.2720   0.5105   1.7588 F              1 S1                 0.0000
     18 ****         1.4585  -1.6441   0.8244 C.3            1 S1                 0.0000
     19 ****         0.5010  -2.0625   1.7812 O.3            1 S1                 0.0000
     20 ****        -5.2913  -0.3894  -0.6124 H              1 S1                 0.0000
     21 ****        -5.5468   1.3115  -0.2856 H              1 S1                 0.0000
     22 ****        -1.5128   3.1816   0.2028 H              1 S1                 0.0000
     23 ****        -1.2777  -3.1370  -1.0235 H              1 S1                 0.0000
     24 ****         1.0935  -2.1337  -1.2992 H              1 S1                 0.0000
     25 ****         3.4693  -0.4079  -0.4773 H              1 S1                 0.0000
     26 ****         3.1162   1.9680  -1.2472 H              1 S1                 0.0000
     27 ****         2.1070   2.2789   0.1515 H              1 S1                 0.0000
     28 ****         4.2710   2.8770   0.4901 H              1 S1                 0.0000
     29 ****         2.9575  -0.4824   1.9280 H              1 S1                 0.0000
     30 ****         2.2121  -2.4252   0.7162 H              1 S1                 0.0000
     31 ****         0.0562  -2.8266   1.4482 H              1 S1                 0.0000
     32 ****        -3.7718   2.7169   0.0442 LP             1 S1                 0.0000
     33 ****         0.1486   1.5196  -0.0758 LP             1 S1                 0.0000
     34 ****        -3.6021  -2.2304  -0.9204 LP             1 S1                 0.0000
     35 ****         0.8569   0.5961  -1.0076 LP             1 S1                 0.0000
     36 ****         1.8714  -0.2723  -1.9474 LP             1 S1                 0.0000
     37 ****         4.8733   1.4423   0.1589 LP             1 S1                 0.0000
     38 ****         3.9573   1.6799   1.4898 LP             1 S1                 0.0000
     39 ****        -0.1607  -1.3293   1.9386 LP             1 S1                 0.0000
     40 ****         0.9597  -2.2876   2.6408 LP             1 S1                 0.0000
@<TRIPOS>BOND
    1    1    2 1     
    2    1   20 1     
    3    1   21 1     
    4    2    7 ar    
    5    2    3 ar    
    6    3    4 ar    
    7    4    5 ar    
    8    4   22 1     
    9    5    6 ar    
   10    6   10 1     
   11    6    7 ar    
   12    7    8 1     
   13    8    9 2     
   14    9   10 1     
   15    9   23 1     
   16   10   11 1     
   17   11   18 1     
   18   11   12 1     
   19   11   24 1     
   20   12   13 1     
   21   13   14 1     
   22   13   16 1     
   23   13   25 1     
   24   14   15 1     
   25   14   26 1     
   26   14   27 1     
   27   15   28 1     
   28   16   17 1     
   29   16   18 1     
   30   16   29 1     
   31   18   19 1     
   32   18   30 1     
   33   19   31 1     
   34    3   32 1     
   35    5   33 1     
   36    8   34 1     
   37   12   35 1     
   38   12   36 1     
   39   15   37 1     
   40   15   38 1     
   41   19   39 1     
   42   19   40 1     
@<TRIPOS>SUBSTRUCTURE
      1 S1             1
@<TRIPOS>SET
LONE_PAIRS      STATIC     ATOMS    <user>   **** ""
9 32 33 34 35 36 37 38 39 40
DONOR_HYDROGENS      STATIC     ATOMS    <user>   **** ""
4 20 21 28 31
ATOM$BLUE        STATIC     ATOMS    COLORGROUP SYSTEM
9 32 33 34 35 36 37 38 39 40
ATOM$RED        STATIC     ATOMS    COLORGROUP SYSTEM
4 20 21 28 31
