#       Name:                AV-unprocessed.smi:1406
#       Creating user name   scv26
#       Creation time:       Fri Mar 27 05:35:29 2020


#       File generated by GOLD software.
#

@<TRIPOS>MOLECULE
AV-unprocessed.smi:1406
    45    47     1
SMALL
NO_CHARGES


@<TRIPOS>ATOM
      1 ****        -2.9285  -2.6939  -1.3962 C.3            1 S1                 0.0000
      2 ****        -2.4884  -1.8074  -0.2138 C.3            1 S1                 0.0000
      3 ****        -0.9713  -1.5592  -0.1830 C.2            1 S1                 0.0000
      4 ****        -0.1981  -2.2917  -0.8014 O.2            1 S1                 0.0000
      5 ****        -0.5548  -0.5065   0.5389 N.am           1 S1                 0.0000
      6 ****         0.8412  -0.1140   0.7094 C.3            1 S1                 0.0000
      7 ****         1.0553   0.8849   1.8393 C.3            1 S1                 0.0000
      8 ****         2.4298   1.4820   1.5180 C.3            1 S1                 0.0000
      9 ****         2.6242   1.3515   0.0525 N.4            1 S1                 1.0000
     10 ****         2.9449   2.6320  -0.6341 C.3            1 S1                 0.0000
     11 ****         2.7208   2.5156  -2.1490 C.3            1 S1                 0.0000
     12 ****         1.2471   2.2109  -2.4781 C.3            1 S1                 0.0000
     13 ****         0.5159   1.5115  -1.3159 C.3            1 S1                 0.0000
     14 ****         1.4671   0.5962  -0.5061 C.3            1 S1                 0.0000
     15 ****        -2.9463  -2.3405   1.0634 N.pl3          1 S1                 0.0000
     16 ****        -3.5946  -1.7379   2.0624 C.2            1 S1                 0.0000
     17 ****        -3.8308  -2.5240   3.1032 N.2            1 S1                 0.0000
     18 ****        -3.2566  -3.6785   2.6521 C.2            1 S1                 0.0000
     19 ****        -2.7039  -3.6208   1.4406 N.2            1 S1                 0.0000
     20 ****        -2.6294  -2.2566  -2.3494 H              1 S1                 0.0000
     21 ****        -4.0131  -2.8037  -1.4150 H              1 S1                 0.0000
     22 ****        -2.4976  -3.6946  -1.3412 H              1 S1                 0.0000
     23 ****        -2.9674  -0.8357  -0.3453 H              1 S1                 0.0000
     24 ****        -1.2504   0.0492   1.0151 H              1 S1                 0.0000
     25 ****         1.4318  -1.0040   0.9384 H              1 S1                 0.0000
     26 ****         0.2951   1.6669   1.8022 H              1 S1                 0.0000
     27 ****         1.0164   0.4245   2.8271 H              1 S1                 0.0000
     28 ****         2.5110   2.5103   1.8727 H              1 S1                 0.0000
     29 ****         3.2133   0.9064   2.0120 H              1 S1                 0.0000
     30 ****         2.3203   3.4371  -0.2429 H              1 S1                 0.0000
     31 ****         3.9792   2.9009  -0.4174 H              1 S1                 0.0000
     32 ****         3.0345   3.4294  -2.6547 H              1 S1                 0.0000
     33 ****         3.3539   1.7182  -2.5408 H              1 S1                 0.0000
     34 ****         0.7193   3.1333  -2.7233 H              1 S1                 0.0000
     35 ****         1.2051   1.5906  -3.3742 H              1 S1                 0.0000
     36 ****         0.0908   2.2654  -0.6519 H              1 S1                 0.0000
     37 ****        -0.3284   0.9496  -1.7158 H              1 S1                 0.0000
     38 ****         1.8569  -0.1584  -1.1912 H              1 S1                 0.0000
     39 ****        -3.8995  -0.7023   2.0284 H              1 S1                 0.0000
     40 ****        -3.2409  -4.5869   3.2363 H              1 S1                 0.0000
     41 ****         3.4260   0.7498  -0.0723 H              1 S1                 0.0000
     42 ****        -0.5547  -3.0601  -1.3328 LP             1 S1                 0.0000
     43 ****         0.7863  -2.1180  -0.7721 LP             1 S1                 0.0000
     44 ****        -4.2945  -2.3287   3.9674 LP             1 S1                 0.0000
     45 ****        -2.2290  -4.3415   0.9357 LP             1 S1                 0.0000
@<TRIPOS>BOND
    1    1    2 1     
    2    1   20 1     
    3    1   21 1     
    4    1   22 1     
    5    2    3 1     
    6    2   15 1     
    7    2   23 1     
    8    3    4 2     
    9    3    5 am    
   10    5    6 1     
   11    5   24 1     
   12    6   14 1     
   13    6    7 1     
   14    6   25 1     
   15    7    8 1     
   16    7   26 1     
   17    7   27 1     
   18    8    9 1     
   19    8   28 1     
   20    8   29 1     
   21    9   14 1     
   22    9   10 1     
   23    9   41 1     
   24   10   11 1     
   25   10   30 1     
   26   10   31 1     
   27   11   12 1     
   28   11   32 1     
   29   11   33 1     
   30   12   13 1     
   31   12   34 1     
   32   12   35 1     
   33   13   14 1     
   34   13   36 1     
   35   13   37 1     
   36   14   38 1     
   37   15   19 1     
   38   15   16 1     
   39   16   17 2     
   40   16   39 1     
   41   17   18 1     
   42   18   19 2     
   43   18   40 1     
   44    4   42 1     
   45    4   43 1     
   46   17   44 1     
   47   19   45 1     
@<TRIPOS>SUBSTRUCTURE
      1 S1             1
@<TRIPOS>SET
LONE_PAIRS      STATIC     ATOMS    <user>   **** ""
4 42 43 44 45
DONOR_HYDROGENS      STATIC     ATOMS    <user>   **** ""
2 24 41
ATOM$BLUE        STATIC     ATOMS    COLORGROUP SYSTEM
4 42 43 44 45
ATOM$RED        STATIC     ATOMS    COLORGROUP SYSTEM
2 24 41
