AV-unprocessed.smi:232|AV-procd|sdf|1774|dock3
  -GOLD-   2262020313D 1   1.00000     0.00000
 Structure written by MMmdl.
 52 55  0  0  0  0  0  0  0  0  1 V2000
  150.9854  143.2911  156.5287 C   0  0  0  0  0  0  0  0  0  0  0  0
  150.2342  142.2809  157.4052 C   0  0  0  0  0  0  0  0  0  0  0  0
  149.4839  141.2083  156.5852 C   0  0  1  0  0  0  0  0  0  0  0  0
  148.2072  141.7460  155.9096 C   0  0  0  0  0  0  0  0  0  0  0  0
  148.2859  141.2877  154.4488 C   0  0  0  0  0  0  0  0  0  0  0  0
  149.3897  140.2293  154.4295 C   0  0  2  0  0  0  0  0  0  0  0  0
  148.8230  138.8114  154.6515 C   0  0  0  0  0  0  0  0  0  0  0  0
  150.2897  140.6603  155.4939 N   0  0  0  0  0  0  0  0  0  0  0  0
  151.3749  139.8785  155.7407 C   0  0  0  0  0  0  0  0  0  0  0  0
  152.0629  139.3238  154.7067 N   0  0  0  0  0  0  0  0  0  0  0  0
  153.1404  138.5688  154.9376 C   0  0  0  0  0  0  0  0  0  0  0  0
  153.6982  138.2463  156.1055 N   0  0  0  0  0  0  0  0  0  0  0  0
  153.0135  138.7982  157.1478 C   0  0  0  0  0  0  0  0  0  0  0  0
  151.8542  139.6198  157.0563 C   0  0  0  0  0  0  0  0  0  0  0  0
  151.4357  139.9868  158.3304 N   0  0  0  0  0  0  0  0  0  0  0  0
  152.2989  139.4193  159.1275 C   0  0  0  0  0  0  0  0  0  0  0  0
  153.2779  138.6837  158.5009 N   0  0  0  0  0  0  0  0  0  0  0  0
  154.3503  137.9436  159.1422 C   0  0  0  0  0  0  0  0  0  0  0  0
  153.8260  136.9235  160.1727 C   0  0  1  0  0  0  0  0  0  0  0  0
  153.7356  135.6446  159.5724 O   0  0  0  0  0  0  0  0  0  0  0  0
  154.7216  136.8558  161.4265 C   0  0  2  0  0  0  0  0  0  0  0  0
  154.3476  135.8011  162.4845 C   0  0  0  0  0  0  0  0  0  0  0  0
  154.0930  136.6223  163.7352 C   0  0  0  0  0  0  0  0  0  0  0  0
  154.9094  137.8821  163.4784 C   0  0  0  0  0  0  0  0  0  0  0  0
  154.7122  138.1143  162.0934 O   0  0  0  0  0  0  0  0  0  0  0  0
  151.4897  144.0363  157.1440 H   0  0  0  0  0  0  0  0  0  0  0  0
  150.3001  143.8181  155.8644 H   0  0  0  0  0  0  0  0  0  0  0  0
  151.7421  142.8051  155.9131 H   0  0  0  0  0  0  0  0  0  0  0  0
  150.9329  141.7988  158.0898 H   0  0  0  0  0  0  0  0  0  0  0  0
  149.5370  142.8349  158.0330 H   0  0  0  0  0  0  0  0  0  0  0  0
  149.2019  140.3870  157.2461 H   0  0  0  0  0  0  0  0  0  0  0  0
  147.3232  141.3373  156.4003 H   0  0  0  0  0  0  0  0  0  0  0  0
  148.1335  142.8332  155.9582 H   0  0  0  0  0  0  0  0  0  0  0  0
  147.3322  140.9232  154.0658 H   0  0  0  0  0  0  0  0  0  0  0  0
  148.5863  142.1306  153.8250 H   0  0  0  0  0  0  0  0  0  0  0  0
  149.8941  140.2646  153.4645 H   0  0  0  0  0  0  0  0  0  0  0  0
  148.1162  138.5501  153.8636 H   0  0  0  0  0  0  0  0  0  0  0  0
  148.3010  138.7275  155.6050 H   0  0  0  0  0  0  0  0  0  0  0  0
  149.6122  138.0592  154.6371 H   0  0  0  0  0  0  0  0  0  0  0  0
  153.6258  138.1662  154.0610 H   0  0  0  0  0  0  0  0  0  0  0  0
  152.2417  139.5172  160.2019 H   0  0  0  0  0  0  0  0  0  0  0  0
  154.9402  137.4448  158.3723 H   0  0  0  0  0  0  0  0  0  0  0  0
  155.0147  138.6602  159.6262 H   0  0  0  0  0  0  0  0  0  0  0  0
  152.8217  137.2235  160.4747 H   0  0  0  0  0  0  0  0  0  0  0  0
  154.5499  135.4669  159.1269 H   0  0  0  0  0  0  0  0  0  0  0  0
  155.7532  136.6844  161.1148 H   0  0  0  0  0  0  0  0  0  0  0  0
  153.4843  135.1912  162.2167 H   0  0  0  0  0  0  0  0  0  0  0  0
  155.1878  135.1239  162.6428 H   0  0  0  0  0  0  0  0  0  0  0  0
  153.0344  136.8766  163.8029 H   0  0  0  0  0  0  0  0  0  0  0  0
  154.3791  136.1064  164.6519 H   0  0  0  0  0  0  0  0  0  0  0  0
  154.5806  138.7293  164.0807 H   0  0  0  0  0  0  0  0  0  0  0  0
  155.9686  137.7074  163.6739 H   0  0  0  0  0  0  0  0  0  0  0  0
  1  2  1  0  0  0  0
  1 26  1  0  0  0  0
  1 27  1  0  0  0  0
  1 28  1  0  0  0  0
  2  3  1  0  0  0  0
  2 29  1  0  0  0  0
  2 30  1  0  0  0  0
  3  8  1  0  0  0  0
  3  4  1  0  0  0  0
  3 31  1  0  0  0  0
  4  5  1  0  0  0  0
  4 32  1  0  0  0  0
  4 33  1  0  0  0  0
  5  6  1  0  0  0  0
  5 34  1  0  0  0  0
  5 35  1  0  0  0  0
  6  7  1  0  0  0  0
  6  8  1  0  0  0  0
  6 36  1  0  0  0  0
  7 37  1  0  0  0  0
  7 38  1  0  0  0  0
  7 39  1  0  0  0  0
  8  9  1  0  0  0  0
  9 14  1  0  0  0  0
  9 10  2  0  0  0  0
 10 11  1  0  0  0  0
 11 12  2  0  0  0  0
 11 40  1  0  0  0  0
 12 13  1  0  0  0  0
 13 17  1  0  0  0  0
 13 14  2  0  0  0  0
 14 15  1  0  0  0  0
 15 16  2  0  0  0  0
 16 17  1  0  0  0  0
 16 41  1  0  0  0  0
 17 18  1  0  0  0  0
 18 19  1  0  0  0  0
 18 42  1  0  0  0  0
 18 43  1  0  0  0  0
 19 20  1  0  0  0  0
 19 21  1  0  0  0  0
 19 44  1  0  0  0  0
 20 45  1  0  0  0  0
 21 25  1  0  0  0  0
 21 22  1  0  0  0  0
 21 46  1  0  0  0  0
 22 23  1  0  0  0  0
 22 47  1  0  0  0  0
 22 48  1  0  0  0  0
 23 24  1  0  0  0  0
 23 49  1  0  0  0  0
 23 50  1  0  0  0  0
 24 25  1  0  0  0  0
 24 51  1  0  0  0  0
 24 52  1  0  0  0  0
M  END
> <s_m_source_file>
AV-unprocessed.smi

> <i_m_source_file_index>
232

> <i_lp_mmshare_version>
43012

> <i_f3d_flags>
0

> <s_epik_input>
W0NIM11bQ0gyXVtDQEBIXTFbQ0gyXVtDSDJdW0NAQEhdKFtDSDNdKU4xYyhuW2NIXW4yKWMoYzIzKW5bY0hdbjNbQ0gyXVtDQEhdKFtPSF0pW0NAQEhdNFtDSDJdW0NIMl1bQ0gyXU80

> <s_epik_cmdline>
J2VwaWtfcHl0aG9uJywgJy1waCcsICc3LjAnLCAnLXRuJywgJzgnLCAnLW1hJywgJzIwMCcsICctbWV0YWxfYmluZGluZycsICctaW1hZScsICc8aW5maWxlLm1hZT4nLCAnLW9tYWUnLCAnPG91dGZpbGUubWFlPic=

> <r_lp_tautomer_probability>
1

> <r_epik_Ionization_Penalty>
0.00258048

> <r_epik_Ionization_Penalty_Charging>
0

> <r_epik_Ionization_Penalty_Neutral>
0.00258048

> <r_epik_State_Penalty>
0.00168551

> <r_epik_Charging_Adjusted_Penalty>
0.00168551

> <i_epik_Tot_Q>
0

> <i_epik_Tot_abs_Q>
0

> <r_epik_Metal_State_Penalty>
-0

> <b_epik_Metal_Only>
0

> <s_lp_Force_Field>
OPLS_2005

> <r_lp_Energy>
56.0552

> <b_lp_Chiralities_Consistent>
1

> <s_lp_Variant>
AV-unprocessed.smi:232-8

> <Gold.Version>
5.8.1

> <Gold.Id.Protein>
6NUR|6NUR_protein|mol2

> <Gold.PLP.Fitness>
39.1372

> <Gold.PLP.PLP>
-35.9909

> <Gold.PLP.part.hbond>
-3.2250

> <Gold.PLP.part.metal>
0.0000

> <Gold.PLP.part.buried>
2.3234

> <Gold.PLP.part.nonpolar>
-34.1946

> <Gold.PLP.part.repulsive>
0.1222

> <Gold.PLP.ligand.clash>
0.0011

> <Gold.PLP.ligand.torsion>
0.9711

> <Gold.PLP.Chemscore.Hbond>
1.5720

> <Gold.PLP.Chemscore.CHOScore>
0.0000

> <Gold.PLP.Chemscore.Metal>
0.0000

> <Gold.Chemscore.Hbonds>
donor molecule, donor type, donor heavy atom, donor atom, acceptor molecule, acceptor atom, score
      P1  H  6896  6908       L1    20  1.00
      P1  H  7989  7998       L1    10  0.57

> <Gold.PLP.Chemscore.Internal.Correction>
0.3736

> <Gold.Rescore>
     Score         DG    S(hbond)    S(metal)    S(lipo)     H(rot)  DE(clash)    DE(int)     intcor
      7.66     -14.60       1.70        0.00      82.41       2.43       3.09       3.85       ----

> <Gold.Chemscore.Fitness>
7.6637

> <Gold.Chemscore.DG>
-14.6001

> <Gold.Chemscore.ZeroCoef>
-5.4800

> <Gold.Chemscore.Hbond>
1.7033

> <Gold.Chemscore.Metal>
0.0000

> <Gold.Chemscore.Lipo>
82.4078

> <Gold.Chemscore.Internal_Hbond>
0.0000

> <Gold.Chemscore.DEClash>
3.0863

> <Gold.Chemscore.DEInternal>
3.8501

> <Gold.Chemscore.Rot>
2.4260

> <Gold.Chemscore.Internal.Correction>
   9.000000E+99

> <Gold.Chemscore.Hbonds>
donor molecule, donor type, donor heavy atom, donor atom, acceptor molecule, acceptor atom, score
      P1  H  6896  6908       L1    20  0.70
      P1  H  7989  7998       L1    10  0.05

> <Gold.Chemscore.Hbond.Weighted>
-5.6891

> <Gold.Chemscore.Metal.Weighted>
-0.0000

> <Gold.Chemscore.Lipo.Weighted>
-9.6417

> <Gold.Chemscore.Internal_Hbond.Weighted>
0.0000

> <Gold.Chemscore.DEClash.Weighted>
3.0863

> <Gold.Chemscore.DEInternal.Weighted>
3.8501

> <Gold.Chemscore.Rot.Weighted>
6.2107

> <Gold.Chemscore.Internal.Correction.Weighted>
   9.000000E+99

> <Gold.Protein.RotatedTorsions>
[ 6907 6896 6895 6894 ] final  -78.10 input  -60.11 | X-H torsion
[ 7974 7965 7964 7962 ] final -123.53 input  175.53 | X-H torsion
[ 8008 7997 7996 7995 ] final -102.34 input   59.86 | X-H torsion
[ 10167 10162 10161 10158 ] final   91.18 input  -65.29 | X-H torsion
[ 10718 10713 10712 10709 ] final   82.61 input   66.30 | X-H torsion
[ 10763 10752 10751 10750 ] final -101.28 input  -60.55 | X-H torsion
[ 11005 11000 10999 10996 ] final  144.56 input  -57.11 | X-H torsion

> <Gold.Protein.ActiveResidues>
 VAL166  LYS551  ARG553  GLY616  TRP617  ASP618  TYR619  PRO620  LYS621  CYS622 
 ASP623  PHE694  ASN695  SER759  ASP760  ASP761  ALA762  ILE779  LEU786  VAL792 
 PHE793  MET794  SER795  GLU796  ALA797  LYS798  CYS799  TRP800  GLU811  SER814 

> <Gold.Protein.RotatedAtoms>
  150.6981  134.4323  159.5253 H   0  0  0  0  0  0  0  0  0  0  0  0  # atno 6907 bound_to 6896
  152.2048  134.8553  160.0513 H   0  0  0  0  0  0  0  0  0  0  0  0  # atno 6908 bound_to 6896
  151.9460  133.3617  159.4019 H   0  0  0  0  0  0  0  0  0  0  0  0  # atno 6909 bound_to 6896
  145.0177  140.7961  143.4400 H   0  0  0  0  0  0  0  0  0  0  0  0  # atno 7974 bound_to 7965
  154.8554  140.0429  157.1631 H   0  0  0  0  0  0  0  0  0  0  0  0  # atno 8008 bound_to 7997
  154.8898  140.2985  155.5357 H   0  0  0  0  0  0  0  0  0  0  0  0  # atno 8009 bound_to 7997
  156.2997  140.2395  156.3912 H   0  0  0  0  0  0  0  0  0  0  0  0  # atno 8010 bound_to 7997
  139.8400  144.6646  150.9295 H   0  0  0  0  0  0  0  0  0  0  0  0  # atno 10167 bound_to 10162
  157.6861  131.0055  150.2400 H   0  0  0  0  0  0  0  0  0  0  0  0  # atno 10718 bound_to 10713
  154.7645  135.4904  153.9528 H   0  0  0  0  0  0  0  0  0  0  0  0  # atno 10763 bound_to 10752
  153.1291  135.6749  153.9215 H   0  0  0  0  0  0  0  0  0  0  0  0  # atno 10764 bound_to 10752
  153.8924  135.3119  155.3426 H   0  0  0  0  0  0  0  0  0  0  0  0  # atno 10765 bound_to 10752
  140.0642  134.9188  157.1236 H   0  0  0  0  0  0  0  0  0  0  0  0  # atno 11005 bound_to 11000
  145.1937  139.2288  143.5229 LP  0  0  0  0  0  0  0  0  0  0  0  0  # atno 17320 bound_to 7965
  146.3480  140.1739  142.8589 LP  0  0  0  0  0  0  0  0  0  0  0  0  # atno 17321 bound_to 7965
  140.7799  143.3921  151.1292 LP  0  0  0  0  0  0  0  0  0  0  0  0  # atno 17342 bound_to 10162
  139.7568  143.8695  152.3091 LP  0  0  0  0  0  0  0  0  0  0  0  0  # atno 17343 bound_to 10162
  156.3016  130.3759  149.7745 LP  0  0  0  0  0  0  0  0  0  0  0  0  # atno 17370 bound_to 10713
  156.5373  130.8284  151.3257 LP  0  0  0  0  0  0  0  0  0  0  0  0  # atno 17371 bound_to 10713
  140.3724  134.2376  155.7177 LP  0  0  0  0  0  0  0  0  0  0  0  0  # atno 17394 bound_to 11000
  141.1986  133.8032  157.0576 LP  0  0  0  0  0  0  0  0  0  0  0  0  # atno 17395 bound_to 11000

$$$$
