#       Name:                AV-unprocessed.smi:2048
#       Creating user name   scv26
#       Creation time:       Fri Mar 27 10:58:45 2020


#       File generated by GOLD software.
#

@<TRIPOS>MOLECULE
AV-unprocessed.smi:2048
    30    31     1
SMALL
NO_CHARGES


@<TRIPOS>ATOM
      1 ****        -0.1355   1.6738   0.6483 O.2            1 S1                 0.0000
      2 ****        -0.6154   0.5576   0.8488 C.2            1 S1                 0.0000
      3 ****         0.1259  -0.5501   0.9946 N.am           1 S1                 0.0000
      4 ****         1.5822  -0.5971   0.9321 C.3            1 S1                 0.0000
      5 ****         2.0757  -0.6424  -0.5117 C.3            1 S1                 0.0000
      6 ****         1.7833  -1.8747  -1.3816 C.3            1 S1                 0.0000
      7 ****         3.1443  -1.6661  -2.0510 C.3            1 S1                 0.0000
      8 ****         3.5638  -0.8889  -0.8001 C.3            1 S1                 0.0000
      9 ****        -1.9279   0.2820   0.9471 N.am           1 S1                 0.0000
     10 ****        -3.0229   1.1823   0.8662 C.2            1 S1                 0.0000
     11 ****        -2.9035   2.5014   0.6748 N.2            1 S1                 0.0000
     12 ****        -4.1455   3.1407   0.6391 C.2            1 S1                 0.0000
     13 ****        -5.2075   2.2870   0.8067 C.2            1 S1                 0.0000
     14 ****        -4.6868   0.6365   1.0176 S.3            1 S1                 0.0000
     15 ****        -0.3499  -1.4259   1.1547 H              1 S1                 0.0000
     16 ****         2.0086   0.2586   1.4582 H              1 S1                 0.0000
     17 ****         1.9130  -1.4828   1.4750 H              1 S1                 0.0000
     18 ****         1.7655   0.2524  -1.0562 H              1 S1                 0.0000
     19 ****         1.7361  -2.7998  -0.8045 H              1 S1                 0.0000
     20 ****         0.9245  -1.7703  -2.0453 H              1 S1                 0.0000
     21 ****         3.7100  -2.5800  -2.2343 H              1 S1                 0.0000
     22 ****         3.0860  -1.0375  -2.9412 H              1 S1                 0.0000
     23 ****         4.1457   0.0124  -0.9959 H              1 S1                 0.0000
     24 ****         4.0435  -1.5228  -0.0523 H              1 S1                 0.0000
     25 ****        -2.1726  -0.6845   1.1040 H              1 S1                 0.0000
     26 ****        -4.1812   4.2097   0.4888 H              1 S1                 0.0000
     27 ****        -6.2601   2.5281   0.8183 H              1 S1                 0.0000
     28 ****         0.8561   1.7880   0.5866 LP             1 S1                 0.0000
     29 ****        -0.7373   2.4660   0.5472 LP             1 S1                 0.0000
     30 ****        -2.0285   2.9739   0.5697 LP             1 S1                 0.0000
@<TRIPOS>BOND
    1    1    2 2     
    2    2    3 am    
    3    2    9 am    
    4    3    4 1     
    5    3   15 1     
    6    4    5 1     
    7    4   16 1     
    8    4   17 1     
    9    5    8 1     
   10    5    6 1     
   11    5   18 1     
   12    6    7 1     
   13    6   19 1     
   14    6   20 1     
   15    7    8 1     
   16    7   21 1     
   17    7   22 1     
   18    8   23 1     
   19    8   24 1     
   20    9   10 1     
   21    9   25 1     
   22   10   14 1     
   23   10   11 2     
   24   11   12 1     
   25   12   13 2     
   26   12   26 1     
   27   13   14 1     
   28   13   27 1     
   29    1   28 1     
   30    1   29 1     
   31   11   30 1     
@<TRIPOS>SUBSTRUCTURE
      1 S1             1
@<TRIPOS>SET
LONE_PAIRS      STATIC     ATOMS    <user>   **** ""
3 28 29 30
DONOR_HYDROGENS      STATIC     ATOMS    <user>   **** ""
2 15 25
ATOM$BLUE        STATIC     ATOMS    COLORGROUP SYSTEM
3 28 29 30
ATOM$RED        STATIC     ATOMS    COLORGROUP SYSTEM
2 15 25
