#       Name:                AV-unprocessed.smi:2701
#       Creating user name   scv26
#       Creation time:       Fri Mar 27 14:46:50 2020


#       File generated by GOLD software.
#

@<TRIPOS>MOLECULE
AV-unprocessed.smi:2701
    39    40     1
SMALL
NO_CHARGES


@<TRIPOS>ATOM
      1 ****        -1.8053   0.4152   2.5715 C.3            1 S1                 0.0000
      2 ****        -1.3020   0.8491   1.1798 C.3            1 S1                 0.0000
      3 ****         0.2450   0.8955   1.1232 C.2            1 S1                 0.0000
      4 ****         0.8102   1.9668   0.8987 O.2            1 S1                 0.0000
      5 ****         0.8079  -0.3165   1.3502 N.pl3          1 S1                -1.0000
      6 ****         2.4103  -0.5632   1.3942 S.o2           1 S1                 0.0000
      7 ****         3.1047   0.4331   2.2252 O.2            1 S1                 0.0000
      8 ****         2.7224  -1.9773   1.6535 O.2            1 S1                 0.0000
      9 ****         2.9320  -0.2289  -0.3532 C.3            1 S1                 0.0000
     10 ****         2.4464  -1.3112  -1.2775 C.2            1 S1                 0.0000
     11 ****         1.2253  -1.3660  -2.0050 C.2            1 S1                 0.0000
     12 ****         1.3069  -2.5507  -2.6779 C.2            1 S1                 0.0000
     13 ****         2.4819  -3.1719  -2.4055 O.3            1 S1                 0.0000
     14 ****         3.2057  -2.3699  -1.5160 N.2            1 S1                 0.0000
     15 ****        -1.9148   0.0080   0.0405 C.3            1 S1                 0.0000
     16 ****        -2.0999   1.0188  -1.0695 C.3            1 S1                 0.0000
     17 ****        -2.5219   2.2476  -0.2775 C.3            1 S1                 0.0000
     18 ****        -1.7946   2.1744   0.9454 O.3            1 S1                 0.0000
     19 ****        -1.5995  -0.6384   2.7644 H              1 S1                 0.0000
     20 ****        -2.8828   0.5573   2.6586 H              1 S1                 0.0000
     21 ****        -1.3350   0.9982   3.3644 H              1 S1                 0.0000
     22 ****         2.5693   0.7510  -0.6596 H              1 S1                 0.0000
     23 ****         4.0207  -0.1807  -0.3626 H              1 S1                 0.0000
     24 ****         0.4173  -0.6509  -2.0241 H              1 S1                 0.0000
     25 ****         0.6456  -3.0641  -3.3599 H              1 S1                 0.0000
     26 ****        -1.3068  -0.8417  -0.2712 H              1 S1                 0.0000
     27 ****        -2.8866  -0.3864   0.3406 H              1 S1                 0.0000
     28 ****        -1.1539   1.2028  -1.5802 H              1 S1                 0.0000
     29 ****        -2.8387   0.7130  -1.8104 H              1 S1                 0.0000
     30 ****        -2.3209   3.1788  -0.8073 H              1 S1                 0.0000
     31 ****        -3.5883   2.2070  -0.0522 H              1 S1                 0.0000
     32 ****         0.2705   2.7964   0.7549 LP             1 S1                 0.0000
     33 ****         1.8086   2.0070   0.8602 LP             1 S1                 0.0000
     34 ****         0.2036  -1.0994   1.4982 LP             1 S1                 0.0000
     35 ****         3.0029  -3.2957  -3.2501 LP             1 S1                 0.0000
     36 ****         2.3046  -4.0637  -1.9894 LP             1 S1                 0.0000
     37 ****         4.1119  -2.5579  -1.1374 LP             1 S1                 0.0000
     38 ****        -1.0210   2.8067   0.9026 LP             1 S1                 0.0000
     39 ****        -2.3975   2.4359   1.6991 LP             1 S1                 0.0000
@<TRIPOS>BOND
    1    1    2 1     
    2    1   19 1     
    3    1   20 1     
    4    1   21 1     
    5    2   18 1     
    6    2    3 1     
    7    2   15 1     
    8    3    4 2     
    9    3    5 1     
   10    5    6 1     
   11    6    7 2     
   12    6    8 2     
   13    6    9 1     
   14    9   10 1     
   15    9   22 1     
   16    9   23 1     
   17   10   14 2     
   18   10   11 1     
   19   11   12 2     
   20   11   24 1     
   21   12   13 1     
   22   12   25 1     
   23   13   14 1     
   24   15   16 1     
   25   15   26 1     
   26   15   27 1     
   27   16   17 1     
   28   16   28 1     
   29   16   29 1     
   30   17   18 1     
   31   17   30 1     
   32   17   31 1     
   33    4   32 1     
   34    4   33 1     
   35    5   34 1     
   36   13   35 1     
   37   13   36 1     
   38   14   37 1     
   39   18   38 1     
   40   18   39 1     
@<TRIPOS>SUBSTRUCTURE
      1 S1             1
@<TRIPOS>SET
LONE_PAIRS      STATIC     ATOMS    <user>   **** ""
10 32 33 34 7 8 35 36 37 38 39
ATOM$BLUE        STATIC     ATOMS    COLORGROUP SYSTEM
10 32 33 34 7 8 35 36 37 38 39
