AV-unprocessed.smi:138|AV-procd|sdf|1179|dock7
  -GOLD-   2262018333D 1   1.00000     0.00000
 Structure written by MMmdl.
 52 55  0  0  0  0  0  0  0  0  1 V2000
  147.7023  141.2826  157.2005 C   0  0  0  0  0  0  0  0  0  0  0  0
  148.7168  140.2800  156.7506 C   0  0  0  0  0  0  0  0  0  0  0  0
  148.6430  138.9186  156.7429 C   0  0  0  0  0  0  0  0  0  0  0  0
  149.8586  138.4014  156.2155 C   0  0  0  0  0  0  0  0  0  0  0  0
  150.2381  136.9837  155.9894 C   0  0  0  0  0  0  0  0  0  0  0  0
  151.4065  136.6083  155.8776 O   0  0  0  0  0  0  0  0  0  0  0  0
  149.0704  135.9838  155.8941 C   0  0  0  0  0  0  0  0  0  0  0  0
  148.1169  136.1150  156.9890 N   0  0  0  0  0  0  0  0  0  0  0  0
  146.7562  136.3365  156.6599 C   0  0  0  0  0  0  0  0  0  0  0  0
  146.3701  136.4232  155.4928 O   0  0  0  0  0  0  0  0  0  0  0  0
  145.8635  136.4377  157.8093 C   0  0  0  0  0  0  0  0  0  0  0  0
  144.5521  136.6577  157.6146 F   0  0  0  0  0  0  0  0  0  0  0  0
  146.3311  136.3124  159.0701 C   0  0  0  0  0  0  0  0  0  0  0  0
  147.6657  136.0817  159.3614 N   0  0  0  0  0  0  0  0  0  0  0  0
  148.1619  135.9260  160.7819 C   0  0  2  0  0  0  0  0  0  0  0  0
  147.6252  134.6228  161.4001 C   0  0  0  0  0  0  0  0  0  0  0  0
  147.0774  135.0907  162.7329 C   0  0  0  0  0  0  0  0  0  0  0  0
  146.6459  136.5136  162.4114 C   0  0  0  0  0  0  0  0  0  0  0  0
  147.6914  136.9830  161.5692 O   0  0  0  0  0  0  0  0  0  0  0  0
  148.6027  135.9737  158.3111 C   0  0  0  0  0  0  0  0  0  0  0  0
  149.7926  135.7511  158.5483 O   0  0  0  0  0  0  0  0  0  0  0  0
  150.6687  139.4749  155.9238 C   0  0  0  0  0  0  0  0  0  0  0  0
  152.0637  139.5188  155.3630 C   0  0  0  0  0  0  0  0  0  0  0  0
  149.9588  140.6365  156.2372 N   0  0  0  0  0  0  0  0  0  0  0  0
  150.4324  142.0068  156.0654 C   0  0  0  0  0  0  0  0  0  0  0  0
  150.8112  142.6524  157.3590 C   0  0  0  0  0  0  0  0  0  0  0  0
  150.8773  142.2055  158.6500 C   0  0  0  0  0  0  0  0  0  0  0  0
  151.3140  143.3078  159.4352 C   0  0  0  0  0  0  0  0  0  0  0  0
  151.4834  144.3460  158.5644 C   0  0  0  0  0  0  0  0  0  0  0  0
  151.1825  143.9626  157.2942 O   0  0  0  0  0  0  0  0  0  0  0  0
  146.8436  140.7878  157.6546 H   0  0  0  0  0  0  0  0  0  0  0  0
  147.3378  141.8727  156.3597 H   0  0  0  0  0  0  0  0  0  0  0  0
  148.1215  141.9631  157.9415 H   0  0  0  0  0  0  0  0  0  0  0  0
  147.7886  138.3499  157.0791 H   0  0  0  0  0  0  0  0  0  0  0  0
  148.5277  136.1060  154.9555 H   0  0  0  0  0  0  0  0  0  0  0  0
  149.4348  134.9556  155.8860 H   0  0  0  0  0  0  0  0  0  0  0  0
  145.6152  136.3980  159.8725 H   0  0  0  0  0  0  0  0  0  0  0  0
  149.2507  135.9802  160.7277 H   0  0  0  0  0  0  0  0  0  0  0  0
  146.8231  134.2151  160.7825 H   0  0  0  0  0  0  0  0  0  0  0  0
  148.4158  133.8778  161.4933 H   0  0  0  0  0  0  0  0  0  0  0  0
  146.2607  134.4697  163.1021 H   0  0  0  0  0  0  0  0  0  0  0  0
  147.8694  135.0999  163.4827 H   0  0  0  0  0  0  0  0  0  0  0  0
  145.6978  136.5180  161.8722 H   0  0  0  0  0  0  0  0  0  0  0  0
  146.5394  137.1340  163.3014 H   0  0  0  0  0  0  0  0  0  0  0  0
  152.7179  138.8366  155.9058 H   0  0  0  0  0  0  0  0  0  0  0  0
  152.5232  140.5024  155.4278 H   0  0  0  0  0  0  0  0  0  0  0  0
  152.0638  139.2205  154.3146 H   0  0  0  0  0  0  0  0  0  0  0  0
  151.2777  142.0071  155.3774 H   0  0  0  0  0  0  0  0  0  0  0  0
  149.6642  142.6003  155.5710 H   0  0  0  0  0  0  0  0  0  0  0  0
  150.6389  141.2080  158.9876 H   0  0  0  0  0  0  0  0  0  0  0  0
  151.4827  143.3375  160.5015 H   0  0  0  0  0  0  0  0  0  0  0  0
  151.7969  145.3736  158.6740 H   0  0  0  0  0  0  0  0  0  0  0  0
  1  2  1  0  0  0  0
  1 31  1  0  0  0  0
  1 32  1  0  0  0  0
  1 33  1  0  0  0  0
  2 24  1  0  0  0  0
  2  3  2  0  0  0  0
  3  4  1  0  0  0  0
  3 34  1  0  0  0  0
  4  5  1  0  0  0  0
  4 22  2  0  0  0  0
  5  6  2  0  0  0  0
  5  7  1  0  0  0  0
  7  8  1  0  0  0  0
  7 35  1  0  0  0  0
  7 36  1  0  0  0  0
  8 20  1  0  0  0  0
  8  9  1  0  0  0  0
  9 10  2  0  0  0  0
  9 11  1  0  0  0  0
 11 12  1  0  0  0  0
 11 13  2  0  0  0  0
 13 14  1  0  0  0  0
 13 37  1  0  0  0  0
 14 15  1  0  0  0  0
 14 20  1  0  0  0  0
 15 19  1  0  0  0  0
 15 16  1  0  0  0  0
 15 38  1  0  0  0  0
 16 17  1  0  0  0  0
 16 39  1  0  0  0  0
 16 40  1  0  0  0  0
 17 18  1  0  0  0  0
 17 41  1  0  0  0  0
 17 42  1  0  0  0  0
 18 19  1  0  0  0  0
 18 43  1  0  0  0  0
 18 44  1  0  0  0  0
 20 21  2  0  0  0  0
 22 23  1  0  0  0  0
 22 24  1  0  0  0  0
 23 45  1  0  0  0  0
 23 46  1  0  0  0  0
 23 47  1  0  0  0  0
 24 25  1  0  0  0  0
 25 26  1  0  0  0  0
 25 48  1  0  0  0  0
 25 49  1  0  0  0  0
 26 30  1  0  0  0  0
 26 27  2  0  0  0  0
 27 28  1  0  0  0  0
 27 50  1  0  0  0  0
 28 29  2  0  0  0  0
 28 51  1  0  0  0  0
 29 30  1  0  0  0  0
 29 52  1  0  0  0  0
M  END
> <s_m_source_file>
AV-unprocessed.smi

> <i_m_source_file_index>
138

> <i_lp_mmshare_version>
43012

> <i_f3d_flags>
0

> <s_epik_input>
bzFbY0hdW2NIXVtjSF1jMVtDSDJdbjJjKFtDSDNdKWMoW2NIXWMyW0NIM10pQyg9TylbQ0gyXW4zYyg9TyljKEYpW2NIXW4oYzM9TylbQ0BASF00W0NIMl1bQ0gyXVtDSDJdTzQ=

> <s_epik_cmdline>
J2VwaWtfcHl0aG9uJywgJy1waCcsICc3LjAnLCAnLXRuJywgJzgnLCAnLW1hJywgJzIwMCcsICctbWV0YWxfYmluZGluZycsICctaW1hZScsICc8aW5maWxlLm1hZT4nLCAnLW9tYWUnLCAnPG91dGZpbGUubWFlPic=

> <r_lp_tautomer_probability>
1

> <r_epik_Ionization_Penalty>
5.03107e-09

> <r_epik_Ionization_Penalty_Charging>
5.01743e-09

> <r_epik_Ionization_Penalty_Neutral>
1.36377e-11

> <r_epik_State_Penalty>
-0

> <r_epik_Charging_Adjusted_Penalty>
5.01743e-09

> <i_epik_Tot_Q>
0

> <i_epik_Tot_abs_Q>
0

> <r_epik_Metal_State_Penalty>
-0

> <b_epik_Metal_Only>
0

> <s_epik_Chemistry_Notes>
This compound contains an acetal/aminal-like group ( X-CH(R)-Y where X, Y are N, S, or O) that may be acid/base labile, releasing an aldehyde.

> <s_lp_Force_Field>
OPLS_2005

> <r_lp_Energy>
38.6842

> <b_lp_Chiralities_Consistent>
1

> <s_lp_Variant>
AV-unprocessed.smi:138-1

> <Gold.Version>
5.8.1

> <Gold.Id.Protein>
6NUR|6NUR_protein|mol2

> <Gold.PLP.Fitness>
52.7832

> <Gold.PLP.PLP>
-42.9442

> <Gold.PLP.part.hbond>
-4.0000

> <Gold.PLP.part.metal>
0.0000

> <Gold.PLP.part.buried>
-5.1474

> <Gold.PLP.part.nonpolar>
-33.6110

> <Gold.PLP.part.repulsive>
0.2083

> <Gold.PLP.ligand.clash>
0.0000

> <Gold.PLP.ligand.torsion>
0.6619

> <Gold.PLP.Chemscore.Hbond>
3.7040

> <Gold.PLP.Chemscore.CHOScore>
0.0000

> <Gold.PLP.Chemscore.Metal>
0.0000

> <Gold.Chemscore.Hbonds>
donor molecule, donor type, donor heavy atom, donor atom, acceptor molecule, acceptor atom, score
      P1  H  6896  6907       L1    21  1.00
      P1  H  6931  6943       L1    19  1.00
      P1  H  6934  6947       L1    19  0.48
      P1  H 10752 10765       L1     6  0.60

> <Gold.PLP.Chemscore.Internal.Correction>
0.0507

> <Gold.Rescore>
     Score         DG    S(hbond)    S(metal)    S(lipo)     H(rot)  DE(clash)    DE(int)     intcor
     18.49     -22.75       3.02        0.00     105.12       2.00       0.15       4.10       ----

> <Gold.Chemscore.Fitness>
18.4943

> <Gold.Chemscore.DG>
-22.7467

> <Gold.Chemscore.ZeroCoef>
-5.4800

> <Gold.Chemscore.Hbond>
3.0171

> <Gold.Chemscore.Metal>
0.0000

> <Gold.Chemscore.Lipo>
105.1189

> <Gold.Chemscore.Internal_Hbond>
0.0000

> <Gold.Chemscore.DEClash>
0.1510

> <Gold.Chemscore.DEInternal>
4.1013

> <Gold.Chemscore.Rot>
1.9958

> <Gold.Chemscore.Internal.Correction>
   9.000000E+99

> <Gold.Chemscore.Hbonds>
donor molecule, donor type, donor heavy atom, donor atom, acceptor molecule, acceptor atom, score
      P1  H  6896  6907       L1    21  0.99
      P1  H  6931  6943       L1    19  0.80
      P1  H  6934  6947       L1    19  0.31
      P1  H 10752 10765       L1     6  0.60

> <Gold.Chemscore.Hbond.Weighted>
-10.0770

> <Gold.Chemscore.Metal.Weighted>
-0.0000

> <Gold.Chemscore.Lipo.Weighted>
-12.2989

> <Gold.Chemscore.Internal_Hbond.Weighted>
0.0000

> <Gold.Chemscore.DEClash.Weighted>
0.1510

> <Gold.Chemscore.DEInternal.Weighted>
4.1013

> <Gold.Chemscore.Rot.Weighted>
5.1092

> <Gold.Chemscore.Internal.Correction.Weighted>
   9.000000E+99

> <Gold.Protein.RotatedTorsions>
[ 6907 6896 6895 6894 ] final  -58.28 input  -60.11 | X-H torsion
[ 7974 7965 7964 7962 ] final -120.11 input  175.53 | X-H torsion
[ 8008 7997 7996 7995 ] final   -1.30 input   59.86 | X-H torsion
[ 10167 10162 10161 10158 ] final -111.33 input  -65.29 | X-H torsion
[ 10718 10713 10712 10709 ] final -108.39 input   66.30 | X-H torsion
[ 10763 10752 10751 10750 ] final -165.45 input  -60.55 | X-H torsion
[ 11005 11000 10999 10996 ] final  -86.66 input  -57.11 | X-H torsion

> <Gold.Protein.ActiveResidues>
 VAL166  LYS551  ARG553  GLY616  TRP617  ASP618  TYR619  PRO620  LYS621  CYS622 
 ASP623  PHE694  ASN695  SER759  ASP760  ASP761  ALA762  ILE779  LEU786  VAL792 
 PHE793  MET794  SER795  GLU796  ALA797  LYS798  CYS799  TRP800  GLU811  SER814 

> <Gold.Protein.RotatedAtoms>
  150.8019  134.7118  159.6607 H   0  0  0  0  0  0  0  0  0  0  0  0  # atno 6907 bound_to 6896
  152.4136  134.6077  160.0027 H   0  0  0  0  0  0  0  0  0  0  0  0  # atno 6908 bound_to 6896
  151.6313  133.3295  159.3145 H   0  0  0  0  0  0  0  0  0  0  0  0  # atno 6909 bound_to 6896
  145.0551  140.8248  143.4186 H   0  0  0  0  0  0  0  0  0  0  0  0  # atno 7974 bound_to 7965
  154.6483  140.2563  155.7243 H   0  0  0  0  0  0  0  0  0  0  0  0  # atno 8008 bound_to 7997
  156.2563  140.2873  156.0827 H   0  0  0  0  0  0  0  0  0  0  0  0  # atno 8009 bound_to 7997
  155.1490  140.0382  157.2807 H   0  0  0  0  0  0  0  0  0  0  0  0  # atno 8010 bound_to 7997
  140.1348  143.4329  152.1603 H   0  0  0  0  0  0  0  0  0  0  0  0  # atno 10167 bound_to 10162
  156.0483  130.5711  150.7955 H   0  0  0  0  0  0  0  0  0  0  0  0  # atno 10718 bound_to 10713
  154.6931  135.2974  154.9451 H   0  0  0  0  0  0  0  0  0  0  0  0  # atno 10763 bound_to 10752
  154.0407  135.6657  153.4794 H   0  0  0  0  0  0  0  0  0  0  0  0  # atno 10764 bound_to 10752
  153.0626  135.5106  154.8034 H   0  0  0  0  0  0  0  0  0  0  0  0  # atno 10765 bound_to 10752
  141.1627  133.7467  156.9194 H   0  0  0  0  0  0  0  0  0  0  0  0  # atno 11005 bound_to 11000
  145.1479  139.2532  143.5456 LP  0  0  0  0  0  0  0  0  0  0  0  0  # atno 17320 bound_to 7965
  146.3521  140.1174  142.8601 LP  0  0  0  0  0  0  0  0  0  0  0  0  # atno 17321 bound_to 7965
  139.5501  144.7331  151.4460 LP  0  0  0  0  0  0  0  0  0  0  0  0  # atno 17342 bound_to 10162
  140.6796  143.8113  150.7103 LP  0  0  0  0  0  0  0  0  0  0  0  0  # atno 17343 bound_to 10162
  157.5383  131.0939  150.9862 LP  0  0  0  0  0  0  0  0  0  0  0  0  # atno 17370 bound_to 10713
  157.0151  130.5652  149.5325 LP  0  0  0  0  0  0  0  0  0  0  0  0  # atno 17371 bound_to 10713
  140.1462  134.9261  157.2532 LP  0  0  0  0  0  0  0  0  0  0  0  0  # atno 17394 bound_to 11000
  140.2777  134.3386  155.7353 LP  0  0  0  0  0  0  0  0  0  0  0  0  # atno 17395 bound_to 11000

$$$$
