AV-unprocessed.smi:2611|AV-procd|sdf|10210|dock8
  -GOLD-   2272014213D 1   1.00000     0.00000
 Structure written by MMmdl.
 39 40  0  0  0  0  0  0  0  0  1 V2000
  146.9267  137.0865  162.4930 C   0  0  0  0  0  0  0  0  0  0  0  0
  147.0484  135.9076  161.5163 C   0  0  0  0  0  0  0  0  0  0  0  0
  147.1930  134.5537  162.2266 C   0  0  0  0  0  0  0  0  0  0  0  0
  148.1402  136.1280  160.5144 C   0  0  0  0  0  0  0  0  0  0  0  0
  148.4622  135.1917  159.6291 N   0  0  0  0  0  0  0  0  0  0  0  0
  149.4973  135.7834  158.8911 O   0  0  0  0  0  0  0  0  0  0  0  0
  149.6870  137.0080  159.4376 C   0  0  0  0  0  0  0  0  0  0  0  0
  150.7035  137.9171  158.8329 C   0  0  0  0  0  0  0  0  0  0  0  0
  150.1466  139.3250  158.5688 C   0  0  0  0  0  0  0  0  0  0  0  0
  151.0879  140.3590  158.9825 N   0  0  0  0  0  0  0  0  0  0  0  0
  151.0379  141.6496  158.6109 C   0  0  0  0  0  0  0  0  0  0  0  0
  150.1770  142.0754  157.8395 O   0  0  0  0  0  0  0  0  0  0  0  0
  152.0185  142.4298  159.1331 N   0  0  0  0  0  0  0  0  0  0  0  0
  153.1566  141.9597  159.9399 C   0  0  0  0  0  0  0  0  0  0  0  0
  152.8080  142.1040  161.4306 C   0  0  0  0  0  0  0  0  0  0  0  0
  152.5373  143.8497  161.8695 S   0  0  0  0  0  0  0  0  0  0  0  0
  151.3738  144.3218  160.5512 C   0  0  0  0  0  0  0  0  0  0  0  0
  151.8981  143.8920  159.1705 C   0  0  0  0  0  0  0  0  0  0  0  0
  148.8583  137.2837  160.4410 N   0  0  0  0  0  0  0  0  0  0  0  0
  146.7528  138.0215  161.9596 H   0  0  0  0  0  0  0  0  0  0  0  0
  147.8331  137.2051  163.0872 H   0  0  0  0  0  0  0  0  0  0  0  0
  146.0950  136.9404  163.1826 H   0  0  0  0  0  0  0  0  0  0  0  0
  146.1068  135.8665  160.9662 H   0  0  0  0  0  0  0  0  0  0  0  0
  147.2008  133.7332  161.5085 H   0  0  0  0  0  0  0  0  0  0  0  0
  146.3654  134.3821  162.9150 H   0  0  0  0  0  0  0  0  0  0  0  0
  148.1185  134.5029  162.8014 H   0  0  0  0  0  0  0  0  0  0  0  0
  151.5635  137.9673  159.5019 H   0  0  0  0  0  0  0  0  0  0  0  0
  151.0571  137.4714  157.9023 H   0  0  0  0  0  0  0  0  0  0  0  0
  149.9535  139.4536  157.5035 H   0  0  0  0  0  0  0  0  0  0  0  0
  149.1900  139.4606  159.0765 H   0  0  0  0  0  0  0  0  0  0  0  0
  151.8300  140.0763  159.6060 H   0  0  0  0  0  0  0  0  0  0  0  0
  153.4405  140.9300  159.7218 H   0  0  0  0  0  0  0  0  0  0  0  0
  154.0451  142.5487  159.7079 H   0  0  0  0  0  0  0  0  0  0  0  0
  151.9104  141.5322  161.6693 H   0  0  0  0  0  0  0  0  0  0  0  0
  153.6130  141.7093  162.0502 H   0  0  0  0  0  0  0  0  0  0  0  0
  150.4051  143.8620  160.7502 H   0  0  0  0  0  0  0  0  0  0  0  0
  151.2270  145.4015  160.5839 H   0  0  0  0  0  0  0  0  0  0  0  0
  152.8658  144.3554  158.9738 H   0  0  0  0  0  0  0  0  0  0  0  0
  151.2358  144.2652  158.3877 H   0  0  0  0  0  0  0  0  0  0  0  0
  1  2  1  0  0  0  0
  1 20  1  0  0  0  0
  1 21  1  0  0  0  0
  1 22  1  0  0  0  0
  2  3  1  0  0  0  0
  2  4  1  0  0  0  0
  2 23  1  0  0  0  0
  3 24  1  0  0  0  0
  3 25  1  0  0  0  0
  3 26  1  0  0  0  0
  4 19  1  0  0  0  0
  4  5  2  0  0  0  0
  5  6  1  0  0  0  0
  6  7  1  0  0  0  0
  7  8  1  0  0  0  0
  7 19  2  0  0  0  0
  8  9  1  0  0  0  0
  8 27  1  0  0  0  0
  8 28  1  0  0  0  0
  9 10  1  0  0  0  0
  9 29  1  0  0  0  0
  9 30  1  0  0  0  0
 10 11  1  0  0  0  0
 10 31  1  0  0  0  0
 11 12  2  0  0  0  0
 11 13  1  0  0  0  0
 13 18  1  0  0  0  0
 13 14  1  0  0  0  0
 14 15  1  0  0  0  0
 14 32  1  0  0  0  0
 14 33  1  0  0  0  0
 15 16  1  0  0  0  0
 15 34  1  0  0  0  0
 15 35  1  0  0  0  0
 16 17  1  0  0  0  0
 17 18  1  0  0  0  0
 17 36  1  0  0  0  0
 17 37  1  0  0  0  0
 18 38  1  0  0  0  0
 18 39  1  0  0  0  0
M  END
> <s_m_source_file>
AV-unprocessed.smi

> <i_m_source_file_index>
2611

> <i_lp_mmshare_version>
43012

> <i_f3d_flags>
0

> <s_epik_input>
W0NIM11bQ0hdKFtDSDNdKWMxbm9jKG4xKVtDSDJdW0NIMl1bTkhdQyg9TylOMltDSDJdW0NIMl1TW0NIMl1bQ0gyXTI=

> <s_epik_cmdline>
J2VwaWtfcHl0aG9uJywgJy1waCcsICc3LjAnLCAnLXRuJywgJzgnLCAnLW1hJywgJzIwMCcsICctbWV0YWxfYmluZGluZycsICctaW1hZScsICc8aW5maWxlLm1hZT4nLCAnLW9tYWUnLCAnPG91dGZpbGUubWFlPic=

> <r_lp_tautomer_probability>
1

> <r_epik_Ionization_Penalty>
4.28847e-05

> <r_epik_Ionization_Penalty_Charging>
0

> <r_epik_Ionization_Penalty_Neutral>
4.28847e-05

> <r_epik_State_Penalty>
-0

> <r_epik_Charging_Adjusted_Penalty>
0

> <i_epik_Tot_Q>
0

> <i_epik_Tot_abs_Q>
0

> <r_epik_Metal_State_Penalty>
-0

> <b_epik_Metal_Only>
0

> <s_lp_Force_Field>
OPLS_2005

> <r_lp_Energy>
14.602

> <b_lp_Chiralities_Consistent>
1

> <s_lp_Variant>
AV-unprocessed.smi:2611-1

> <Gold.Version>
5.8.1

> <Gold.Id.Protein>
6NUR|6NUR_protein|mol2

> <Gold.PLP.Fitness>
45.2993

> <Gold.PLP.PLP>
-42.2395

> <Gold.PLP.part.hbond>
-3.3358

> <Gold.PLP.part.metal>
0.0000

> <Gold.PLP.part.buried>
-4.7108

> <Gold.PLP.part.nonpolar>
-35.4978

> <Gold.PLP.part.repulsive>
0.2880

> <Gold.PLP.ligand.clash>
0.0000

> <Gold.PLP.ligand.torsion>
0.7914

> <Gold.PLP.Chemscore.Hbond>
1.5080

> <Gold.PLP.Chemscore.CHOScore>
0.0000

> <Gold.PLP.Chemscore.Metal>
0.0000

> <Gold.Chemscore.Hbonds>
donor molecule, donor type, donor heavy atom, donor atom, acceptor molecule, acceptor atom, score
      P1  H  6896  6909       L1     6  0.76
      P1  H  6931  6943       L1    19  0.59

> <Gold.PLP.Chemscore.Internal.Correction>
0.1186

> <Gold.Rescore>
     Score         DG    S(hbond)    S(metal)    S(lipo)     H(rot)  DE(clash)    DE(int)     intcor
     14.55     -15.34       1.09        0.00      90.91       1.72       0.02       0.78       ----

> <Gold.Chemscore.Fitness>
14.5453

> <Gold.Chemscore.DG>
-15.3431

> <Gold.Chemscore.ZeroCoef>
-5.4800

> <Gold.Chemscore.Hbond>
1.0863

> <Gold.Chemscore.Metal>
0.0000

> <Gold.Chemscore.Lipo>
90.9099

> <Gold.Chemscore.Internal_Hbond>
0.0000

> <Gold.Chemscore.DEClash>
0.0207

> <Gold.Chemscore.DEInternal>
0.7771

> <Gold.Chemscore.Rot>
1.7193

> <Gold.Chemscore.Internal.Correction>
   9.000000E+99

> <Gold.Chemscore.Hbonds>
donor molecule, donor type, donor heavy atom, donor atom, acceptor molecule, acceptor atom, score
      P1  H  6896  6909       L1     6  0.03
      P1  H  6931  6943       L1    19  0.59
      P1  H  6934  6947       L1    19  0.01

> <Gold.Chemscore.Hbond.Weighted>
-3.6281

> <Gold.Chemscore.Metal.Weighted>
-0.0000

> <Gold.Chemscore.Lipo.Weighted>
-10.6365

> <Gold.Chemscore.Internal_Hbond.Weighted>
0.0000

> <Gold.Chemscore.DEClash.Weighted>
0.0207

> <Gold.Chemscore.DEInternal.Weighted>
0.7771

> <Gold.Chemscore.Rot.Weighted>
4.4015

> <Gold.Chemscore.Internal.Correction.Weighted>
   9.000000E+99

> <Gold.Protein.RotatedTorsions>
[ 6907 6896 6895 6894 ] final   76.21 input  -60.11 | X-H torsion
[ 7974 7965 7964 7962 ] final  -70.02 input  175.53 | X-H torsion
[ 8008 7997 7996 7995 ] final  162.51 input   59.86 | X-H torsion
[ 10167 10162 10161 10158 ] final  173.74 input  -65.29 | X-H torsion
[ 10718 10713 10712 10709 ] final  134.16 input   66.30 | X-H torsion
[ 10763 10752 10751 10750 ] final   39.89 input  -60.55 | X-H torsion
[ 11005 11000 10999 10996 ] final   16.61 input  -57.11 | X-H torsion

> <Gold.Protein.ActiveResidues>
 VAL166  LYS551  ARG553  GLY616  TRP617  ASP618  TYR619  PRO620  LYS621  CYS622 
 ASP623  PHE694  ASN695  SER759  ASP760  ASP761  ALA762  ILE779  LEU786  VAL792 
 PHE793  MET794  SER795  GLU796  ALA797  LYS798  CYS799  TRP800  GLU811  SER814 

> <Gold.Protein.RotatedAtoms>
  152.5062  134.4004  159.9414 H   0  0  0  0  0  0  0  0  0  0  0  0  # atno 6907 bound_to 6896
  151.3967  133.3764  159.2735 H   0  0  0  0  0  0  0  0  0  0  0  0  # atno 6908 bound_to 6896
  150.9392  134.8823  159.7660 H   0  0  0  0  0  0  0  0  0  0  0  0  # atno 6909 bound_to 6896
  145.6963  140.9134  143.0755 H   0  0  0  0  0  0  0  0  0  0  0  0  # atno 7974 bound_to 7965
  156.2026  140.1748  156.7867 H   0  0  0  0  0  0  0  0  0  0  0  0  # atno 8008 bound_to 7997
  154.5612  140.0699  156.8852 H   0  0  0  0  0  0  0  0  0  0  0  0  # atno 8009 bound_to 7997
  155.2845  140.3351  155.4258 H   0  0  0  0  0  0  0  0  0  0  0  0  # atno 8010 bound_to 7997
  139.5118  144.3226  152.0188 H   0  0  0  0  0  0  0  0  0  0  0  0  # atno 10167 bound_to 10162
  157.4701  131.1079  150.9814 H   0  0  0  0  0  0  0  0  0  0  0  0  # atno 10718 bound_to 10713
  152.9953  135.6207  154.2538 H   0  0  0  0  0  0  0  0  0  0  0  0  # atno 10763 bound_to 10752
  154.2276  135.2793  155.2904 H   0  0  0  0  0  0  0  0  0  0  0  0  # atno 10764 bound_to 10752
  154.5477  135.5742  153.6952 H   0  0  0  0  0  0  0  0  0  0  0  0  # atno 10765 bound_to 10752
  140.4452  134.1281  155.7695 H   0  0  0  0  0  0  0  0  0  0  0  0  # atno 11005 bound_to 11000
  144.6981  139.8888  143.7452 LP  0  0  0  0  0  0  0  0  0  0  0  0  # atno 17320 bound_to 7965
  146.0837  139.3825  143.0448 LP  0  0  0  0  0  0  0  0  0  0  0  0  # atno 17321 bound_to 7965
  140.2668  144.4008  150.6165 LP  0  0  0  0  0  0  0  0  0  0  0  0  # atno 17342 bound_to 10162
  140.6118  143.2170  151.6872 LP  0  0  0  0  0  0  0  0  0  0  0  0  # atno 17343 bound_to 10162
  157.0582  130.5814  149.5381 LP  0  0  0  0  0  0  0  0  0  0  0  0  # atno 17370 bound_to 10713
  156.0069  130.5157  150.7860 LP  0  0  0  0  0  0  0  0  0  0  0  0  # atno 17371 bound_to 10713
  141.1688  133.8650  157.1633 LP  0  0  0  0  0  0  0  0  0  0  0  0  # atno 17394 bound_to 11000
  140.0043  135.0015  157.0259 LP  0  0  0  0  0  0  0  0  0  0  0  0  # atno 17395 bound_to 11000

$$$$
