AV-unprocessed.smi:72|AV-procd|sdf|716|dock2
  -GOLD-   2262017 43D 1   1.00000     0.00000
 Structure written by MMmdl.
 28 29  0  0  0  0  0  0  0  0  2 V2000
  153.7536  137.5384  156.1872 N   0  0  0  0  0  0  0  0  0  0  0  0
  152.7384  138.0984  155.6927 C   0  0  0  0  0  0  0  0  0  0  0  0
  151.9108  137.3917  154.7398 N   0  0  0  0  0  0  0  0  0  0  0  0
  150.8765  138.0111  154.2605 C   0  0  0  0  0  0  0  0  0  0  0  0
  150.5407  139.3726  154.6590 N   0  0  0  0  0  0  0  0  0  0  0  0
  149.3319  140.1068  154.1007 C   0  0  1  0  0  0  0  0  0  0  0  0
  148.6950  139.3177  153.1352 O   0  0  0  0  0  0  0  0  0  0  0  0
  147.4470  138.8485  153.6329 C   0  0  2  0  0  0  0  0  0  0  0  0
  146.5099  138.4442  152.4814 C   0  0  0  0  0  0  0  0  0  0  0  0
  147.1239  138.6987  151.2358 O   0  0  0  0  0  0  0  0  0  0  0  0
  146.9765  139.9836  154.5506 C   0  0  2  0  0  0  0  0  0  0  0  0
  146.3672  141.0250  153.8098 O   0  0  0  0  0  0  0  0  0  0  0  0
  148.2776  140.4660  155.1791 C   0  0  1  0  0  0  0  0  0  0  0  0
  148.4774  139.8109  156.4201 O   0  0  0  0  0  0  0  0  0  0  0  0
  151.3724  140.0410  155.5971 C   0  0  0  0  0  0  0  0  0  0  0  0
  151.0692  141.1883  155.9260 O   0  0  0  0  0  0  0  0  0  0  0  0
  152.4596  139.3863  156.0930 N   0  5  0  0  0  0  0  0  0  0  0  0
  149.7336  140.9812  153.5861 H   0  0  0  0  0  0  0  0  0  0  0  0
  147.6483  137.9700  154.2481 H   0  0  0  0  0  0  0  0  0  0  0  0
  146.2552  139.6348  155.2911 H   0  0  0  0  0  0  0  0  0  0  0  0
  148.2816  141.5426  155.3559 H   0  0  0  0  0  0  0  0  0  0  0  0
  154.2426  138.1377  156.8362 H   0  0  0  0  0  0  0  0  0  0  0  0
  150.2043  137.5504  153.5374 H   0  0  0  0  0  0  0  0  0  0  0  0
  146.2250  137.3938  152.5439 H   0  0  0  0  0  0  0  0  0  0  0  0
  145.5887  139.0247  152.5341 H   0  0  0  0  0  0  0  0  0  0  0  0
  147.6024  139.5114  151.2976 H   0  0  0  0  0  0  0  0  0  0  0  0
  145.5404  140.7096  153.4780 H   0  0  0  0  0  0  0  0  0  0  0  0
  148.7435  138.9205  156.2496 H   0  0  0  0  0  0  0  0  0  0  0  0
  1  2  2  0  0  0  0
  1 22  1  0  0  0  0
  2 17  1  0  0  0  0
  2  3  1  0  0  0  0
  3  4  2  0  0  0  0
  4  5  1  0  0  0  0
  4 23  1  0  0  0  0
  5  6  1  0  0  0  0
  5 15  1  0  0  0  0
  6 18  1  0  0  0  0
  6 13  1  0  0  0  0
  6  7  1  0  0  0  0
  7  8  1  0  0  0  0
  8 19  1  0  0  0  0
  8  9  1  0  0  0  0
  8 11  1  0  0  0  0
  9 10  1  0  0  0  0
  9 24  1  0  0  0  0
  9 25  1  0  0  0  0
 10 26  1  0  0  0  0
 11 20  1  0  0  0  0
 11 12  1  0  0  0  0
 11 13  1  0  0  0  0
 12 27  1  0  0  0  0
 13 21  1  0  0  0  0
 13 14  1  0  0  0  0
 14 28  1  0  0  0  0
 15 16  2  0  0  0  0
 15 17  1  0  0  0  0
M  CHG  1  17  -1
M  END
> <s_m_source_file>
AV-unprocessed.smi

> <i_m_source_file_index>
72

> <i_lp_mmshare_version>
43012

> <i_f3d_flags>
0

> <s_epik_input>
W05IMl1jMW5bY0hdbihjKD1PKW4xKVtDQEBIXTJPW0NASF0oW0NIMl1bT0hdKVtDQEBIXShbT0hdKVtDQEhdMltPSF0=

> <s_epik_cmdline>
J2VwaWtfcHl0aG9uJywgJy1waCcsICc3LjAnLCAnLXRuJywgJzgnLCAnLW1hJywgJzIwMCcsICctbWV0YWxfYmluZGluZycsICctaW1hZScsICc8aW5maWxlLm1hZT4nLCAnLW9tYWUnLCAnPG91dGZpbGUubWFlPic=

> <r_lp_tautomer_probability>
7.17554e-07

> <r_epik_Ionization_Penalty>
12.8705

> <r_epik_Ionization_Penalty_Charging>
5.64144

> <r_epik_Ionization_Penalty_Neutral>
7.22905

> <r_epik_State_Penalty>
3.30104

> <r_epik_Charging_Adjusted_Penalty>
8.94249

> <i_epik_Tot_Q>
-1

> <i_epik_Tot_abs_Q>
1

> <r_epik_Metal_State_Penalty>
0.529074

> <b_epik_Metal_Only>
1

> <s_epik_Chemistry_Notes>
This compound contains an acetal/aminal-like group ( X-CH(R)-Y where X, Y are N, S, or O) that may be acid/base labile, releasing an aldehyde.

> <s_lp_Force_Field>
OPLS_2005

> <r_lp_Energy>
37.2706

> <b_lp_Chiralities_Consistent>
1

> <s_lp_Variant>
AV-unprocessed.smi:72-54

> <Gold.Version>
5.8.1

> <Gold.Id.Protein>
6NUR|6NUR_protein|mol2

> <Gold.PLP.Fitness>
41.0098

> <Gold.PLP.PLP>
-23.5492

> <Gold.PLP.part.hbond>
-7.1222

> <Gold.PLP.part.metal>
0.0000

> <Gold.PLP.part.buried>
-2.8517

> <Gold.PLP.part.nonpolar>
-19.3820

> <Gold.PLP.part.repulsive>
5.6072

> <Gold.PLP.ligand.clash>
0.0000

> <Gold.PLP.ligand.torsion>
0.7682

> <Gold.PLP.Chemscore.Hbond>
5.2177

> <Gold.PLP.Chemscore.CHOScore>
1.1031

> <Gold.PLP.Chemscore.Metal>
0.0000

> <Gold.Chemscore.Hbonds>
donor molecule, donor type, donor heavy atom, donor atom, acceptor molecule, acceptor atom, score
      L1  H    10    26       P1  7957  0.69
      L1  H    12    27       P1 10175  0.78
      P1  H  7954  7966       L1    10  0.89
      P1  H  7997  8009       L1    17  1.98
      P1  H 10752 10763       L1     3  0.87
      L1  C     4    23       P1  7948  1.00
      L1  C     4    23       P1  7949  0.10

> <Gold.PLP.Chemscore.Internal.Correction>
0.0348

> <Gold.Rescore>
     Score         DG    S(hbond)    S(metal)    S(lipo)     H(rot)  DE(clash)    DE(int)     intcor
      3.06      -6.45       2.65        0.00      21.17       4.04       2.33       1.06       ----

> <Gold.Chemscore.Fitness>
3.0552

> <Gold.Chemscore.DG>
-6.4520

> <Gold.Chemscore.ZeroCoef>
-5.4800

> <Gold.Chemscore.Hbond>
2.6462

> <Gold.Chemscore.Metal>
0.0000

> <Gold.Chemscore.Lipo>
21.1685

> <Gold.Chemscore.Internal_Hbond>
0.0000

> <Gold.Chemscore.DEClash>
2.3349

> <Gold.Chemscore.DEInternal>
1.0620

> <Gold.Chemscore.Rot>
4.0403

> <Gold.Chemscore.Internal.Correction>
   9.000000E+99

> <Gold.Chemscore.Hbonds>
donor molecule, donor type, donor heavy atom, donor atom, acceptor molecule, acceptor atom, score
      L1  H    10    26       P1  7957  0.60
      L1  H    12    27       P1 10175  0.68
      P1  H  7954  7966       L1    10  0.17
      P1  H  7997  8009       L1    17  0.24
      P1  H 10752 10763       L1     3  0.32

> <Gold.Chemscore.Hbond.Weighted>
-8.8384

> <Gold.Chemscore.Metal.Weighted>
-0.0000

> <Gold.Chemscore.Lipo.Weighted>
-2.4767

> <Gold.Chemscore.Internal_Hbond.Weighted>
0.0000

> <Gold.Chemscore.DEClash.Weighted>
2.3349

> <Gold.Chemscore.DEInternal.Weighted>
1.0620

> <Gold.Chemscore.Rot.Weighted>
10.3431

> <Gold.Chemscore.Internal.Correction.Weighted>
   9.000000E+99

> <Gold.Protein.RotatedTorsions>
[ 6907 6896 6895 6894 ] final -151.18 input  -60.11 | X-H torsion
[ 7974 7965 7964 7962 ] final  -88.87 input  175.53 | X-H torsion
[ 8008 7997 7996 7995 ] final -154.08 input   59.86 | X-H torsion
[ 10167 10162 10161 10158 ] final  176.45 input  -65.29 | X-H torsion
[ 10718 10713 10712 10709 ] final   86.72 input   66.30 | X-H torsion
[ 10763 10752 10751 10750 ] final   50.10 input  -60.55 | X-H torsion
[ 11005 11000 10999 10996 ] final  165.17 input  -57.11 | X-H torsion

> <Gold.Protein.ActiveResidues>
 VAL166  LYS551  ARG553  GLY616  TRP617  ASP618  TYR619  PRO620  LYS621  CYS622 
 ASP623  PHE694  ASN695  SER759  ASP760  ASP761  ALA762  ILE779  LEU786  VAL792 
 PHE793  MET794  SER795  GLU796  ALA797  LYS798  CYS799  TRP800  GLU811  SER814 

> <Gold.Protein.RotatedAtoms>
  151.2094  133.4565  159.2597 H   0  0  0  0  0  0  0  0  0  0  0  0  # atno 6907 bound_to 6896
  151.0991  134.9962  159.8450 H   0  0  0  0  0  0  0  0  0  0  0  0  # atno 6908 bound_to 6896
  152.5442  134.2022  159.8769 H   0  0  0  0  0  0  0  0  0  0  0  0  # atno 6909 bound_to 6896
  145.4473  140.9560  143.2041 H   0  0  0  0  0  0  0  0  0  0  0  0  # atno 7974 bound_to 7965
  155.6808  140.0744  157.2485 H   0  0  0  0  0  0  0  0  0  0  0  0  # atno 8008 bound_to 7997
  154.4106  140.1682  156.2032 H   0  0  0  0  0  0  0  0  0  0  0  0  # atno 8009 bound_to 7997
  155.9536  140.3375  155.6432 H   0  0  0  0  0  0  0  0  0  0  0  0  # atno 8010 bound_to 7997
  139.5215  144.2914  152.0460 H   0  0  0  0  0  0  0  0  0  0  0  0  # atno 10167 bound_to 10162
  157.6932  131.0227  150.3015 H   0  0  0  0  0  0  0  0  0  0  0  0  # atno 10718 bound_to 10713
  152.9785  135.5890  154.4198 H   0  0  0  0  0  0  0  0  0  0  0  0  # atno 10763 bound_to 10752
  154.3823  135.2767  155.2206 H   0  0  0  0  0  0  0  0  0  0  0  0  # atno 10764 bound_to 10752
  154.4114  135.6080  153.6009 H   0  0  0  0  0  0  0  0  0  0  0  0  # atno 10765 bound_to 10752
  140.2534  134.7959  157.3523 H   0  0  0  0  0  0  0  0  0  0  0  0  # atno 11005 bound_to 11000
  144.8083  139.6009  143.7041 LP  0  0  0  0  0  0  0  0  0  0  0  0  # atno 17320 bound_to 7965
  146.2523  139.6227  142.9418 LP  0  0  0  0  0  0  0  0  0  0  0  0  # atno 17321 bound_to 7965
  140.2365  144.4314  150.6278 LP  0  0  0  0  0  0  0  0  0  0  0  0  # atno 17342 bound_to 10162
  140.6320  143.2189  151.6476 LP  0  0  0  0  0  0  0  0  0  0  0  0  # atno 17343 bound_to 10162
  156.3530  130.3834  149.7313 LP  0  0  0  0  0  0  0  0  0  0  0  0  # atno 17370 bound_to 10713
  156.4785  130.8030  151.3045 LP  0  0  0  0  0  0  0  0  0  0  0  0  # atno 17371 bound_to 10713
  140.1536  134.4818  155.7944 LP  0  0  0  0  0  0  0  0  0  0  0  0  # atno 17394 bound_to 11000
  141.2199  133.6872  156.7421 LP  0  0  0  0  0  0  0  0  0  0  0  0  # atno 17395 bound_to 11000

$$$$
