#       Name:                AV-unprocessed.smi:1385
#       Creating user name   scv26
#       Creation time:       Fri Mar 27 05:25:23 2020


#       File generated by GOLD software.
#

@<TRIPOS>MOLECULE
AV-unprocessed.smi:1385
    45    46     1
SMALL
NO_CHARGES


@<TRIPOS>ATOM
      1 ****        -6.4536   3.7227   1.4957 C.3            1 S1                 0.0000
      2 ****        -5.0370   3.2672   1.4106 C.2            1 S1                 0.0000
      3 ****        -4.0046   4.1173   1.3508 N.2            1 S1                 0.0000
      4 ****        -2.7849   3.4592   1.2762 N.2            1 S1                 0.0000
      5 ****        -2.9345   2.1276   1.2844 C.2            1 S1                 0.0000
      6 ****        -1.8524   1.2111   1.2139 N.am           1 S1                 0.0000
      7 ****        -0.5387   1.4793   1.1125 C.2            1 S1                 0.0000
      8 ****        -0.0409   2.6048   1.0762 O.2            1 S1                 0.0000
      9 ****         0.1828   0.3504   1.0516 N.am           1 S1                 0.0000
     10 ****         1.6395   0.2826   0.9382 C.3            1 S1                 0.0000
     11 ****         2.1117   0.5144  -0.5104 C.3            1 S1                 0.0000
     12 ****         1.7488  -0.6645  -1.4308 C.3            1 S1                 0.0000
     13 ****         2.2872  -1.9471  -0.9016 N.4            1 S1                 1.0000
     14 ****         2.0648  -3.0952  -1.8157 C.3            1 S1                 0.0000
     15 ****         3.0644  -3.0555  -2.9767 C.2            1 S1                 0.0000
     16 ****         2.4580  -2.9403  -4.1735 N.pl3          1 S1                -1.0000
     17 ****         4.2700  -3.1136  -2.7427 O.2            1 S1                 0.0000
     18 ****         1.7960  -2.2224   0.4727 C.3            1 S1                 0.0000
     19 ****         2.1552  -1.0775   1.4378 C.3            1 S1                 0.0000
     20 ****        -4.5938   1.5647   1.3879 S.3            1 S1                 0.0000
     21 ****        -6.5529   4.7392   1.1134 H              1 S1                 0.0000
     22 ****        -6.7882   3.7037   2.5329 H              1 S1                 0.0000
     23 ****        -7.0947   3.0658   0.9075 H              1 S1                 0.0000
     24 ****        -2.1113   0.2358   1.2345 H              1 S1                 0.0000
     25 ****        -0.3117  -0.5288   1.0912 H              1 S1                 0.0000
     26 ****         2.0647   1.0597   1.5761 H              1 S1                 0.0000
     27 ****         1.6953   1.4408  -0.9078 H              1 S1                 0.0000
     28 ****         3.1945   0.6464  -0.5153 H              1 S1                 0.0000
     29 ****         0.6659  -0.7391  -1.5404 H              1 S1                 0.0000
     30 ****         2.1497  -0.4696  -2.4257 H              1 S1                 0.0000
     31 ****         2.2378  -4.0325  -1.2853 H              1 S1                 0.0000
     32 ****         1.0258  -3.1175  -2.1522 H              1 S1                 0.0000
     33 ****         3.0392  -2.9066  -5.0197 H              1 S1                 0.0000
     34 ****         0.7160  -2.3764   0.4490 H              1 S1                 0.0000
     35 ****         2.2382  -3.1486   0.8413 H              1 S1                 0.0000
     36 ****         3.2398  -1.0306   1.5442 H              1 S1                 0.0000
     37 ****         1.7629  -1.2887   2.4334 H              1 S1                 0.0000
     38 ****         3.2893  -1.8399  -0.8324 H              1 S1                 0.0000
     39 ****        -4.1011   5.1126   1.3589 LP             1 S1                 0.0000
     40 ****        -1.9006   3.9231   1.2227 LP             1 S1                 0.0000
     41 ****        -0.6279   3.4130   1.1234 LP             1 S1                 0.0000
     42 ****         0.9505   2.7108   0.9994 LP             1 S1                 0.0000
     43 ****         1.4614  -2.8885  -4.2372 LP             1 S1                 0.0000
     44 ****         4.5933  -3.1863  -1.7992 LP             1 S1                 0.0000
     45 ****         4.9274  -3.0881  -3.4959 LP             1 S1                 0.0000
@<TRIPOS>BOND
    1    1    2 1     
    2    1   21 1     
    3    1   22 1     
    4    1   23 1     
    5    2   20 1     
    6    2    3 2     
    7    3    4 1     
    8    4    5 2     
    9    5    6 1     
   10    5   20 1     
   11    6    7 am    
   12    6   24 1     
   13    7    8 2     
   14    7    9 am    
   15    9   10 1     
   16    9   25 1     
   17   10   19 1     
   18   10   11 1     
   19   10   26 1     
   20   11   12 1     
   21   11   27 1     
   22   11   28 1     
   23   12   13 1     
   24   12   29 1     
   25   12   30 1     
   26   13   14 1     
   27   13   18 1     
   28   13   38 1     
   29   14   15 1     
   30   14   31 1     
   31   14   32 1     
   32   15   16 1     
   33   15   17 2     
   34   16   33 1     
   35   18   19 1     
   36   18   34 1     
   37   18   35 1     
   38   19   36 1     
   39   19   37 1     
   40    3   39 1     
   41    4   40 1     
   42    8   41 1     
   43    8   42 1     
   44   16   43 1     
   45   17   44 1     
   46   17   45 1     
@<TRIPOS>SUBSTRUCTURE
      1 S1             1
@<TRIPOS>SET
LONE_PAIRS      STATIC     ATOMS    <user>   **** ""
7 39 40 41 42 43 44 45
DONOR_HYDROGENS      STATIC     ATOMS    <user>   **** ""
4 24 25 38 33
ATOM$BLUE        STATIC     ATOMS    COLORGROUP SYSTEM
7 39 40 41 42 43 44 45
ATOM$RED        STATIC     ATOMS    COLORGROUP SYSTEM
4 24 25 38 33
