AV-unprocessed.smi:1123|AV-procd|sdf|4832|dock9
  -GOLD-   22720 3393D 1   1.00000     0.00000
 Structure written by MMmdl.
 38 39  0  0  0  0  0  0  0  0  2 V2000
  152.8524  138.4092  154.5848 C   0  0  0  0  0  0  0  0  0  0  0  0
  151.4610  137.8454  154.2313 C   0  0  1  0  0  0  0  0  0  0  0  0
  151.1023  136.5932  155.0476 C   0  0  0  0  0  0  0  0  0  0  0  0
  151.6824  136.3422  156.1047 O   0  0  0  0  0  0  0  0  0  0  0  0
  150.1362  135.8086  154.5430 N   0  0  0  0  0  0  0  0  0  0  0  0
  149.6334  134.5952  155.1760 C   0  0  0  0  0  0  0  0  0  0  0  0
  149.2399  133.5325  154.1320 C   0  0  0  0  0  0  0  0  0  0  0  0
  148.2174  134.0299  153.1783 N   0  3  0  0  0  0  0  0  0  0  0  0
  147.8599  133.0188  152.1548 C   0  0  0  0  0  0  0  0  0  0  0  0
  146.8346  133.5938  151.1627 C   0  0  0  0  0  0  0  0  0  0  0  0
  145.6840  134.0381  151.8700 O   0  0  0  0  0  0  0  0  0  0  0  0
  145.9953  135.0726  152.7946 C   0  0  0  0  0  0  0  0  0  0  0  0
  146.9944  134.5489  153.8404 C   0  0  0  0  0  0  0  0  0  0  0  0
  150.4124  138.8498  154.3606 N   0  0  0  0  0  0  0  0  0  0  0  0
  149.1001  138.7537  154.1359 C   0  0  0  0  0  0  0  0  0  0  0  0
  148.4249  139.8631  154.4017 N   0  0  0  0  0  0  0  0  0  0  0  0
  149.4515  140.6586  154.8248 C   0  0  0  0  0  0  0  0  0  0  0  0
  150.6607  140.0981  154.8301 N   0  0  0  0  0  0  0  0  0  0  0  0
  153.6301  137.6599  154.4332 H   0  0  0  0  0  0  0  0  0  0  0  0
  152.9104  138.7395  155.6228 H   0  0  0  0  0  0  0  0  0  0  0  0
  153.0963  139.2641  153.9538 H   0  0  0  0  0  0  0  0  0  0  0  0
  151.4924  137.5492  153.1814 H   0  0  0  0  0  0  0  0  0  0  0  0
  149.7080  136.0826  153.6705 H   0  0  0  0  0  0  0  0  0  0  0  0
  150.3855  134.2170  155.8690 H   0  0  0  0  0  0  0  0  0  0  0  0
  148.7648  134.8631  155.7783 H   0  0  0  0  0  0  0  0  0  0  0  0
  150.1387  133.2527  153.5802 H   0  0  0  0  0  0  0  0  0  0  0  0
  148.8785  132.6214  154.6116 H   0  0  0  0  0  0  0  0  0  0  0  0
  148.7539  132.7052  151.6146 H   0  0  0  0  0  0  0  0  0  0  0  0
  147.4514  132.1322  152.6427 H   0  0  0  0  0  0  0  0  0  0  0  0
  147.2648  134.4165  150.5895 H   0  0  0  0  0  0  0  0  0  0  0  0
  146.5350  132.8290  150.4462 H   0  0  0  0  0  0  0  0  0  0  0  0
  146.3993  135.9387  152.2680 H   0  0  0  0  0  0  0  0  0  0  0  0
  145.0764  135.3974  153.2829 H   0  0  0  0  0  0  0  0  0  0  0  0
  146.5320  133.7550  154.4292 H   0  0  0  0  0  0  0  0  0  0  0  0
  147.2446  135.3527  154.5316 H   0  0  0  0  0  0  0  0  0  0  0  0
  148.6275  137.8523  153.7745 H   0  0  0  0  0  0  0  0  0  0  0  0
  149.3022  141.6793  155.1451 H   0  0  0  0  0  0  0  0  0  0  0  0
  148.6363  134.8016  152.6790 H   0  0  0  0  0  0  0  0  0  0  0  0
  1  2  1  0  0  0  0
  1 19  1  0  0  0  0
  1 20  1  0  0  0  0
  1 21  1  0  0  0  0
  2  3  1  0  0  0  0
  2 14  1  0  0  0  0
  2 22  1  0  0  0  0
  3  4  2  0  0  0  0
  3  5  1  0  0  0  0
  5  6  1  0  0  0  0
  5 23  1  0  0  0  0
  6  7  1  0  0  0  0
  6 24  1  0  0  0  0
  6 25  1  0  0  0  0
  7  8  1  0  0  0  0
  7 26  1  0  0  0  0
  7 27  1  0  0  0  0
  8 13  1  0  0  0  0
  8  9  1  0  0  0  0
  8 38  1  0  0  0  0
  9 10  1  0  0  0  0
  9 28  1  0  0  0  0
  9 29  1  0  0  0  0
 10 11  1  0  0  0  0
 10 30  1  0  0  0  0
 10 31  1  0  0  0  0
 11 12  1  0  0  0  0
 12 13  1  0  0  0  0
 12 32  1  0  0  0  0
 12 33  1  0  0  0  0
 13 34  1  0  0  0  0
 13 35  1  0  0  0  0
 14 18  1  0  0  0  0
 14 15  1  0  0  0  0
 15 16  2  0  0  0  0
 15 36  1  0  0  0  0
 16 17  1  0  0  0  0
 17 18  2  0  0  0  0
 17 37  1  0  0  0  0
M  CHG  1   8   1
M  END
> <s_m_source_file>
AV-unprocessed.smi

> <i_m_source_file_index>
1123

> <i_lp_mmshare_version>
43012

> <i_f3d_flags>
0

> <s_epik_input>
bjFbY0hdbltjSF1uMVtDQEhdKFtDSDNdKUMoPU8pW05IXVtDSDJdW0NIMl1OMltDSDJdW0NIMl1PW0NIMl1bQ0gyXTI=

> <s_epik_cmdline>
J2VwaWtfcHl0aG9uJywgJy1waCcsICc3LjAnLCAnLXRuJywgJzgnLCAnLW1hJywgJzIwMCcsICctbWV0YWxfYmluZGluZycsICctaW1hZScsICc8aW5maWxlLm1hZT4nLCAnLW9tYWUnLCAnPG91dGZpbGUubWFlPic=

> <r_lp_tautomer_probability>
1

> <r_epik_Ionization_Penalty>
0.71326

> <r_epik_Ionization_Penalty_Charging>
0.713252

> <r_epik_Ionization_Penalty_Neutral>
7.98515e-06

> <r_epik_State_Penalty>
0.737017

> <r_epik_Charging_Adjusted_Penalty>
1.45027

> <i_epik_Tot_Q>
1

> <i_epik_Tot_abs_Q>
1

> <r_epik_Metal_State_Penalty>
0.73702

> <b_epik_Metal_Only>
0

> <s_lp_Force_Field>
OPLS_2005

> <r_lp_Energy>
21.0283

> <b_lp_Chiralities_Consistent>
1

> <s_lp_Variant>
AV-unprocessed.smi:1123-4

> <Gold.Version>
5.8.1

> <Gold.Id.Protein>
6NUR|6NUR_protein|mol2

> <Gold.PLP.Fitness>
48.3180

> <Gold.PLP.PLP>
-31.6808

> <Gold.PLP.part.hbond>
-4.4489

> <Gold.PLP.part.metal>
0.0000

> <Gold.PLP.part.buried>
-2.2616

> <Gold.PLP.part.nonpolar>
-25.0935

> <Gold.PLP.part.repulsive>
0.3616

> <Gold.PLP.ligand.clash>
0.0000

> <Gold.PLP.ligand.torsion>
0.6574

> <Gold.PLP.Chemscore.Hbond>
4.9424

> <Gold.PLP.Chemscore.CHOScore>
1.0000

> <Gold.PLP.Chemscore.Metal>
0.0000

> <Gold.Chemscore.Hbonds>
donor molecule, donor type, donor heavy atom, donor atom, acceptor molecule, acceptor atom, score
      L1  H     5    23       P1  7948  1.00
      L1  H     8    38       P1  7948  1.70
      P1  H  7989  7998       L1    18  1.00
      P1  H 10752 10763       L1     4  0.65
      L1  C    15    36       P1  7948  1.00

> <Gold.PLP.Chemscore.Internal.Correction>
0.1246

> <Gold.Rescore>
     Score         DG    S(hbond)    S(metal)    S(lipo)     H(rot)  DE(clash)    DE(int)     intcor
     12.61     -13.57       2.85        0.00      46.75       2.69       0.05       0.91       ----

> <Gold.Chemscore.Fitness>
12.6062

> <Gold.Chemscore.DG>
-13.5730

> <Gold.Chemscore.ZeroCoef>
-5.4800

> <Gold.Chemscore.Hbond>
2.8483

> <Gold.Chemscore.Metal>
0.0000

> <Gold.Chemscore.Lipo>
46.7545

> <Gold.Chemscore.Internal_Hbond>
0.0000

> <Gold.Chemscore.DEClash>
0.0537

> <Gold.Chemscore.DEInternal>
0.9130

> <Gold.Chemscore.Rot>
2.6916

> <Gold.Chemscore.Internal.Correction>
   9.000000E+99

> <Gold.Chemscore.Hbonds>
donor molecule, donor type, donor heavy atom, donor atom, acceptor molecule, acceptor atom, score
      L1  H     5    23       P1  7948  0.30
      L1  H     8    38       P1  7948  0.15
      P1  H  7989  7998       L1    18  0.27
      P1  H 10752 10763       L1     4  0.06

> <Gold.Chemscore.Hbond.Weighted>
-9.5133

> <Gold.Chemscore.Metal.Weighted>
-0.0000

> <Gold.Chemscore.Lipo.Weighted>
-5.4703

> <Gold.Chemscore.Internal_Hbond.Weighted>
0.0000

> <Gold.Chemscore.DEClash.Weighted>
0.0537

> <Gold.Chemscore.DEInternal.Weighted>
0.9130

> <Gold.Chemscore.Rot.Weighted>
6.8906

> <Gold.Chemscore.Internal.Correction.Weighted>
   9.000000E+99

> <Gold.Protein.RotatedTorsions>
[ 6907 6896 6895 6894 ] final -102.72 input  -60.11 | X-H torsion
[ 7974 7965 7964 7962 ] final  -22.94 input  175.53 | X-H torsion
[ 8008 7997 7996 7995 ] final   16.49 input   59.86 | X-H torsion
[ 10167 10162 10161 10158 ] final  -51.91 input  -65.29 | X-H torsion
[ 10718 10713 10712 10709 ] final   29.77 input   66.30 | X-H torsion
[ 10763 10752 10751 10750 ] final  102.61 input  -60.55 | X-H torsion
[ 11005 11000 10999 10996 ] final  120.82 input  -57.11 | X-H torsion

> <Gold.Protein.ActiveResidues>
 VAL166  LYS551  ARG553  GLY616  TRP617  ASP618  TYR619  PRO620  LYS621  CYS622 
 ASP623  PHE694  ASN695  SER759  ASP760  ASP761  ALA762  ILE779  LEU786  VAL792 
 PHE793  MET794  SER795  GLU796  ALA797  LYS798  CYS799  TRP800  GLU811  SER814 

> <Gold.Protein.RotatedAtoms>
  150.7208  134.0538  159.3807 H   0  0  0  0  0  0  0  0  0  0  0  0  # atno 6907 bound_to 6896
  151.8516  135.0553  160.0469 H   0  0  0  0  0  0  0  0  0  0  0  0  # atno 6908 bound_to 6896
  152.2786  133.5413  159.5520 H   0  0  0  0  0  0  0  0  0  0  0  0  # atno 6909 bound_to 6896
  146.1646  140.4548  142.8557 H   0  0  0  0  0  0  0  0  0  0  0  0  # atno 7974 bound_to 7965
  154.8776  140.2968  155.5444 H   0  0  0  0  0  0  0  0  0  0  0  0  # atno 8008 bound_to 7997
  156.3022  140.2448  156.3708 H   0  0  0  0  0  0  0  0  0  0  0  0  # atno 8009 bound_to 7997
  154.8750  140.0400  157.1737 H   0  0  0  0  0  0  0  0  0  0  0  0  # atno 8010 bound_to 7997
  140.6564  143.2602  151.4572 H   0  0  0  0  0  0  0  0  0  0  0  0  # atno 10167 bound_to 10162
  157.2509  130.7114  149.6404 H   0  0  0  0  0  0  0  0  0  0  0  0  # atno 10718 bound_to 10713
  153.3418  135.4004  155.1578 H   0  0  0  0  0  0  0  0  0  0  0  0  # atno 10763 bound_to 10752
  154.8645  135.3635  154.5335 H   0  0  0  0  0  0  0  0  0  0  0  0  # atno 10764 bound_to 10752
  153.5781  135.7077  153.5535 H   0  0  0  0  0  0  0  0  0  0  0  0  # atno 10765 bound_to 10752
  139.9200  134.9636  156.7864 H   0  0  0  0  0  0  0  0  0  0  0  0  # atno 11005 bound_to 11000
  144.8074  140.6325  143.6438 LP  0  0  0  0  0  0  0  0  0  0  0  0  # atno 17320 bound_to 7965
  145.4501  139.1524  143.3923 LP  0  0  0  0  0  0  0  0  0  0  0  0  # atno 17321 bound_to 7965
  139.5788  144.1758  152.1939 LP  0  0  0  0  0  0  0  0  0  0  0  0  # atno 17342 bound_to 10162
  140.1076  144.5485  150.6946 LP  0  0  0  0  0  0  0  0  0  0  0  0  # atno 17343 bound_to 10162
  155.9666  130.4428  150.5396 LP  0  0  0  0  0  0  0  0  0  0  0  0  # atno 17370 bound_to 10713
  157.3279  131.0694  151.1883 LP  0  0  0  0  0  0  0  0  0  0  0  0  # atno 17371 bound_to 10713
  140.6502  133.9738  155.7751 LP  0  0  0  0  0  0  0  0  0  0  0  0  # atno 17394 bound_to 11000
  141.0713  134.0201  157.3522 LP  0  0  0  0  0  0  0  0  0  0  0  0  # atno 17395 bound_to 11000

$$$$
