#       Name:                AV-unprocessed.smi:1749
#       Creating user name   scv26
#       Creation time:       Fri Mar 27 08:26:39 2020


#       File generated by GOLD software.
#

@<TRIPOS>MOLECULE
AV-unprocessed.smi:1749
    36    37     1
SMALL
NO_CHARGES


@<TRIPOS>ATOM
      1 ****        -2.9968  -0.7860  -2.2252 C.3            1 S1                 0.0000
      2 ****        -2.3669  -0.0288  -1.0476 C.3            1 S1                 0.0000
      3 ****        -2.8144  -0.6155   0.3049 C.3            1 S1                 0.0000
      4 ****        -2.1866   0.1455   1.4829 C.3            1 S1                 0.0000
      5 ****        -0.6543   0.1663   1.3786 C.3            1 S1                 0.0000
      6 ****        -0.1917   0.7557   0.0338 C.3            1 S1                 0.0000
      7 ****         1.2657   0.7059  -0.0386 N.am           1 S1                 0.0000
      8 ****         2.0570   1.4770  -0.8103 C.2            1 S1                 0.0000
      9 ****         1.5367   2.3021  -1.5602 O.2            1 S1                 0.0000
     10 ****         3.4015   1.2992  -0.7177 N.pl3          1 S1                -1.0000
     11 ****         3.9608   0.4284   0.1429 C.2            1 S1                 0.0000
     12 ****         4.2856  -0.8261  -0.2089 N.2            1 S1                 0.0000
     13 ****         4.8450  -1.5570   0.8305 N.2            1 S1                 0.0000
     14 ****         4.9384  -0.8277   1.9420 C.2            1 S1                 0.0000
     15 ****         4.3518   0.8174   1.8201 S.3            1 S1                 0.0000
     16 ****        -0.8286  -0.0097  -1.1453 C.3            1 S1                 0.0000
     17 ****        -2.6879  -1.8316  -2.2361 H              1 S1                 0.0000
     18 ****        -2.7044  -0.3423  -3.1773 H              1 S1                 0.0000
     19 ****        -4.0853  -0.7606  -2.1706 H              1 S1                 0.0000
     20 ****        -2.7171   1.0033  -1.0981 H              1 S1                 0.0000
     21 ****        -3.9013  -0.5814   0.3860 H              1 S1                 0.0000
     22 ****        -2.5332  -1.6681   0.3618 H              1 S1                 0.0000
     23 ****        -2.5651   1.1683   1.5017 H              1 S1                 0.0000
     24 ****        -2.4882  -0.3132   2.4249 H              1 S1                 0.0000
     25 ****        -0.2374   0.7448   2.2039 H              1 S1                 0.0000
     26 ****        -0.2708  -0.8495   1.4885 H              1 S1                 0.0000
     27 ****        -0.5112   1.7988  -0.0063 H              1 S1                 0.0000
     28 ****         1.7220   0.0308   0.5572 H              1 S1                 0.0000
     29 ****         5.3563  -1.2601   2.8387 H              1 S1                 0.0000
     30 ****        -0.4502  -1.0330  -1.1657 H              1 S1                 0.0000
     31 ****        -0.5288   0.4470  -2.0894 H              1 S1                 0.0000
     32 ****         0.5412   2.3926  -1.5904 LP             1 S1                 0.0000
     33 ****         2.1092   2.8822  -2.1396 LP             1 S1                 0.0000
     34 ****         3.9989   1.8368  -1.3128 LP             1 S1                 0.0000
     35 ****         4.1394  -1.1963  -1.1263 LP             1 S1                 0.0000
     36 ****         5.1402  -2.5094   0.7547 LP             1 S1                 0.0000
@<TRIPOS>BOND
    1    1    2 1     
    2    1   17 1     
    3    1   18 1     
    4    1   19 1     
    5    2   16 1     
    6    2    3 1     
    7    2   20 1     
    8    3    4 1     
    9    3   21 1     
   10    3   22 1     
   11    4    5 1     
   12    4   23 1     
   13    4   24 1     
   14    5    6 1     
   15    5   25 1     
   16    5   26 1     
   17    6    7 1     
   18    6   16 1     
   19    6   27 1     
   20    7    8 am    
   21    7   28 1     
   22    8    9 2     
   23    8   10 1     
   24   10   11 1     
   25   11   15 1     
   26   11   12 2     
   27   12   13 1     
   28   13   14 2     
   29   14   15 1     
   30   14   29 1     
   31   16   30 1     
   32   16   31 1     
   33    9   32 1     
   34    9   33 1     
   35   10   34 1     
   36   12   35 1     
   37   13   36 1     
@<TRIPOS>SUBSTRUCTURE
      1 S1             1
@<TRIPOS>SET
LONE_PAIRS      STATIC     ATOMS    <user>   **** ""
5 32 33 34 35 36
DONOR_HYDROGENS      STATIC     ATOMS    <user>   **** ""
1 28
ATOM$BLUE        STATIC     ATOMS    COLORGROUP SYSTEM
5 32 33 34 35 36
ATOM$RED        STATIC     ATOMS    COLORGROUP SYSTEM
1 28
