AV-unprocessed.smi:2710|AV-procd|sdf|10470|dock2
  -GOLD-   2272014513D 1   1.00000     0.00000
 Structure written by MMmdl.
 53 54  0  0  0  0  0  0  0  0  2 V2000
  146.9770  130.8976  153.6111 C   0  0  0  0  0  0  0  0  0  0  0  0
  146.0948  131.7752  152.7105 C   0  0  0  0  0  0  0  0  0  0  0  0
  146.8768  132.5311  151.6883 N   0  3  2  0  0  0  0  0  0  0  0  0
  147.4736  133.7990  152.1960 C   0  0  0  0  0  0  0  0  0  0  0  0
  146.4130  134.9004  152.3938 C   0  0  0  0  0  0  0  0  0  0  0  0
  145.6082  135.1457  151.1047 C   0  0  2  0  0  0  0  0  0  0  0  0
  144.5124  136.0750  151.3683 N   0  0  0  0  0  0  0  0  0  0  0  0
  143.4978  135.8689  152.2206 C   0  0  0  0  0  0  0  0  0  0  0  0
  143.3705  134.8487  152.8968 O   0  0  0  0  0  0  0  0  0  0  0  0
  142.6430  136.9056  152.2159 N   0  0  0  0  0  0  0  0  0  0  0  0
  141.4607  137.0670  152.9858 C   0  0  0  0  0  0  0  0  0  0  0  0
  140.7661  138.2922  152.9326 C   0  0  0  0  0  0  0  0  0  0  0  0
  139.6429  138.5088  153.6486 N   0  0  0  0  0  0  0  0  0  0  0  0
  139.2030  137.5122  154.4278 C   0  0  0  0  0  0  0  0  0  0  0  0
  137.9353  137.7978  155.2535 C   0  0  0  0  0  0  0  0  0  0  0  0
  136.7368  136.9262  154.8038 C   0  0  0  0  0  0  0  0  0  0  0  0
  137.5114  139.2707  155.0724 C   0  0  0  0  0  0  0  0  0  0  0  0
  138.2035  137.4932  156.7409 C   0  0  0  0  0  0  0  0  0  0  0  0
  139.8026  136.3234  154.5756 N   0  0  0  0  0  0  0  0  0  0  0  0
  140.9234  136.0919  153.8594 C   0  0  0  0  0  0  0  0  0  0  0  0
  145.0501  133.8212  150.5539 C   0  0  0  0  0  0  0  0  0  0  0  0
  146.1696  132.7719  150.3937 C   0  0  2  0  0  0  0  0  0  0  0  0
  145.6802  131.4839  149.7074 C   0  0  0  0  0  0  0  0  0  0  0  0
  146.3587  130.2649  154.2481 H   0  0  0  0  0  0  0  0  0  0  0  0
  147.6115  131.4877  154.2714 H   0  0  0  0  0  0  0  0  0  0  0  0
  147.6161  130.2417  153.0195 H   0  0  0  0  0  0  0  0  0  0  0  0
  145.3955  131.1016  152.2197 H   0  0  0  0  0  0  0  0  0  0  0  0
  145.4899  132.4484  153.3172 H   0  0  0  0  0  0  0  0  0  0  0  0
  148.0285  133.6351  153.1183 H   0  0  0  0  0  0  0  0  0  0  0  0
  148.2135  134.1423  151.4718 H   0  0  0  0  0  0  0  0  0  0  0  0
  145.7420  134.6278  153.2090 H   0  0  0  0  0  0  0  0  0  0  0  0
  146.9015  135.8250  152.7040 H   0  0  0  0  0  0  0  0  0  0  0  0
  146.2871  135.5582  150.3559 H   0  0  0  0  0  0  0  0  0  0  0  0
  144.5246  136.9450  150.8563 H   0  0  0  0  0  0  0  0  0  0  0  0
  142.8280  137.6370  151.5451 H   0  0  0  0  0  0  0  0  0  0  0  0
  141.1086  139.1048  152.3086 H   0  0  0  0  0  0  0  0  0  0  0  0
  135.8429  137.1499  155.3872 H   0  0  0  0  0  0  0  0  0  0  0  0
  136.9407  135.8620  154.9301 H   0  0  0  0  0  0  0  0  0  0  0  0
  136.4873  137.0951  153.7553 H   0  0  0  0  0  0  0  0  0  0  0  0
  137.3255  139.5020  154.0228 H   0  0  0  0  0  0  0  0  0  0  0  0
  138.2769  139.9598  155.4302 H   0  0  0  0  0  0  0  0  0  0  0  0
  136.5980  139.4924  155.6251 H   0  0  0  0  0  0  0  0  0  0  0  0
  137.3163  137.6717  157.3494 H   0  0  0  0  0  0  0  0  0  0  0  0
  139.0009  138.1200  157.1417 H   0  0  0  0  0  0  0  0  0  0  0  0
  138.4988  136.4533  156.8848 H   0  0  0  0  0  0  0  0  0  0  0  0
  141.3877  135.1305  154.0150 H   0  0  0  0  0  0  0  0  0  0  0  0
  144.2685  133.4374  151.2111 H   0  0  0  0  0  0  0  0  0  0  0  0
  144.5744  134.0027  149.5890 H   0  0  0  0  0  0  0  0  0  0  0  0
  146.9168  133.1952  149.7203 H   0  0  0  0  0  0  0  0  0  0  0  0
  145.3802  131.6901  148.6794 H   0  0  0  0  0  0  0  0  0  0  0  0
  144.8131  131.0521  150.2070 H   0  0  0  0  0  0  0  0  0  0  0  0
  146.4667  130.7297  149.6723 H   0  0  0  0  0  0  0  0  0  0  0  0
  147.6566  131.9314  151.4596 H   0  0  0  0  0  0  0  0  0  0  0  0
  1  2  1  0  0  0  0
  1 24  1  0  0  0  0
  1 25  1  0  0  0  0
  1 26  1  0  0  0  0
  2  3  1  0  0  0  0
  2 27  1  0  0  0  0
  2 28  1  0  0  0  0
  3 22  1  0  0  0  0
  3  4  1  0  0  0  0
  3 53  1  0  0  0  0
  4  5  1  0  0  0  0
  4 29  1  0  0  0  0
  4 30  1  0  0  0  0
  5  6  1  0  0  0  0
  5 31  1  0  0  0  0
  5 32  1  0  0  0  0
  6  7  1  0  0  0  0
  6 21  1  0  0  0  0
  6 33  1  0  0  0  0
  7  8  1  0  0  0  0
  7 34  1  0  0  0  0
  8  9  2  0  0  0  0
  8 10  1  0  0  0  0
 10 11  1  0  0  0  0
 10 35  1  0  0  0  0
 11 20  1  0  0  0  0
 11 12  2  0  0  0  0
 12 13  1  0  0  0  0
 12 36  1  0  0  0  0
 13 14  2  0  0  0  0
 14 15  1  0  0  0  0
 14 19  1  0  0  0  0
 15 16  1  0  0  0  0
 15 17  1  0  0  0  0
 15 18  1  0  0  0  0
 16 37  1  0  0  0  0
 16 38  1  0  0  0  0
 16 39  1  0  0  0  0
 17 40  1  0  0  0  0
 17 41  1  0  0  0  0
 17 42  1  0  0  0  0
 18 43  1  0  0  0  0
 18 44  1  0  0  0  0
 18 45  1  0  0  0  0
 19 20  2  0  0  0  0
 20 46  1  0  0  0  0
 21 22  1  0  0  0  0
 21 47  1  0  0  0  0
 21 48  1  0  0  0  0
 22 23  1  0  0  0  0
 22 49  1  0  0  0  0
 23 50  1  0  0  0  0
 23 51  1  0  0  0  0
 23 52  1  0  0  0  0
M  CHG  1   3   1
M  END
> <s_m_source_file>
AV-unprocessed.smi

> <i_m_source_file_index>
2710

> <i_lp_mmshare_version>
43012

> <i_f3d_flags>
0

> <s_epik_input>
W0NIM11bQ0gyXU4xW0NIMl1bQ0gyXVtDQEhdKFtDSDJdW0NASF0xW0NIM10pW05IXUMoPU8pW05IXWMyW2NIXW5jKEMoW0NIM10pKFtDSDNdKVtDSDNdKW5bY0hdMg==

> <s_epik_cmdline>
J2VwaWtfcHl0aG9uJywgJy1waCcsICc3LjAnLCAnLXRuJywgJzgnLCAnLW1hJywgJzIwMCcsICctbWV0YWxfYmluZGluZycsICctaW1hZScsICc8aW5maWxlLm1hZT4nLCAnLW9tYWUnLCAnPG91dGZpbGUubWFlPic=

> <r_lp_tautomer_probability>
1

> <r_epik_Ionization_Penalty>
0.00396003

> <r_epik_Ionization_Penalty_Charging>
0.0039379

> <r_epik_Ionization_Penalty_Neutral>
2.21316e-05

> <r_epik_State_Penalty>
0.00281651

> <r_epik_Charging_Adjusted_Penalty>
0.00675441

> <i_epik_Tot_Q>
1

> <i_epik_Tot_abs_Q>
1

> <r_epik_Metal_State_Penalty>
-0

> <b_epik_Metal_Only>
0

> <s_lp_Force_Field>
OPLS_2005

> <r_lp_Energy>
21.9784

> <b_lp_Chiralities_Consistent>
1

> <s_lp_Variant>
AV-unprocessed.smi:2710-7

> <Gold.Version>
5.8.1

> <Gold.Id.Protein>
6NUR|6NUR_protein|mol2

> <Gold.PLP.Fitness>
46.6489

> <Gold.PLP.PLP>
-35.2774

> <Gold.PLP.part.hbond>
-2.8484

> <Gold.PLP.part.metal>
0.0000

> <Gold.PLP.part.buried>
-1.9600

> <Gold.PLP.part.nonpolar>
-29.8592

> <Gold.PLP.part.repulsive>
0.4308

> <Gold.PLP.ligand.clash>
0.0000

> <Gold.PLP.ligand.torsion>
0.4869

> <Gold.PLP.Chemscore.Hbond>
2.2011

> <Gold.PLP.Chemscore.CHOScore>
1.8930

> <Gold.PLP.Chemscore.Metal>
0.0000

> <Gold.Chemscore.Hbonds>
donor molecule, donor type, donor heavy atom, donor atom, acceptor molecule, acceptor atom, score
      L1  H     3    53       P1 10747  0.89
      L1  H     7    34       P1 10171  0.96
      L1  H    10    35       P1 10171  0.57
      P1  H 11000 11005       L1    19  0.73
      L1  C    12    36       P1 10160  1.00
      L1  C    12    36       P1 10175  0.26

> <Gold.PLP.Chemscore.Internal.Correction>
0.0630

> <Gold.Rescore>
     Score         DG    S(hbond)    S(metal)    S(lipo)     H(rot)  DE(clash)    DE(int)     intcor
     14.97     -21.49       2.47        0.00      94.83       1.31       3.62       2.90       ----

> <Gold.Chemscore.Fitness>
14.9665

> <Gold.Chemscore.DG>
-21.4876

> <Gold.Chemscore.ZeroCoef>
-5.4800

> <Gold.Chemscore.Hbond>
2.4734

> <Gold.Chemscore.Metal>
0.0000

> <Gold.Chemscore.Lipo>
94.8320

> <Gold.Chemscore.Internal_Hbond>
0.0000

> <Gold.Chemscore.DEClash>
3.6243

> <Gold.Chemscore.DEInternal>
2.8968

> <Gold.Chemscore.Rot>
1.3081

> <Gold.Chemscore.Internal.Correction>
   9.000000E+99

> <Gold.Chemscore.Hbonds>
donor molecule, donor type, donor heavy atom, donor atom, acceptor molecule, acceptor atom, score
      L1  H     3    53       P1 10747  0.86
      L1  H     7    34       P1 10171  0.90
      L1  H    10    35       P1 10171  0.19
      P1  H 11000 11005       L1    19  0.19

> <Gold.Chemscore.Hbond.Weighted>
-8.2610

> <Gold.Chemscore.Metal.Weighted>
-0.0000

> <Gold.Chemscore.Lipo.Weighted>
-11.0953

> <Gold.Chemscore.Internal_Hbond.Weighted>
0.0000

> <Gold.Chemscore.DEClash.Weighted>
3.6243

> <Gold.Chemscore.DEInternal.Weighted>
2.8968

> <Gold.Chemscore.Rot.Weighted>
3.3488

> <Gold.Chemscore.Internal.Correction.Weighted>
   9.000000E+99

> <Gold.Protein.RotatedTorsions>
[ 6907 6896 6895 6894 ] final -110.12 input  -60.11 | X-H torsion
[ 7974 7965 7964 7962 ] final  125.26 input  175.53 | X-H torsion
[ 8008 7997 7996 7995 ] final  132.15 input   59.86 | X-H torsion
[ 10167 10162 10161 10158 ] final   35.12 input  -65.29 | X-H torsion
[ 10718 10713 10712 10709 ] final -151.11 input   66.30 | X-H torsion
[ 10763 10752 10751 10750 ] final  -89.62 input  -60.55 | X-H torsion
[ 11005 11000 10999 10996 ] final   70.92 input  -57.11 | X-H torsion

> <Gold.Protein.ActiveResidues>
 VAL166  LYS551  ARG553  GLY616  TRP617  ASP618  TYR619  PRO620  LYS621  CYS622 
 ASP623  PHE694  ASN695  SER759  ASP760  ASP761  ALA762  ILE779  LEU786  VAL792 
 PHE793  MET794  SER795  GLU796  ALA797  LYS798  CYS799  TRP800  GLU811  SER814 

> <Gold.Protein.RotatedAtoms>
  150.7605  133.9428  159.3461 H   0  0  0  0  0  0  0  0  0  0  0  0  # atno 6907 bound_to 6896
  151.7338  135.0867  160.0314 H   0  0  0  0  0  0  0  0  0  0  0  0  # atno 6908 bound_to 6896
  152.3572  133.6215  159.6024 H   0  0  0  0  0  0  0  0  0  0  0  0  # atno 6909 bound_to 6896
  145.0751  139.3700  143.4938 H   0  0  0  0  0  0  0  0  0  0  0  0  # atno 7974 bound_to 7965
  156.2979  140.2553  156.3042 H   0  0  0  0  0  0  0  0  0  0  0  0  # atno 8008 bound_to 7997
  154.9388  140.0396  157.2105 H   0  0  0  0  0  0  0  0  0  0  0  0  # atno 8009 bound_to 7997
  154.8146  140.2850  155.5833 H   0  0  0  0  0  0  0  0  0  0  0  0  # atno 8010 bound_to 7997
  140.4251  144.1404  150.6152 H   0  0  0  0  0  0  0  0  0  0  0  0  # atno 10167 bound_to 10162
  156.4550  130.8186  151.2417 H   0  0  0  0  0  0  0  0  0  0  0  0  # atno 10718 bound_to 10713
  154.6571  135.5334  153.7973 H   0  0  0  0  0  0  0  0  0  0  0  0  # atno 10763 bound_to 10752
  153.0420  135.6497  154.0928 H   0  0  0  0  0  0  0  0  0  0  0  0  # atno 10764 bound_to 10752
  154.0840  135.2945  155.3265 H   0  0  0  0  0  0  0  0  0  0  0  0  # atno 10765 bound_to 10752
  139.9571  134.7125  156.0728 H   0  0  0  0  0  0  0  0  0  0  0  0  # atno 11005 bound_to 11000
  146.3530  140.0514  142.8635 LP  0  0  0  0  0  0  0  0  0  0  0  0  # atno 17320 bound_to 7965
  145.1246  140.9482  143.4580 LP  0  0  0  0  0  0  0  0  0  0  0  0  # atno 17321 bound_to 7965
  140.4490  143.2494  151.9373 LP  0  0  0  0  0  0  0  0  0  0  0  0  # atno 17342 bound_to 10162
  139.4783  144.5581  151.8282 LP  0  0  0  0  0  0  0  0  0  0  0  0  # atno 17343 bound_to 10162
  157.7501  131.0126  150.3390 LP  0  0  0  0  0  0  0  0  0  0  0  0  # atno 17370 bound_to 10713
  156.3777  130.3875  149.7126 LP  0  0  0  0  0  0  0  0  0  0  0  0  # atno 17371 bound_to 10713
  141.1244  133.6603  156.3298 LP  0  0  0  0  0  0  0  0  0  0  0  0  # atno 17394 bound_to 11000
  140.5584  134.5959  157.5427 LP  0  0  0  0  0  0  0  0  0  0  0  0  # atno 17395 bound_to 11000

$$$$
