#       Name:                AV-unprocessed.smi:3058
#       Creating user name   scv26
#       Creation time:       Fri Mar 27 17:07:46 2020


#       File generated by GOLD software.
#

@<TRIPOS>MOLECULE
AV-unprocessed.smi:3058
    41    43     1
SMALL
NO_CHARGES


@<TRIPOS>ATOM
      1 ****         1.1719   0.9470  -1.0384 O.2            1 S1                 0.0000
      2 ****         0.6688  -0.1765  -1.0136 C.2            1 S1                 0.0000
      3 ****         1.3915  -1.3009  -0.8852 N.am           1 S1                 0.0000
      4 ****         2.8331  -1.3617  -0.6557 C.3            1 S1                 0.0000
      5 ****         3.1702  -1.5977   0.8299 C.3            1 S1                 0.0000
      6 ****         2.5389  -0.5809   1.7662 C.ar           1 S1                 0.0000
      7 ****         1.3959  -0.9051   2.5267 C.ar           1 S1                 0.0000
      8 ****         0.8279   0.0829   3.3533 C.ar           1 S1                 0.0000
      9 ****         1.4308   1.3559   3.3873 C.ar           1 S1                 0.0000
     10 ****         2.5278   1.6765   2.6680 N.ar           1 S1                 0.0000
     11 ****         3.0648   0.7240   1.8754 C.ar           1 S1                 0.0000
     12 ****        -0.8560  -0.3602  -1.0948 C.3            1 S1                 0.0000
     13 ****        -1.5955   0.2241   0.1341 C.3            1 S1                 0.0000
     14 ****        -2.6266   1.1805  -0.4960 C.3            1 S1                 0.0000
     15 ****        -3.6966   0.3617  -1.2433 C.3            1 S1                 0.0000
     16 ****        -2.9346  -0.1401  -2.4855 C.3            1 S1                 0.0000
     17 ****        -1.5170   0.4201  -2.2596 C.3            1 S1                 0.0000
     18 ****        -1.8352   1.7845  -1.6473 C.3            1 S1                 0.0000
     19 ****         0.8953  -2.1802  -0.8829 H              1 S1                 0.0000
     20 ****         3.2437  -2.1724  -1.2576 H              1 S1                 0.0000
     21 ****         3.3186  -0.4497  -1.0071 H              1 S1                 0.0000
     22 ****         2.8452  -2.5970   1.1224 H              1 S1                 0.0000
     23 ****         4.2516  -1.5792   0.9690 H              1 S1                 0.0000
     24 ****         0.9529  -1.8884   2.4689 H              1 S1                 0.0000
     25 ****        -0.0515  -0.1283   3.9435 H              1 S1                 0.0000
     26 ****         1.0204   2.1380   4.0088 H              1 S1                 0.0000
     27 ****         3.9341   1.0146   1.3038 H              1 S1                 0.0000
     28 ****        -1.0724  -1.4255  -1.1925 H              1 S1                 0.0000
     29 ****        -2.0720  -0.5534   0.7321 H              1 S1                 0.0000
     30 ****        -0.9245   0.7756   0.7956 H              1 S1                 0.0000
     31 ****        -3.0402   1.9031   0.2080 H              1 S1                 0.0000
     32 ****        -4.0882  -0.4558  -0.6368 H              1 S1                 0.0000
     33 ****        -4.5361   0.9927  -1.5377 H              1 S1                 0.0000
     34 ****        -2.9480  -1.2270  -2.5742 H              1 S1                 0.0000
     35 ****        -3.3725   0.2726  -3.3953 H              1 S1                 0.0000
     36 ****        -0.9166   0.4591  -3.1694 H              1 S1                 0.0000
     37 ****        -2.4381   2.4199  -2.2983 H              1 S1                 0.0000
     38 ****        -0.9606   2.3476  -1.3210 H              1 S1                 0.0000
     39 ****         2.1632   1.0527  -0.9610 LP             1 S1                 0.0000
     40 ****         0.5891   1.7538  -1.1360 LP             1 S1                 0.0000
     41 ****         2.9300   2.5906   2.7206 LP             1 S1                 0.0000
@<TRIPOS>BOND
    1    1    2 2     
    2    2    3 am    
    3    2   12 1     
    4    3    4 1     
    5    3   19 1     
    6    4    5 1     
    7    4   20 1     
    8    4   21 1     
    9    5    6 1     
   10    5   22 1     
   11    5   23 1     
   12    6   11 ar    
   13    6    7 ar    
   14    7    8 ar    
   15    7   24 1     
   16    8    9 ar    
   17    8   25 1     
   18    9   10 ar    
   19    9   26 1     
   20   10   11 ar    
   21   11   27 1     
   22   12   17 1     
   23   12   13 1     
   24   12   28 1     
   25   13   14 1     
   26   13   29 1     
   27   13   30 1     
   28   14   18 1     
   29   14   15 1     
   30   14   31 1     
   31   15   16 1     
   32   15   32 1     
   33   15   33 1     
   34   16   17 1     
   35   16   34 1     
   36   16   35 1     
   37   17   18 1     
   38   17   36 1     
   39   18   37 1     
   40   18   38 1     
   41    1   39 1     
   42    1   40 1     
   43   10   41 1     
@<TRIPOS>SUBSTRUCTURE
      1 S1             1
@<TRIPOS>SET
LONE_PAIRS      STATIC     ATOMS    <user>   **** ""
3 39 40 41
DONOR_HYDROGENS      STATIC     ATOMS    <user>   **** ""
1 19
ATOM$BLUE        STATIC     ATOMS    COLORGROUP SYSTEM
3 39 40 41
ATOM$RED        STATIC     ATOMS    COLORGROUP SYSTEM
1 19
