AV-unprocessed.smi:2925|AV-procd|sdf|11222|dock2
  -GOLD-   2272016113D 1   1.00000     0.00000
 Structure written by MMmdl.
 44 45  0  0  0  0  0  0  0  0  1 V2000
  155.2400  138.5807  160.8179 C   0  0  0  0  0  0  0  0  0  0  0  0
  154.8982  140.0515  161.0982 C   0  0  0  0  0  0  0  0  0  0  0  0
  153.5512  140.5163  160.5007 C   0  0  2  0  0  0  0  0  0  0  0  0
  153.4661  140.1384  159.0901 N   0  0  0  0  0  0  0  0  0  0  0  0
  152.3657  139.7028  158.4596 C   0  0  0  0  0  0  0  0  0  0  0  0
  151.2783  139.5322  159.0126 O   0  0  0  0  0  0  0  0  0  0  0  0
  152.6153  139.4473  157.1631 N   0  0  0  0  0  0  0  0  0  0  0  0
  151.7077  138.9200  156.2311 C   0  0  0  0  0  0  0  0  0  0  0  0
  150.8172  139.7574  155.6369 C   0  0  0  0  0  0  0  0  0  0  0  0
  150.8089  141.2508  155.9231 C   0  0  0  0  0  0  0  0  0  0  0  0
  149.8657  139.2164  154.6885 C   0  0  0  0  0  0  0  0  0  0  0  0
  149.8738  137.9034  154.4234 C   0  0  0  0  0  0  0  0  0  0  0  0
  150.7728  137.0303  155.0524 N   0  0  0  0  0  0  0  0  0  0  0  0
  150.6914  135.6083  154.7080 C   0  0  0  0  0  0  0  0  0  0  0  0
  151.6809  137.4588  155.9760 C   0  0  0  0  0  0  0  0  0  0  0  0
  152.4104  136.6559  156.5624 O   0  0  0  0  0  0  0  0  0  0  0  0
  153.3646  142.0428  160.6144 C   0  0  2  0  0  0  0  0  0  0  0  0
  153.2747  142.5773  162.0456 C   0  0  0  0  0  0  0  0  0  0  0  0
  152.4610  143.8555  161.9077 C   0  0  0  0  0  0  0  0  0  0  0  0
  151.8739  143.7750  160.4965 C   0  0  0  0  0  0  0  0  0  0  0  0
  152.1113  142.4393  160.0774 O   0  0  0  0  0  0  0  0  0  0  0  0
  156.1585  138.2938  161.3298 H   0  0  0  0  0  0  0  0  0  0  0  0
  155.3887  138.3976  159.7538 H   0  0  0  0  0  0  0  0  0  0  0  0
  154.4454  137.9197  161.1652 H   0  0  0  0  0  0  0  0  0  0  0  0
  154.8809  140.1910  162.1790 H   0  0  0  0  0  0  0  0  0  0  0  0
  155.7050  140.6841  160.7262 H   0  0  0  0  0  0  0  0  0  0  0  0
  152.7438  140.0402  161.0602 H   0  0  0  0  0  0  0  0  0  0  0  0
  154.3111  140.2390  158.5473 H   0  0  0  0  0  0  0  0  0  0  0  0
  153.5738  139.5135  156.8545 H   0  0  0  0  0  0  0  0  0  0  0  0
  150.0413  141.7607  155.3403 H   0  0  0  0  0  0  0  0  0  0  0  0
  151.7720  141.6947  155.6689 H   0  0  0  0  0  0  0  0  0  0  0  0
  150.6083  141.4372  156.9784 H   0  0  0  0  0  0  0  0  0  0  0  0
  149.1575  139.8626  154.1906 H   0  0  0  0  0  0  0  0  0  0  0  0
  149.1908  137.4435  153.7240 H   0  0  0  0  0  0  0  0  0  0  0  0
  151.6493  135.2507  154.3274 H   0  0  0  0  0  0  0  0  0  0  0  0
  149.9416  135.4014  153.9438 H   0  0  0  0  0  0  0  0  0  0  0  0
  150.4327  135.0163  155.5870 H   0  0  0  0  0  0  0  0  0  0  0  0
  154.1571  142.5644  160.0736 H   0  0  0  0  0  0  0  0  0  0  0  0
  152.7362  141.8712  162.6793 H   0  0  0  0  0  0  0  0  0  0  0  0
  154.2546  142.7489  162.4922 H   0  0  0  0  0  0  0  0  0  0  0  0
  151.6783  143.8984  162.6660 H   0  0  0  0  0  0  0  0  0  0  0  0
  153.0842  144.7435  162.0166 H   0  0  0  0  0  0  0  0  0  0  0  0
  150.8107  144.0144  160.4685 H   0  0  0  0  0  0  0  0  0  0  0  0
  152.3949  144.4595  159.8254 H   0  0  0  0  0  0  0  0  0  0  0  0
  1  2  1  0  0  0  0
  1 22  1  0  0  0  0
  1 23  1  0  0  0  0
  1 24  1  0  0  0  0
  2  3  1  0  0  0  0
  2 25  1  0  0  0  0
  2 26  1  0  0  0  0
  3  4  1  0  0  0  0
  3 17  1  0  0  0  0
  3 27  1  0  0  0  0
  4  5  1  0  0  0  0
  4 28  1  0  0  0  0
  5  6  2  0  0  0  0
  5  7  1  0  0  0  0
  7  8  1  0  0  0  0
  7 29  1  0  0  0  0
  8 15  1  0  0  0  0
  8  9  2  0  0  0  0
  9 10  1  0  0  0  0
  9 11  1  0  0  0  0
 10 30  1  0  0  0  0
 10 31  1  0  0  0  0
 10 32  1  0  0  0  0
 11 12  2  0  0  0  0
 11 33  1  0  0  0  0
 12 13  1  0  0  0  0
 12 34  1  0  0  0  0
 13 14  1  0  0  0  0
 13 15  1  0  0  0  0
 14 35  1  0  0  0  0
 14 36  1  0  0  0  0
 14 37  1  0  0  0  0
 15 16  2  0  0  0  0
 17 21  1  0  0  0  0
 17 18  1  0  0  0  0
 17 38  1  0  0  0  0
 18 19  1  0  0  0  0
 18 39  1  0  0  0  0
 18 40  1  0  0  0  0
 19 20  1  0  0  0  0
 19 41  1  0  0  0  0
 19 42  1  0  0  0  0
 20 21  1  0  0  0  0
 20 43  1  0  0  0  0
 20 44  1  0  0  0  0
M  END
> <s_m_source_file>
AV-unprocessed.smi

> <i_m_source_file_index>
2925

> <i_lp_mmshare_version>
43012

> <i_f3d_flags>
0

> <s_epik_input>
TzFbQ0gyXVtDSDJdW0NIMl1bQ0BIXTFbQ0BIXShbQ0gyXVtDSDNdKVtOSF1DKD1PKVtOSF1jMmMoW0NIM10pW2NIXVtjSF1uKFtDSDNdKWMyPU8=

> <s_epik_cmdline>
J2VwaWtfcHl0aG9uJywgJy1waCcsICc3LjAnLCAnLXRuJywgJzgnLCAnLW1hJywgJzIwMCcsICctbWV0YWxfYmluZGluZycsICctaW1hZScsICc8aW5maWxlLm1hZT4nLCAnLW9tYWUnLCAnPG91dGZpbGUubWFlPic=

> <r_lp_tautomer_probability>
1

> <r_epik_Ionization_Penalty>
2.58789e-05

> <r_epik_Ionization_Penalty_Charging>
6.72534e-06

> <r_epik_Ionization_Penalty_Neutral>
1.91535e-05

> <r_epik_State_Penalty>
-0

> <r_epik_Charging_Adjusted_Penalty>
6.72534e-06

> <i_epik_Tot_Q>
0

> <i_epik_Tot_abs_Q>
0

> <r_epik_Metal_State_Penalty>
-0

> <b_epik_Metal_Only>
0

> <s_lp_Force_Field>
OPLS_2005

> <r_lp_Energy>
35.6543

> <b_lp_Chiralities_Consistent>
1

> <s_lp_Variant>
AV-unprocessed.smi:2925-1

> <Gold.Version>
5.8.1

> <Gold.Id.Protein>
6NUR|6NUR_protein|mol2

> <Gold.PLP.Fitness>
43.0531

> <Gold.PLP.PLP>
-38.7615

> <Gold.PLP.part.hbond>
-1.0000

> <Gold.PLP.part.metal>
0.0000

> <Gold.PLP.part.buried>
-4.1565

> <Gold.PLP.part.nonpolar>
-34.1991

> <Gold.PLP.part.repulsive>
1.3905

> <Gold.PLP.ligand.clash>
0.0000

> <Gold.PLP.ligand.torsion>
1.1324

> <Gold.PLP.Chemscore.Hbond>
0.9913

> <Gold.PLP.Chemscore.CHOScore>
1.0000

> <Gold.PLP.Chemscore.Metal>
0.0000

> <Gold.Chemscore.Hbonds>
donor molecule, donor type, donor heavy atom, donor atom, acceptor molecule, acceptor atom, score
      P1  H 10752 10765       L1    16  0.98
      L1  C    12    34       P1  7948  1.00

> <Gold.PLP.Chemscore.Internal.Correction>
0.5827

> <Gold.Rescore>
     Score         DG    S(hbond)    S(metal)    S(lipo)     H(rot)  DE(clash)    DE(int)     intcor
     15.63     -17.03       0.94        0.00     101.48       1.36       0.28       1.12       ----

> <Gold.Chemscore.Fitness>
15.6345

> <Gold.Chemscore.DG>
-17.0310

> <Gold.Chemscore.ZeroCoef>
-5.4800

> <Gold.Chemscore.Hbond>
0.9444

> <Gold.Chemscore.Metal>
0.0000

> <Gold.Chemscore.Lipo>
101.4791

> <Gold.Chemscore.Internal_Hbond>
0.0000

> <Gold.Chemscore.DEClash>
0.2801

> <Gold.Chemscore.DEInternal>
1.1163

> <Gold.Chemscore.Rot>
1.3579

> <Gold.Chemscore.Internal.Correction>
   9.000000E+99

> <Gold.Chemscore.Hbonds>
donor molecule, donor type, donor heavy atom, donor atom, acceptor molecule, acceptor atom, score
      P1  H 10752 10765       L1    16  0.40

> <Gold.Chemscore.Hbond.Weighted>
-3.1542

> <Gold.Chemscore.Metal.Weighted>
-0.0000

> <Gold.Chemscore.Lipo.Weighted>
-11.8731

> <Gold.Chemscore.Internal_Hbond.Weighted>
0.0000

> <Gold.Chemscore.DEClash.Weighted>
0.2801

> <Gold.Chemscore.DEInternal.Weighted>
1.1163

> <Gold.Chemscore.Rot.Weighted>
3.4763

> <Gold.Chemscore.Internal.Correction.Weighted>
   9.000000E+99

> <Gold.Protein.RotatedTorsions>
[ 6907 6896 6895 6894 ] final -122.34 input  -60.11 | X-H torsion
[ 7974 7965 7964 7962 ] final -100.02 input  175.53 | X-H torsion
[ 8008 7997 7996 7995 ] final   19.87 input   59.86 | X-H torsion
[ 10167 10162 10161 10158 ] final  -23.27 input  -65.29 | X-H torsion
[ 10718 10713 10712 10709 ] final  -66.12 input   66.30 | X-H torsion
[ 10763 10752 10751 10750 ] final -150.23 input  -60.55 | X-H torsion
[ 11005 11000 10999 10996 ] final  156.48 input  -57.11 | X-H torsion

> <Gold.Protein.ActiveResidues>
 VAL166  LYS551  ARG553  GLY616  TRP617  ASP618  TYR619  PRO620  LYS621  CYS622 
 ASP623  PHE694  ASN695  SER759  ASP760  ASP761  ALA762  ILE779  LEU786  VAL792 
 PHE793  MET794  SER795  GLU796  ALA797  LYS798  CYS799  TRP800  GLU811  SER814 

> <Gold.Protein.RotatedAtoms>
  150.8567  133.7705  159.3006 H   0  0  0  0  0  0  0  0  0  0  0  0  # atno 6907 bound_to 6896
  151.5360  135.1067  159.9924 H   0  0  0  0  0  0  0  0  0  0  0  0  # atno 6908 bound_to 6896
  152.4595  133.7749  159.6875 H   0  0  0  0  0  0  0  0  0  0  0  0  # atno 6909 bound_to 6896
  145.3000  140.9375  143.2829 H   0  0  0  0  0  0  0  0  0  0  0  0  # atno 7974 bound_to 7965
  154.9272  140.3035  155.5186 H   0  0  0  0  0  0  0  0  0  0  0  0  # atno 8008 bound_to 7997
  156.3006  140.2360  156.4264 H   0  0  0  0  0  0  0  0  0  0  0  0  # atno 8009 bound_to 7997
  154.8273  140.0420  157.1441 H   0  0  0  0  0  0  0  0  0  0  0  0  # atno 8010 bound_to 7997
  140.7288  143.4458  151.0589 H   0  0  0  0  0  0  0  0  0  0  0  0  # atno 10167 bound_to 10162
  156.0630  130.4257  150.1662 H   0  0  0  0  0  0  0  0  0  0  0  0  # atno 10718 bound_to 10713
  154.8131  135.3289  154.7251 H   0  0  0  0  0  0  0  0  0  0  0  0  # atno 10763 bound_to 10752
  153.7896  135.6912  153.4878 H   0  0  0  0  0  0  0  0  0  0  0  0  # atno 10764 bound_to 10752
  153.1925  135.4545  155.0114 H   0  0  0  0  0  0  0  0  0  0  0  0  # atno 10765 bound_to 10752
  140.1679  134.8564  157.2654 H   0  0  0  0  0  0  0  0  0  0  0  0  # atno 11005 bound_to 11000
  144.9102  139.4538  143.6591 LP  0  0  0  0  0  0  0  0  0  0  0  0  # atno 17320 bound_to 7965
  146.3155  139.7905  142.8986 LP  0  0  0  0  0  0  0  0  0  0  0  0  # atno 17321 bound_to 7965
  139.8130  143.7925  152.3172 LP  0  0  0  0  0  0  0  0  0  0  0  0  # atno 17342 bound_to 10162
  139.7981  144.7385  150.9862 LP  0  0  0  0  0  0  0  0  0  0  0  0  # atno 17343 bound_to 10162
  156.9727  130.9839  151.3455 LP  0  0  0  0  0  0  0  0  0  0  0  0  # atno 17370 bound_to 10713
  157.5653  130.8273  149.8319 LP  0  0  0  0  0  0  0  0  0  0  0  0  # atno 17371 bound_to 10713
  140.2412  134.3793  155.7480 LP  0  0  0  0  0  0  0  0  0  0  0  0  # atno 17394 bound_to 11000
  141.2215  133.7266  156.8792 LP  0  0  0  0  0  0  0  0  0  0  0  0  # atno 17395 bound_to 11000

$$$$
