AV-unprocessed.smi:37|AV-procd|sdf|316|dock2
  -GOLD-   2262016133D 1   1.00000     0.00000
 Structure written by MMmdl.
 44 45  0  0  0  0  0  0  0  0  1 V2000
  146.1260  142.3398  154.0814 C   0  0  0  0  0  0  0  0  0  0  0  0
  146.8754  141.0094  154.2405 C   0  0  0  0  0  0  0  0  0  0  0  0
  147.0876  140.5940  155.6974 C   0  0  0  0  0  0  0  0  0  0  0  0
  147.7079  141.2928  156.5006 O   0  0  0  0  0  0  0  0  0  0  0  0
  146.5209  139.4099  155.9674 O   0  0  0  0  0  0  0  0  0  0  0  0
  146.6352  138.8538  157.2678 C   0  0  0  0  0  0  0  0  0  0  0  0
  146.8808  137.3401  157.1905 C   0  0  1  0  0  0  0  0  0  0  0  0
  147.3640  136.9584  155.9026 O   0  0  0  0  0  0  0  0  0  0  0  0
  148.6011  136.3168  156.0118 C   0  0  1  0  0  0  0  0  0  0  0  0
  149.6908  137.3485  155.7436 N   0  0  0  0  0  0  0  0  0  0  0  0
  149.4702  138.7217  155.6548 C   0  0  0  0  0  0  0  0  0  0  0  0
  150.4528  139.6133  155.3834 C   0  0  0  0  0  0  0  0  0  0  0  0
  150.1583  140.9224  155.3130 F   0  0  0  0  0  0  0  0  0  0  0  0
  151.8240  139.1692  155.1594 C   0  0  0  0  0  0  0  0  0  0  0  0
  152.7779  139.9006  154.9026 O   0  0  0  0  0  0  0  0  0  0  0  0
  152.0019  137.7875  155.2511 N   0  0  0  0  0  0  0  0  0  0  0  0
  150.9999  136.8577  155.5307 C   0  0  0  0  0  0  0  0  0  0  0  0
  151.2766  135.6601  155.5834 O   0  0  0  0  0  0  0  0  0  0  0  0
  148.6090  135.7132  157.4204 C   0  0  2  0  0  0  0  0  0  0  0  0
  147.5488  134.0217  157.3777 Br  0  0  0  0  0  0  0  0  0  0  0  0
  147.8716  136.7840  158.2211 C   0  0  2  0  0  0  0  0  0  0  0  0
  147.2130  136.2648  159.3692 O   0  0  0  0  0  0  0  0  0  0  0  0
  147.8001  136.3410  160.5761 C   0  0  0  0  0  0  0  0  0  0  0  0
  148.8702  136.9018  160.8193 O   0  0  0  0  0  0  0  0  0  0  0  0
  146.9834  135.6261  161.6545 C   0  0  0  0  0  0  0  0  0  0  0  0
  147.6080  135.7101  163.0552 C   0  0  0  0  0  0  0  0  0  0  0  0
  152.9345  137.4310  155.1004 H   0  0  0  0  0  0  0  0  0  0  0  0
  146.0088  142.5891  153.0267 H   0  0  0  0  0  0  0  0  0  0  0  0
  146.6665  143.1596  154.5558 H   0  0  0  0  0  0  0  0  0  0  0  0
  145.1291  142.2913  154.5209 H   0  0  0  0  0  0  0  0  0  0  0  0
  146.3216  140.2176  153.7367 H   0  0  0  0  0  0  0  0  0  0  0  0
  147.8482  141.0757  153.7528 H   0  0  0  0  0  0  0  0  0  0  0  0
  147.4619  139.3320  157.7953 H   0  0  0  0  0  0  0  0  0  0  0  0
  145.7260  139.0555  157.8358 H   0  0  0  0  0  0  0  0  0  0  0  0
  145.9232  136.8307  157.3072 H   0  0  0  0  0  0  0  0  0  0  0  0
  148.7423  135.5629  155.2348 H   0  0  0  0  0  0  0  0  0  0  0  0
  148.4892  139.1409  155.8030 H   0  0  0  0  0  0  0  0  0  0  0  0
  149.6065  135.4595  157.7772 H   0  0  0  0  0  0  0  0  0  0  0  0
  148.5603  137.5779  158.5087 H   0  0  0  0  0  0  0  0  0  0  0  0
  145.9823  136.0574  161.6733 H   0  0  0  0  0  0  0  0  0  0  0  0
  146.8711  134.5812  161.3650 H   0  0  0  0  0  0  0  0  0  0  0  0
  146.9838  135.1936  163.7846 H   0  0  0  0  0  0  0  0  0  0  0  0
  147.7099  136.7451  163.3838 H   0  0  0  0  0  0  0  0  0  0  0  0
  148.5954  135.2475  163.0806 H   0  0  0  0  0  0  0  0  0  0  0  0
  1  2  1  0  0  0  0
  1 28  1  0  0  0  0
  1 29  1  0  0  0  0
  1 30  1  0  0  0  0
  2  3  1  0  0  0  0
  2 31  1  0  0  0  0
  2 32  1  0  0  0  0
  3  4  2  0  0  0  0
  3  5  1  0  0  0  0
  5  6  1  0  0  0  0
  6  7  1  0  0  0  0
  6 33  1  0  0  0  0
  6 34  1  0  0  0  0
  7 21  1  0  0  0  0
  7  8  1  0  0  0  0
  7 35  1  0  0  0  0
  8  9  1  0  0  0  0
  9 10  1  0  0  0  0
  9 19  1  0  0  0  0
  9 36  1  0  0  0  0
 10 17  1  0  0  0  0
 10 11  1  0  0  0  0
 11 12  2  0  0  0  0
 11 37  1  0  0  0  0
 12 13  1  0  0  0  0
 12 14  1  0  0  0  0
 14 15  2  0  0  0  0
 14 16  1  0  0  0  0
 16 27  1  0  0  0  0
 16 17  1  0  0  0  0
 17 18  2  0  0  0  0
 19 20  1  0  0  0  0
 19 21  1  0  0  0  0
 19 38  1  0  0  0  0
 21 22  1  0  0  0  0
 21 39  1  0  0  0  0
 22 23  1  0  0  0  0
 23 24  2  0  0  0  0
 23 25  1  0  0  0  0
 25 26  1  0  0  0  0
 25 40  1  0  0  0  0
 25 41  1  0  0  0  0
 26 42  1  0  0  0  0
 26 43  1  0  0  0  0
 26 44  1  0  0  0  0
M  END
> <s_m_source_file>
AV-unprocessed.smi

> <i_m_source_file_index>
37

> <i_lp_mmshare_version>
43012

> <i_f3d_flags>
0

> <s_epik_input>
W0NIM11bQ0gyXUMoPU8pT1tDSDJdW0NAQEhdMU9bQ0BASF0objJbY0hdYyhGKWMoPU8pW25IXWMyPU8pW0NAQEhdKEJyKVtDQEhdMU9DKD1PKVtDSDJdW0NIM10=

> <s_epik_cmdline>
J2VwaWtfcHl0aG9uJywgJy1waCcsICc3LjAnLCAnLXRuJywgJzgnLCAnLW1hJywgJzIwMCcsICctbWV0YWxfYmluZGluZycsICctaW1hZScsICc8aW5maWxlLm1hZT4nLCAnLW9tYWUnLCAnPG91dGZpbGUubWFlPic=

> <r_lp_tautomer_probability>
0.999537

> <r_epik_Ionization_Penalty>
0.104106

> <r_epik_Ionization_Penalty_Charging>
0.104106

> <r_epik_Ionization_Penalty_Neutral>
3.94675e-16

> <r_epik_State_Penalty>
0.0940182

> <r_epik_Charging_Adjusted_Penalty>
0.198124

> <i_epik_Tot_Q>
0

> <i_epik_Tot_abs_Q>
0

> <r_epik_Metal_State_Penalty>
3.05314

> <b_epik_Metal_Only>
0

> <s_epik_Chemistry_Notes>
This compound has an ester and may undergo hydrolysis at high or low pH. This compound contains an acetal/aminal-like group ( X-CH(R)-Y where X, Y are N, S, or O) that may be acid/base labile, releasing an aldehyde.

> <s_lp_Force_Field>
OPLS_2005

> <r_lp_Energy>
20.7256

> <b_lp_Chiralities_Consistent>
1

> <s_lp_Variant>
AV-unprocessed.smi:37-14

> <Gold.Version>
5.8.1

> <Gold.Id.Protein>
6NUR|6NUR_protein|mol2

> <Gold.PLP.Fitness>
37.7051

> <Gold.PLP.PLP>
-31.5739

> <Gold.PLP.part.hbond>
-4.0000

> <Gold.PLP.part.metal>
0.0000

> <Gold.PLP.part.buried>
-3.4775

> <Gold.PLP.part.nonpolar>
-24.4471

> <Gold.PLP.part.repulsive>
0.4298

> <Gold.PLP.ligand.clash>
0.0000

> <Gold.PLP.ligand.torsion>
1.6446

> <Gold.PLP.Chemscore.Hbond>
3.0424

> <Gold.PLP.Chemscore.CHOScore>
0.0000

> <Gold.PLP.Chemscore.Metal>
0.0000

> <Gold.Chemscore.Hbonds>
donor molecule, donor type, donor heavy atom, donor atom, acceptor molecule, acceptor atom, score
      P1  H  6931  6943       L1    24  0.90
      P1  H  7989  7998       L1    15  0.25
      P1  H  7997  8010       L1    15  1.00
      P1  H 10752 10763       L1    18  1.00

> <Gold.PLP.Chemscore.Internal.Correction>
0.2931

> <Gold.Rescore>
     Score         DG    S(hbond)    S(metal)    S(lipo)     H(rot)  DE(clash)    DE(int)     intcor
      9.01     -10.98       2.70        0.00      42.80       3.33       0.69       1.28       ----

> <Gold.Chemscore.Fitness>
9.0097

> <Gold.Chemscore.DG>
-10.9840

> <Gold.Chemscore.ZeroCoef>
-5.4800

> <Gold.Chemscore.Hbond>
2.7012

> <Gold.Chemscore.Metal>
0.0000

> <Gold.Chemscore.Lipo>
42.7998

> <Gold.Chemscore.Internal_Hbond>
0.0000

> <Gold.Chemscore.DEClash>
0.6894

> <Gold.Chemscore.DEInternal>
1.2849

> <Gold.Chemscore.Rot>
3.3303

> <Gold.Chemscore.Internal.Correction>
   9.000000E+99

> <Gold.Chemscore.Hbonds>
donor molecule, donor type, donor heavy atom, donor atom, acceptor molecule, acceptor atom, score
      P1  H  6931  6943       L1    24  0.88
      P1  H  7989  7998       L1    15  0.01
      P1  H  7997  8010       L1    15  0.96
      P1  H 10752 10763       L1    18  0.55

> <Gold.Chemscore.Hbond.Weighted>
-9.0220

> <Gold.Chemscore.Metal.Weighted>
-0.0000

> <Gold.Chemscore.Lipo.Weighted>
-5.0076

> <Gold.Chemscore.Internal_Hbond.Weighted>
0.0000

> <Gold.Chemscore.DEClash.Weighted>
0.6894

> <Gold.Chemscore.DEInternal.Weighted>
1.2849

> <Gold.Chemscore.Rot.Weighted>
8.5256

> <Gold.Chemscore.Internal.Correction.Weighted>
   9.000000E+99

> <Gold.Protein.RotatedTorsions>
[ 6907 6896 6895 6894 ] final   42.30 input  -60.11 | X-H torsion
[ 7974 7965 7964 7962 ] final   95.64 input  175.53 | X-H torsion
[ 8008 7997 7996 7995 ] final  116.94 input   59.86 | X-H torsion
[ 10167 10162 10161 10158 ] final -121.17 input  -65.29 | X-H torsion
[ 10718 10713 10712 10709 ] final   89.19 input   66.30 | X-H torsion
[ 10763 10752 10751 10750 ] final   77.93 input  -60.55 | X-H torsion
[ 11005 11000 10999 10996 ] final  113.07 input  -57.11 | X-H torsion

> <Gold.Protein.ActiveResidues>
 VAL166  LYS551  ARG553  GLY616  TRP617  ASP618  TYR619  PRO620  LYS621  CYS622 
 ASP623  PHE694  ASN695  SER759  ASP760  ASP761  ALA762  ILE779  LEU786  VAL792 
 PHE793  MET794  SER795  GLU796  ALA797  LYS798  CYS799  TRP800  GLU811  SER814 

> <Gold.Protein.RotatedAtoms>
  152.2061  134.8544  160.0502 H   0  0  0  0  0  0  0  0  0  0  0  0  # atno 6907 bound_to 6896
  151.9380  133.3624  159.3963 H   0  0  0  0  0  0  0  0  0  0  0  0  # atno 6908 bound_to 6896
  150.6965  134.4393  159.5329 H   0  0  0  0  0  0  0  0  0  0  0  0  # atno 6909 bound_to 6896
  145.4494  139.2294  143.3048 H   0  0  0  0  0  0  0  0  0  0  0  0  # atno 7974 bound_to 7965
  156.2467  140.2907  156.0601 H   0  0  0  0  0  0  0  0  0  0  0  0  # atno 8008 bound_to 7997
  155.1785  140.0403  157.2895 H   0  0  0  0  0  0  0  0  0  0  0  0  # atno 8009 bound_to 7997
  154.6276  140.2491  155.7480 H   0  0  0  0  0  0  0  0  0  0  0  0  # atno 8010 bound_to 7997
  140.0279  143.5278  152.2190 H   0  0  0  0  0  0  0  0  0  0  0  0  # atno 10167 bound_to 10162
  157.6954  131.0323  150.3388 H   0  0  0  0  0  0  0  0  0  0  0  0  # atno 10718 bound_to 10713
  153.0836  135.4896  154.8551 H   0  0  0  0  0  0  0  0  0  0  0  0  # atno 10763 bound_to 10752
  154.7182  135.3034  154.9092 H   0  0  0  0  0  0  0  0  0  0  0  0  # atno 10764 bound_to 10752
  153.9765  135.6795  153.4801 H   0  0  0  0  0  0  0  0  0  0  0  0  # atno 10765 bound_to 10752
  139.8943  134.9542  156.6682 H   0  0  0  0  0  0  0  0  0  0  0  0  # atno 11005 bound_to 11000
  146.2512  140.5252  142.8892 LP  0  0  0  0  0  0  0  0  0  0  0  0  # atno 17320 bound_to 7965
  144.8071  140.6319  143.6440 LP  0  0  0  0  0  0  0  0  0  0  0  0  # atno 17321 bound_to 7965
  139.6095  144.7605  151.2983 LP  0  0  0  0  0  0  0  0  0  0  0  0  # atno 17342 bound_to 10162
  140.7314  143.6851  150.7968 LP  0  0  0  0  0  0  0  0  0  0  0  0  # atno 17343 bound_to 10162
  156.3852  130.3888  149.7071 LP  0  0  0  0  0  0  0  0  0  0  0  0  # atno 17370 bound_to 10713
  156.4440  130.7875  151.2896 LP  0  0  0  0  0  0  0  0  0  0  0  0  # atno 17371 bound_to 10713
  140.7393  133.8991  155.8267 LP  0  0  0  0  0  0  0  0  0  0  0  0  # atno 17394 bound_to 11000
  141.0090  134.1046  157.4241 LP  0  0  0  0  0  0  0  0  0  0  0  0  # atno 17395 bound_to 11000

$$$$
