AV-unprocessed.smi:756|AV-procd|sdf|3612|dock1
  -GOLD-   22720 1 03D 1   1.00000     0.00000
 Structure written by MMmdl.
 42 43  0  0  0  0  0  0  0  0  1 V2000
  152.1349  141.6972  159.8170 C   0  0  0  0  0  0  0  0  0  0  0  0
  151.8475  143.1622  160.0953 C   0  0  0  0  0  0  0  0  0  0  0  0
  151.9609  143.7659  161.2830 C   0  0  0  0  0  0  0  0  0  0  0  0
  151.5805  145.4692  161.2143 S   0  0  0  0  0  0  0  0  0  0  0  0
  151.2535  145.3339  159.4492 C   0  0  0  0  0  0  0  0  0  0  0  0
  150.9110  146.2923  158.7586 O   0  0  0  0  0  0  0  0  0  0  0  0
  151.4502  144.0112  159.0528 N   0  0  0  0  0  0  0  0  0  0  0  0
  151.2531  143.5614  157.6682 C   0  0  0  0  0  0  0  0  0  0  0  0
  150.0616  142.6080  157.5066 C   0  0  0  0  0  0  0  0  0  0  0  0
  149.3267  142.3412  158.4585 O   0  0  0  0  0  0  0  0  0  0  0  0
  149.8731  142.1118  156.2764 N   0  0  0  0  0  0  0  0  0  0  0  0
  148.7997  141.1948  155.9094 C   0  0  0  0  0  0  0  0  0  0  0  0
  149.1437  140.3272  154.6715 C   0  0  1  0  0  0  0  0  0  0  0  0
  147.8773  139.8083  153.9547 C   0  0  0  0  0  0  0  0  0  0  0  0
  149.8494  141.1527  153.7625 O   0  0  0  0  0  0  0  0  0  0  0  0
  150.0654  139.1429  155.0849 C   0  0  0  0  0  0  0  0  0  0  0  0
  149.4069  138.0435  155.9303 C   0  0  0  0  0  0  0  0  0  0  0  0
  150.5832  137.2378  156.4806 C   0  0  0  0  0  0  0  0  0  0  0  0
  151.7255  138.2448  156.6641 C   0  0  0  0  0  0  0  0  0  0  0  0
  151.3221  139.5119  155.8947 C   0  0  0  0  0  0  0  0  0  0  0  0
  152.6837  141.2533  160.6482 H   0  0  0  0  0  0  0  0  0  0  0  0
  152.7418  141.5722  158.9200 H   0  0  0  0  0  0  0  0  0  0  0  0
  151.2037  141.1440  159.6927 H   0  0  0  0  0  0  0  0  0  0  0  0
  152.2614  143.3022  162.2111 H   0  0  0  0  0  0  0  0  0  0  0  0
  151.1292  144.4075  156.9930 H   0  0  0  0  0  0  0  0  0  0  0  0
  152.1557  143.0517  157.3263 H   0  0  0  0  0  0  0  0  0  0  0  0
  150.5207  142.3728  155.5471 H   0  0  0  0  0  0  0  0  0  0  0  0
  148.5601  140.5682  156.7701 H   0  0  0  0  0  0  0  0  0  0  0  0
  147.9078  141.7869  155.6963 H   0  0  0  0  0  0  0  0  0  0  0  0
  147.2799  139.1840  154.6199 H   0  0  0  0  0  0  0  0  0  0  0  0
  148.1255  139.2105  153.0778 H   0  0  0  0  0  0  0  0  0  0  0  0
  147.2396  140.6204  153.6043 H   0  0  0  0  0  0  0  0  0  0  0  0
  149.8503  140.7340  152.9153 H   0  0  0  0  0  0  0  0  0  0  0  0
  150.4140  138.6636  154.1682 H   0  0  0  0  0  0  0  0  0  0  0  0
  148.8450  138.4775  156.7582 H   0  0  0  0  0  0  0  0  0  0  0  0
  148.7224  137.4203  155.3541 H   0  0  0  0  0  0  0  0  0  0  0  0
  150.3322  136.7183  157.4057 H   0  0  0  0  0  0  0  0  0  0  0  0
  150.8783  136.4832  155.7501 H   0  0  0  0  0  0  0  0  0  0  0  0
  151.8720  138.4766  157.7196 H   0  0  0  0  0  0  0  0  0  0  0  0
  152.6633  137.8333  156.2889 H   0  0  0  0  0  0  0  0  0  0  0  0
  152.1290  139.8670  155.2531 H   0  0  0  0  0  0  0  0  0  0  0  0
  151.1055  140.3060  156.6097 H   0  0  0  0  0  0  0  0  0  0  0  0
  1  2  1  0  0  0  0
  1 21  1  0  0  0  0
  1 22  1  0  0  0  0
  1 23  1  0  0  0  0
  2  7  1  0  0  0  0
  2  3  2  0  0  0  0
  3  4  1  0  0  0  0
  3 24  1  0  0  0  0
  4  5  1  0  0  0  0
  5  6  2  0  0  0  0
  5  7  1  0  0  0  0
  7  8  1  0  0  0  0
  8  9  1  0  0  0  0
  8 25  1  0  0  0  0
  8 26  1  0  0  0  0
  9 10  2  0  0  0  0
  9 11  1  0  0  0  0
 11 12  1  0  0  0  0
 11 27  1  0  0  0  0
 12 13  1  0  0  0  0
 12 28  1  0  0  0  0
 12 29  1  0  0  0  0
 13 14  1  0  0  0  0
 13 15  1  0  0  0  0
 13 16  1  0  0  0  0
 14 30  1  0  0  0  0
 14 31  1  0  0  0  0
 14 32  1  0  0  0  0
 15 33  1  0  0  0  0
 16 20  1  0  0  0  0
 16 17  1  0  0  0  0
 16 34  1  0  0  0  0
 17 18  1  0  0  0  0
 17 35  1  0  0  0  0
 17 36  1  0  0  0  0
 18 19  1  0  0  0  0
 18 37  1  0  0  0  0
 18 38  1  0  0  0  0
 19 20  1  0  0  0  0
 19 39  1  0  0  0  0
 19 40  1  0  0  0  0
 20 41  1  0  0  0  0
 20 42  1  0  0  0  0
M  END
> <s_m_source_file>
AV-unprocessed.smi

> <i_m_source_file_index>
756

> <i_lp_mmshare_version>
43012

> <i_f3d_flags>
0

> <s_epik_input>
W0NIM11jMVtjSF1zYyg9TyluMVtDSDJdQyg9TylbTkhdW0NIMl1bQ0BAXShbQ0gzXSkoW09IXSlbQ0hdMltDSDJdW0NIMl1bQ0gyXVtDSDJdMg==

> <s_epik_cmdline>
J2VwaWtfcHl0aG9uJywgJy1waCcsICc3LjAnLCAnLXRuJywgJzgnLCAnLW1hJywgJzIwMCcsICctbWV0YWxfYmluZGluZycsICctaW1hZScsICc8aW5maWxlLm1hZT4nLCAnLW9tYWUnLCAnPG91dGZpbGUubWFlPic=

> <r_lp_tautomer_probability>
1

> <r_epik_Ionization_Penalty>
1.53576e-06

> <r_epik_Ionization_Penalty_Charging>
1.31044e-06

> <r_epik_Ionization_Penalty_Neutral>
2.25323e-07

> <r_epik_State_Penalty>
-0

> <r_epik_Charging_Adjusted_Penalty>
1.31044e-06

> <i_epik_Tot_Q>
0

> <i_epik_Tot_abs_Q>
0

> <r_epik_Metal_State_Penalty>
-0

> <b_epik_Metal_Only>
0

> <s_lp_Force_Field>
OPLS_2005

> <r_lp_Energy>
32.8559

> <b_lp_Chiralities_Consistent>
1

> <s_lp_Variant>
AV-unprocessed.smi:756-1

> <Gold.Version>
5.8.1

> <Gold.Id.Protein>
6NUR|6NUR_protein|mol2

> <Gold.PLP.Fitness>
46.9472

> <Gold.PLP.PLP>
-45.0374

> <Gold.PLP.part.hbond>
-5.1363

> <Gold.PLP.part.metal>
0.0000

> <Gold.PLP.part.buried>
-1.9618

> <Gold.PLP.part.nonpolar>
-38.2916

> <Gold.PLP.part.repulsive>
0.3127

> <Gold.PLP.ligand.clash>
0.0000

> <Gold.PLP.ligand.torsion>
0.6342

> <Gold.PLP.Chemscore.Hbond>
1.0440

> <Gold.PLP.Chemscore.CHOScore>
0.0000

> <Gold.PLP.Chemscore.Metal>
0.0000

> <Gold.Chemscore.Hbonds>
donor molecule, donor type, donor heavy atom, donor atom, acceptor molecule, acceptor atom, score
      L1  H    15    33       P1  7957  1.00

> <Gold.PLP.Chemscore.Internal.Correction>
0.0462

> <Gold.Rescore>
     Score         DG    S(hbond)    S(metal)    S(lipo)     H(rot)  DE(clash)    DE(int)     intcor
     12.07     -14.86       1.08        0.00     101.34       2.37       1.00       1.79       ----

> <Gold.Chemscore.Fitness>
12.0670

> <Gold.Chemscore.DG>
-14.8585

> <Gold.Chemscore.ZeroCoef>
-5.4800

> <Gold.Chemscore.Hbond>
1.0757

> <Gold.Chemscore.Metal>
0.0000

> <Gold.Chemscore.Lipo>
101.3427

> <Gold.Chemscore.Internal_Hbond>
0.0000

> <Gold.Chemscore.DEClash>
1.0012

> <Gold.Chemscore.DEInternal>
1.7903

> <Gold.Chemscore.Rot>
2.3717

> <Gold.Chemscore.Internal.Correction>
   9.000000E+99

> <Gold.Chemscore.Hbonds>
donor molecule, donor type, donor heavy atom, donor atom, acceptor molecule, acceptor atom, score
      L1  H    15    33       P1  7957  1.00

> <Gold.Chemscore.Hbond.Weighted>
-3.5930

> <Gold.Chemscore.Metal.Weighted>
-0.0000

> <Gold.Chemscore.Lipo.Weighted>
-11.8571

> <Gold.Chemscore.Internal_Hbond.Weighted>
0.0000

> <Gold.Chemscore.DEClash.Weighted>
1.0012

> <Gold.Chemscore.DEInternal.Weighted>
1.7903

> <Gold.Chemscore.Rot.Weighted>
6.0715

> <Gold.Chemscore.Internal.Correction.Weighted>
   9.000000E+99

> <Gold.Protein.RotatedTorsions>
[ 6907 6896 6895 6894 ] final -100.82 input  -60.11 | X-H torsion
[ 7974 7965 7964 7962 ] final  142.91 input  175.53 | X-H torsion
[ 8008 7997 7996 7995 ] final  -80.30 input   59.86 | X-H torsion
[ 10167 10162 10161 10158 ] final  -51.29 input  -65.29 | X-H torsion
[ 10718 10713 10712 10709 ] final   75.85 input   66.30 | X-H torsion
[ 10763 10752 10751 10750 ] final   59.45 input  -60.55 | X-H torsion
[ 11005 11000 10999 10996 ] final -138.41 input  -57.11 | X-H torsion

> <Gold.Protein.ActiveResidues>
 VAL166  LYS551  ARG553  GLY616  TRP617  ASP618  TYR619  PRO620  LYS621  CYS622 
 ASP623  PHE694  ASN695  SER759  ASP760  ASP761  ALA762  ILE779  LEU786  VAL792 
 PHE793  MET794  SER795  GLU796  ALA797  LYS798  CYS799  TRP800  GLU811  SER814 

> <Gold.Protein.RotatedAtoms>
  150.7130  134.0828  159.3903 H   0  0  0  0  0  0  0  0  0  0  0  0  # atno 6907 bound_to 6896
  151.8813  135.0450  160.0498 H   0  0  0  0  0  0  0  0  0  0  0  0  # atno 6908 bound_to 6896
  152.2566  133.5225  159.5393 H   0  0  0  0  0  0  0  0  0  0  0  0  # atno 6909 bound_to 6896
  144.8967  139.5481  143.5773 H   0  0  0  0  0  0  0  0  0  0  0  0  # atno 7974 bound_to 7965
  154.5869  140.0665  156.9184 H   0  0  0  0  0  0  0  0  0  0  0  0  # atno 8008 bound_to 7997
  155.2363  140.3341  155.4279 H   0  0  0  0  0  0  0  0  0  0  0  0  # atno 8009 bound_to 7997
  156.2229  140.1806  156.7418 H   0  0  0  0  0  0  0  0  0  0  0  0  # atno 8010 bound_to 7997
  140.6596  143.2625  151.4482 H   0  0  0  0  0  0  0  0  0  0  0  0  # atno 10167 bound_to 10162
  157.6650  130.9746  150.1412 H   0  0  0  0  0  0  0  0  0  0  0  0  # atno 10718 bound_to 10713
  152.9895  135.5571  154.5716 H   0  0  0  0  0  0  0  0  0  0  0  0  # atno 10763 bound_to 10752
  154.5115  135.2802  155.1341 H   0  0  0  0  0  0  0  0  0  0  0  0  # atno 10764 bound_to 10752
  154.2730  135.6359  153.5370 H   0  0  0  0  0  0  0  0  0  0  0  0  # atno 10765 bound_to 10752
  140.8619  134.2158  157.4702 H   0  0  0  0  0  0  0  0  0  0  0  0  # atno 11005 bound_to 11000
  146.3085  139.7663  142.9038 LP  0  0  0  0  0  0  0  0  0  0  0  0  # atno 17320 bound_to 7965
  145.3688  141.0339  143.3243 LP  0  0  0  0  0  0  0  0  0  0  0  0  # atno 17321 bound_to 7965
  139.5826  144.1675  152.1988 LP  0  0  0  0  0  0  0  0  0  0  0  0  # atno 17342 bound_to 10162
  140.1005  144.5543  150.6992 LP  0  0  0  0  0  0  0  0  0  0  0  0  # atno 17343 bound_to 10162
  156.2234  130.3676  149.8529 LP  0  0  0  0  0  0  0  0  0  0  0  0  # atno 17370 bound_to 10713
  156.6375  130.8691  151.3507 LP  0  0  0  0  0  0  0  0  0  0  0  0  # atno 17371 bound_to 10713
  139.8707  134.9733  156.4806 LP  0  0  0  0  0  0  0  0  0  0  0  0  # atno 17394 bound_to 11000
  140.8673  133.8014  155.9327 LP  0  0  0  0  0  0  0  0  0  0  0  0  # atno 17395 bound_to 11000

$$$$
