AV-unprocessed.smi:2424|AV-procd|sdf|9568|dock7
  -GOLD-   2272013203D 1   1.00000     0.00000
 Structure written by MMmdl.
 49 50  0  0  0  0  0  0  0  0  2 V2000
  144.9195  144.9468  156.0555 C   0  0  0  0  0  0  0  0  0  0  0  0
  145.6750  144.4024  154.8330 C   0  0  0  0  0  0  0  0  0  0  0  0
  146.2079  142.9577  154.9721 C   0  0  0  0  0  0  0  0  0  0  0  0
  147.1196  142.6369  153.7580 C   0  0  0  0  0  0  0  0  0  0  0  0
  147.4930  141.1547  153.5903 C   0  0  0  0  0  0  0  0  0  0  0  0
  146.7719  142.6065  156.3758 C   0  0  2  0  0  0  0  0  0  0  0  0
  148.2296  142.5401  156.4439 N   0  0  0  0  0  0  0  0  0  0  0  0
  148.9312  141.8539  157.3555 C   0  0  0  0  0  0  0  0  0  0  0  0
  148.4103  141.1711  158.2367 O   0  0  0  0  0  0  0  0  0  0  0  0
  150.2516  142.0221  157.1647 N   0  0  0  0  0  0  0  0  0  0  0  0
  151.3162  141.5149  157.9200 C   0  0  0  0  0  0  0  0  0  0  0  0
  151.8572  140.2811  157.6200 C   0  0  0  0  0  0  0  0  0  0  0  0
  152.8751  139.6319  158.2252 N   0  5  0  0  0  0  0  0  0  0  0  0
  153.4866  140.2397  159.2821 C   0  0  0  0  0  0  0  0  0  0  0  0
  154.4180  139.7073  159.8848 O   0  0  0  0  0  0  0  0  0  0  0  0
  153.0143  141.5727  159.7079 C   0  0  0  0  0  0  0  0  0  0  0  0
  153.7038  142.2508  160.8795 C   0  0  0  0  0  0  0  0  0  0  0  0
  151.9844  142.1612  159.0494 C   0  0  0  0  0  0  0  0  0  0  0  0
  146.1330  141.2188  156.2725 C   0  0  1  0  0  0  0  0  0  0  0  0
  145.6188  140.5235  157.5267 C   0  0  0  0  0  0  0  0  0  0  0  0
  145.1480  141.8577  155.2807 C   0  0  1  0  0  0  0  0  0  0  0  0
  143.9932  142.3345  155.9621 O   0  0  0  0  0  0  0  0  0  0  0  0
  142.9964  141.3397  156.1253 C   0  0  0  0  0  0  0  0  0  0  0  0
  144.4991  145.9282  155.8354 H   0  0  0  0  0  0  0  0  0  0  0  0
  145.5700  145.0644  156.9214 H   0  0  0  0  0  0  0  0  0  0  0  0
  144.0929  144.2962  156.3370 H   0  0  0  0  0  0  0  0  0  0  0  0
  144.9843  144.4557  153.9913 H   0  0  0  0  0  0  0  0  0  0  0  0
  146.4778  145.0914  154.5742 H   0  0  0  0  0  0  0  0  0  0  0  0
  146.6736  142.9971  152.8314 H   0  0  0  0  0  0  0  0  0  0  0  0
  148.0543  143.1913  153.8400 H   0  0  0  0  0  0  0  0  0  0  0  0
  148.2274  141.0354  152.7936 H   0  0  0  0  0  0  0  0  0  0  0  0
  146.6303  140.5461  153.3208 H   0  0  0  0  0  0  0  0  0  0  0  0
  147.9275  140.7418  154.5004 H   0  0  0  0  0  0  0  0  0  0  0  0
  146.3066  143.1966  157.1693 H   0  0  0  0  0  0  0  0  0  0  0  0
  148.7414  143.0694  155.7536 H   0  0  0  0  0  0  0  0  0  0  0  0
  150.5246  142.5926  156.3779 H   0  0  0  0  0  0  0  0  0  0  0  0
  151.4006  139.7313  156.7686 H   0  0  0  0  0  0  0  0  0  0  0  0
  153.2680  143.2284  161.0872 H   0  0  0  0  0  0  0  0  0  0  0  0
  154.7640  142.3929  160.6680 H   0  0  0  0  0  0  0  0  0  0  0  0
  153.6105  141.6425  161.7797 H   0  0  0  0  0  0  0  0  0  0  0  0
  151.6725  143.1373  159.3829 H   0  0  0  0  0  0  0  0  0  0  0  0
  146.7904  140.5443  155.7203 H   0  0  0  0  0  0  0  0  0  0  0  0
  145.0008  141.1883  158.1307 H   0  0  0  0  0  0  0  0  0  0  0  0
  146.4445  140.1872  158.1539 H   0  0  0  0  0  0  0  0  0  0  0  0
  145.0176  139.6499  157.2745 H   0  0  0  0  0  0  0  0  0  0  0  0
  144.9149  141.1877  154.4513 H   0  0  0  0  0  0  0  0  0  0  0  0
  142.1217  141.7742  156.6088 H   0  0  0  0  0  0  0  0  0  0  0  0
  143.3584  140.5258  156.7546 H   0  0  0  0  0  0  0  0  0  0  0  0
  142.6809  140.9236  155.1686 H   0  0  0  0  0  0  0  0  0  0  0  0
  1  2  1  0  0  0  0
  1 24  1  0  0  0  0
  1 25  1  0  0  0  0
  1 26  1  0  0  0  0
  2  3  1  0  0  0  0
  2 27  1  0  0  0  0
  2 28  1  0  0  0  0
  3 21  1  0  0  0  0
  3  4  1  0  0  0  0
  3  6  1  0  0  0  0
  4  5  1  0  0  0  0
  4 29  1  0  0  0  0
  4 30  1  0  0  0  0
  5 31  1  0  0  0  0
  5 32  1  0  0  0  0
  5 33  1  0  0  0  0
  6  7  1  0  0  0  0
  6 19  1  0  0  0  0
  6 34  1  0  0  0  0
  7  8  1  0  0  0  0
  7 35  1  0  0  0  0
  8  9  2  0  0  0  0
  8 10  1  0  0  0  0
 10 11  1  0  0  0  0
 10 36  1  0  0  0  0
 11 18  1  0  0  0  0
 11 12  2  0  0  0  0
 12 13  1  0  0  0  0
 12 37  1  0  0  0  0
 13 14  1  0  0  0  0
 14 15  2  0  0  0  0
 14 16  1  0  0  0  0
 16 17  1  0  0  0  0
 16 18  2  0  0  0  0
 17 38  1  0  0  0  0
 17 39  1  0  0  0  0
 17 40  1  0  0  0  0
 18 41  1  0  0  0  0
 19 20  1  0  0  0  0
 19 21  1  0  0  0  0
 19 42  1  0  0  0  0
 20 43  1  0  0  0  0
 20 44  1  0  0  0  0
 20 45  1  0  0  0  0
 21 22  1  0  0  0  0
 21 46  1  0  0  0  0
 22 23  1  0  0  0  0
 23 47  1  0  0  0  0
 23 48  1  0  0  0  0
 23 49  1  0  0  0  0
M  CHG  1  13  -1
M  END
> <s_m_source_file>
AV-unprocessed.smi

> <i_m_source_file_index>
2424

> <i_lp_mmshare_version>
43012

> <i_f3d_flags>
0

> <s_epik_input>
W0NIM11PW0NAQEhdMVtDQEhdKFtDSDNdKVtDQEBIXShDMShbQ0gyXVtDSDNdKVtDSDJdW0NIM10pW05IXUMoPU8pW05IXWMyW2NIXVtuSF1jKD1PKWMoW0NIM10pW2NIXTI=

> <s_epik_cmdline>
J2VwaWtfcHl0aG9uJywgJy1waCcsICc3LjAnLCAnLXRuJywgJzgnLCAnLW1hJywgJzIwMCcsICctbWV0YWxfYmluZGluZycsICctaW1hZScsICc8aW5maWxlLm1hZT4nLCAnLW9tYWUnLCAnPG91dGZpbGUubWFlPic=

> <r_lp_tautomer_probability>
1

> <r_epik_Ionization_Penalty>
7.6122

> <r_epik_Ionization_Penalty_Charging>
1.53843

> <r_epik_Ionization_Penalty_Neutral>
6.07377

> <r_epik_State_Penalty>
6.07371

> <r_epik_Charging_Adjusted_Penalty>
7.61214

> <i_epik_Tot_Q>
-1

> <i_epik_Tot_abs_Q>
1

> <r_epik_Metal_State_Penalty>
2.02136

> <b_epik_Metal_Only>
1

> <s_lp_Force_Field>
OPLS_2005

> <r_lp_Energy>
41.6495

> <b_lp_Chiralities_Consistent>
1

> <s_lp_Variant>
AV-unprocessed.smi:2424-10

> <Gold.Version>
5.8.1

> <Gold.Id.Protein>
6NUR|6NUR_protein|mol2

> <Gold.PLP.Fitness>
39.9846

> <Gold.PLP.PLP>
-33.0228

> <Gold.PLP.part.hbond>
-3.0000

> <Gold.PLP.part.metal>
0.0000

> <Gold.PLP.part.buried>
-5.9476

> <Gold.PLP.part.nonpolar>
-24.4794

> <Gold.PLP.part.repulsive>
0.1576

> <Gold.PLP.ligand.clash>
0.0000

> <Gold.PLP.ligand.torsion>
1.3742

> <Gold.PLP.Chemscore.Hbond>
3.0000

> <Gold.PLP.Chemscore.CHOScore>
0.0000

> <Gold.PLP.Chemscore.Metal>
0.0000

> <Gold.Chemscore.Hbonds>
donor molecule, donor type, donor heavy atom, donor atom, acceptor molecule, acceptor atom, score
      L1  H     7    35       P1  8028  0.54
      P1  H  7997  8008       L1    13  1.02

> <Gold.PLP.Chemscore.Internal.Correction>
0.7103

> <Gold.Rescore>
     Score         DG    S(hbond)    S(metal)    S(lipo)     H(rot)  DE(clash)    DE(int)     intcor
      8.55     -14.64       1.36        0.00      72.79       1.52       0.36       5.72       ----

> <Gold.Chemscore.Fitness>
8.5549

> <Gold.Chemscore.DG>
-14.6369

> <Gold.Chemscore.ZeroCoef>
-5.4800

> <Gold.Chemscore.Hbond>
1.3569

> <Gold.Chemscore.Metal>
0.0000

> <Gold.Chemscore.Lipo>
72.7945

> <Gold.Chemscore.Internal_Hbond>
0.0000

> <Gold.Chemscore.DEClash>
0.3639

> <Gold.Chemscore.DEInternal>
5.7180

> <Gold.Chemscore.Rot>
1.5204

> <Gold.Chemscore.Internal.Correction>
   9.000000E+99

> <Gold.Chemscore.Hbonds>
donor molecule, donor type, donor heavy atom, donor atom, acceptor molecule, acceptor atom, score
      L1  H     7    35       P1  8028  0.54
      P1  H  7997  8008       L1    13  0.01

> <Gold.Chemscore.Hbond.Weighted>
-4.5322

> <Gold.Chemscore.Metal.Weighted>
-0.0000

> <Gold.Chemscore.Lipo.Weighted>
-8.5170

> <Gold.Chemscore.Internal_Hbond.Weighted>
0.0000

> <Gold.Chemscore.DEClash.Weighted>
0.3639

> <Gold.Chemscore.DEInternal.Weighted>
5.7180

> <Gold.Chemscore.Rot.Weighted>
3.8922

> <Gold.Chemscore.Internal.Correction.Weighted>
   9.000000E+99

> <Gold.Protein.RotatedTorsions>
[ 6907 6896 6895 6894 ] final  -59.83 input  -60.11 | X-H torsion
[ 7974 7965 7964 7962 ] final -121.61 input  175.53 | X-H torsion
[ 8008 7997 7996 7995 ] final  -73.40 input   59.86 | X-H torsion
[ 10167 10162 10161 10158 ] final -111.82 input  -65.29 | X-H torsion
[ 10718 10713 10712 10709 ] final  118.45 input   66.30 | X-H torsion
[ 10763 10752 10751 10750 ] final  -27.87 input  -60.55 | X-H torsion
[ 11005 11000 10999 10996 ] final -103.98 input  -57.11 | X-H torsion

> <Gold.Protein.ActiveResidues>
 VAL166  LYS551  ARG553  GLY616  TRP617  ASP618  TYR619  PRO620  LYS621  CYS622 
 ASP623  PHE694  ASN695  SER759  ASP760  ASP761  ALA762  ILE779  LEU786  VAL792 
 PHE793  MET794  SER795  GLU796  ALA797  LYS798  CYS799  TRP800  GLU811  SER814 

> <Gold.Protein.RotatedAtoms>
  150.7901  134.6917  159.6500 H   0  0  0  0  0  0  0  0  0  0  0  0  # atno 6907 bound_to 6896
  152.4005  134.6291  160.0080 H   0  0  0  0  0  0  0  0  0  0  0  0  # atno 6908 bound_to 6896
  151.6564  133.3282  159.3200 H   0  0  0  0  0  0  0  0  0  0  0  0  # atno 6909 bound_to 6896
  145.0385  140.8125  143.4281 H   0  0  0  0  0  0  0  0  0  0  0  0  # atno 7974 bound_to 7965
  154.5244  140.0780  156.8232 H   0  0  0  0  0  0  0  0  0  0  0  0  # atno 8008 bound_to 7997
  155.3506  140.3412  155.4221 H   0  0  0  0  0  0  0  0  0  0  0  0  # atno 8009 bound_to 7997
  156.1716  140.1621  156.8424 H   0  0  0  0  0  0  0  0  0  0  0  0  # atno 8010 bound_to 7997
  140.1294  143.4373  152.1637 H   0  0  0  0  0  0  0  0  0  0  0  0  # atno 10167 bound_to 10162
  157.6029  131.1048  150.7758 H   0  0  0  0  0  0  0  0  0  0  0  0  # atno 10718 bound_to 10713
  153.7392  135.6933  153.4971 H   0  0  0  0  0  0  0  0  0  0  0  0  # atno 10763 bound_to 10752
  153.2081  135.4412  155.0346 H   0  0  0  0  0  0  0  0  0  0  0  0  # atno 10764 bound_to 10752
  154.8226  135.3430  154.6918 H   0  0  0  0  0  0  0  0  0  0  0  0  # atno 10765 bound_to 10752
  141.1121  133.8685  157.1554 H   0  0  0  0  0  0  0  0  0  0  0  0  # atno 11005 bound_to 11000
  145.1679  139.2421  143.5357 LP  0  0  0  0  0  0  0  0  0  0  0  0  # atno 17320 bound_to 7965
  146.3507  140.1422  142.8594 LP  0  0  0  0  0  0  0  0  0  0  0  0  # atno 17321 bound_to 7965
  139.5527  144.7350  151.4386 LP  0  0  0  0  0  0  0  0  0  0  0  0  # atno 17342 bound_to 10162
  140.6825  143.8048  150.7141 LP  0  0  0  0  0  0  0  0  0  0  0  0  # atno 17343 bound_to 10162
  156.8152  130.4966  149.5350 LP  0  0  0  0  0  0  0  0  0  0  0  0  # atno 17370 bound_to 10713
  156.1107  130.6038  151.0043 LP  0  0  0  0  0  0  0  0  0  0  0  0  # atno 17371 bound_to 10713
  140.0021  135.0023  157.0213 LP  0  0  0  0  0  0  0  0  0  0  0  0  # atno 17394 bound_to 11000
  140.4746  134.1351  155.7208 LP  0  0  0  0  0  0  0  0  0  0  0  0  # atno 17395 bound_to 11000

$$$$
