AV-unprocessed.smi:1464|AV-procd|sdf|5935|dock9
  -GOLD-   22720 6 13D 1   1.00000     0.00000
 Structure written by MMmdl.
 40 41  0  0  0  0  0  0  0  0  2 V2000
  151.1019  145.5492  160.4447 C   0  0  0  0  0  0  0  0  0  0  0  0
  151.6955  144.1322  160.3510 C   0  0  2  0  0  0  0  0  0  0  0  0
  152.2670  143.7144  161.7217 C   0  0  0  0  0  0  0  0  0  0  0  0
  152.8635  142.3005  161.6968 C   0  0  0  0  0  0  0  0  0  0  0  0
  153.9325  142.1706  160.6011 C   0  0  0  0  0  0  0  0  0  0  0  0
  153.3871  142.5682  159.2171 C   0  0  1  0  0  0  0  0  0  0  0  0
  152.4164  141.5678  158.7687 N   0  0  0  0  0  0  0  0  0  0  0  0
  152.6639  140.2726  158.5190 C   0  0  0  0  0  0  0  0  0  0  0  0
  153.7681  139.7493  158.6719 O   0  0  0  0  0  0  0  0  0  0  0  0
  151.4699  139.4423  158.0297 C   0  0  0  0  0  0  0  0  0  0  0  0
  151.5603  139.1024  156.6030 N   0  0  0  0  0  0  0  0  0  0  0  0
  152.9264  138.9180  156.1217 N   0  5  0  0  0  0  0  0  0  0  0  0
  153.1323  138.6218  154.8109 C   0  0  0  0  0  0  0  0  0  0  0  0
  154.2530  138.4747  154.3289 O   0  0  0  0  0  0  0  0  0  0  0  0
  151.9691  138.4702  153.9525 C   0  0  0  0  0  0  0  0  0  0  0  0
  150.7179  138.6203  154.4299 C   0  0  0  0  0  0  0  0  0  0  0  0
  150.4505  138.9469  155.8250 C   0  0  0  0  0  0  0  0  0  0  0  0
  149.3092  139.0739  156.2702 O   0  0  0  0  0  0  0  0  0  0  0  0
  152.7804  143.9986  159.2458 C   0  0  1  0  0  0  0  0  0  0  0  0
  152.2856  144.4437  157.8548 C   0  0  0  0  0  0  0  0  0  0  0  0
  151.8800  146.2957  160.6060 H   0  0  0  0  0  0  0  0  0  0  0  0
  150.3949  145.6235  161.2713 H   0  0  0  0  0  0  0  0  0  0  0  0
  150.5572  145.8193  159.5403 H   0  0  0  0  0  0  0  0  0  0  0  0
  150.8753  143.4544  160.1101 H   0  0  0  0  0  0  0  0  0  0  0  0
  153.0366  144.4239  162.0288 H   0  0  0  0  0  0  0  0  0  0  0  0
  151.4860  143.7619  162.4814 H   0  0  0  0  0  0  0  0  0  0  0  0
  153.3000  142.0662  162.6681 H   0  0  0  0  0  0  0  0  0  0  0  0
  152.0708  141.5697  161.5333 H   0  0  0  0  0  0  0  0  0  0  0  0
  154.7794  142.8112  160.8501 H   0  0  0  0  0  0  0  0  0  0  0  0
  154.3208  141.1515  160.5767 H   0  0  0  0  0  0  0  0  0  0  0  0
  154.2349  142.5699  158.5296 H   0  0  0  0  0  0  0  0  0  0  0  0
  151.4750  141.8970  158.6122 H   0  0  0  0  0  0  0  0  0  0  0  0
  151.4176  138.5386  158.6394 H   0  0  0  0  0  0  0  0  0  0  0  0
  150.5364  139.9766  158.2167 H   0  0  0  0  0  0  0  0  0  0  0  0
  152.1111  138.2285  152.9094 H   0  0  0  0  0  0  0  0  0  0  0  0
  149.8826  138.4964  153.7568 H   0  0  0  0  0  0  0  0  0  0  0  0
  153.5947  144.6753  159.5101 H   0  0  0  0  0  0  0  0  0  0  0  0
  151.3760  143.9187  157.5629 H   0  0  0  0  0  0  0  0  0  0  0  0
  153.0402  144.2508  157.0918 H   0  0  0  0  0  0  0  0  0  0  0  0
  152.0751  145.5123  157.8260 H   0  0  0  0  0  0  0  0  0  0  0  0
  1  2  1  0  0  0  0
  1 21  1  0  0  0  0
  1 22  1  0  0  0  0
  1 23  1  0  0  0  0
  2 19  1  0  0  0  0
  2  3  1  0  0  0  0
  2 24  1  0  0  0  0
  3  4  1  0  0  0  0
  3 25  1  0  0  0  0
  3 26  1  0  0  0  0
  4  5  1  0  0  0  0
  4 27  1  0  0  0  0
  4 28  1  0  0  0  0
  5  6  1  0  0  0  0
  5 29  1  0  0  0  0
  5 30  1  0  0  0  0
  6  7  1  0  0  0  0
  6 19  1  0  0  0  0
  6 31  1  0  0  0  0
  7  8  1  0  0  0  0
  7 32  1  0  0  0  0
  8  9  2  0  0  0  0
  8 10  1  0  0  0  0
 10 33  1  0  0  0  0
 10 34  1  0  0  0  0
 10 11  1  0  0  0  0
 11 12  1  0  0  0  0
 11 17  1  0  0  0  0
 12 13  1  0  0  0  0
 13 14  2  0  0  0  0
 13 15  1  0  0  0  0
 15 35  1  0  0  0  0
 15 16  2  0  0  0  0
 16 36  1  0  0  0  0
 16 17  1  0  0  0  0
 17 18  2  0  0  0  0
 19 20  1  0  0  0  0
 19 37  1  0  0  0  0
 20 38  1  0  0  0  0
 20 39  1  0  0  0  0
 20 40  1  0  0  0  0
M  CHG  1  12  -1
M  END
> <s_m_source_file>
AV-unprocessed.smi

> <i_m_source_file_index>
1464

> <i_lp_mmshare_version>
43012

> <i_f3d_flags>
0

> <s_epik_input>
W0NIM11bQ0BASF0xW0NIMl1bQ0gyXVtDSDJdW0NASF0oW0NASF0xW0NIM10pW05IXUMoPU8pW0NIMl1uMltuSF1jKD1PKVtjSF1bY0hdYzI9Tw==

> <s_epik_cmdline>
J2VwaWtfcHl0aG9uJywgJy1waCcsICc3LjAnLCAnLXRuJywgJzgnLCAnLW1hJywgJzIwMCcsICctbWV0YWxfYmluZGluZycsICctaW1hZScsICc8aW5maWxlLm1hZT4nLCAnLW9tYWUnLCAnPG91dGZpbGUubWFlPic=

> <r_lp_tautomer_probability>
1

> <r_epik_Ionization_Penalty>
0.101366

> <r_epik_Ionization_Penalty_Charging>
0.101366

> <r_epik_Ionization_Penalty_Neutral>
1.90469e-08

> <r_epik_State_Penalty>
0.035861

> <r_epik_Charging_Adjusted_Penalty>
0.137227

> <i_epik_Tot_Q>
-1

> <i_epik_Tot_abs_Q>
1

> <r_epik_Metal_State_Penalty>
0.035861

> <b_epik_Metal_Only>
0

> <s_lp_Force_Field>
OPLS_2005

> <r_lp_Energy>
26.1624

> <b_lp_Chiralities_Consistent>
1

> <s_lp_Variant>
AV-unprocessed.smi:1464-1

> <Gold.Version>
5.8.1

> <Gold.Id.Protein>
6NUR|6NUR_protein|mol2

> <Gold.PLP.Fitness>
51.1429

> <Gold.PLP.PLP>
-46.2284

> <Gold.PLP.part.hbond>
-3.6778

> <Gold.PLP.part.metal>
0.0000

> <Gold.PLP.part.buried>
-5.7596

> <Gold.PLP.part.nonpolar>
-37.4331

> <Gold.PLP.part.repulsive>
0.0994

> <Gold.PLP.ligand.clash>
0.0000

> <Gold.PLP.ligand.torsion>
0.5474

> <Gold.PLP.Chemscore.Hbond>
2.0000

> <Gold.PLP.Chemscore.CHOScore>
0.0000

> <Gold.PLP.Chemscore.Metal>
0.0000

> <Gold.Chemscore.Hbonds>
donor molecule, donor type, donor heavy atom, donor atom, acceptor molecule, acceptor atom, score
      P1  H  7997  8008       L1    12  2.00

> <Gold.PLP.Chemscore.Internal.Correction>
0.0093

> <Gold.Rescore>
     Score         DG    S(hbond)    S(metal)    S(lipo)     H(rot)  DE(clash)    DE(int)     intcor
     18.00     -19.74       1.55        0.00     113.57       1.64       0.22       1.52       ----

> <Gold.Chemscore.Fitness>
18.0024

> <Gold.Chemscore.DG>
-19.7388

> <Gold.Chemscore.ZeroCoef>
-5.4800

> <Gold.Chemscore.Hbond>
1.5505

> <Gold.Chemscore.Metal>
0.0000

> <Gold.Chemscore.Lipo>
113.5730

> <Gold.Chemscore.Internal_Hbond>
0.0000

> <Gold.Chemscore.DEClash>
0.2153

> <Gold.Chemscore.DEInternal>
1.5212

> <Gold.Chemscore.Rot>
1.6438

> <Gold.Chemscore.Internal.Correction>
   9.000000E+99

> <Gold.Chemscore.Hbonds>
donor molecule, donor type, donor heavy atom, donor atom, acceptor molecule, acceptor atom, score
      P1  H  7997  8008       L1    12  0.43

> <Gold.Chemscore.Hbond.Weighted>
-5.1788

> <Gold.Chemscore.Metal.Weighted>
-0.0000

> <Gold.Chemscore.Lipo.Weighted>
-13.2880

> <Gold.Chemscore.Internal_Hbond.Weighted>
0.0000

> <Gold.Chemscore.DEClash.Weighted>
0.2153

> <Gold.Chemscore.DEInternal.Weighted>
1.5212

> <Gold.Chemscore.Rot.Weighted>
4.2080

> <Gold.Chemscore.Internal.Correction.Weighted>
   9.000000E+99

> <Gold.Protein.RotatedTorsions>
[ 6907 6896 6895 6894 ] final   24.16 input  -60.11 | X-H torsion
[ 7974 7965 7964 7962 ] final  163.65 input  175.53 | X-H torsion
[ 8008 7997 7996 7995 ] final  -58.93 input   59.86 | X-H torsion
[ 10167 10162 10161 10158 ] final  128.54 input  -65.29 | X-H torsion
[ 10718 10713 10712 10709 ] final -107.22 input   66.30 | X-H torsion
[ 10763 10752 10751 10750 ] final   52.08 input  -60.55 | X-H torsion
[ 11005 11000 10999 10996 ] final  -80.84 input  -57.11 | X-H torsion

> <Gold.Protein.ActiveResidues>
 VAL166  LYS551  ARG553  GLY616  TRP617  ASP618  TYR619  PRO620  LYS621  CYS622 
 ASP623  PHE694  ASN695  SER759  ASP760  ASP761  ALA762  ILE779  LEU786  VAL792 
 PHE793  MET794  SER795  GLU796  ALA797  LYS798  CYS799  TRP800  GLU811  SER814 

> <Gold.Protein.RotatedAtoms>
  151.9532  135.0159  160.0543 H   0  0  0  0  0  0  0  0  0  0  0  0  # atno 6907 bound_to 6896
  152.1934  133.4785  159.5028 H   0  0  0  0  0  0  0  0  0  0  0  0  # atno 6908 bound_to 6896
  150.6939  134.1600  159.4215 H   0  0  0  0  0  0  0  0  0  0  0  0  # atno 6909 bound_to 6896
  144.7580  139.8212  143.6343 H   0  0  0  0  0  0  0  0  0  0  0  0  # atno 7974 bound_to 7965
  154.4330  140.1073  156.6036 H   0  0  0  0  0  0  0  0  0  0  0  0  # atno 8008 bound_to 7997
  155.5885  140.3492  155.4541 H   0  0  0  0  0  0  0  0  0  0  0  0  # atno 8009 bound_to 7997
  156.0264  140.1251  157.0293 H   0  0  0  0  0  0  0  0  0  0  0  0  # atno 8010 bound_to 7997
  139.5522  144.6822  151.4290 H   0  0  0  0  0  0  0  0  0  0  0  0  # atno 10167 bound_to 10162
  156.0426  130.5652  150.7791 H   0  0  0  0  0  0  0  0  0  0  0  0  # atno 10718 bound_to 10713
  152.9787  135.5824  154.4519 H   0  0  0  0  0  0  0  0  0  0  0  0  # atno 10763 bound_to 10752
  154.4107  135.2770  155.2040 H   0  0  0  0  0  0  0  0  0  0  0  0  # atno 10764 bound_to 10752
  154.3832  135.6142  153.5856 H   0  0  0  0  0  0  0  0  0  0  0  0  # atno 10765 bound_to 10752
  141.1667  133.7169  156.8333 H   0  0  0  0  0  0  0  0  0  0  0  0  # atno 11005 bound_to 11000
  146.1613  139.4728  142.9987 LP  0  0  0  0  0  0  0  0  0  0  0  0  # atno 17320 bound_to 7965
  145.6713  141.0216  143.1656 LP  0  0  0  0  0  0  0  0  0  0  0  0  # atno 17321 bound_to 7965
  140.6787  143.8131  150.7092 LP  0  0  0  0  0  0  0  0  0  0  0  0  # atno 17342 bound_to 10162
  140.1578  143.4302  152.2088 LP  0  0  0  0  0  0  0  0  0  0  0  0  # atno 17343 bound_to 10162
  157.5263  131.0934  151.0013 LP  0  0  0  0  0  0  0  0  0  0  0  0  # atno 17370 bound_to 10713
  157.0330  130.5719  149.5346 LP  0  0  0  0  0  0  0  0  0  0  0  0  # atno 17371 bound_to 10713
  140.2035  134.8879  157.3196 LP  0  0  0  0  0  0  0  0  0  0  0  0  # atno 17394 bound_to 11000
  140.2162  134.4079  155.7588 LP  0  0  0  0  0  0  0  0  0  0  0  0  # atno 17395 bound_to 11000

$$$$
