#       Name:                AV-unprocessed.smi:3156
#       Creating user name   scv26
#       Creation time:       Fri Mar 27 17:45:06 2020


#       File generated by GOLD software.
#

@<TRIPOS>MOLECULE
AV-unprocessed.smi:3156
    44    45     1
SMALL
NO_CHARGES


@<TRIPOS>ATOM
      1 ****        -1.9560  -0.9973   2.0458 C.3            1 S1                 0.0000
      2 ****        -1.4230  -0.3050   0.7785 C.3            1 S1                 0.0000
      3 ****         0.0556  -0.2830   0.8379 N.4            1 S1                 1.0000
      4 ****         0.6684   1.0494   0.6540 C.3            1 S1                 0.0000
      5 ****         2.2014   0.9621   0.6222 C.3            1 S1                 0.0000
      6 ****         2.7284   0.2834  -0.6596 C.3            1 S1                 0.0000
      7 ****         4.2608   0.3105  -0.6946 C.3            1 S1                 0.0000
      8 ****         4.7569   1.7463  -0.4951 C.3            1 S1                 0.0000
      9 ****         4.1296   2.3567   0.7680 C.3            1 S1                 0.0000
     10 ****         2.7087   2.2928   0.6844 O.3            1 S1                 0.0000
     11 ****        -1.9052  -0.9868  -0.5314 C.3            1 S1                 0.0000
     12 ****        -1.4612  -0.2370  -1.8021 C.3            1 S1                 0.0000
     13 ****        -3.3499  -1.1780  -0.5492 N.pl3          1 S1                 0.0000
     14 ****        -4.0547  -2.3616  -0.6311 C.2            1 S1                 0.0000
     15 ****        -5.3834  -2.0471  -0.6237 C.2            1 S1                 0.0000
     16 ****        -5.3946  -0.6273  -0.5364 C.2            1 S1                 0.0000
     17 ****        -4.1777  -0.1100  -0.4934 N.2            1 S1                 0.0000
     18 ****        -3.0433  -0.9507   2.1084 H              1 S1                 0.0000
     19 ****        -1.5654  -0.5192   2.9447 H              1 S1                 0.0000
     20 ****        -1.6653  -2.0480   2.0751 H              1 S1                 0.0000
     21 ****        -1.7941   0.7216   0.7965 H              1 S1                 0.0000
     22 ****         0.3396  -0.6314   1.7424 H              1 S1                 0.0000
     23 ****         0.2994   1.5150  -0.2604 H              1 S1                 0.0000
     24 ****         0.3543   1.6854   1.4827 H              1 S1                 0.0000
     25 ****         2.5444   0.4164   1.5033 H              1 S1                 0.0000
     26 ****         2.3765  -0.7468  -0.7214 H              1 S1                 0.0000
     27 ****         2.3363   0.7995  -1.5371 H              1 S1                 0.0000
     28 ****         4.6585  -0.3285   0.0950 H              1 S1                 0.0000
     29 ****         4.6280  -0.0916  -1.6394 H              1 S1                 0.0000
     30 ****         5.8448   1.7637  -0.4235 H              1 S1                 0.0000
     31 ****         4.4910   2.3510  -1.3629 H              1 S1                 0.0000
     32 ****         4.4761   1.8391   1.6639 H              1 S1                 0.0000
     33 ****         4.4299   3.3999   0.8684 H              1 S1                 0.0000
     34 ****        -1.4614  -1.9830  -0.5708 H              1 S1                 0.0000
     35 ****        -0.3756  -0.2190  -1.8986 H              1 S1                 0.0000
     36 ****        -1.8129   0.7952  -1.8013 H              1 S1                 0.0000
     37 ****        -1.8544  -0.7198  -2.6975 H              1 S1                 0.0000
     38 ****        -3.5582  -3.3192  -0.6876 H              1 S1                 0.0000
     39 ****        -6.2205  -2.7276  -0.6754 H              1 S1                 0.0000
     40 ****        -6.2443   0.0386  -0.5049 H              1 S1                 0.0000
     41 ****         0.4109  -0.9074   0.1280 H              1 S1                 0.0000
     42 ****         2.3238   2.7407   1.4913 LP             1 S1                 0.0000
     43 ****         2.4179   2.7810  -0.1385 LP             1 S1                 0.0000
     44 ****        -3.9259   0.8559  -0.4331 LP             1 S1                 0.0000
@<TRIPOS>BOND
    1    1    2 1     
    2    1   18 1     
    3    1   19 1     
    4    1   20 1     
    5    2    3 1     
    6    2   11 1     
    7    2   21 1     
    8    3    4 1     
    9    3   22 1     
   10    3   41 1     
   11    4    5 1     
   12    4   23 1     
   13    4   24 1     
   14    5   10 1     
   15    5    6 1     
   16    5   25 1     
   17    6    7 1     
   18    6   26 1     
   19    6   27 1     
   20    7    8 1     
   21    7   28 1     
   22    7   29 1     
   23    8    9 1     
   24    8   30 1     
   25    8   31 1     
   26    9   10 1     
   27    9   32 1     
   28    9   33 1     
   29   11   12 1     
   30   11   13 1     
   31   11   34 1     
   32   12   35 1     
   33   12   36 1     
   34   12   37 1     
   35   13   17 1     
   36   13   14 1     
   37   14   15 2     
   38   14   38 1     
   39   15   16 1     
   40   15   39 1     
   41   16   17 2     
   42   16   40 1     
   43   10   42 1     
   44   10   43 1     
   45   17   44 1     
@<TRIPOS>SUBSTRUCTURE
      1 S1             1
@<TRIPOS>SET
LONE_PAIRS      STATIC     ATOMS    <user>   **** ""
3 42 43 44
DONOR_HYDROGENS      STATIC     ATOMS    <user>   **** ""
2 22 41
ATOM$BLUE        STATIC     ATOMS    COLORGROUP SYSTEM
3 42 43 44
ATOM$RED        STATIC     ATOMS    COLORGROUP SYSTEM
2 22 41
