AV-unprocessed.smi:835|AV-procd|sdf|3887|dock3
  -GOLD-   22720 1343D 1   1.00000     0.00000
 Structure written by MMmdl.
 41 43  0  0  0  0  0  0  0  0  2 V2000
  153.3042  142.2397  162.8412 C   0  0  0  0  0  0  0  0  0  0  0  0
  152.7275  142.8277  161.5874 C   0  0  0  0  0  0  0  0  0  0  0  0
  152.3510  142.1486  160.3921 C   0  0  0  0  0  0  0  0  0  0  0  0
  151.8922  143.1656  159.6003 C   0  0  0  0  0  0  0  0  0  0  0  0
  151.4037  143.1083  158.3328 N   0  0  0  0  0  0  0  0  0  0  0  0
  151.3411  142.0510  157.5047 C   0  0  0  0  0  0  0  0  0  0  0  0
  151.7295  140.9125  157.7664 O   0  0  0  0  0  0  0  0  0  0  0  0
  150.7841  142.3852  156.3321 N   0  0  0  0  0  0  0  0  0  0  0  0
  150.5532  141.4571  155.2302 C   0  0  1  0  0  0  0  0  0  0  0  0
  150.0473  140.0792  155.6626 C   0  0  0  0  0  0  0  0  0  0  0  0
  149.2191  139.5830  154.4656 C   0  0  0  0  0  0  0  0  0  0  0  0
  149.0510  140.7365  153.5499 N   0  3  1  0  0  0  0  0  0  0  0  0
  147.7153  140.8253  152.9232 C   0  0  0  0  0  0  0  0  0  0  0  0
  146.7812  141.7824  153.6239 C   0  0  0  0  0  0  0  0  0  0  0  0
  146.6030  140.2890  153.7921 C   0  0  0  0  0  0  0  0  0  0  0  0
  149.4409  141.9407  154.3052 C   0  0  0  0  0  0  0  0  0  0  0  0
  152.0032  144.3520  160.2906 N   0  0  0  0  0  0  0  0  0  0  0  0
  151.6495  145.6957  159.8760 C   0  0  0  0  0  0  0  0  0  0  0  0
  152.5172  144.1377  161.5209 N   0  0  0  0  0  0  0  0  0  0  0  0
  153.5501  141.1863  162.7051 H   0  0  0  0  0  0  0  0  0  0  0  0
  152.5973  142.3112  163.6678 H   0  0  0  0  0  0  0  0  0  0  0  0
  154.2172  142.7575  163.1362 H   0  0  0  0  0  0  0  0  0  0  0  0
  152.4167  141.0933  160.1740 H   0  0  0  0  0  0  0  0  0  0  0  0
  151.0234  143.9744  157.9807 H   0  0  0  0  0  0  0  0  0  0  0  0
  150.4933  143.3426  156.1971 H   0  0  0  0  0  0  0  0  0  0  0  0
  151.4688  141.3407  154.6464 H   0  0  0  0  0  0  0  0  0  0  0  0
  150.8603  139.3996  155.9206 H   0  0  0  0  0  0  0  0  0  0  0  0
  149.4017  140.1700  156.5377 H   0  0  0  0  0  0  0  0  0  0  0  0
  149.7295  138.7793  153.9342 H   0  0  0  0  0  0  0  0  0  0  0  0
  148.2574  139.1960  154.8060 H   0  0  0  0  0  0  0  0  0  0  0  0
  147.6772  140.7098  151.8413 H   0  0  0  0  0  0  0  0  0  0  0  0
  147.1612  142.3430  154.4763 H   0  0  0  0  0  0  0  0  0  0  0  0
  146.0480  142.3057  153.0131 H   0  0  0  0  0  0  0  0  0  0  0  0
  145.7528  139.8293  153.2923 H   0  0  0  0  0  0  0  0  0  0  0  0
  146.8638  139.8576  154.7569 H   0  0  0  0  0  0  0  0  0  0  0  0
  148.5902  142.3031  154.8860 H   0  0  0  0  0  0  0  0  0  0  0  0
  149.7662  142.7417  153.6406 H   0  0  0  0  0  0  0  0  0  0  0  0
  150.5666  145.7738  159.7780 H   0  0  0  0  0  0  0  0  0  0  0  0
  152.1122  145.9173  158.9142 H   0  0  0  0  0  0  0  0  0  0  0  0
  151.9926  146.4272  160.6089 H   0  0  0  0  0  0  0  0  0  0  0  0
  149.7335  140.6231  152.8139 H   0  0  0  0  0  0  0  0  0  0  0  0
  1  2  1  0  0  0  0
  1 20  1  0  0  0  0
  1 21  1  0  0  0  0
  1 22  1  0  0  0  0
  2 19  2  0  0  0  0
  2  3  1  0  0  0  0
  3  4  2  0  0  0  0
  3 23  1  0  0  0  0
  4  5  1  0  0  0  0
  4 17  1  0  0  0  0
  5  6  1  0  0  0  0
  5 24  1  0  0  0  0
  6  7  2  0  0  0  0
  6  8  1  0  0  0  0
  8  9  1  0  0  0  0
  8 25  1  0  0  0  0
  9 16  1  0  0  0  0
  9 10  1  0  0  0  0
  9 26  1  0  0  0  0
 10 11  1  0  0  0  0
 10 27  1  0  0  0  0
 10 28  1  0  0  0  0
 11 12  1  0  0  0  0
 11 29  1  0  0  0  0
 11 30  1  0  0  0  0
 12 13  1  0  0  0  0
 12 16  1  0  0  0  0
 12 41  1  0  0  0  0
 13 15  1  0  0  0  0
 13 14  1  0  0  0  0
 13 31  1  0  0  0  0
 14 15  1  0  0  0  0
 14 32  1  0  0  0  0
 14 33  1  0  0  0  0
 15 34  1  0  0  0  0
 15 35  1  0  0  0  0
 16 36  1  0  0  0  0
 16 37  1  0  0  0  0
 17 18  1  0  0  0  0
 17 19  1  0  0  0  0
 18 38  1  0  0  0  0
 18 39  1  0  0  0  0
 18 40  1  0  0  0  0
M  CHG  1  12   1
M  END
> <s_m_source_file>
AV-unprocessed.smi

> <i_m_source_file_index>
835

> <i_lp_mmshare_version>
43012

> <i_f3d_flags>
0

> <s_epik_input>
W0NIM11jMVtjSF1jKG4objEpW0NIM10pW05IXUMoPU8pW05IXVtDQEBIXTJbQ0gyXVtDSDJdTihbQ0gyXTIpW0NIXTNbQ0gyXVtDSDJdMw==

> <s_epik_cmdline>
J2VwaWtfcHl0aG9uJywgJy1waCcsICc3LjAnLCAnLXRuJywgJzgnLCAnLW1hJywgJzIwMCcsICctbWV0YWxfYmluZGluZycsICctaW1hZScsICc8aW5maWxlLm1hZT4nLCAnLW9tYWUnLCAnPG91dGZpbGUubWFlPic=

> <r_lp_tautomer_probability>
1

> <r_epik_Ionization_Penalty>
0.000700689

> <r_epik_Ionization_Penalty_Charging>
0.000627528

> <r_epik_Ionization_Penalty_Neutral>
7.31611e-05

> <r_epik_State_Penalty>
0.00039643

> <r_epik_Charging_Adjusted_Penalty>
0.00102396

> <i_epik_Tot_Q>
1

> <i_epik_Tot_abs_Q>
1

> <r_epik_Metal_State_Penalty>
-0

> <b_epik_Metal_Only>
0

> <s_lp_Force_Field>
OPLS_2005

> <r_lp_Energy>
38.0069

> <b_lp_Chiralities_Consistent>
1

> <s_lp_Variant>
AV-unprocessed.smi:835-2

> <Gold.Version>
5.8.1

> <Gold.Id.Protein>
6NUR|6NUR_protein|mol2

> <Gold.PLP.Fitness>
43.5330

> <Gold.PLP.PLP>
-39.5487

> <Gold.PLP.part.hbond>
-1.9197

> <Gold.PLP.part.metal>
0.0000

> <Gold.PLP.part.buried>
-0.0553

> <Gold.PLP.part.nonpolar>
-36.4254

> <Gold.PLP.part.repulsive>
0.4252

> <Gold.PLP.ligand.clash>
0.0000

> <Gold.PLP.ligand.torsion>
1.1791

> <Gold.PLP.Chemscore.Hbond>
1.6928

> <Gold.PLP.Chemscore.CHOScore>
0.0000

> <Gold.PLP.Chemscore.Metal>
0.0000

> <Gold.Chemscore.Hbonds>
donor molecule, donor type, donor heavy atom, donor atom, acceptor molecule, acceptor atom, score
      L1  H     8    25       P1  8028  0.61
      L1  H    12    41       P1  7957  0.66

> <Gold.PLP.Chemscore.Internal.Correction>
1.2642

> <Gold.Rescore>
     Score         DG    S(hbond)    S(metal)    S(lipo)     H(rot)  DE(clash)    DE(int)     intcor
     14.72     -18.74       1.75        0.00      90.22       1.22       0.84       3.18       ----

> <Gold.Chemscore.Fitness>
14.7225

> <Gold.Chemscore.DG>
-18.7439

> <Gold.Chemscore.ZeroCoef>
-5.4800

> <Gold.Chemscore.Hbond>
1.7456

> <Gold.Chemscore.Metal>
0.0000

> <Gold.Chemscore.Lipo>
90.2217

> <Gold.Chemscore.Internal_Hbond>
0.0000

> <Gold.Chemscore.DEClash>
0.8374

> <Gold.Chemscore.DEInternal>
3.1840

> <Gold.Chemscore.Rot>
1.2196

> <Gold.Chemscore.Internal.Correction>
   9.000000E+99

> <Gold.Chemscore.Hbonds>
donor molecule, donor type, donor heavy atom, donor atom, acceptor molecule, acceptor atom, score
      L1  H     8    25       P1  8028  0.58
      L1  H    12    41       P1  7957  0.66

> <Gold.Chemscore.Hbond.Weighted>
-5.8303

> <Gold.Chemscore.Metal.Weighted>
-0.0000

> <Gold.Chemscore.Lipo.Weighted>
-10.5559

> <Gold.Chemscore.Internal_Hbond.Weighted>
0.0000

> <Gold.Chemscore.DEClash.Weighted>
0.8374

> <Gold.Chemscore.DEInternal.Weighted>
3.1840

> <Gold.Chemscore.Rot.Weighted>
3.1223

> <Gold.Chemscore.Internal.Correction.Weighted>
   9.000000E+99

> <Gold.Protein.RotatedTorsions>
[ 6907 6896 6895 6894 ] final  155.69 input  -60.11 | X-H torsion
[ 7974 7965 7964 7962 ] final   30.64 input  175.53 | X-H torsion
[ 8008 7997 7996 7995 ] final -119.46 input   59.86 | X-H torsion
[ 10167 10162 10161 10158 ] final   88.12 input  -65.29 | X-H torsion
[ 10718 10713 10712 10709 ] final   55.74 input   66.30 | X-H torsion
[ 10763 10752 10751 10750 ] final  151.37 input  -60.55 | X-H torsion
[ 11005 11000 10999 10996 ] final  178.47 input  -57.11 | X-H torsion

> <Gold.Protein.ActiveResidues>
 VAL166  LYS551  ARG553  GLY616  TRP617  ASP618  TYR619  PRO620  LYS621  CYS622 
 ASP623  PHE694  ASN695  SER759  ASP760  ASP761  ALA762  ILE779  LEU786  VAL792 
 PHE793  MET794  SER795  GLU796  ALA797  LYS798  CYS799  TRP800  GLU811  SER814 

> <Gold.Protein.RotatedAtoms>
  152.0406  133.3976  159.4334 H   0  0  0  0  0  0  0  0  0  0  0  0  # atno 6907 bound_to 6896
  150.6876  134.3419  159.4881 H   0  0  0  0  0  0  0  0  0  0  0  0  # atno 6908 bound_to 6896
  152.1217  134.9200  160.0613 H   0  0  0  0  0  0  0  0  0  0  0  0  # atno 6909 bound_to 6896
  146.1599  139.6762  142.9040 H   0  0  0  0  0  0  0  0  0  0  0  0  # atno 7974 bound_to 7965
  155.1161  140.0398  157.2737 H   0  0  0  0  0  0  0  0  0  0  0  0  # atno 8008 bound_to 7997
  154.6649  140.2599  155.7043 H   0  0  0  0  0  0  0  0  0  0  0  0  # atno 8009 bound_to 7997
  156.2634  140.2809  156.1135 H   0  0  0  0  0  0  0  0  0  0  0  0  # atno 8010 bound_to 7997
  139.8704  144.6495  150.8955 H   0  0  0  0  0  0  0  0  0  0  0  0  # atno 10167 bound_to 10162
  157.5371  130.8671  149.8768 H   0  0  0  0  0  0  0  0  0  0  0  0  # atno 10718 bound_to 10713
  154.1026  135.2844  155.3248 H   0  0  0  0  0  0  0  0  0  0  0  0  # atno 10763 bound_to 10752
  154.6545  135.5357  153.7945 H   0  0  0  0  0  0  0  0  0  0  0  0  # atno 10764 bound_to 10752
  153.0373  135.6518  154.1189 H   0  0  0  0  0  0  0  0  0  0  0  0  # atno 10765 bound_to 10752
  140.3955  134.6824  157.4532 H   0  0  0  0  0  0  0  0  0  0  0  0  # atno 11005 bound_to 11000
  145.4613  141.0433  143.2750 LP  0  0  0  0  0  0  0  0  0  0  0  0  # atno 17320 bound_to 7965
  144.8013  139.6135  143.7070 LP  0  0  0  0  0  0  0  0  0  0  0  0  # atno 17321 bound_to 7965
  140.7761  143.3668  151.1723 LP  0  0  0  0  0  0  0  0  0  0  0  0  # atno 17342 bound_to 10162
  139.7289  143.9104  152.3012 LP  0  0  0  0  0  0  0  0  0  0  0  0  # atno 17343 bound_to 10162
  156.0467  130.3726  150.1300 LP  0  0  0  0  0  0  0  0  0  0  0  0  # atno 17370 bound_to 10713
  156.9482  130.9766  151.3503 LP  0  0  0  0  0  0  0  0  0  0  0  0  # atno 17371 bound_to 10713
  140.0375  134.6316  155.9024 LP  0  0  0  0  0  0  0  0  0  0  0  0  # atno 17394 bound_to 11000
  141.1876  133.6560  156.5287 LP  0  0  0  0  0  0  0  0  0  0  0  0  # atno 17395 bound_to 11000

$$$$
