AV-unprocessed.smi:3162|AV-procd|sdf|12070|dock8
  -GOLD-   2272017503D 1   1.00000     0.00000
 Structure written by MMmdl.
 36 36  0  0  0  0  0  0  0  0  1 V2000
  147.2476  142.0340  153.8991 C   0  0  0  0  0  0  0  0  0  0  0  0
  148.4803  141.1594  154.1775 C   0  0  0  0  0  0  0  0  0  0  0  0
  148.9156  141.1264  155.6592 C   0  0  1  0  0  0  0  0  0  0  0  0
  149.9860  142.1195  155.8747 N   0  0  0  0  0  0  0  0  0  0  0  0
  150.5697  142.1514  157.2144 C   0  0  1  0  0  0  0  0  0  0  0  0
  151.6149  141.0259  157.2893 C   0  0  0  0  0  0  0  0  0  0  0  0
  151.1800  143.5454  157.4854 C   0  0  0  0  0  0  0  0  0  0  0  0
  151.4149  143.7900  158.8964 N   0  0  0  0  0  0  0  0  0  0  0  0
  152.0476  142.9793  159.8145 C   0  0  0  0  0  0  0  0  0  0  0  0
  152.0343  143.6301  161.0156 C   0  0  0  0  0  0  0  0  0  0  0  0
  152.5890  143.1746  162.3345 C   0  0  0  0  0  0  0  0  0  0  0  0
  151.3658  144.8525  160.7216 C   0  0  0  0  0  0  0  0  0  0  0  0
  150.9994  144.9471  159.4540 N   0  0  0  0  0  0  0  0  0  0  0  0
  147.7194  141.3158  156.6105 C   0  0  0  0  0  0  0  0  0  0  0  0
  147.5653  142.5198  157.1670 N   0  0  0  0  0  0  0  0  0  0  0  0
  146.9348  140.3929  156.8225 O   0  0  0  0  0  0  0  0  0  0  0  0
  146.9524  141.9608  152.8523 H   0  0  0  0  0  0  0  0  0  0  0  0
  147.4410  143.0858  154.1110 H   0  0  0  0  0  0  0  0  0  0  0  0
  146.3977  141.7192  154.5054 H   0  0  0  0  0  0  0  0  0  0  0  0
  148.2502  140.1430  153.8549 H   0  0  0  0  0  0  0  0  0  0  0  0
  149.3081  141.4893  153.5479 H   0  0  0  0  0  0  0  0  0  0  0  0
  149.3455  140.1405  155.8469 H   0  0  0  0  0  0  0  0  0  0  0  0
  149.7088  143.0474  155.5875 H   0  0  0  0  0  0  0  0  0  0  0  0
  149.8058  141.9316  157.9621 H   0  0  0  0  0  0  0  0  0  0  0  0
  152.0484  140.9504  158.2869 H   0  0  0  0  0  0  0  0  0  0  0  0
  152.4308  141.1909  156.5848 H   0  0  0  0  0  0  0  0  0  0  0  0
  151.1671  140.0582  157.0603 H   0  0  0  0  0  0  0  0  0  0  0  0
  152.1288  143.6504  156.9573 H   0  0  0  0  0  0  0  0  0  0  0  0
  150.5330  144.3397  157.1135 H   0  0  0  0  0  0  0  0  0  0  0  0
  152.4481  142.0143  159.5406 H   0  0  0  0  0  0  0  0  0  0  0  0
  152.4505  143.9245  163.1138 H   0  0  0  0  0  0  0  0  0  0  0  0
  153.6581  142.9705  162.2719 H   0  0  0  0  0  0  0  0  0  0  0  0
  152.1058  142.2602  162.6793 H   0  0  0  0  0  0  0  0  0  0  0  0
  151.1381  145.6702  161.3893 H   0  0  0  0  0  0  0  0  0  0  0  0
  146.7963  142.6882  157.7989 H   0  0  0  0  0  0  0  0  0  0  0  0
  148.2215  143.2573  156.9548 H   0  0  0  0  0  0  0  0  0  0  0  0
  1  2  1  0  0  0  0
  1 17  1  0  0  0  0
  1 18  1  0  0  0  0
  1 19  1  0  0  0  0
  2  3  1  0  0  0  0
  2 20  1  0  0  0  0
  2 21  1  0  0  0  0
  3  4  1  0  0  0  0
  3 14  1  0  0  0  0
  3 22  1  0  0  0  0
  4  5  1  0  0  0  0
  4 23  1  0  0  0  0
  5  6  1  0  0  0  0
  5  7  1  0  0  0  0
  5 24  1  0  0  0  0
  6 25  1  0  0  0  0
  6 26  1  0  0  0  0
  6 27  1  0  0  0  0
  7  8  1  0  0  0  0
  7 28  1  0  0  0  0
  7 29  1  0  0  0  0
  8 13  1  0  0  0  0
  8  9  1  0  0  0  0
  9 10  2  0  0  0  0
  9 30  1  0  0  0  0
 10 11  1  0  0  0  0
 10 12  1  0  0  0  0
 11 31  1  0  0  0  0
 11 32  1  0  0  0  0
 11 33  1  0  0  0  0
 12 13  2  0  0  0  0
 12 34  1  0  0  0  0
 14 15  1  0  0  0  0
 14 16  2  0  0  0  0
 15 35  1  0  0  0  0
 15 36  1  0  0  0  0
M  END
> <s_m_source_file>
AV-unprocessed.smi

> <i_m_source_file_index>
3162

> <i_lp_mmshare_version>
43012

> <i_f3d_flags>
0

> <s_epik_input>
W0NIM11bQ0gyXVtDQEBIXShDKD1PKVtOSDJdKVtOSF1bQ0BIXShbQ0gzXSlbQ0gyXW4xW2NIXWMoW0NIM10pW2NIXW4x

> <s_epik_cmdline>
J2VwaWtfcHl0aG9uJywgJy1waCcsICc3LjAnLCAnLXRuJywgJzgnLCAnLW1hJywgJzIwMCcsICctbWV0YWxfYmluZGluZycsICctaW1hZScsICc8aW5maWxlLm1hZT4nLCAnLW9tYWUnLCAnPG91dGZpbGUubWFlPic=

> <r_lp_tautomer_probability>
1

> <r_epik_Ionization_Penalty>
1.04167

> <r_epik_Ionization_Penalty_Charging>
0

> <r_epik_Ionization_Penalty_Neutral>
1.04167

> <r_epik_State_Penalty>
1.09367

> <r_epik_Charging_Adjusted_Penalty>
1.09367

> <i_epik_Tot_Q>
0

> <i_epik_Tot_abs_Q>
0

> <r_epik_Metal_State_Penalty>
1.09362

> <b_epik_Metal_Only>
0

> <s_lp_Force_Field>
OPLS_2005

> <r_lp_Energy>
2.92594

> <b_lp_Chiralities_Consistent>
1

> <s_lp_Variant>
AV-unprocessed.smi:3162-8

> <Gold.Version>
5.8.1

> <Gold.Id.Protein>
6NUR|6NUR_protein|mol2

> <Gold.PLP.Fitness>
41.0110

> <Gold.PLP.PLP>
-38.5676

> <Gold.PLP.part.hbond>
-2.1397

> <Gold.PLP.part.metal>
0.0000

> <Gold.PLP.part.buried>
-5.9854

> <Gold.PLP.part.nonpolar>
-30.8797

> <Gold.PLP.part.repulsive>
0.1332

> <Gold.PLP.ligand.clash>
0.0000

> <Gold.PLP.ligand.torsion>
1.4609

> <Gold.PLP.Chemscore.Hbond>
1.7488

> <Gold.PLP.Chemscore.CHOScore>
0.0000

> <Gold.PLP.Chemscore.Metal>
0.0000

> <Gold.Chemscore.Hbonds>
donor molecule, donor type, donor heavy atom, donor atom, acceptor molecule, acceptor atom, score
      L1  H     4    23       P1  8028  1.00
      L1  H    15    36       P1  8028  0.81

> <Gold.PLP.Chemscore.Internal.Correction>
0.1188

> <Gold.Rescore>
     Score         DG    S(hbond)    S(metal)    S(lipo)     H(rot)  DE(clash)    DE(int)     intcor
     12.69     -14.18       1.26        0.00      91.56       2.43       0.15       1.34       ----

> <Gold.Chemscore.Fitness>
12.6861

> <Gold.Chemscore.DG>
-14.1803

> <Gold.Chemscore.ZeroCoef>
-5.4800

> <Gold.Chemscore.Hbond>
1.2621

> <Gold.Chemscore.Metal>
0.0000

> <Gold.Chemscore.Lipo>
91.5635

> <Gold.Chemscore.Internal_Hbond>
0.0000

> <Gold.Chemscore.DEClash>
0.1503

> <Gold.Chemscore.DEInternal>
1.3439

> <Gold.Chemscore.Rot>
2.4328

> <Gold.Chemscore.Internal.Correction>
   9.000000E+99

> <Gold.Chemscore.Hbonds>
donor molecule, donor type, donor heavy atom, donor atom, acceptor molecule, acceptor atom, score
      L1  H     4    23       P1  8028  1.00
      L1  H    15    36       P1  8028  0.12

> <Gold.Chemscore.Hbond.Weighted>
-4.2153

> <Gold.Chemscore.Metal.Weighted>
-0.0000

> <Gold.Chemscore.Lipo.Weighted>
-10.7129

> <Gold.Chemscore.Internal_Hbond.Weighted>
0.0000

> <Gold.Chemscore.DEClash.Weighted>
0.1503

> <Gold.Chemscore.DEInternal.Weighted>
1.3439

> <Gold.Chemscore.Rot.Weighted>
6.2279

> <Gold.Chemscore.Internal.Correction.Weighted>
   9.000000E+99

> <Gold.Protein.RotatedTorsions>
[ 6907 6896 6895 6894 ] final -168.19 input  -60.11 | X-H torsion
[ 7974 7965 7964 7962 ] final  110.11 input  175.53 | X-H torsion
[ 8008 7997 7996 7995 ] final -178.87 input   59.86 | X-H torsion
[ 10167 10162 10161 10158 ] final -166.45 input  -65.29 | X-H torsion
[ 10718 10713 10712 10709 ] final   -3.45 input   66.30 | X-H torsion
[ 10763 10752 10751 10750 ] final -107.24 input  -60.55 | X-H torsion
[ 11005 11000 10999 10996 ] final   87.78 input  -57.11 | X-H torsion

> <Gold.Protein.ActiveResidues>
 VAL166  LYS551  ARG553  GLY616  TRP617  ASP618  TYR619  PRO620  LYS621  CYS622 
 ASP623  PHE694  ASN695  SER759  ASP760  ASP761  ALA762  ILE779  LEU786  VAL792 
 PHE793  MET794  SER795  GLU796  ALA797  LYS798  CYS799  TRP800  GLU811  SER814 

> <Gold.Protein.RotatedAtoms>
  151.4716  133.3568  159.2824 H   0  0  0  0  0  0  0  0  0  0  0  0  # atno 6907 bound_to 6896
  150.8957  134.8367  159.7336 H   0  0  0  0  0  0  0  0  0  0  0  0  # atno 6908 bound_to 6896
  152.4850  134.4631  159.9663 H   0  0  0  0  0  0  0  0  0  0  0  0  # atno 6909 bound_to 6896
  145.2592  139.2709  143.4026 H   0  0  0  0  0  0  0  0  0  0  0  0  # atno 7974 bound_to 7965
  156.0239  140.1267  157.0328 H   0  0  0  0  0  0  0  0  0  0  0  0  # atno 8008 bound_to 7997
  154.4322  140.1063  156.6073 H   0  0  0  0  0  0  0  0  0  0  0  0  # atno 8009 bound_to 7997
  155.5904  140.3469  155.4567 H   0  0  0  0  0  0  0  0  0  0  0  0  # atno 8010 bound_to 7997
  139.6114  144.0807  152.1845 H   0  0  0  0  0  0  0  0  0  0  0  0  # atno 10167 bound_to 10162
  156.7758  130.5314  149.5759 H   0  0  0  0  0  0  0  0  0  0  0  0  # atno 10718 bound_to 10713
  154.8063  135.4682  154.0401 H   0  0  0  0  0  0  0  0  0  0  0  0  # atno 10763 bound_to 10752
  153.1867  135.6849  153.8413 H   0  0  0  0  0  0  0  0  0  0  0  0  # atno 10764 bound_to 10752
  153.7944  135.3238  155.3360 H   0  0  0  0  0  0  0  0  0  0  0  0  # atno 10765 bound_to 10752
  139.8911  134.8445  156.2908 H   0  0  0  0  0  0  0  0  0  0  0  0  # atno 11005 bound_to 11000
  146.3280  140.3004  142.8620 LP  0  0  0  0  0  0  0  0  0  0  0  0  # atno 17320 bound_to 7965
  144.9434  140.8102  143.5616 LP  0  0  0  0  0  0  0  0  0  0  0  0  # atno 17321 bound_to 7965
  140.0427  144.5995  150.7398 LP  0  0  0  0  0  0  0  0  0  0  0  0  # atno 17342 bound_to 10162
  140.7321  143.2702  151.3912 LP  0  0  0  0  0  0  0  0  0  0  0  0  # atno 17343 bound_to 10162
  156.1249  130.6136  151.0249 LP  0  0  0  0  0  0  0  0  0  0  0  0  # atno 17370 bound_to 10713
  157.6670  131.0869  150.7705 LP  0  0  0  0  0  0  0  0  0  0  0  0  # atno 17371 bound_to 10713
  140.9977  133.7170  156.0912 LP  0  0  0  0  0  0  0  0  0  0  0  0  # atno 17394 bound_to 11000
  140.7540  134.4013  157.5537 LP  0  0  0  0  0  0  0  0  0  0  0  0  # atno 17395 bound_to 11000

$$$$
