AV-unprocessed.smi:2157|AV-procd|sdf|8783|dock4
  -GOLD-   2272011563D 1   1.00000     0.00000
 Structure written by MMmdl.
 41 42  0  0  0  0  0  0  0  0  1 V2000
  151.7142  145.6298  159.4659 C   0  0  0  0  0  0  0  0  0  0  0  0
  151.9940  144.2104  159.9797 C   0  0  2  0  0  0  0  0  0  0  0  0
  152.0062  144.1629  161.5195 C   0  0  0  0  0  0  0  0  0  0  0  0
  152.2911  142.7450  162.0383 C   0  0  0  0  0  0  0  0  0  0  0  0
  153.6119  142.1985  161.4715 C   0  0  0  0  0  0  0  0  0  0  0  0
  153.6444  142.2420  159.9289 C   0  0  1  0  0  0  0  0  0  0  0  0
  152.7282  141.2633  159.3457 N   0  0  0  0  0  0  0  0  0  0  0  0
  153.0904  140.1554  158.6816 C   0  0  0  0  0  0  0  0  0  0  0  0
  154.2646  139.8302  158.5004 O   0  0  0  0  0  0  0  0  0  0  0  0
  151.9427  139.2755  158.1676 C   0  0  0  0  0  0  0  0  0  0  0  0
  151.3087  139.8069  156.9544 N   0  0  0  0  0  0  0  0  0  0  0  0
  151.0402  141.1598  156.8572 C   0  0  0  0  0  0  0  0  0  0  0  0
  150.4443  141.7257  155.7850 C   0  0  0  0  0  0  0  0  0  0  0  0
  150.0411  140.9196  154.6388 C   0  0  0  0  0  0  0  0  0  0  0  0
  149.4879  141.3959  153.6473 O   0  0  0  0  0  0  0  0  0  0  0  0
  150.3343  139.5399  154.7618 N   0  0  0  0  0  0  0  0  0  0  0  0
  149.9684  138.6418  153.6865 C   0  0  0  0  0  0  0  0  0  0  0  0
  150.9512  138.9538  155.8886 C   0  0  0  0  0  0  0  0  0  0  0  0
  151.1704  137.7413  155.9516 O   0  0  0  0  0  0  0  0  0  0  0  0
  153.3171  143.6565  159.4096 C   0  0  0  0  0  0  0  0  0  0  0  0
  152.4917  146.3262  159.7811 H   0  0  0  0  0  0  0  0  0  0  0  0
  150.7612  146.0029  159.8418 H   0  0  0  0  0  0  0  0  0  0  0  0
  151.6693  145.6516  158.3768 H   0  0  0  0  0  0  0  0  0  0  0  0
  151.1800  143.5736  159.6308 H   0  0  0  0  0  0  0  0  0  0  0  0
  152.7629  144.8485  161.9038 H   0  0  0  0  0  0  0  0  0  0  0  0
  151.0494  144.5089  161.9116 H   0  0  0  0  0  0  0  0  0  0  0  0
  152.3321  142.7504  163.1278 H   0  0  0  0  0  0  0  0  0  0  0  0
  151.4697  142.0819  161.7650 H   0  0  0  0  0  0  0  0  0  0  0  0
  154.4372  142.7959  161.8609 H   0  0  0  0  0  0  0  0  0  0  0  0
  153.7816  141.1831  161.8311 H   0  0  0  0  0  0  0  0  0  0  0  0
  154.6542  141.9944  159.5970 H   0  0  0  0  0  0  0  0  0  0  0  0
  151.7412  141.4475  159.4525 H   0  0  0  0  0  0  0  0  0  0  0  0
  152.3404  138.2788  157.9728 H   0  0  0  0  0  0  0  0  0  0  0  0
  151.1965  139.1461  158.9537 H   0  0  0  0  0  0  0  0  0  0  0  0
  151.3153  141.7998  157.6829 H   0  0  0  0  0  0  0  0  0  0  0  0
  150.2605  142.7899  155.7761 H   0  0  0  0  0  0  0  0  0  0  0  0
  150.8603  138.0758  153.4115 H   0  0  0  0  0  0  0  0  0  0  0  0
  149.6117  139.1904  152.8155 H   0  0  0  0  0  0  0  0  0  0  0  0
  149.1838  137.9879  154.0706 H   0  0  0  0  0  0  0  0  0  0  0  0
  153.2836  143.6525  158.3190 H   0  0  0  0  0  0  0  0  0  0  0  0
  154.1322  144.3283  159.6824 H   0  0  0  0  0  0  0  0  0  0  0  0
  1  2  1  0  0  0  0
  1 21  1  0  0  0  0
  1 22  1  0  0  0  0
  1 23  1  0  0  0  0
  2 20  1  0  0  0  0
  2  3  1  0  0  0  0
  2 24  1  0  0  0  0
  3  4  1  0  0  0  0
  3 25  1  0  0  0  0
  3 26  1  0  0  0  0
  4  5  1  0  0  0  0
  4 27  1  0  0  0  0
  4 28  1  0  0  0  0
  5  6  1  0  0  0  0
  5 29  1  0  0  0  0
  5 30  1  0  0  0  0
  6  7  1  0  0  0  0
  6 20  1  0  0  0  0
  6 31  1  0  0  0  0
  7  8  1  0  0  0  0
  7 32  1  0  0  0  0
  8  9  2  0  0  0  0
  8 10  1  0  0  0  0
 10 11  1  0  0  0  0
 10 33  1  0  0  0  0
 10 34  1  0  0  0  0
 11 18  1  0  0  0  0
 11 12  1  0  0  0  0
 12 13  2  0  0  0  0
 12 35  1  0  0  0  0
 13 14  1  0  0  0  0
 13 36  1  0  0  0  0
 14 15  2  0  0  0  0
 14 16  1  0  0  0  0
 16 17  1  0  0  0  0
 16 18  1  0  0  0  0
 17 37  1  0  0  0  0
 17 38  1  0  0  0  0
 17 39  1  0  0  0  0
 18 19  2  0  0  0  0
 20 40  1  0  0  0  0
 20 41  1  0  0  0  0
M  END
> <s_m_source_file>
AV-unprocessed.smi

> <i_m_source_file_index>
2157

> <i_lp_mmshare_version>
43012

> <i_f3d_flags>
0

> <s_epik_input>
W0NIM11bQ0BASF0xW0NIMl1bQ0gyXVtDSDJdW0NASF0oW0NIMl0xKVtOSF1DKD1PKVtDSDJdbjJbY0hdW2NIXWMoPU8pbihbQ0gzXSljMj1P

> <s_epik_cmdline>
J2VwaWtfcHl0aG9uJywgJy1waCcsICc3LjAnLCAnLXRuJywgJzgnLCAnLW1hJywgJzIwMCcsICctbWV0YWxfYmluZGluZycsICctaW1hZScsICc8aW5maWxlLm1hZT4nLCAnLW9tYWUnLCAnPG91dGZpbGUubWFlPic=

> <r_lp_tautomer_probability>
1

> <r_epik_Ionization_Penalty>
3.1838e-08

> <r_epik_Ionization_Penalty_Charging>
1.27911e-08

> <r_epik_Ionization_Penalty_Neutral>
1.90469e-08

> <r_epik_State_Penalty>
-0

> <r_epik_Charging_Adjusted_Penalty>
1.27911e-08

> <i_epik_Tot_Q>
0

> <i_epik_Tot_abs_Q>
0

> <r_epik_Metal_State_Penalty>
-0

> <b_epik_Metal_Only>
0

> <s_lp_Force_Field>
OPLS_2005

> <r_lp_Energy>
16.0352

> <b_lp_Chiralities_Consistent>
1

> <s_lp_Variant>
AV-unprocessed.smi:2157-1

> <Gold.Version>
5.8.1

> <Gold.Id.Protein>
6NUR|6NUR_protein|mol2

> <Gold.PLP.Fitness>
49.8300

> <Gold.PLP.PLP>
-45.6163

> <Gold.PLP.part.hbond>
-2.9814

> <Gold.PLP.part.metal>
0.0000

> <Gold.PLP.part.buried>
-2.5213

> <Gold.PLP.part.nonpolar>
-39.9120

> <Gold.PLP.part.repulsive>
0.3534

> <Gold.PLP.ligand.clash>
0.0000

> <Gold.PLP.ligand.torsion>
0.5257

> <Gold.PLP.Chemscore.Hbond>
1.7520

> <Gold.PLP.Chemscore.CHOScore>
0.0000

> <Gold.PLP.Chemscore.Metal>
0.0000

> <Gold.Chemscore.Hbonds>
donor molecule, donor type, donor heavy atom, donor atom, acceptor molecule, acceptor atom, score
      P1  H  7997  8009       L1     9  0.71
      P1  H  8011  8017       L1    15  0.85

> <Gold.PLP.Chemscore.Internal.Correction>
0.0090

> <Gold.Rescore>
     Score         DG    S(hbond)    S(metal)    S(lipo)     H(rot)  DE(clash)    DE(int)     intcor
     19.03     -20.49       1.76        0.00     111.31       1.52       1.18       0.28       ----

> <Gold.Chemscore.Fitness>
19.0269

> <Gold.Chemscore.DG>
-20.4899

> <Gold.Chemscore.ZeroCoef>
-5.4800

> <Gold.Chemscore.Hbond>
1.7630

> <Gold.Chemscore.Metal>
0.0000

> <Gold.Chemscore.Lipo>
111.3102

> <Gold.Chemscore.Internal_Hbond>
0.0000

> <Gold.Chemscore.DEClash>
1.1793

> <Gold.Chemscore.DEInternal>
0.2837

> <Gold.Chemscore.Rot>
1.5242

> <Gold.Chemscore.Internal.Correction>
   9.000000E+99

> <Gold.Chemscore.Hbonds>
donor molecule, donor type, donor heavy atom, donor atom, acceptor molecule, acceptor atom, score
      P1  H  7997  8009       L1     9  0.70
      P1  H  8011  8017       L1    15  0.83

> <Gold.Chemscore.Hbond.Weighted>
-5.8885

> <Gold.Chemscore.Metal.Weighted>
-0.0000

> <Gold.Chemscore.Lipo.Weighted>
-13.0233

> <Gold.Chemscore.Internal_Hbond.Weighted>
0.0000

> <Gold.Chemscore.DEClash.Weighted>
1.1793

> <Gold.Chemscore.DEInternal.Weighted>
0.2837

> <Gold.Chemscore.Rot.Weighted>
3.9019

> <Gold.Chemscore.Internal.Correction.Weighted>
   9.000000E+99

> <Gold.Protein.RotatedTorsions>
[ 6907 6896 6895 6894 ] final  151.62 input  -60.11 | X-H torsion
[ 7974 7965 7964 7962 ] final  -18.30 input  175.53 | X-H torsion
[ 8008 7997 7996 7995 ] final  125.23 input   59.86 | X-H torsion
[ 10167 10162 10161 10158 ] final   92.55 input  -65.29 | X-H torsion
[ 10718 10713 10712 10709 ] final   26.14 input   66.30 | X-H torsion
[ 10763 10752 10751 10750 ] final  -61.30 input  -60.55 | X-H torsion
[ 11005 11000 10999 10996 ] final  127.29 input  -57.11 | X-H torsion

> <Gold.Protein.ActiveResidues>
 VAL166  LYS551  ARG553  GLY616  TRP617  ASP618  TYR619  PRO620  LYS621  CYS622 
 ASP623  PHE694  ASN695  SER759  ASP760  ASP761  ALA762  ILE779  LEU786  VAL792 
 PHE793  MET794  SER795  GLU796  ALA797  LYS798  CYS799  TRP800  GLU811  SER814 

> <Gold.Protein.RotatedAtoms>
  152.0981  133.4235  159.4574 H   0  0  0  0  0  0  0  0  0  0  0  0  # atno 6907 bound_to 6896
  150.6863  134.2793  159.4630 H   0  0  0  0  0  0  0  0  0  0  0  0  # atno 6908 bound_to 6896
  152.0651  134.9569  160.0625 H   0  0  0  0  0  0  0  0  0  0  0  0  # atno 6909 bound_to 6896
  146.1899  140.3902  142.8462 H   0  0  0  0  0  0  0  0  0  0  0  0  # atno 7974 bound_to 7965
  156.2827  140.2721  156.1916 H   0  0  0  0  0  0  0  0  0  0  0  0  # atno 8008 bound_to 7997
  155.0452  140.0386  157.2542 H   0  0  0  0  0  0  0  0  0  0  0  0  # atno 8009 bound_to 7997
  154.7241  140.2693  155.6520 H   0  0  0  0  0  0  0  0  0  0  0  0  # atno 8010 bound_to 7997
  139.8266  144.6706  150.9452 H   0  0  0  0  0  0  0  0  0  0  0  0  # atno 10167 bound_to 10162
  157.2028  130.6898  149.6195 H   0  0  0  0  0  0  0  0  0  0  0  0  # atno 10718 bound_to 10713
  154.2825  135.6269  153.5352 H   0  0  0  0  0  0  0  0  0  0  0  0  # atno 10763 bound_to 10752
  152.9864  135.5636  154.5480 H   0  0  0  0  0  0  0  0  0  0  0  0  # atno 10764 bound_to 10752
  154.5073  135.2875  155.1347 H   0  0  0  0  0  0  0  0  0  0  0  0  # atno 10765 bound_to 10752
  139.9499  134.9623  156.8832 H   0  0  0  0  0  0  0  0  0  0  0  0  # atno 11005 bound_to 11000
  144.8466  140.6938  143.6195 LP  0  0  0  0  0  0  0  0  0  0  0  0  # atno 17320 bound_to 7965
  145.3826  139.1633  143.4272 LP  0  0  0  0  0  0  0  0  0  0  0  0  # atno 17321 bound_to 7965
  140.7810  143.4040  151.1101 LP  0  0  0  0  0  0  0  0  0  0  0  0  # atno 17342 bound_to 10162
  139.7697  143.8513  152.3118 LP  0  0  0  0  0  0  0  0  0  0  0  0  # atno 17343 bound_to 10162
  155.9698  130.4577  150.5972 LP  0  0  0  0  0  0  0  0  0  0  0  0  # atno 17370 bound_to 10713
  157.3750  131.0772  151.1525 LP  0  0  0  0  0  0  0  0  0  0  0  0  # atno 17371 bound_to 10713
  140.5743  134.0413  155.7441 LP  0  0  0  0  0  0  0  0  0  0  0  0  # atno 17394 bound_to 11000
  141.1160  133.9540  157.2822 LP  0  0  0  0  0  0  0  0  0  0  0  0  # atno 17395 bound_to 11000

$$$$
