AV-unprocessed.smi:158|AV-procd|sdf|1336|dock4
  -GOLD-   2262019 33D 1   1.00000     0.00000
 Structure written by MMmdl.
 31 33  0  0  0  0  0  0  0  0  1 V2000
  154.2102  142.0288  161.0454 N   0  0  0  0  0  0  0  0  0  0  0  0
  153.3331  142.5069  160.1519 C   0  0  0  0  0  0  0  0  0  0  0  0
  152.8239  143.7452  160.3486 N   0  0  0  0  0  0  0  0  0  0  0  0
  151.9459  144.2605  159.4794 C   0  0  0  0  0  0  0  0  0  0  0  0
  151.3617  145.8450  159.8266 Cl  0  0  0  0  0  0  0  0  0  0  0  0
  151.4696  143.6846  158.3709 N   0  0  0  0  0  0  0  0  0  0  0  0
  151.9804  142.4352  158.1689 C   0  0  0  0  0  0  0  0  0  0  0  0
  152.9156  141.7778  159.0119 C   0  0  0  0  0  0  0  0  0  0  0  0
  153.2147  140.5223  158.5004 N   0  0  0  0  0  0  0  0  0  0  0  0
  152.4946  140.4474  157.4130 C   0  0  0  0  0  0  0  0  0  0  0  0
  151.7233  141.5551  157.1365 N   0  0  0  0  0  0  0  0  0  0  0  0
  150.8053  141.7595  155.9727 C   0  0  1  0  0  0  0  0  0  0  0  0
  150.8327  140.6256  155.1576 O   0  0  0  0  0  0  0  0  0  0  0  0
  149.5094  140.1425  154.9353 C   0  0  2  0  0  0  0  0  0  0  0  0
  149.3711  139.5518  153.5216 C   0  0  0  0  0  0  0  0  0  0  0  0
  150.2870  138.4929  153.3395 O   0  0  0  0  0  0  0  0  0  0  0  0
  148.5813  141.3141  155.2941 C   0  0  2  0  0  0  0  0  0  0  0  0
  148.3728  142.1995  154.2097 O   0  0  0  0  0  0  0  0  0  0  0  0
  149.3512  141.9992  156.4056 C   0  0  1  0  0  0  0  0  0  0  0  0
  149.0913  141.3998  157.5701 F   0  0  0  0  0  0  0  0  0  0  0  0
  151.2267  142.6025  155.4239 H   0  0  0  0  0  0  0  0  0  0  0  0
  149.3483  139.3472  155.6649 H   0  0  0  0  0  0  0  0  0  0  0  0
  147.6054  140.9640  155.6323 H   0  0  0  0  0  0  0  0  0  0  0  0
  149.1363  143.0622  156.5207 H   0  0  0  0  0  0  0  0  0  0  0  0
  154.6042  141.1074  160.9190 H   0  0  0  0  0  0  0  0  0  0  0  0
  154.4780  142.5906  161.8404 H   0  0  0  0  0  0  0  0  0  0  0  0
  152.5078  139.5751  156.7760 H   0  0  0  0  0  0  0  0  0  0  0  0
  148.3573  139.1993  153.3315 H   0  0  0  0  0  0  0  0  0  0  0  0
  149.5841  140.3200  152.7781 H   0  0  0  0  0  0  0  0  0  0  0  0
  150.0201  137.9916  152.5840 H   0  0  0  0  0  0  0  0  0  0  0  0
  148.2525  143.0706  154.5568 H   0  0  0  0  0  0  0  0  0  0  0  0
  1  2  1  0  0  0  0
  1 25  1  0  0  0  0
  1 26  1  0  0  0  0
  2  8  1  0  0  0  0
  2  3  2  0  0  0  0
  3  4  1  0  0  0  0
  4  5  1  0  0  0  0
  4  6  2  0  0  0  0
  6  7  1  0  0  0  0
  7 11  1  0  0  0  0
  7  8  2  0  0  0  0
  8  9  1  0  0  0  0
  9 10  2  0  0  0  0
 10 11  1  0  0  0  0
 10 27  1  0  0  0  0
 11 12  1  0  0  0  0
 12 21  1  0  0  0  0
 12 19  1  0  0  0  0
 12 13  1  0  0  0  0
 13 14  1  0  0  0  0
 14 22  1  0  0  0  0
 14 15  1  0  0  0  0
 14 17  1  0  0  0  0
 15 16  1  0  0  0  0
 15 28  1  0  0  0  0
 15 29  1  0  0  0  0
 16 30  1  0  0  0  0
 17 23  1  0  0  0  0
 17 18  1  0  0  0  0
 17 19  1  0  0  0  0
 18 31  1  0  0  0  0
 19 24  1  0  0  0  0
 19 20  1  0  0  0  0
M  END
> <s_m_source_file>
AV-unprocessed.smi

> <i_m_source_file_index>
158

> <i_lp_mmshare_version>
43012

> <i_f3d_flags>
0

> <s_epik_input>
Q2xjKG4xKW5jKFtOSDJdKWMoYzEyKW5bY0hdbjJbQ0BASF0zT1tDQEhdKFtDSDJdW09IXSlbQ0BASF0oW09IXSlbQ0BASF0zRg==

> <s_epik_cmdline>
J2VwaWtfcHl0aG9uJywgJy1waCcsICc3LjAnLCAnLXRuJywgJzgnLCAnLW1hJywgJzIwMCcsICctbWV0YWxfYmluZGluZycsICctaW1hZScsICc8aW5maWxlLm1hZT4nLCAnLW9tYWUnLCAnPG91dGZpbGUubWFlPic=

> <r_lp_tautomer_probability>
1

> <r_epik_Ionization_Penalty>
6.51543e-05

> <r_epik_Ionization_Penalty_Charging>
0

> <r_epik_Ionization_Penalty_Neutral>
6.51543e-05

> <r_epik_State_Penalty>
-0

> <r_epik_Charging_Adjusted_Penalty>
0

> <i_epik_Tot_Q>
0

> <i_epik_Tot_abs_Q>
0

> <r_epik_Metal_State_Penalty>
-0

> <b_epik_Metal_Only>
0

> <s_epik_Chemistry_Notes>
This compound contains an acetal/aminal-like group ( X-CH(R)-Y where X, Y are N, S, or O) that may be acid/base labile, releasing an aldehyde.

> <s_lp_Force_Field>
OPLS_2005

> <r_lp_Energy>
35.164

> <b_lp_Chiralities_Consistent>
1

> <s_lp_Variant>
AV-unprocessed.smi:158-14

> <Gold.Version>
5.8.1

> <Gold.Id.Protein>
6NUR|6NUR_protein|mol2

> <Gold.PLP.Fitness>
45.7261

> <Gold.PLP.PLP>
-36.5993

> <Gold.PLP.part.hbond>
-5.2062

> <Gold.PLP.part.metal>
0.0000

> <Gold.PLP.part.buried>
-1.4667

> <Gold.PLP.part.nonpolar>
-29.9381

> <Gold.PLP.part.repulsive>
0.1643

> <Gold.PLP.ligand.clash>
0.0000

> <Gold.PLP.ligand.torsion>
0.0003

> <Gold.PLP.Chemscore.Hbond>
3.0424

> <Gold.PLP.Chemscore.CHOScore>
0.0000

> <Gold.PLP.Chemscore.Metal>
0.0000

> <Gold.Chemscore.Hbonds>
donor molecule, donor type, donor heavy atom, donor atom, acceptor molecule, acceptor atom, score
      L1  H    16    30       P1  7948  0.62
      L1  H    18    31       P1  8028  0.96
      P1  H  7989  7998       L1    13  0.93
      P1  H  8011  8017       L1    18  0.06

> <Gold.PLP.Chemscore.Internal.Correction>
0.0002

> <Gold.Rescore>
     Score         DG    S(hbond)    S(metal)    S(lipo)     H(rot)  DE(clash)    DE(int)     intcor
      8.66      -8.80       1.97        0.00      40.36       3.12       0.12       0.01       ----

> <Gold.Chemscore.Fitness>
8.6574

> <Gold.Chemscore.DG>
-8.7956

> <Gold.Chemscore.ZeroCoef>
-5.4800

> <Gold.Chemscore.Hbond>
1.9725

> <Gold.Chemscore.Metal>
0.0000

> <Gold.Chemscore.Lipo>
40.3610

> <Gold.Chemscore.Internal_Hbond>
0.0000

> <Gold.Chemscore.DEClash>
0.1242

> <Gold.Chemscore.DEInternal>
0.0139

> <Gold.Chemscore.Rot>
3.1230

> <Gold.Chemscore.Internal.Correction>
   9.000000E+99

> <Gold.Chemscore.Hbonds>
donor molecule, donor type, donor heavy atom, donor atom, acceptor molecule, acceptor atom, score
      L1  H    16    30       P1  7948  0.10
      L1  H    18    31       P1  8028  0.87
      P1  H  7989  7998       L1    13  0.52
      P1  H  8011  8017       L1    18  0.04

> <Gold.Chemscore.Hbond.Weighted>
-6.5883

> <Gold.Chemscore.Metal.Weighted>
-0.0000

> <Gold.Chemscore.Lipo.Weighted>
-4.7222

> <Gold.Chemscore.Internal_Hbond.Weighted>
0.0000

> <Gold.Chemscore.DEClash.Weighted>
0.1242

> <Gold.Chemscore.DEInternal.Weighted>
0.0139

> <Gold.Chemscore.Rot.Weighted>
7.9950

> <Gold.Chemscore.Internal.Correction.Weighted>
   9.000000E+99

> <Gold.Protein.RotatedTorsions>
[ 6907 6896 6895 6894 ] final  -41.68 input  -60.11 | X-H torsion
[ 7974 7965 7964 7962 ] final -136.72 input  175.53 | X-H torsion
[ 8008 7997 7996 7995 ] final  -93.86 input   59.86 | X-H torsion
[ 10167 10162 10161 10158 ] final   23.72 input  -65.29 | X-H torsion
[ 10718 10713 10712 10709 ] final  -84.19 input   66.30 | X-H torsion
[ 10763 10752 10751 10750 ] final  140.37 input  -60.55 | X-H torsion
[ 11005 11000 10999 10996 ] final   77.25 input  -57.11 | X-H torsion

> <Gold.Protein.ActiveResidues>
 VAL166  LYS551  ARG553  GLY616  TRP617  ASP618  TYR619  PRO620  LYS621  CYS622 
 ASP623  PHE694  ASN695  SER759  ASP760  ASP761  ALA762  ILE779  LEU786  VAL792 
 PHE793  MET794  SER795  GLU796  ALA797  LYS798  CYS799  TRP800  GLU811  SER814 

> <Gold.Protein.RotatedAtoms>
  150.9639  134.9023  159.7747 H   0  0  0  0  0  0  0  0  0  0  0  0  # atno 6907 bound_to 6896
  152.5166  134.3634  159.9303 H   0  0  0  0  0  0  0  0  0  0  0  0  # atno 6908 bound_to 6896
  151.3645  133.3836  159.2728 H   0  0  0  0  0  0  0  0  0  0  0  0  # atno 6909 bound_to 6896
  144.8902  140.6632  143.5150 H   0  0  0  0  0  0  0  0  0  0  0  0  # atno 7974 bound_to 7965
  154.7410  140.0495  157.0811 H   0  0  0  0  0  0  0  0  0  0  0  0  # atno 8008 bound_to 7997
  155.0178  140.3143  155.4785 H   0  0  0  0  0  0  0  0  0  0  0  0  # atno 8009 bound_to 7997
  156.2864  140.2172  156.5295 H   0  0  0  0  0  0  0  0  0  0  0  0  # atno 8010 bound_to 7997
  140.5246  143.9944  150.6434 H   0  0  0  0  0  0  0  0  0  0  0  0  # atno 10167 bound_to 10162
  156.0009  130.4690  150.4372 H   0  0  0  0  0  0  0  0  0  0  0  0  # atno 10718 bound_to 10713
  153.9215  135.3000  155.3447 H   0  0  0  0  0  0  0  0  0  0  0  0  # atno 10763 bound_to 10752
  154.7573  135.4951  153.9401 H   0  0  0  0  0  0  0  0  0  0  0  0  # atno 10764 bound_to 10752
  153.1139  135.6766  153.9555 H   0  0  0  0  0  0  0  0  0  0  0  0  # atno 10765 bound_to 10752
  139.9262  134.7667  156.1498 H   0  0  0  0  0  0  0  0  0  0  0  0  # atno 11005 bound_to 11000
  145.3796  139.1640  143.4288 LP  0  0  0  0  0  0  0  0  0  0  0  0  # atno 17320 bound_to 7965
  146.3049  140.3875  142.8691 LP  0  0  0  0  0  0  0  0  0  0  0  0  # atno 17321 bound_to 7965
  140.3303  143.3082  152.0694 LP  0  0  0  0  0  0  0  0  0  0  0  0  # atno 17342 bound_to 10162
  139.4934  144.6514  151.6668 LP  0  0  0  0  0  0  0  0  0  0  0  0  # atno 17343 bound_to 10162
  157.2416  131.0527  151.2433 LP  0  0  0  0  0  0  0  0  0  0  0  0  # atno 17370 bound_to 10713
  157.3614  130.7133  149.6504 LP  0  0  0  0  0  0  0  0  0  0  0  0  # atno 17371 bound_to 10713
  141.0822  133.6749  156.2360 LP  0  0  0  0  0  0  0  0  0  0  0  0  # atno 17394 bound_to 11000
  140.6328  134.5246  157.5561 LP  0  0  0  0  0  0  0  0  0  0  0  0  # atno 17395 bound_to 11000

$$$$
