AV-unprocessed.smi:922|AV-procd|sdf|4174|dock9
  -GOLD-   22720 2 83D 1   1.00000     0.00000
 Structure written by MMmdl.
 32 33  0  0  0  0  0  0  0  0  2 V2000
  146.4772  138.1886  153.2678 C   0  0  0  0  0  0  0  0  0  0  0  0
  147.0552  139.2813  154.1725 C   0  0  1  0  0  0  0  0  0  0  0  0
  148.5916  139.3439  154.0866 C   0  0  0  0  0  0  0  0  0  0  0  0
  149.0979  140.4655  154.8663 N   0  0  0  0  0  0  0  0  0  0  0  0
  150.0885  140.3825  155.8461 C   0  0  0  0  0  0  0  0  0  0  0  0
  149.9407  141.1667  157.0974 C   0  0  0  0  0  0  0  0  0  0  0  0
  150.8034  141.1422  158.0340 N   0  0  0  0  0  0  0  0  0  0  0  0
  151.9979  140.3376  157.9217 N   0  5  0  0  0  0  0  0  0  0  0  0
  152.2088  139.5751  156.8069 C   0  0  0  0  0  0  0  0  0  0  0  0
  153.2090  138.8701  156.6812 O   0  0  0  0  0  0  0  0  0  0  0  0
  151.2049  139.6080  155.7348 C   0  0  0  0  0  0  0  0  0  0  0  0
  151.4795  138.5813  154.3645 Cl  0  0  0  0  0  0  0  0  0  0  0  0
  148.5211  141.7229  154.4058 C   0  0  0  0  0  0  0  0  0  0  0  0
  146.9773  141.6834  154.4732 C   0  0  0  0  0  0  0  0  0  0  0  0
  146.4612  141.6861  155.9284 C   0  0  0  0  0  0  0  0  0  0  0  0
  146.3957  142.8947  153.7282 C   0  0  0  0  0  0  0  0  0  0  0  0
  146.5059  140.5336  153.7600 O   0  0  0  0  0  0  0  0  0  0  0  0
  146.8534  137.2056  153.5519 H   0  0  0  0  0  0  0  0  0  0  0  0
  146.7403  138.3599  152.2236 H   0  0  0  0  0  0  0  0  0  0  0  0
  145.3895  138.1611  153.3374 H   0  0  0  0  0  0  0  0  0  0  0  0
  146.7447  139.0669  155.1942 H   0  0  0  0  0  0  0  0  0  0  0  0
  149.0376  138.4072  154.4208 H   0  0  0  0  0  0  0  0  0  0  0  0
  148.9020  139.4762  153.0494 H   0  0  0  0  0  0  0  0  0  0  0  0
  149.0389  141.7798  157.1719 H   0  0  0  0  0  0  0  0  0  0  0  0
  148.8923  142.5579  155.0013 H   0  0  0  0  0  0  0  0  0  0  0  0
  148.8526  141.8974  153.3813 H   0  0  0  0  0  0  0  0  0  0  0  0
  146.7287  142.6141  156.4344 H   0  0  0  0  0  0  0  0  0  0  0  0
  146.8790  140.8732  156.5215 H   0  0  0  0  0  0  0  0  0  0  0  0
  145.3755  141.5940  155.9604 H   0  0  0  0  0  0  0  0  0  0  0  0
  146.7137  143.8320  154.1862 H   0  0  0  0  0  0  0  0  0  0  0  0
  145.3055  142.8756  153.7335 H   0  0  0  0  0  0  0  0  0  0  0  0
  146.7180  142.9094  152.6866 H   0  0  0  0  0  0  0  0  0  0  0  0
  1  2  1  0  0  0  0
  1 18  1  0  0  0  0
  1 19  1  0  0  0  0
  1 20  1  0  0  0  0
  2 17  1  0  0  0  0
  2  3  1  0  0  0  0
  2 21  1  0  0  0  0
  3  4  1  0  0  0  0
  3 22  1  0  0  0  0
  3 23  1  0  0  0  0
  4  5  1  0  0  0  0
  4 13  1  0  0  0  0
  5 11  2  0  0  0  0
  5  6  1  0  0  0  0
  6  7  2  0  0  0  0
  6 24  1  0  0  0  0
  7  8  1  0  0  0  0
  8  9  1  0  0  0  0
  9 10  2  0  0  0  0
  9 11  1  0  0  0  0
 11 12  1  0  0  0  0
 13 14  1  0  0  0  0
 13 25  1  0  0  0  0
 13 26  1  0  0  0  0
 14 15  1  0  0  0  0
 14 16  1  0  0  0  0
 14 17  1  0  0  0  0
 15 27  1  0  0  0  0
 15 28  1  0  0  0  0
 15 29  1  0  0  0  0
 16 30  1  0  0  0  0
 16 31  1  0  0  0  0
 16 32  1  0  0  0  0
M  CHG  1   8  -1
M  END
> <s_m_source_file>
AV-unprocessed.smi

> <i_m_source_file_index>
922

> <i_lp_mmshare_version>
43012

> <i_f3d_flags>
0

> <s_epik_input>
W0NIM11bQ0BASF0oTzEpW0NIMl1OKFtDSDJdQzEoW0NIM10pW0NIM10pYzJbY0hdbltuSF1jKD1PKWMyQ2w=

> <s_epik_cmdline>
J2VwaWtfcHl0aG9uJywgJy1waCcsICc3LjAnLCAnLXRuJywgJzgnLCAnLW1hJywgJzIwMCcsICctbWV0YWxfYmluZGluZycsICctaW1hZScsICc8aW5maWxlLm1hZT4nLCAnLW9tYWUnLCAnPG91dGZpbGUubWFlPic=

> <r_lp_tautomer_probability>
1

> <r_epik_Ionization_Penalty>
2.48086

> <r_epik_Ionization_Penalty_Charging>
0.00187014

> <r_epik_Ionization_Penalty_Neutral>
2.47899

> <r_epik_State_Penalty>
0.0455822

> <r_epik_Charging_Adjusted_Penalty>
0.0474524

> <i_epik_Tot_Q>
-1

> <i_epik_Tot_abs_Q>
1

> <r_epik_Metal_State_Penalty>
0.000768086

> <b_epik_Metal_Only>
0

> <s_lp_Force_Field>
OPLS_2005

> <r_lp_Energy>
41.3096

> <b_lp_Chiralities_Consistent>
1

> <s_lp_Variant>
AV-unprocessed.smi:922-2

> <Gold.Version>
5.8.1

> <Gold.Id.Protein>
6NUR|6NUR_protein|mol2

> <Gold.PLP.Fitness>
29.5825

> <Gold.PLP.PLP>
-27.0404

> <Gold.PLP.part.hbond>
-1.0000

> <Gold.PLP.part.metal>
0.0000

> <Gold.PLP.part.buried>
-3.5739

> <Gold.PLP.part.nonpolar>
-22.4765

> <Gold.PLP.part.repulsive>
0.3371

> <Gold.PLP.ligand.clash>
0.0074

> <Gold.PLP.ligand.torsion>
0.7056

> <Gold.PLP.Chemscore.Hbond>
1.0000

> <Gold.PLP.Chemscore.CHOScore>
0.0000

> <Gold.PLP.Chemscore.Metal>
0.0000

> <Gold.Chemscore.Hbonds>
donor molecule, donor type, donor heavy atom, donor atom, acceptor molecule, acceptor atom, score
      P1  H  7997  8009       L1    10  0.95

> <Gold.PLP.Chemscore.Internal.Correction>
0.9607

> <Gold.Rescore>
     Score         DG    S(hbond)    S(metal)    S(lipo)     H(rot)  DE(clash)    DE(int)     intcor
     14.15     -16.06       0.95        0.00      63.28       0.00       0.14       1.77       ----

> <Gold.Chemscore.Fitness>
14.1543

> <Gold.Chemscore.DG>
-16.0635

> <Gold.Chemscore.ZeroCoef>
-5.4800

> <Gold.Chemscore.Hbond>
0.9521

> <Gold.Chemscore.Metal>
0.0000

> <Gold.Chemscore.Lipo>
63.2767

> <Gold.Chemscore.Internal_Hbond>
0.0000

> <Gold.Chemscore.DEClash>
0.1372

> <Gold.Chemscore.DEInternal>
1.7720

> <Gold.Chemscore.Rot>
0.0000

> <Gold.Chemscore.Internal.Correction>
   9.000000E+99

> <Gold.Chemscore.Hbonds>
donor molecule, donor type, donor heavy atom, donor atom, acceptor molecule, acceptor atom, score
      P1  H  7997  8009       L1    10  0.21

> <Gold.Chemscore.Hbond.Weighted>
-3.1801

> <Gold.Chemscore.Metal.Weighted>
-0.0000

> <Gold.Chemscore.Lipo.Weighted>
-7.4034

> <Gold.Chemscore.Internal_Hbond.Weighted>
0.0000

> <Gold.Chemscore.DEClash.Weighted>
0.1372

> <Gold.Chemscore.DEInternal.Weighted>
1.7720

> <Gold.Chemscore.Rot.Weighted>
0.0000

> <Gold.Chemscore.Internal.Correction.Weighted>
   9.000000E+99

> <Gold.Protein.RotatedTorsions>
[ 6907 6896 6895 6894 ] final  -26.12 input  -60.11 | X-H torsion
[ 7974 7965 7964 7962 ] final  115.87 input  175.53 | X-H torsion
[ 8008 7997 7996 7995 ] final -175.88 input   59.86 | X-H torsion
[ 10167 10162 10161 10158 ] final  137.02 input  -65.29 | X-H torsion
[ 10718 10713 10712 10709 ] final   27.96 input   66.30 | X-H torsion
[ 10763 10752 10751 10750 ] final  137.53 input  -60.55 | X-H torsion
[ 11005 11000 10999 10996 ] final  -48.59 input  -57.11 | X-H torsion

> <Gold.Protein.ActiveResidues>
 VAL166  LYS551  ARG553  GLY616  TRP617  ASP618  TYR619  PRO620  LYS621  CYS622 
 ASP623  PHE694  ASN695  SER759  ASP760  ASP761  ALA762  ILE779  LEU786  VAL792 
 PHE793  MET794  SER795  GLU796  ALA797  LYS798  CYS799  TRP800  GLU811  SER814 

> <Gold.Protein.RotatedAtoms>
  151.1655  135.0293  159.8728 H   0  0  0  0  0  0  0  0  0  0  0  0  # atno 6907 bound_to 6896
  152.5450  134.1231  159.8417 H   0  0  0  0  0  0  0  0  0  0  0  0  # atno 6908 bound_to 6896
  151.1331  133.4977  159.2631 H   0  0  0  0  0  0  0  0  0  0  0  0  # atno 6909 bound_to 6896
  145.1866  139.3022  143.4390 H   0  0  0  0  0  0  0  0  0  0  0  0  # atno 7974 bound_to 7965
  155.9880  140.1195  157.0664 H   0  0  0  0  0  0  0  0  0  0  0  0  # atno 8008 bound_to 7997
  154.4203  140.1131  156.5595 H   0  0  0  0  0  0  0  0  0  0  0  0  # atno 8009 bound_to 7997
  155.6381  140.3473  155.4707 H   0  0  0  0  0  0  0  0  0  0  0  0  # atno 8010 bound_to 7997
  139.5159  144.6433  151.5510 H   0  0  0  0  0  0  0  0  0  0  0  0  # atno 10167 bound_to 10162
  157.2271  130.7006  149.6296 H   0  0  0  0  0  0  0  0  0  0  0  0  # atno 10718 bound_to 10713
  153.8745  135.3051  155.3443 H   0  0  0  0  0  0  0  0  0  0  0  0  # atno 10763 bound_to 10752
  154.7790  135.4846  153.9808 H   0  0  0  0  0  0  0  0  0  0  0  0  # atno 10764 bound_to 10752
  153.1387  135.6819  153.9158 H   0  0  0  0  0  0  0  0  0  0  0  0  # atno 10765 bound_to 10752
  141.0709  133.6679  156.3463 H   0  0  0  0  0  0  0  0  0  0  0  0  # atno 11005 bound_to 11000
  146.3444  140.2065  142.8589 LP  0  0  0  0  0  0  0  0  0  0  0  0  # atno 17320 bound_to 7965
  145.0082  140.8691  143.5240 LP  0  0  0  0  0  0  0  0  0  0  0  0  # atno 17321 bound_to 7965
  140.6208  143.9262  150.6524 LP  0  0  0  0  0  0  0  0  0  0  0  0  # atno 17342 bound_to 10162
  140.2535  143.3575  152.1385 LP  0  0  0  0  0  0  0  0  0  0  0  0  # atno 17343 bound_to 10162
  155.9678  130.4501  150.5683 LP  0  0  0  0  0  0  0  0  0  0  0  0  # atno 17370 bound_to 10713
  157.3516  131.0734  151.1708 LP  0  0  0  0  0  0  0  0  0  0  0  0  # atno 17371 bound_to 10713
  140.5674  134.5874  157.5449 LP  0  0  0  0  0  0  0  0  0  0  0  0  # atno 17394 bound_to 11000
  139.9523  134.7596  156.0420 LP  0  0  0  0  0  0  0  0  0  0  0  0  # atno 17395 bound_to 11000

$$$$
