AV-unprocessed.smi:169|AV-procd|sdf|1399|dock2
  -GOLD-   2262019143D 1   1.00000     0.00000
 Structure written by MMmdl.
 56 60  0  0  0  0  0  0  0  0  2 V2000
  147.0538  133.5551  151.8922 C   0  0  0  0  0  0  0  0  0  0  0  0
  148.1311  133.2981  152.9614 C   0  0  0  0  0  0  0  0  0  0  0  0
  148.3007  134.4110  153.9328 N   0  3  1  0  0  0  0  0  0  0  0  0
  147.0274  134.8715  154.5416 C   0  0  0  0  0  0  0  0  0  0  0  0
  146.9996  136.4042  154.6913 C   0  0  0  0  0  0  0  0  0  0  0  0
  148.0485  137.0110  155.6471 C   0  0  1  0  0  0  0  0  0  0  0  0
  147.9292  136.4976  157.0866 C   0  0  0  0  0  0  0  0  0  0  0  0
  148.9324  135.3416  157.1711 C   0  0  0  0  0  0  0  0  0  0  0  0
  149.7170  135.3720  155.8432 C   0  0  1  0  0  0  0  0  0  0  0  0
  149.4005  134.1768  154.9089 C   0  0  0  0  0  0  0  0  0  0  0  0
  149.4095  136.6670  155.2392 N   0  0  0  0  0  0  0  0  0  0  0  0
  150.4073  137.5871  155.3092 C   0  0  0  0  0  0  0  0  0  0  0  0
  151.6621  137.2844  154.8828 N   0  0  0  0  0  0  0  0  0  0  0  0
  152.6330  138.2008  154.9356 C   0  0  0  0  0  0  0  0  0  0  0  0
  152.5681  139.4597  155.3724 N   0  0  0  0  0  0  0  0  0  0  0  0
  151.3151  139.7687  155.8113 C   0  0  0  0  0  0  0  0  0  0  0  0
  150.1875  138.8998  155.8129 C   0  0  0  0  0  0  0  0  0  0  0  0
  149.0796  139.5601  156.3303 N   0  0  0  0  0  0  0  0  0  0  0  0
  149.5244  140.7552  156.6082 C   0  0  0  0  0  0  0  0  0  0  0  0
  150.8587  140.9650  156.3379 N   0  0  0  0  0  0  0  0  0  0  0  0
  151.6028  142.1983  156.5499 C   0  0  0  0  0  0  0  0  0  0  0  0
  151.4960  142.7714  157.9771 C   0  0  0  0  0  0  0  0  0  0  0  0
  151.5386  141.6092  158.9911 C   0  0  0  0  0  0  0  0  0  0  0  0
  151.5785  142.0594  160.3308 O   0  0  0  0  0  0  0  0  0  0  0  0
  152.3970  143.9732  158.2973 C   0  0  0  0  0  0  0  0  0  0  0  0
  151.2762  144.7669  158.7456 O   0  0  0  0  0  0  0  0  0  0  0  0
  150.3711  143.7993  158.1711 C   0  0  0  0  0  0  0  0  0  0  0  0
  147.0158  132.7255  151.1858 H   0  0  0  0  0  0  0  0  0  0  0  0
  147.2566  134.4593  151.3184 H   0  0  0  0  0  0  0  0  0  0  0  0
  146.0599  133.6487  152.3286 H   0  0  0  0  0  0  0  0  0  0  0  0
  147.8956  132.3825  153.5054 H   0  0  0  0  0  0  0  0  0  0  0  0
  149.0888  133.1145  152.4729 H   0  0  0  0  0  0  0  0  0  0  0  0
  146.1950  134.5989  153.8915 H   0  0  0  0  0  0  0  0  0  0  0  0
  146.8423  134.3635  155.4883 H   0  0  0  0  0  0  0  0  0  0  0  0
  147.1167  136.8579  153.7062 H   0  0  0  0  0  0  0  0  0  0  0  0
  146.0075  136.7015  155.0327 H   0  0  0  0  0  0  0  0  0  0  0  0
  147.8862  138.0892  155.6376 H   0  0  0  0  0  0  0  0  0  0  0  0
  148.2254  137.2845  157.7816 H   0  0  0  0  0  0  0  0  0  0  0  0
  146.9143  136.1975  157.3490 H   0  0  0  0  0  0  0  0  0  0  0  0
  149.6045  135.4973  158.0160 H   0  0  0  0  0  0  0  0  0  0  0  0
  148.4304  134.3880  157.3363 H   0  0  0  0  0  0  0  0  0  0  0  0
  150.7745  135.3043  156.1037 H   0  0  0  0  0  0  0  0  0  0  0  0
  149.2181  133.2781  155.4976 H   0  0  0  0  0  0  0  0  0  0  0  0
  150.2982  133.9708  154.3246 H   0  0  0  0  0  0  0  0  0  0  0  0
  153.5992  137.8799  154.5744 H   0  0  0  0  0  0  0  0  0  0  0  0
  148.8887  141.5212  157.0282 H   0  0  0  0  0  0  0  0  0  0  0  0
  152.6447  142.0064  156.2903 H   0  0  0  0  0  0  0  0  0  0  0  0
  151.2519  142.9326  155.8238 H   0  0  0  0  0  0  0  0  0  0  0  0
  150.6686  140.9619  158.8769 H   0  0  0  0  0  0  0  0  0  0  0  0
  152.4207  140.9872  158.8385 H   0  0  0  0  0  0  0  0  0  0  0  0
  151.5887  141.3069  160.9025 H   0  0  0  0  0  0  0  0  0  0  0  0
  153.1256  143.7884  159.0871 H   0  0  0  0  0  0  0  0  0  0  0  0
  152.8747  144.4204  157.4251 H   0  0  0  0  0  0  0  0  0  0  0  0
  149.9361  144.1609  157.2380 H   0  0  0  0  0  0  0  0  0  0  0  0
  149.5886  143.4898  158.8646 H   0  0  0  0  0  0  0  0  0  0  0  0
  148.6108  135.1901  153.3694 H   0  0  0  0  0  0  0  0  0  0  0  0
  1  2  1  0  0  0  0
  1 28  1  0  0  0  0
  1 29  1  0  0  0  0
  1 30  1  0  0  0  0
  2  3  1  0  0  0  0
  2 31  1  0  0  0  0
  2 32  1  0  0  0  0
  3 10  1  0  0  0  0
  3  4  1  0  0  0  0
  3 56  1  0  0  0  0
  4  5  1  0  0  0  0
  4 33  1  0  0  0  0
  4 34  1  0  0  0  0
  5  6  1  0  0  0  0
  5 35  1  0  0  0  0
  5 36  1  0  0  0  0
  6 11  1  0  0  0  0
  6  7  1  0  0  0  0
  6 37  1  0  0  0  0
  7  8  1  0  0  0  0
  7 38  1  0  0  0  0
  7 39  1  0  0  0  0
  8  9  1  0  0  0  0
  8 40  1  0  0  0  0
  8 41  1  0  0  0  0
  9 10  1  0  0  0  0
  9 11  1  0  0  0  0
  9 42  1  0  0  0  0
 10 43  1  0  0  0  0
 10 44  1  0  0  0  0
 11 12  1  0  0  0  0
 12 17  1  0  0  0  0
 12 13  2  0  0  0  0
 13 14  1  0  0  0  0
 14 15  2  0  0  0  0
 14 45  1  0  0  0  0
 15 16  1  0  0  0  0
 16 20  1  0  0  0  0
 16 17  2  0  0  0  0
 17 18  1  0  0  0  0
 18 19  2  0  0  0  0
 19 20  1  0  0  0  0
 19 46  1  0  0  0  0
 20 21  1  0  0  0  0
 21 22  1  0  0  0  0
 21 47  1  0  0  0  0
 21 48  1  0  0  0  0
 22 27  1  0  0  0  0
 22 23  1  0  0  0  0
 22 25  1  0  0  0  0
 23 24  1  0  0  0  0
 23 49  1  0  0  0  0
 23 50  1  0  0  0  0
 24 51  1  0  0  0  0
 25 26  1  0  0  0  0
 25 52  1  0  0  0  0
 25 53  1  0  0  0  0
 26 27  1  0  0  0  0
 27 54  1  0  0  0  0
 27 55  1  0  0  0  0
M  CHG  1   3   1
M  END
> <s_m_source_file>
AV-unprocessed.smi

> <i_m_source_file_index>
169

> <i_lp_mmshare_version>
43012

> <i_f3d_flags>
0

> <s_epik_input>
W0NASF0xMltDSDJdW0NIMl1OKFtDSDJdW0NIM10pW0NIMl1bQ0BIXShbQ0gyXVtDSDJdMSlOMmMobltjSF1uMyljKGMzNCluW2NIXW40W0NIMl1DNShbQ0gyXVtPSF0pW0NIMl1PW0NIMl01

> <s_epik_cmdline>
J2VwaWtfcHl0aG9uJywgJy1waCcsICc3LjAnLCAnLXRuJywgJzgnLCAnLW1hJywgJzIwMCcsICctbWV0YWxfYmluZGluZycsICctaW1hZScsICc8aW5maWxlLm1hZT4nLCAnLW9tYWUnLCAnPG91dGZpbGUubWFlPic=

> <r_lp_tautomer_probability>
1

> <r_epik_Ionization_Penalty>
0.00274162

> <r_epik_Ionization_Penalty_Charging>
0.00243722

> <r_epik_Ionization_Penalty_Neutral>
0.000304399

> <r_epik_State_Penalty>
-0

> <r_epik_Charging_Adjusted_Penalty>
0.00243722

> <i_epik_Tot_Q>
1

> <i_epik_Tot_abs_Q>
1

> <r_epik_Metal_State_Penalty>
-0

> <b_epik_Metal_Only>
0

> <s_lp_Force_Field>
OPLS_2005

> <r_lp_Energy>
78.3459

> <b_lp_Chiralities_Consistent>
1

> <s_lp_Variant>
AV-unprocessed.smi:169-2

> <Gold.Version>
5.8.1

> <Gold.Id.Protein>
6NUR|6NUR_protein|mol2

> <Gold.PLP.Fitness>
51.1442

> <Gold.PLP.PLP>
-39.9025

> <Gold.PLP.part.hbond>
-4.1734

> <Gold.PLP.part.metal>
0.0000

> <Gold.PLP.part.buried>
-7.7536

> <Gold.PLP.part.nonpolar>
-28.5976

> <Gold.PLP.part.repulsive>
0.3852

> <Gold.PLP.ligand.clash>
0.0000

> <Gold.PLP.ligand.torsion>
0.5806

> <Gold.PLP.Chemscore.Hbond>
3.9607

> <Gold.PLP.Chemscore.CHOScore>
0.0000

> <Gold.PLP.Chemscore.Metal>
0.0000

> <Gold.Chemscore.Hbonds>
donor molecule, donor type, donor heavy atom, donor atom, acceptor molecule, acceptor atom, score
      L1  H     3    56       P1  7948  2.00
      P1  H  7997  8010       L1    15  0.91
      P1  H 10752 10765       L1    13  0.61

> <Gold.PLP.Chemscore.Internal.Correction>
0.5208

> <Gold.Rescore>
     Score         DG    S(hbond)    S(metal)    S(lipo)     H(rot)  DE(clash)    DE(int)     intcor
     12.03     -15.80       2.08        0.00      86.21       2.62       1.87       1.90       ----

> <Gold.Chemscore.Fitness>
12.0301

> <Gold.Chemscore.DG>
-15.8009

> <Gold.Chemscore.ZeroCoef>
-5.4800

> <Gold.Chemscore.Hbond>
2.0791

> <Gold.Chemscore.Metal>
0.0000

> <Gold.Chemscore.Lipo>
86.2118

> <Gold.Chemscore.Internal_Hbond>
0.0000

> <Gold.Chemscore.DEClash>
1.8659

> <Gold.Chemscore.DEInternal>
1.9049

> <Gold.Chemscore.Rot>
2.6212

> <Gold.Chemscore.Internal.Correction>
   9.000000E+99

> <Gold.Chemscore.Hbonds>
donor molecule, donor type, donor heavy atom, donor atom, acceptor molecule, acceptor atom, score
      L1  H     3    56       P1  7948  0.85
      P1  H  7997  8010       L1    15  0.72
      P1  H 10752 10765       L1    13  0.09

> <Gold.Chemscore.Hbond.Weighted>
-6.9443

> <Gold.Chemscore.Metal.Weighted>
-0.0000

> <Gold.Chemscore.Lipo.Weighted>
-10.0868

> <Gold.Chemscore.Internal_Hbond.Weighted>
0.0000

> <Gold.Chemscore.DEClash.Weighted>
1.8659

> <Gold.Chemscore.DEInternal.Weighted>
1.9049

> <Gold.Chemscore.Rot.Weighted>
6.7102

> <Gold.Chemscore.Internal.Correction.Weighted>
   9.000000E+99

> <Gold.Protein.RotatedTorsions>
[ 6907 6896 6895 6894 ] final  166.41 input  -60.11 | X-H torsion
[ 7974 7965 7964 7962 ] final  144.55 input  175.53 | X-H torsion
[ 8008 7997 7996 7995 ] final   98.06 input   59.86 | X-H torsion
[ 10167 10162 10161 10158 ] final -144.40 input  -65.29 | X-H torsion
[ 10718 10713 10712 10709 ] final -141.11 input   66.30 | X-H torsion
[ 10763 10752 10751 10750 ] final  169.87 input  -60.55 | X-H torsion
[ 11005 11000 10999 10996 ] final  146.56 input  -57.11 | X-H torsion

> <Gold.Protein.ActiveResidues>
 VAL166  LYS551  ARG553  GLY616  TRP617  ASP618  TYR619  PRO620  LYS621  CYS622 
 ASP623  PHE694  ASN695  SER759  ASP760  ASP761  ALA762  ILE779  LEU786  VAL792 
 PHE793  MET794  SER795  GLU796  ALA797  LYS798  CYS799  TRP800  GLU811  SER814 

> <Gold.Protein.RotatedAtoms>
  151.8793  133.3492  159.3760 H   0  0  0  0  0  0  0  0  0  0  0  0  # atno 6907 bound_to 6896
  150.7132  134.5035  159.5582 H   0  0  0  0  0  0  0  0  0  0  0  0  # atno 6908 bound_to 6896
  152.2583  134.8061  160.0486 H   0  0  0  0  0  0  0  0  0  0  0  0  # atno 6909 bound_to 6896
  144.8826  139.5676  143.5835 H   0  0  0  0  0  0  0  0  0  0  0  0  # atno 7974 bound_to 7965
  156.0966  140.3249  155.7885 H   0  0  0  0  0  0  0  0  0  0  0  0  # atno 8008 bound_to 7997
  155.4908  140.0561  157.2971 H   0  0  0  0  0  0  0  0  0  0  0  0  # atno 8009 bound_to 7997
  154.4670  140.1994  156.0108 H   0  0  0  0  0  0  0  0  0  0  0  0  # atno 8010 bound_to 7997
  139.7902  143.7976  152.2649 H   0  0  0  0  0  0  0  0  0  0  0  0  # atno 10167 bound_to 10162
  156.3301  130.7581  151.1698 H   0  0  0  0  0  0  0  0  0  0  0  0  # atno 10718 bound_to 10713
  154.3894  135.2754  155.2164 H   0  0  0  0  0  0  0  0  0  0  0  0  # atno 10763 bound_to 10752
  154.4236  135.5994  153.6029 H   0  0  0  0  0  0  0  0  0  0  0  0  # atno 10764 bound_to 10752
  152.9832  135.5978  154.4147 H   0  0  0  0  0  0  0  0  0  0  0  0  # atno 10765 bound_to 10752
  140.0803  134.9101  157.1490 H   0  0  0  0  0  0  0  0  0  0  0  0  # atno 11005 bound_to 11000
  146.3004  139.7409  142.9095 LP  0  0  0  0  0  0  0  0  0  0  0  0  # atno 17320 bound_to 7965
  145.3926  141.0374  143.3115 LP  0  0  0  0  0  0  0  0  0  0  0  0  # atno 17321 bound_to 7965
  139.8065  144.7353  150.9754 LP  0  0  0  0  0  0  0  0  0  0  0  0  # atno 17342 bound_to 10162
  140.7820  143.4292  151.0720 LP  0  0  0  0  0  0  0  0  0  0  0  0  # atno 17343 bound_to 10162
  157.7429  131.0483  150.4991 LP  0  0  0  0  0  0  0  0  0  0  0  0  # atno 17370 bound_to 10713
  156.5155  130.4149  149.6278 LP  0  0  0  0  0  0  0  0  0  0  0  0  # atno 17371 bound_to 10713
  140.3497  134.2612  155.7200 LP  0  0  0  0  0  0  0  0  0  0  0  0  # atno 17394 bound_to 11000
  141.2044  133.7886  157.0287 LP  0  0  0  0  0  0  0  0  0  0  0  0  # atno 17395 bound_to 11000

$$$$
