AV-unprocessed.smi:3127|AV-procd|sdf|11914|dock1
  -GOLD-   2272017293D 1   1.00000     0.00000
 Structure written by MMmdl.
 34 35  0  0  0  0  0  0  0  0  2 V2000
  152.1962  144.3227  160.9967 C   0  0  0  0  0  0  0  0  0  0  0  0
  151.7238  144.0318  159.5560 C   0  0  0  0  0  0  0  0  0  0  0  0
  150.2031  144.2770  159.4962 C   0  0  0  0  0  0  0  0  0  0  0  0
  152.4499  145.0087  158.6104 C   0  0  0  0  0  0  0  0  0  0  0  0
  152.0320  142.6024  159.1569 C   0  0  0  0  0  0  0  0  0  0  0  0
  152.7330  141.6542  159.8667 C   0  0  0  0  0  0  0  0  0  0  0  0
  152.8501  140.1401  159.0131 S   0  0  0  0  0  0  0  0  0  0  0  0
  151.9131  140.8413  157.7025 C   0  0  0  0  0  0  0  0  0  0  0  0
  151.5845  140.0975  156.4482 C   0  0  2  0  0  0  0  0  0  0  0  0
  150.5489  138.9813  156.6819 C   0  0  0  0  0  0  0  0  0  0  0  0
  150.3323  138.2250  155.4332 N   0  3  0  0  0  0  0  0  0  0  0  0
  151.6027  137.7081  154.8864 C   0  0  0  0  0  0  0  0  0  0  0  0
  152.6120  138.8570  154.7136 C   0  0  0  0  0  0  0  0  0  0  0  0
  152.7956  139.5271  155.9565 O   0  0  0  0  0  0  0  0  0  0  0  0
  151.5840  142.1173  157.9209 N   0  0  0  0  0  0  0  0  0  0  0  0
  151.9736  145.3500  161.2877 H   0  0  0  0  0  0  0  0  0  0  0  0
  153.2731  144.1841  161.1023 H   0  0  0  0  0  0  0  0  0  0  0  0
  151.7043  143.6695  161.7187 H   0  0  0  0  0  0  0  0  0  0  0  0
  149.6661  143.5960  160.1577 H   0  0  0  0  0  0  0  0  0  0  0  0
  149.8113  144.1330  158.4887 H   0  0  0  0  0  0  0  0  0  0  0  0
  149.9522  145.2943  159.7980 H   0  0  0  0  0  0  0  0  0  0  0  0
  152.2603  146.0461  158.8885 H   0  0  0  0  0  0  0  0  0  0  0  0
  152.1236  144.8866  157.5770 H   0  0  0  0  0  0  0  0  0  0  0  0
  153.5293  144.8536  158.6348 H   0  0  0  0  0  0  0  0  0  0  0  0
  153.1930  141.7506  160.8391 H   0  0  0  0  0  0  0  0  0  0  0  0
  151.2042  140.8159  155.7196 H   0  0  0  0  0  0  0  0  0  0  0  0
  150.8951  138.2958  157.4570 H   0  0  0  0  0  0  0  0  0  0  0  0
  149.6004  139.3989  157.0209 H   0  0  0  0  0  0  0  0  0  0  0  0
  149.7048  137.4536  155.6119 H   0  0  0  0  0  0  0  0  0  0  0  0
  152.0043  136.9534  155.5639 H   0  0  0  0  0  0  0  0  0  0  0  0
  151.4128  137.2162  153.9323 H   0  0  0  0  0  0  0  0  0  0  0  0
  153.5727  138.4670  154.3770 H   0  0  0  0  0  0  0  0  0  0  0  0
  152.2720  139.5637  153.9547 H   0  0  0  0  0  0  0  0  0  0  0  0
  149.9123  138.8400  154.7508 H   0  0  0  0  0  0  0  0  0  0  0  0
  1  2  1  0  0  0  0
  1 16  1  0  0  0  0
  1 17  1  0  0  0  0
  1 18  1  0  0  0  0
  2  3  1  0  0  0  0
  2  4  1  0  0  0  0
  2  5  1  0  0  0  0
  3 19  1  0  0  0  0
  3 20  1  0  0  0  0
  3 21  1  0  0  0  0
  4 22  1  0  0  0  0
  4 23  1  0  0  0  0
  4 24  1  0  0  0  0
  5 15  1  0  0  0  0
  5  6  2  0  0  0  0
  6  7  1  0  0  0  0
  6 25  1  0  0  0  0
  7  8  1  0  0  0  0
  8  9  1  0  0  0  0
  8 15  2  0  0  0  0
  9 14  1  0  0  0  0
  9 10  1  0  0  0  0
  9 26  1  0  0  0  0
 10 11  1  0  0  0  0
 10 27  1  0  0  0  0
 10 28  1  0  0  0  0
 11 12  1  0  0  0  0
 11 29  1  0  0  0  0
 11 34  1  0  0  0  0
 12 13  1  0  0  0  0
 12 30  1  0  0  0  0
 12 31  1  0  0  0  0
 13 14  1  0  0  0  0
 13 32  1  0  0  0  0
 13 33  1  0  0  0  0
M  CHG  1  11   1
M  END
> <s_m_source_file>
AV-unprocessed.smi

> <i_m_source_file_index>
3127

> <i_lp_mmshare_version>
43012

> <i_f3d_flags>
0

> <s_epik_input>
W0NIM11DKFtDSDNdKShbQ0gzXSljMVtjSF1zYyhuMSlbQ0BASF0yW0NIMl1bTkhdW0NIMl1bQ0gyXU8y

> <s_epik_cmdline>
J2VwaWtfcHl0aG9uJywgJy1waCcsICc3LjAnLCAnLXRuJywgJzgnLCAnLW1hJywgJzIwMCcsICctbWV0YWxfYmluZGluZycsICctaW1hZScsICc8aW5maWxlLm1hZT4nLCAnLW9tYWUnLCAnPG91dGZpbGUubWFlPic=

> <r_epik_Ionization_Penalty>
0.125708

> <r_epik_Ionization_Penalty_Charging>
0.125708

> <r_epik_Ionization_Penalty_Neutral>
5.37588e-07

> <r_epik_State_Penalty>
0.0155352

> <r_epik_Charging_Adjusted_Penalty>
0.141243

> <i_epik_Tot_Q>
1

> <i_epik_Tot_abs_Q>
1

> <r_epik_Metal_State_Penalty>
0.0155796

> <b_epik_Metal_Only>
0

> <s_lp_Force_Field>
OPLS_2005

> <r_lp_Energy>
5.69116

> <b_lp_Chiralities_Consistent>
1

> <s_lp_Variant>
AV-unprocessed.smi:3127-1

> <Gold.Version>
5.8.1

> <Gold.Id.Protein>
6NUR|6NUR_protein|mol2

> <Gold.PLP.Fitness>
37.1357

> <Gold.PLP.PLP>
-34.6083

> <Gold.PLP.part.hbond>
-1.0000

> <Gold.PLP.part.metal>
0.0000

> <Gold.PLP.part.buried>
-5.2296

> <Gold.PLP.part.nonpolar>
-28.3044

> <Gold.PLP.part.repulsive>
0.0651

> <Gold.PLP.ligand.clash>
0.0000

> <Gold.PLP.ligand.torsion>
0.2424

> <Gold.PLP.Chemscore.Hbond>
1.0000

> <Gold.PLP.Chemscore.CHOScore>
0.0000

> <Gold.PLP.Chemscore.Metal>
0.0000

> <Gold.Chemscore.Hbonds>
donor molecule, donor type, donor heavy atom, donor atom, acceptor molecule, acceptor atom, score
      P1  H  7997  8010       L1    14  1.00

> <Gold.PLP.Chemscore.Internal.Correction>
0.0123

> <Gold.Rescore>
     Score         DG    S(hbond)    S(metal)    S(lipo)     H(rot)  DE(clash)    DE(int)     intcor
     18.24     -18.43       0.98        0.00     107.75       1.14       0.02       0.18       ----

> <Gold.Chemscore.Fitness>
18.2389

> <Gold.Chemscore.DG>
-18.4326

> <Gold.Chemscore.ZeroCoef>
-5.4800

> <Gold.Chemscore.Hbond>
0.9767

> <Gold.Chemscore.Metal>
0.0000

> <Gold.Chemscore.Lipo>
107.7526

> <Gold.Chemscore.Internal_Hbond>
0.0000

> <Gold.Chemscore.DEClash>
0.0163

> <Gold.Chemscore.DEInternal>
0.1774

> <Gold.Chemscore.Rot>
1.1393

> <Gold.Chemscore.Internal.Correction>
   9.000000E+99

> <Gold.Chemscore.Hbonds>
donor molecule, donor type, donor heavy atom, donor atom, acceptor molecule, acceptor atom, score
      P1  H  7997  8010       L1    14  0.78

> <Gold.Chemscore.Hbond.Weighted>
-3.2623

> <Gold.Chemscore.Metal.Weighted>
-0.0000

> <Gold.Chemscore.Lipo.Weighted>
-12.6071

> <Gold.Chemscore.Internal_Hbond.Weighted>
0.0000

> <Gold.Chemscore.DEClash.Weighted>
0.0163

> <Gold.Chemscore.DEInternal.Weighted>
0.1774

> <Gold.Chemscore.Rot.Weighted>
2.9167

> <Gold.Chemscore.Internal.Correction.Weighted>
   9.000000E+99

> <Gold.Protein.RotatedTorsions>
[ 6907 6896 6895 6894 ] final   49.36 input  -60.11 | X-H torsion
[ 7974 7965 7964 7962 ] final  174.19 input  175.53 | X-H torsion
[ 8008 7997 7996 7995 ] final   93.42 input   59.86 | X-H torsion
[ 10167 10162 10161 10158 ] final   35.92 input  -65.29 | X-H torsion
[ 10718 10713 10712 10709 ] final   23.41 input   66.30 | X-H torsion
[ 10763 10752 10751 10750 ] final -144.46 input  -60.55 | X-H torsion
[ 11005 11000 10999 10996 ] final  -83.63 input  -57.11 | X-H torsion

> <Gold.Protein.ActiveResidues>
 VAL166  LYS551  ARG553  GLY616  TRP617  ASP618  TYR619  PRO620  LYS621  CYS622 
 ASP623  PHE694  ASN695  SER759  ASP760  ASP761  ALA762  ILE779  LEU786  VAL792 
 PHE793  MET794  SER795  GLU796  ALA797  LYS798  CYS799  TRP800  GLU811  SER814 

> <Gold.Protein.RotatedAtoms>
  152.2898  134.7734  160.0379 H   0  0  0  0  0  0  0  0  0  0  0  0  # atno 6907 bound_to 6896
  151.8284  133.3399  159.3614 H   0  0  0  0  0  0  0  0  0  0  0  0  # atno 6908 bound_to 6896
  150.7225  134.5436  159.5804 H   0  0  0  0  0  0  0  0  0  0  0  0  # atno 6909 bound_to 6896
  144.7227  139.9759  143.6438 H   0  0  0  0  0  0  0  0  0  0  0  0  # atno 7974 bound_to 7965
  156.0465  140.3313  155.7303 H   0  0  0  0  0  0  0  0  0  0  0  0  # atno 8008 bound_to 7997
  155.5665  140.0624  157.2834 H   0  0  0  0  0  0  0  0  0  0  0  0  # atno 8009 bound_to 7997
  154.4416  140.1868  156.0824 H   0  0  0  0  0  0  0  0  0  0  0  0  # atno 8010 bound_to 7997
  140.4176  144.1505  150.6145 H   0  0  0  0  0  0  0  0  0  0  0  0  # atno 10167 bound_to 10162
  157.1657  130.6737  149.6060 H   0  0  0  0  0  0  0  0  0  0  0  0  # atno 10718 bound_to 10713
  154.8427  135.3439  154.6350 H   0  0  0  0  0  0  0  0  0  0  0  0  # atno 10763 bound_to 10752
  153.6960  135.6972  153.5081 H   0  0  0  0  0  0  0  0  0  0  0  0  # atno 10764 bound_to 10752
  153.2558  135.4338  155.0799 H   0  0  0  0  0  0  0  0  0  0  0  0  # atno 10765 bound_to 10752
  141.1656  133.7304  156.8749 H   0  0  0  0  0  0  0  0  0  0  0  0  # atno 11005 bound_to 11000
  146.0526  139.3525  143.0630 LP  0  0  0  0  0  0  0  0  0  0  0  0  # atno 17320 bound_to 7965
  145.8196  140.9686  143.0906 LP  0  0  0  0  0  0  0  0  0  0  0  0  # atno 17321 bound_to 7965
  140.4569  143.2464  151.9272 LP  0  0  0  0  0  0  0  0  0  0  0  0  # atno 17342 bound_to 10162
  139.4782  144.5506  151.8391 LP  0  0  0  0  0  0  0  0  0  0  0  0  # atno 17343 bound_to 10162
  155.9746  130.4696  150.6401 LP  0  0  0  0  0  0  0  0  0  0  0  0  # atno 17370 bound_to 10713
  157.4090  131.0821  151.1238 LP  0  0  0  0  0  0  0  0  0  0  0  0  # atno 17371 bound_to 10713
  140.1756  134.9069  157.2886 LP  0  0  0  0  0  0  0  0  0  0  0  0  # atno 17394 bound_to 11000
  140.2453  134.3747  155.7464 LP  0  0  0  0  0  0  0  0  0  0  0  0  # atno 17395 bound_to 11000

$$$$
