#       Name:                AV-unprocessed.smi:3314
#       Creating user name   scv26
#       Creation time:       Fri Mar 27 19:08:26 2020


#       File generated by GOLD software.
#

@<TRIPOS>MOLECULE
AV-unprocessed.smi:3314
    43    44     1
SMALL
NO_CHARGES


@<TRIPOS>ATOM
      1 ****        -4.5048  -2.8386   0.4071 C.3            1 S1                 0.0000
      2 ****        -3.8482  -1.6035  -0.1726 C.ar           1 S1                 0.0000
      3 ****        -4.6230  -0.5342  -0.6606 C.ar           1 S1                 0.0000
      4 ****        -3.9498   0.5823  -1.1936 C.ar           1 S1                 0.0000
      5 ****        -4.7199   1.7680  -1.7357 C.3            1 S1                 0.0000
      6 ****        -2.6037   0.6732  -1.2539 N.ar           1 S1                 0.0000
      7 ****        -1.8468  -0.3447  -0.7793 C.ar           1 S1                 0.0000
      8 ****        -0.5117  -0.2461  -0.8550 N.pl3          1 S1                -1.0000
      9 ****         0.1848   0.3271   0.1567 C.2            1 S1                 0.0000
     10 ****        -0.2352   0.7818   1.2226 O.2            1 S1                 0.0000
     11 ****         1.6878   0.3895  -0.1503 C.3            1 S1                 0.0000
     12 ****         2.5374  -0.1494   1.0213 C.3            1 S1                 0.0000
     13 ****         3.9789   0.0087   0.7227 N.4            1 S1                 1.0000
     14 ****         4.8459  -0.5372   1.7883 C.3            1 S1                 0.0000
     15 ****         4.2974   1.4158   0.3902 C.3            1 S1                 0.0000
     16 ****         3.3937   1.9121  -0.7504 C.3            1 S1                 0.0000
     17 ****         2.0303   1.7531  -0.3808 O.3            1 S1                 0.0000
     18 ****        -2.4437  -1.5063  -0.2363 C.ar           1 S1                 0.0000
     19 ****        -5.5715  -2.6808   0.5683 H              1 S1                 0.0000
     20 ****        -4.0509  -3.0961   1.3643 H              1 S1                 0.0000
     21 ****        -4.3813  -3.6831  -0.2712 H              1 S1                 0.0000
     22 ****        -5.7022  -0.5692  -0.6294 H              1 S1                 0.0000
     23 ****        -5.7673   1.5145  -1.9003 H              1 S1                 0.0000
     24 ****        -4.2988   2.0975  -2.6860 H              1 S1                 0.0000
     25 ****        -4.6743   2.5992  -1.0317 H              1 S1                 0.0000
     26 ****         1.9159  -0.1890  -1.0497 H              1 S1                 0.0000
     27 ****         2.3029   0.3798   1.9470 H              1 S1                 0.0000
     28 ****         2.3148  -1.2042   1.1888 H              1 S1                 0.0000
     29 ****         4.6998   0.0003   2.7263 H              1 S1                 0.0000
     30 ****         5.8964  -0.4574   1.5077 H              1 S1                 0.0000
     31 ****         4.6261  -1.5914   1.9596 H              1 S1                 0.0000
     32 ****         4.1593   2.0418   1.2732 H              1 S1                 0.0000
     33 ****         5.3446   1.4983   0.0971 H              1 S1                 0.0000
     34 ****         3.5845   2.9668  -0.9493 H              1 S1                 0.0000
     35 ****         3.5988   1.3717  -1.6758 H              1 S1                 0.0000
     36 ****        -1.8288  -2.3158   0.1301 H              1 S1                 0.0000
     37 ****         4.1608  -0.5345  -0.1094 H              1 S1                 0.0000
     38 ****        -2.1698   1.4847  -1.6454 LP             1 S1                 0.0000
     39 ****        -0.0295  -0.5957  -1.6583 LP             1 S1                 0.0000
     40 ****        -1.2135   0.7531   1.4275 LP             1 S1                 0.0000
     41 ****         0.4025   1.1794   1.8824 LP             1 S1                 0.0000
     42 ****         1.8615   2.2730   0.4566 LP             1 S1                 0.0000
     43 ****         1.4541   2.1094  -1.1163 LP             1 S1                 0.0000
@<TRIPOS>BOND
    1    1    2 1     
    2    1   19 1     
    3    1   20 1     
    4    1   21 1     
    5    2   18 ar    
    6    2    3 ar    
    7    3    4 ar    
    8    3   22 1     
    9    4    5 1     
   10    4    6 ar    
   11    5   23 1     
   12    5   24 1     
   13    5   25 1     
   14    6    7 ar    
   15    7    8 1     
   16    7   18 ar    
   17    8    9 1     
   18    9   10 2     
   19    9   11 1     
   20   11   17 1     
   21   11   12 1     
   22   11   26 1     
   23   12   13 1     
   24   12   27 1     
   25   12   28 1     
   26   13   14 1     
   27   13   15 1     
   28   13   37 1     
   29   14   29 1     
   30   14   30 1     
   31   14   31 1     
   32   15   16 1     
   33   15   32 1     
   34   15   33 1     
   35   16   17 1     
   36   16   34 1     
   37   16   35 1     
   38   18   36 1     
   39    6   38 1     
   40    8   39 1     
   41   10   40 1     
   42   10   41 1     
   43   17   42 1     
   44   17   43 1     
@<TRIPOS>SUBSTRUCTURE
      1 S1             1
@<TRIPOS>SET
LONE_PAIRS      STATIC     ATOMS    <user>   **** ""
6 38 39 40 41 42 43
DONOR_HYDROGENS      STATIC     ATOMS    <user>   **** ""
1 37
ATOM$BLUE        STATIC     ATOMS    COLORGROUP SYSTEM
6 38 39 40 41 42 43
ATOM$RED        STATIC     ATOMS    COLORGROUP SYSTEM
1 37
