AV-unprocessed.smi:1565|AV-procd|sdf|6297|dock9
  -GOLD-   22720 6493D 1   1.00000     0.00000
 Structure written by MMmdl.
 40 41  0  0  0  0  0  0  0  0  1 V2000
  150.7126  137.4684  154.9459 C   0  0  0  0  0  0  0  0  0  0  0  0
  151.4764  138.7536  154.5800 C   0  0  2  0  0  0  0  0  0  0  0  0
  152.3564  139.2904  155.7260 C   0  0  0  0  0  0  0  0  0  0  0  0
  151.5431  139.9354  156.7530 N   0  0  0  0  0  0  0  0  0  0  0  0
  152.1991  140.1967  157.9748 C   0  0  0  0  0  0  0  0  0  0  0  0
  152.1851  141.5006  158.5230 C   0  0  0  0  0  0  0  0  0  0  0  0
  152.8418  141.7395  159.7455 C   0  0  0  0  0  0  0  0  0  0  0  0
  153.4919  140.6708  160.3972 C   0  0  0  0  0  0  0  0  0  0  0  0
  154.2193  140.8926  161.6917 C   0  0  0  0  0  0  0  0  0  0  0  0
  154.2283  142.0008  162.2279 O   0  0  0  0  0  0  0  0  0  0  0  0
  154.7892  139.8031  162.2306 N   0  0  0  0  0  0  0  0  0  0  0  0
  155.4978  139.7681  163.5057 C   0  0  0  0  0  0  0  0  0  0  0  0
  155.9493  138.3450  163.8753 C   0  0  0  0  0  0  0  0  0  0  0  0
  154.8913  137.5354  163.8656 F   0  0  0  0  0  0  0  0  0  0  0  0
  156.8436  137.8859  162.9999 F   0  0  0  0  0  0  0  0  0  0  0  0
  156.4841  138.3334  165.0966 F   0  0  0  0  0  0  0  0  0  0  0  0
  153.4681  139.4082  159.7642 C   0  0  0  0  0  0  0  0  0  0  0  0
  152.8408  139.1746  158.5925 N   0  0  0  0  0  0  0  0  0  0  0  0
  150.6487  140.9588  156.2194 C   0  0  0  0  0  0  0  0  0  0  0  0
  149.7735  140.3728  155.0975 C   0  0  1  0  0  0  0  0  0  0  0  0
  148.9145  141.4474  154.4229 C   0  0  0  0  0  0  0  0  0  0  0  0
  150.6067  139.7820  154.1008 O   0  0  0  0  0  0  0  0  0  0  0  0
  151.4069  136.6600  155.1759 H   0  0  0  0  0  0  0  0  0  0  0  0
  150.0861  137.1389  154.1170 H   0  0  0  0  0  0  0  0  0  0  0  0
  150.0728  137.6009  155.8179 H   0  0  0  0  0  0  0  0  0  0  0  0
  152.1345  138.5018  153.7480 H   0  0  0  0  0  0  0  0  0  0  0  0
  152.9594  138.4783  156.1301 H   0  0  0  0  0  0  0  0  0  0  0  0
  153.0552  140.0302  155.3334 H   0  0  0  0  0  0  0  0  0  0  0  0
  151.6942  142.3179  158.0160 H   0  0  0  0  0  0  0  0  0  0  0  0
  152.8402  142.7326  160.1712 H   0  0  0  0  0  0  0  0  0  0  0  0
  154.7077  138.9287  161.7323 H   0  0  0  0  0  0  0  0  0  0  0  0
  156.3695  140.4173  163.4190 H   0  0  0  0  0  0  0  0  0  0  0  0
  154.8801  140.1904  164.3000 H   0  0  0  0  0  0  0  0  0  0  0  0
  153.9664  138.5547  160.2002 H   0  0  0  0  0  0  0  0  0  0  0  0
  150.0069  141.3492  157.0104 H   0  0  0  0  0  0  0  0  0  0  0  0
  151.2428  141.7915  155.8398 H   0  0  0  0  0  0  0  0  0  0  0  0
  149.1045  139.6185  155.5120 H   0  0  0  0  0  0  0  0  0  0  0  0
  148.2458  141.9229  155.1409 H   0  0  0  0  0  0  0  0  0  0  0  0
  148.3004  141.0155  153.6326 H   0  0  0  0  0  0  0  0  0  0  0  0
  149.5342  142.2253  153.9758 H   0  0  0  0  0  0  0  0  0  0  0  0
  1  2  1  0  0  0  0
  1 23  1  0  0  0  0
  1 24  1  0  0  0  0
  1 25  1  0  0  0  0
  2 22  1  0  0  0  0
  2  3  1  0  0  0  0
  2 26  1  0  0  0  0
  3  4  1  0  0  0  0
  3 27  1  0  0  0  0
  3 28  1  0  0  0  0
  4  5  1  0  0  0  0
  4 19  1  0  0  0  0
  5 18  1  0  0  0  0
  5  6  2  0  0  0  0
  6  7  1  0  0  0  0
  6 29  1  0  0  0  0
  7  8  2  0  0  0  0
  7 30  1  0  0  0  0
  8  9  1  0  0  0  0
  8 17  1  0  0  0  0
  9 10  2  0  0  0  0
  9 11  1  0  0  0  0
 11 12  1  0  0  0  0
 11 31  1  0  0  0  0
 12 13  1  0  0  0  0
 12 32  1  0  0  0  0
 12 33  1  0  0  0  0
 13 14  1  0  0  0  0
 13 15  1  0  0  0  0
 13 16  1  0  0  0  0
 17 18  2  0  0  0  0
 17 34  1  0  0  0  0
 19 20  1  0  0  0  0
 19 35  1  0  0  0  0
 19 36  1  0  0  0  0
 20 21  1  0  0  0  0
 20 22  1  0  0  0  0
 20 37  1  0  0  0  0
 21 38  1  0  0  0  0
 21 39  1  0  0  0  0
 21 40  1  0  0  0  0
M  END
> <s_m_source_file>
AV-unprocessed.smi

> <i_m_source_file_index>
1565

> <i_lp_mmshare_version>
43012

> <i_f3d_flags>
0

> <s_epik_input>
W0NIM11bQ0BASF0xW0NIMl1OKFtDSDJdW0NASF0oTzEpW0NIM10pYzJbY0hdW2NIXWMoW2NIXW4yKUMoPU8pW05IXVtDSDJdQyhGKShGKUY=

> <s_epik_cmdline>
J2VwaWtfcHl0aG9uJywgJy1waCcsICc3LjAnLCAnLXRuJywgJzgnLCAnLW1hJywgJzIwMCcsICctbWV0YWxfYmluZGluZycsICctaW1hZScsICc8aW5maWxlLm1hZT4nLCAnLW9tYWUnLCAnPG91dGZpbGUubWFlPic=

> <r_lp_tautomer_probability>
1

> <r_epik_Ionization_Penalty>
1.48031e-05

> <r_epik_Ionization_Penalty_Charging>
0

> <r_epik_Ionization_Penalty_Neutral>
1.48031e-05

> <r_epik_State_Penalty>
-0

> <r_epik_Charging_Adjusted_Penalty>
0

> <i_epik_Tot_Q>
0

> <i_epik_Tot_abs_Q>
0

> <r_epik_Metal_State_Penalty>
0.00620302

> <b_epik_Metal_Only>
0

> <s_lp_Force_Field>
OPLS_2005

> <r_lp_Energy>
19.6517

> <b_lp_Chiralities_Consistent>
1

> <s_lp_Variant>
AV-unprocessed.smi:1565-1

> <Gold.Version>
5.8.1

> <Gold.Id.Protein>
6NUR|6NUR_protein|mol2

> <Gold.PLP.Fitness>
42.5042

> <Gold.PLP.PLP>
-39.5630

> <Gold.PLP.part.hbond>
-2.0000

> <Gold.PLP.part.metal>
0.0000

> <Gold.PLP.part.buried>
-2.6634

> <Gold.PLP.part.nonpolar>
-34.0270

> <Gold.PLP.part.repulsive>
0.3140

> <Gold.PLP.ligand.clash>
0.0000

> <Gold.PLP.ligand.torsion>
0.1990

> <Gold.PLP.Chemscore.Hbond>
1.0000

> <Gold.PLP.Chemscore.CHOScore>
0.0000

> <Gold.PLP.Chemscore.Metal>
0.0000

> <Gold.Chemscore.Hbonds>
donor molecule, donor type, donor heavy atom, donor atom, acceptor molecule, acceptor atom, score
      P1  H  7989  7998       L1    22  1.00

> <Gold.PLP.Chemscore.Internal.Correction>
0.3392

> <Gold.Rescore>
     Score         DG    S(hbond)    S(metal)    S(lipo)     H(rot)  DE(clash)    DE(int)     intcor
     13.57     -15.29       0.89        0.00      86.92       1.31       1.55       0.17       ----

> <Gold.Chemscore.Fitness>
13.5679

> <Gold.Chemscore.DG>
-15.2928

> <Gold.Chemscore.ZeroCoef>
-5.4800

> <Gold.Chemscore.Hbond>
0.8936

> <Gold.Chemscore.Metal>
0.0000

> <Gold.Chemscore.Lipo>
86.9206

> <Gold.Chemscore.Internal_Hbond>
0.0000

> <Gold.Chemscore.DEClash>
1.5506

> <Gold.Chemscore.DEInternal>
0.1742

> <Gold.Chemscore.Rot>
1.3052

> <Gold.Chemscore.Internal.Correction>
   9.000000E+99

> <Gold.Chemscore.Hbonds>
donor molecule, donor type, donor heavy atom, donor atom, acceptor molecule, acceptor atom, score
      P1  H  7989  7998       L1    22  0.31

> <Gold.Chemscore.Hbond.Weighted>
-2.9845

> <Gold.Chemscore.Metal.Weighted>
-0.0000

> <Gold.Chemscore.Lipo.Weighted>
-10.1697

> <Gold.Chemscore.Internal_Hbond.Weighted>
0.0000

> <Gold.Chemscore.DEClash.Weighted>
1.5506

> <Gold.Chemscore.DEInternal.Weighted>
0.1742

> <Gold.Chemscore.Rot.Weighted>
3.3414

> <Gold.Chemscore.Internal.Correction.Weighted>
   9.000000E+99

> <Gold.Protein.RotatedTorsions>
[ 6907 6896 6895 6894 ] final   86.70 input  -60.11 | X-H torsion
[ 7974 7965 7964 7962 ] final  156.32 input  175.53 | X-H torsion
[ 8008 7997 7996 7995 ] final   51.18 input   59.86 | X-H torsion
[ 10167 10162 10161 10158 ] final  179.82 input  -65.29 | X-H torsion
[ 10718 10713 10712 10709 ] final  -97.55 input   66.30 | X-H torsion
[ 10763 10752 10751 10750 ] final  106.94 input  -60.55 | X-H torsion
[ 11005 11000 10999 10996 ] final -116.32 input  -57.11 | X-H torsion

> <Gold.Protein.ActiveResidues>
 VAL166  LYS551  ARG553  GLY616  TRP617  ASP618  TYR619  PRO620  LYS621  CYS622 
 ASP623  PHE694  ASN695  SER759  ASP760  ASP761  ALA762  ILE779  LEU786  VAL792 
 PHE793  MET794  SER795  GLU796  ALA797  LYS798  CYS799  TRP800  GLU811  SER814 

> <Gold.Protein.RotatedAtoms>
  152.5399  134.2390  159.8854 H   0  0  0  0  0  0  0  0  0  0  0  0  # atno 6907 bound_to 6896
  151.2359  133.4419  159.2613 H   0  0  0  0  0  0  0  0  0  0  0  0  # atno 6908 bound_to 6896
  151.0672  134.9789  159.8346 H   0  0  0  0  0  0  0  0  0  0  0  0  # atno 6909 bound_to 6896
  144.7970  139.7187  143.6197 H   0  0  0  0  0  0  0  0  0  0  0  0  # atno 7974 bound_to 7965
  155.4310  140.3450  155.4280 H   0  0  0  0  0  0  0  0  0  0  0  0  # atno 8008 bound_to 7997
  156.1336  140.1521  156.9058 H   0  0  0  0  0  0  0  0  0  0  0  0  # atno 8009 bound_to 7997
  154.4914  140.0840  156.7583 H   0  0  0  0  0  0  0  0  0  0  0  0  # atno 8010 bound_to 7997
  139.5353  144.2516  152.0780 H   0  0  0  0  0  0  0  0  0  0  0  0  # atno 10167 bound_to 10162
  156.0086  130.5199  150.6392 H   0  0  0  0  0  0  0  0  0  0  0  0  # atno 10718 bound_to 10713
  153.3999  135.3860  155.1981 H   0  0  0  0  0  0  0  0  0  0  0  0  # atno 10763 bound_to 10752
  154.8728  135.3769  154.4631 H   0  0  0  0  0  0  0  0  0  0  0  0  # atno 10764 bound_to 10752
  153.5127  135.7087  153.5834 H   0  0  0  0  0  0  0  0  0  0  0  0  # atno 10765 bound_to 10752
  141.0429  133.9807  157.2964 H   0  0  0  0  0  0  0  0  0  0  0  0  # atno 11005 bound_to 11000
  146.2242  139.5691  142.9598 LP  0  0  0  0  0  0  0  0  0  0  0  0  # atno 17320 bound_to 7965
  145.5647  141.0400  143.2207 LP  0  0  0  0  0  0  0  0  0  0  0  0  # atno 17321 bound_to 7965
  140.1985  144.4681  150.6443 LP  0  0  0  0  0  0  0  0  0  0  0  0  # atno 17342 bound_to 10162
  140.6556  143.2236  151.5977 LP  0  0  0  0  0  0  0  0  0  0  0  0  # atno 17343 bound_to 10162
  157.4175  131.0832  151.1163 LP  0  0  0  0  0  0  0  0  0  0  0  0  # atno 17370 bound_to 10713
  157.1775  130.6295  149.5661 LP  0  0  0  0  0  0  0  0  0  0  0  0  # atno 17371 bound_to 10713
  139.9290  135.0200  156.8334 LP  0  0  0  0  0  0  0  0  0  0  0  0  # atno 17394 bound_to 11000
  140.6200  134.0003  155.7614 LP  0  0  0  0  0  0  0  0  0  0  0  0  # atno 17395 bound_to 11000

$$$$
