#       Name:                AV-unprocessed.smi:52
#       Creating user name   scv26
#       Creation time:       Thu Mar 26 16:38:02 2020


#       File generated by GOLD software.
#

@<TRIPOS>MOLECULE
AV-unprocessed.smi:52
    36    37     1
SMALL
NO_CHARGES


@<TRIPOS>ATOM
      1 ****        -5.5037  -0.2414  -1.3931 O.co2          1 S1                 0.0000
      2 ****        -4.4349  -0.8904  -1.4132 C.2            1 S1                 0.0000
      3 ****        -4.4197  -2.1409  -1.4212 O.co2          1 S1                -1.0000
      4 ****        -3.1452  -0.1540  -1.4233 C.2            1 S1                 0.0000
      5 ****        -2.9748   1.2073  -1.4011 C.2            1 S1                 0.0000
      6 ****        -1.6361   1.4932  -1.4046 O.3            1 S1                 0.0000
      7 ****        -1.0344   0.2733  -1.4341 C.2            1 S1                 0.0000
      8 ****         0.4563   0.2003  -1.4148 C.3            1 S1                 0.0000
      9 ****         0.8131   0.3992   0.0108 N.4            1 S1                 1.0000
     10 ****         0.4603  -0.7185   0.9182 C.3            1 S1                 0.0000
     11 ****         1.4504  -0.6233   2.0743 C.3            1 S1                 0.0000
     12 ****         2.7298  -0.1868   1.3695 C.3            1 S1                 0.0000
     13 ****         3.6158   0.4769   2.2452 O.3            1 S1                 0.0000
     14 ****         2.2410   0.7267   0.2371 C.3            1 S1                 0.0000
     15 ****        -1.8891  -0.7459  -1.4509 N.2            1 S1                 0.0000
     16 ****         3.2266  -1.0607   0.9453 H              1 S1                 0.0000
     17 ****        -3.6553   2.0457  -1.3774 H              1 S1                 0.0000
     18 ****         0.8086  -0.7582  -1.7981 H              1 S1                 0.0000
     19 ****         0.8625   0.9993  -2.0361 H              1 S1                 0.0000
     20 ****        -0.5756  -0.6577   1.2539 H              1 S1                 0.0000
     21 ****         0.5920  -1.6720   0.4040 H              1 S1                 0.0000
     22 ****         1.1197   0.1428   2.7777 H              1 S1                 0.0000
     23 ****         1.5611  -1.5609   2.6202 H              1 S1                 0.0000
     24 ****         3.8882  -0.1290   2.9178 H              1 S1                 0.0000
     25 ****         2.8497   0.5940  -0.6586 H              1 S1                 0.0000
     26 ****         2.2993   1.7784   0.5209 H              1 S1                 0.0000
     27 ****         0.2937   1.2036   0.3327 H              1 S1                 0.0000
     28 ****        -6.3805  -0.7222  -1.3829 LP             1 S1                 0.0000
     29 ****        -5.4815   0.7583  -1.3873 LP             1 S1                 0.0000
     30 ****        -5.2795  -2.6515  -1.4115 LP             1 S1                 0.0000
     31 ****        -3.5477  -2.6303  -1.4374 LP             1 S1                 0.0000
     32 ****        -1.3786   1.9958  -0.5794 LP             1 S1                 0.0000
     33 ****        -1.3901   2.0296  -2.2119 LP             1 S1                 0.0000
     34 ****         3.1529   1.2582   2.6637 LP             1 S1                 0.0000
     35 ****         4.4152   0.7964   1.7364 LP             1 S1                 0.0000
     36 ****        -1.6746  -1.7223  -1.4776 LP             1 S1                 0.0000
@<TRIPOS>BOND
    1    1    2 ar    
    2    2    3 ar    
    3    2    4 1     
    4    4   15 1     
    5    4    5 2     
    6    5    6 1     
    7    5   17 1     
    8    6    7 1     
    9    7    8 1     
   10    7   15 2     
   11    8    9 1     
   12    8   18 1     
   13    8   19 1     
   14    9   14 1     
   15    9   10 1     
   16    9   27 1     
   17   10   11 1     
   18   10   20 1     
   19   10   21 1     
   20   11   12 1     
   21   11   22 1     
   22   11   23 1     
   23   12   16 1     
   24   12   13 1     
   25   12   14 1     
   26   13   24 1     
   27   14   25 1     
   28   14   26 1     
   29    1   28 1     
   30    1   29 1     
   31    3   30 1     
   32    3   31 1     
   33    6   32 1     
   34    6   33 1     
   35   13   34 1     
   36   13   35 1     
   37   15   36 1     
@<TRIPOS>SUBSTRUCTURE
      1 S1             1
@<TRIPOS>SET
LONE_PAIRS      STATIC     ATOMS    <user>   **** ""
9 28 29 30 31 32 33 34 35 36
DONOR_HYDROGENS      STATIC     ATOMS    <user>   **** ""
2 27 24
ATOM$BLUE        STATIC     ATOMS    COLORGROUP SYSTEM
9 28 29 30 31 32 33 34 35 36
ATOM$RED        STATIC     ATOMS    COLORGROUP SYSTEM
2 27 24
