AV-unprocessed.smi:1222|AV-procd|sdf|5122|dock9
  -GOLD-   22720 4183D 1   1.00000     0.00000
 Structure written by MMmdl.
 36 38  0  0  0  0  0  0  0  0  1 V2000
  150.5308  140.5849  156.9673 O   0  0  0  0  0  0  0  0  0  0  0  0
  150.0537  141.6728  156.6422 C   0  0  0  0  0  0  0  0  0  0  0  0
  150.2567  142.8348  157.2870 N   0  0  0  0  0  0  0  0  0  0  0  0
  151.0402  143.0697  158.4472 C   0  0  0  0  0  0  0  0  0  0  0  0
  151.5047  142.1068  159.2521 N   0  0  0  0  0  0  0  0  0  0  0  0
  152.2459  142.6256  160.3166 C   0  0  0  0  0  0  0  0  0  0  0  0
  152.3357  143.9955  160.3069 C   0  0  0  0  0  0  0  0  0  0  0  0
  151.4884  144.6924  158.9520 S   0  0  0  0  0  0  0  0  0  0  0  0
  149.2545  141.8419  155.5787 N   0  0  0  0  0  0  0  0  0  0  0  0
  148.8388  140.7835  154.6632 C   0  0  0  0  0  0  0  0  0  0  0  0
  147.8730  141.3260  153.5944 C   0  0  0  0  0  0  0  0  0  0  0  0
  147.3157  140.1857  152.7253 C   0  0  0  0  0  0  0  0  0  0  0  0
  146.6247  139.2048  153.5620 N   0  0  0  0  0  0  0  0  0  0  0  0
  146.0672  138.1688  152.7080 C   0  0  0  0  0  0  0  0  0  0  0  0
  144.6570  137.7075  152.9979 C   0  0  0  0  0  0  0  0  0  0  0  0
  145.8257  136.8097  153.3243 C   0  0  0  0  0  0  0  0  0  0  0  0
  147.5721  138.5926  154.4938 C   0  0  0  0  0  0  0  0  0  0  0  0
  148.1445  139.6575  155.4459 C   0  0  0  0  0  0  0  0  0  0  0  0
  149.7979  143.6471  156.9021 H   0  0  0  0  0  0  0  0  0  0  0  0
  152.6751  141.9457  161.0376 H   0  0  0  0  0  0  0  0  0  0  0  0
  152.8470  144.6339  161.0120 H   0  0  0  0  0  0  0  0  0  0  0  0
  148.9079  142.7703  155.3864 H   0  0  0  0  0  0  0  0  0  0  0  0
  149.7196  140.3671  154.1703 H   0  0  0  0  0  0  0  0  0  0  0  0
  147.0459  141.8546  154.0709 H   0  0  0  0  0  0  0  0  0  0  0  0
  148.3806  142.0536  152.9605 H   0  0  0  0  0  0  0  0  0  0  0  0
  146.6189  140.5963  151.9936 H   0  0  0  0  0  0  0  0  0  0  0  0
  148.1209  139.7058  152.1662 H   0  0  0  0  0  0  0  0  0  0  0  0
  146.3483  138.1582  151.6561 H   0  0  0  0  0  0  0  0  0  0  0  0
  144.1306  138.1692  153.8314 H   0  0  0  0  0  0  0  0  0  0  0  0
  144.0348  137.4354  152.1477 H   0  0  0  0  0  0  0  0  0  0  0  0
  145.9809  135.9376  152.6924 H   0  0  0  0  0  0  0  0  0  0  0  0
  146.0749  136.6743  154.3752 H   0  0  0  0  0  0  0  0  0  0  0  0
  147.0650  137.8214  155.0747 H   0  0  0  0  0  0  0  0  0  0  0  0
  148.3781  138.1021  153.9453 H   0  0  0  0  0  0  0  0  0  0  0  0
  148.8488  139.1930  156.1368 H   0  0  0  0  0  0  0  0  0  0  0  0
  147.3371  140.0665  156.0554 H   0  0  0  0  0  0  0  0  0  0  0  0
  1  2  2  0  0  0  0
  2  3  1  0  0  0  0
  2  9  1  0  0  0  0
  3  4  1  0  0  0  0
  3 19  1  0  0  0  0
  4  8  1  0  0  0  0
  4  5  2  0  0  0  0
  5  6  1  0  0  0  0
  6  7  2  0  0  0  0
  6 20  1  0  0  0  0
  7  8  1  0  0  0  0
  7 21  1  0  0  0  0
  9 10  1  0  0  0  0
  9 22  1  0  0  0  0
 10 18  1  0  0  0  0
 10 11  1  0  0  0  0
 10 23  1  0  0  0  0
 11 12  1  0  0  0  0
 11 24  1  0  0  0  0
 11 25  1  0  0  0  0
 12 13  1  0  0  0  0
 12 26  1  0  0  0  0
 12 27  1  0  0  0  0
 13 14  1  0  0  0  0
 13 17  1  0  0  0  0
 14 16  1  0  0  0  0
 14 15  1  0  0  0  0
 14 28  1  0  0  0  0
 15 16  1  0  0  0  0
 15 29  1  0  0  0  0
 15 30  1  0  0  0  0
 16 31  1  0  0  0  0
 16 32  1  0  0  0  0
 17 18  1  0  0  0  0
 17 33  1  0  0  0  0
 17 34  1  0  0  0  0
 18 35  1  0  0  0  0
 18 36  1  0  0  0  0
M  END
> <s_m_source_file>
AV-unprocessed.smi

> <i_m_source_file_index>
1222

> <i_lp_mmshare_version>
43012

> <i_f3d_flags>
0

> <s_epik_input>
czFbY0hdW2NIXW5jMVtOSF1DKD1PKVtOSF1bQ0hdMltDSDJdW0NIMl1OKFtDSDJdW0NIMl0yKVtDSF0zW0NIMl1bQ0gyXTM=

> <s_epik_cmdline>
J2VwaWtfcHl0aG9uJywgJy1waCcsICc3LjAnLCAnLXRuJywgJzgnLCAnLW1hJywgJzIwMCcsICctbWV0YWxfYmluZGluZycsICctaW1hZScsICc8aW5maWxlLm1hZT4nLCAnLW9tYWUnLCAnPG91dGZpbGUubWFlPic=

> <r_lp_tautomer_probability>
0.999

> <r_epik_Ionization_Penalty>
0.985554

> <r_epik_Ionization_Penalty_Charging>
0

> <r_epik_Ionization_Penalty_Neutral>
0.985554

> <r_epik_State_Penalty>
1.03262

> <r_epik_Charging_Adjusted_Penalty>
1.03262

> <i_epik_Tot_Q>
0

> <i_epik_Tot_abs_Q>
0

> <r_epik_Metal_State_Penalty>
1.07929

> <b_epik_Metal_Only>
0

> <s_lp_Force_Field>
OPLS_2005

> <r_lp_Energy>
20.1195

> <b_lp_Chiralities_Consistent>
1

> <s_lp_Variant>
AV-unprocessed.smi:1222-3

> <Gold.Version>
5.8.1

> <Gold.Id.Protein>
6NUR|6NUR_protein|mol2

> <Gold.PLP.Fitness>
35.8971

> <Gold.PLP.PLP>
-30.6486

> <Gold.PLP.part.hbond>
-2.0000

> <Gold.PLP.part.metal>
0.0000

> <Gold.PLP.part.buried>
-3.5614

> <Gold.PLP.part.nonpolar>
-26.3155

> <Gold.PLP.part.repulsive>
0.3600

> <Gold.PLP.ligand.clash>
0.0000

> <Gold.PLP.ligand.torsion>
0.9480

> <Gold.PLP.Chemscore.Hbond>
1.9920

> <Gold.PLP.Chemscore.CHOScore>
0.0000

> <Gold.PLP.Chemscore.Metal>
0.0000

> <Gold.Chemscore.Hbonds>
donor molecule, donor type, donor heavy atom, donor atom, acceptor molecule, acceptor atom, score
      L1  H     3    19       P1  8028  1.00
      L1  H     9    22       P1  8028  1.00

> <Gold.PLP.Chemscore.Internal.Correction>
1.1686

> <Gold.Rescore>
     Score         DG    S(hbond)    S(metal)    S(lipo)     H(rot)  DE(clash)    DE(int)     intcor
     13.87     -17.36       1.95        0.00      73.14       1.25       0.07       3.42       ----

> <Gold.Chemscore.Fitness>
13.8732

> <Gold.Chemscore.DG>
-17.3628

> <Gold.Chemscore.ZeroCoef>
-5.4800

> <Gold.Chemscore.Hbond>
1.9498

> <Gold.Chemscore.Metal>
0.0000

> <Gold.Chemscore.Lipo>
73.1439

> <Gold.Chemscore.Internal_Hbond>
0.0000

> <Gold.Chemscore.DEClash>
0.0728

> <Gold.Chemscore.DEInternal>
3.4168

> <Gold.Chemscore.Rot>
1.2451

> <Gold.Chemscore.Internal.Correction>
   9.000000E+99

> <Gold.Chemscore.Hbonds>
donor molecule, donor type, donor heavy atom, donor atom, acceptor molecule, acceptor atom, score
      L1  H     3    19       P1  8028  0.98
      L1  H     9    22       P1  8028  0.96

> <Gold.Chemscore.Hbond.Weighted>
-6.5124

> <Gold.Chemscore.Metal.Weighted>
-0.0000

> <Gold.Chemscore.Lipo.Weighted>
-8.5578

> <Gold.Chemscore.Internal_Hbond.Weighted>
0.0000

> <Gold.Chemscore.DEClash.Weighted>
0.0728

> <Gold.Chemscore.DEInternal.Weighted>
3.4168

> <Gold.Chemscore.Rot.Weighted>
3.1874

> <Gold.Chemscore.Internal.Correction.Weighted>
   9.000000E+99

> <Gold.Protein.RotatedTorsions>
[ 6907 6896 6895 6894 ] final  -92.35 input  -60.11 | X-H torsion
[ 7974 7965 7964 7962 ] final   19.33 input  175.53 | X-H torsion
[ 8008 7997 7996 7995 ] final  104.29 input   59.86 | X-H torsion
[ 10167 10162 10161 10158 ] final -134.38 input  -65.29 | X-H torsion
[ 10718 10713 10712 10709 ] final  -97.38 input   66.30 | X-H torsion
[ 10763 10752 10751 10750 ] final  105.84 input  -60.55 | X-H torsion
[ 11005 11000 10999 10996 ] final -151.86 input  -57.11 | X-H torsion

> <Gold.Protein.ActiveResidues>
 VAL166  LYS551  ARG553  GLY616  TRP617  ASP618  TYR619  PRO620  LYS621  CYS622 
 ASP623  PHE694  ASN695  SER759  ASP760  ASP761  ALA762  ILE779  LEU786  VAL792 
 PHE793  MET794  SER795  GLU796  ALA797  LYS798  CYS799  TRP800  GLU811  SER814 

> <Gold.Protein.RotatedAtoms>
  150.6905  134.2135  159.4368 H   0  0  0  0  0  0  0  0  0  0  0  0  # atno 6907 bound_to 6896
  152.0095  134.9881  160.0577 H   0  0  0  0  0  0  0  0  0  0  0  0  # atno 6908 bound_to 6896
  152.1502  133.4482  159.4846 H   0  0  0  0  0  0  0  0  0  0  0  0  # atno 6909 bound_to 6896
  146.2153  139.8329  142.8656 H   0  0  0  0  0  0  0  0  0  0  0  0  # atno 7974 bound_to 7965
  156.1560  140.3150  155.8726 H   0  0  0  0  0  0  0  0  0  0  0  0  # atno 8008 bound_to 7997
  155.3878  140.0491  157.3059 H   0  0  0  0  0  0  0  0  0  0  0  0  # atno 8009 bound_to 7997
  154.5101  140.2161  155.9184 H   0  0  0  0  0  0  0  0  0  0  0  0  # atno 8010 bound_to 7997
  139.8887  143.6750  152.2616 H   0  0  0  0  0  0  0  0  0  0  0  0  # atno 10167 bound_to 10162
  156.0082  130.5192  150.6366 H   0  0  0  0  0  0  0  0  0  0  0  0  # atno 10718 bound_to 10713
  153.3848  135.3897  155.1882 H   0  0  0  0  0  0  0  0  0  0  0  0  # atno 10763 bound_to 10752
  154.8712  135.3734  154.4812 H   0  0  0  0  0  0  0  0  0  0  0  0  # atno 10764 bound_to 10752
  153.5292  135.7086  153.5753 H   0  0  0  0  0  0  0  0  0  0  0  0  # atno 10765 bound_to 10752
  140.7250  134.3684  157.5177 H   0  0  0  0  0  0  0  0  0  0  0  0  # atno 11005 bound_to 11000
  145.2979  141.0186  143.3625 LP  0  0  0  0  0  0  0  0  0  0  0  0  # atno 17320 bound_to 7965
  144.9028  139.4627  143.6624 LP  0  0  0  0  0  0  0  0  0  0  0  0  # atno 17321 bound_to 7965
  139.7130  144.7617  151.1081 LP  0  0  0  0  0  0  0  0  0  0  0  0  # atno 17342 bound_to 10162
  140.7731  143.5306  150.9427 LP  0  0  0  0  0  0  0  0  0  0  0  0  # atno 17343 bound_to 10162
  157.4154  131.0829  151.1181 LP  0  0  0  0  0  0  0  0  0  0  0  0  # atno 17370 bound_to 10713
  157.1800  130.6305  149.5668 LP  0  0  0  0  0  0  0  0  0  0  0  0  # atno 17371 bound_to 10713
  139.8839  134.8980  156.2736 LP  0  0  0  0  0  0  0  0  0  0  0  0  # atno 17394 bound_to 11000
  140.9970  133.7174  156.0902 LP  0  0  0  0  0  0  0  0  0  0  0  0  # atno 17395 bound_to 11000

$$$$
