AV-unprocessed.smi:2289|AV-procd|sdf|9208|dock4
  -GOLD-   2272012423D 1   1.00000     0.00000
 Structure written by MMmdl.
 40 41  0  0  0  0  0  0  0  0  1 V2000
  151.6977  144.1132  161.0251 C   0  0  0  0  0  0  0  0  0  0  0  0
  151.6686  143.2222  159.7959 C   0  0  0  0  0  0  0  0  0  0  0  0
  150.8541  143.6634  158.7496 N   0  0  0  0  0  0  0  0  0  0  0  0
  150.7642  142.9657  157.6650 C   0  0  0  0  0  0  0  0  0  0  0  0
  151.4649  141.7594  157.5003 N   0  0  0  0  0  0  0  0  0  0  0  0
  151.2688  141.0779  156.2061 C   0  0  0  0  0  0  0  0  0  0  0  0
  150.8279  139.5950  156.3184 C   0  0  2  0  0  0  0  0  0  0  0  0
  151.9753  138.7860  156.4866 O   0  0  0  0  0  0  0  0  0  0  0  0
  149.9526  139.0566  155.1640 C   0  0  0  0  0  0  0  0  0  0  0  0
  148.7163  139.9095  154.9071 C   0  0  0  0  0  0  0  0  0  0  0  0
  148.9006  141.1694  154.2967 C   0  0  0  0  0  0  0  0  0  0  0  0
  147.8037  142.0072  154.0293 C   0  0  0  0  0  0  0  0  0  0  0  0
  146.5075  141.5909  154.3756 C   0  0  0  0  0  0  0  0  0  0  0  0
  146.3118  140.3393  154.9877 C   0  0  0  0  0  0  0  0  0  0  0  0
  147.4049  139.4824  155.2598 C   0  0  0  0  0  0  0  0  0  0  0  0
  147.1448  138.1349  155.9368 C   0  0  0  0  0  0  0  0  0  0  0  0
  145.8437  137.9357  156.1517 F   0  0  0  0  0  0  0  0  0  0  0  0
  147.5823  137.1275  155.1818 F   0  0  0  0  0  0  0  0  0  0  0  0
  147.7627  138.0969  157.1174 F   0  0  0  0  0  0  0  0  0  0  0  0
  152.2921  141.2642  158.4677 C   0  0  0  0  0  0  0  0  0  0  0  0
  152.9124  140.2099  158.3155 O   0  0  0  0  0  0  0  0  0  0  0  0
  152.3814  142.0669  159.6982 C   0  0  0  0  0  0  0  0  0  0  0  0
  153.2847  141.5375  160.8052 C   0  0  0  0  0  0  0  0  0  0  0  0
  152.7082  144.4807  161.2058 H   0  0  0  0  0  0  0  0  0  0  0  0
  151.3631  143.5629  161.9047 H   0  0  0  0  0  0  0  0  0  0  0  0
  151.0436  144.9777  160.9053 H   0  0  0  0  0  0  0  0  0  0  0  0
  150.1438  143.2653  156.8185 H   0  0  0  0  0  0  0  0  0  0  0  0
  150.5689  141.6379  155.5823 H   0  0  0  0  0  0  0  0  0  0  0  0
  152.1965  141.1069  155.6327 H   0  0  0  0  0  0  0  0  0  0  0  0
  150.2660  139.5079  157.2491 H   0  0  0  0  0  0  0  0  0  0  0  0
  151.7294  137.8834  156.3525 H   0  0  0  0  0  0  0  0  0  0  0  0
  150.5337  139.0058  154.2472 H   0  0  0  0  0  0  0  0  0  0  0  0
  149.6501  138.0278  155.3659 H   0  0  0  0  0  0  0  0  0  0  0  0
  149.8938  141.4976  154.0267 H   0  0  0  0  0  0  0  0  0  0  0  0
  147.9578  142.9679  153.5603 H   0  0  0  0  0  0  0  0  0  0  0  0
  145.6622  142.2321  154.1740 H   0  0  0  0  0  0  0  0  0  0  0  0
  145.3055  140.0478  155.2483 H   0  0  0  0  0  0  0  0  0  0  0  0
  152.9464  140.5522  161.1272 H   0  0  0  0  0  0  0  0  0  0  0  0
  153.3080  142.1794  161.6843 H   0  0  0  0  0  0  0  0  0  0  0  0
  154.3084  141.4418  160.4420 H   0  0  0  0  0  0  0  0  0  0  0  0
  1  2  1  0  0  0  0
  1 24  1  0  0  0  0
  1 25  1  0  0  0  0
  1 26  1  0  0  0  0
  2 22  2  0  0  0  0
  2  3  1  0  0  0  0
  3  4  2  0  0  0  0
  4  5  1  0  0  0  0
  4 27  1  0  0  0  0
  5  6  1  0  0  0  0
  5 20  1  0  0  0  0
  6  7  1  0  0  0  0
  6 28  1  0  0  0  0
  6 29  1  0  0  0  0
  7  8  1  0  0  0  0
  7  9  1  0  0  0  0
  7 30  1  0  0  0  0
  8 31  1  0  0  0  0
  9 10  1  0  0  0  0
  9 32  1  0  0  0  0
  9 33  1  0  0  0  0
 10 15  1  0  0  0  0
 10 11  2  0  0  0  0
 11 12  1  0  0  0  0
 11 34  1  0  0  0  0
 12 13  2  0  0  0  0
 12 35  1  0  0  0  0
 13 14  1  0  0  0  0
 13 36  1  0  0  0  0
 14 15  2  0  0  0  0
 14 37  1  0  0  0  0
 15 16  1  0  0  0  0
 16 17  1  0  0  0  0
 16 18  1  0  0  0  0
 16 19  1  0  0  0  0
 20 21  2  0  0  0  0
 20 22  1  0  0  0  0
 22 23  1  0  0  0  0
 23 38  1  0  0  0  0
 23 39  1  0  0  0  0
 23 40  1  0  0  0  0
M  END
> <s_m_source_file>
AV-unprocessed.smi

> <i_m_source_file_index>
2289

> <i_lp_mmshare_version>
43012

> <i_f3d_flags>
0

> <s_epik_input>
W0NIM11jMW5bY0hdbihjKD1PKWMxW0NIM10pW0NIMl1bQ0BIXShbT0hdKVtDSDJdYzJbY0hdW2NIXVtjSF1bY0hdYzJDKEYpKEYpRg==

> <s_epik_cmdline>
J2VwaWtfcHl0aG9uJywgJy1waCcsICc3LjAnLCAnLXRuJywgJzgnLCAnLW1hJywgJzIwMCcsICctbWV0YWxfYmluZGluZycsICctaW1hZScsICc8aW5maWxlLm1hZT4nLCAnLW9tYWUnLCAnPG91dGZpbGUubWFlPic=

> <r_lp_tautomer_probability>
1

> <r_epik_Ionization_Penalty>
8.92636e-05

> <r_epik_Ionization_Penalty_Charging>
8.63033e-08

> <r_epik_Ionization_Penalty_Neutral>
8.91773e-05

> <r_epik_State_Penalty>
-0

> <r_epik_Charging_Adjusted_Penalty>
8.63033e-08

> <i_epik_Tot_Q>
0

> <i_epik_Tot_abs_Q>
0

> <r_epik_Metal_State_Penalty>
-0

> <b_epik_Metal_Only>
0

> <s_lp_Force_Field>
OPLS_2005

> <r_lp_Energy>
23.7682

> <b_lp_Chiralities_Consistent>
1

> <s_lp_Variant>
AV-unprocessed.smi:2289-1

> <Gold.Version>
5.8.1

> <Gold.Id.Protein>
6NUR|6NUR_protein|mol2

> <Gold.PLP.Fitness>
42.5380

> <Gold.PLP.PLP>
-37.4591

> <Gold.PLP.part.hbond>
-1.0000

> <Gold.PLP.part.metal>
0.0000

> <Gold.PLP.part.buried>
-4.6905

> <Gold.PLP.part.nonpolar>
-31.3045

> <Gold.PLP.part.repulsive>
0.0989

> <Gold.PLP.ligand.clash>
1.3954

> <Gold.PLP.ligand.torsion>
0.5173

> <Gold.PLP.Chemscore.Hbond>
1.0000

> <Gold.PLP.Chemscore.CHOScore>
1.0000

> <Gold.PLP.Chemscore.Metal>
0.0000

> <Gold.Chemscore.Hbonds>
donor molecule, donor type, donor heavy atom, donor atom, acceptor molecule, acceptor atom, score
      P1  H  7997  8008       L1    21  0.76
      L1  C     4    27       P1  8028  1.00

> <Gold.PLP.Chemscore.Internal.Correction>
1.5089

> <Gold.Rescore>
     Score         DG    S(hbond)    S(metal)    S(lipo)     H(rot)  DE(clash)    DE(int)     intcor
      8.92     -13.28       0.94        0.00      91.63       2.37       0.05       4.31       ----

> <Gold.Chemscore.Fitness>
8.9208

> <Gold.Chemscore.DG>
-13.2770

> <Gold.Chemscore.ZeroCoef>
-5.4800

> <Gold.Chemscore.Hbond>
0.9399

> <Gold.Chemscore.Metal>
0.0000

> <Gold.Chemscore.Lipo>
91.6263

> <Gold.Chemscore.Internal_Hbond>
0.0000

> <Gold.Chemscore.DEClash>
0.0508

> <Gold.Chemscore.DEInternal>
4.3054

> <Gold.Chemscore.Rot>
2.3681

> <Gold.Chemscore.Internal.Correction>
   9.000000E+99

> <Gold.Chemscore.Hbonds>
donor molecule, donor type, donor heavy atom, donor atom, acceptor molecule, acceptor atom, score
      P1  H  7997  8008       L1    21  0.70

> <Gold.Chemscore.Hbond.Weighted>
-3.1391

> <Gold.Chemscore.Metal.Weighted>
-0.0000

> <Gold.Chemscore.Lipo.Weighted>
-10.7203

> <Gold.Chemscore.Internal_Hbond.Weighted>
0.0000

> <Gold.Chemscore.DEClash.Weighted>
0.0508

> <Gold.Chemscore.DEInternal.Weighted>
4.3054

> <Gold.Chemscore.Rot.Weighted>
6.0624

> <Gold.Chemscore.Internal.Correction.Weighted>
   9.000000E+99

> <Gold.Protein.RotatedTorsions>
[ 6907 6896 6895 6894 ] final -112.23 input  -60.11 | X-H torsion
[ 7974 7965 7964 7962 ] final  -45.49 input  175.53 | X-H torsion
[ 8008 7997 7996 7995 ] final  -85.47 input   59.86 | X-H torsion
[ 10167 10162 10161 10158 ] final    8.96 input  -65.29 | X-H torsion
[ 10718 10713 10712 10709 ] final    6.42 input   66.30 | X-H torsion
[ 10763 10752 10751 10750 ] final  -72.50 input  -60.55 | X-H torsion
[ 11005 11000 10999 10996 ] final   98.61 input  -57.11 | X-H torsion

> <Gold.Protein.ActiveResidues>
 VAL166  LYS551  ARG553  GLY616  TRP617  ASP618  TYR619  PRO620  LYS621  CYS622 
 ASP623  PHE694  ASN695  SER759  ASP760  ASP761  ALA762  ILE779  LEU786  VAL792 
 PHE793  MET794  SER795  GLU796  ALA797  LYS798  CYS799  TRP800  GLU811  SER814 

> <Gold.Protein.RotatedAtoms>
  150.7744  133.9120  159.3371 H   0  0  0  0  0  0  0  0  0  0  0  0  # atno 6907 bound_to 6896
  151.6998  135.0930  160.0258 H   0  0  0  0  0  0  0  0  0  0  0  0  # atno 6908 bound_to 6896
  152.3774  133.6462  159.6170 H   0  0  0  0  0  0  0  0  0  0  0  0  # atno 6909 bound_to 6896
  145.9816  140.7278  142.9361 H   0  0  0  0  0  0  0  0  0  0  0  0  # atno 7974 bound_to 7965
  154.6411  140.0591  156.9847 H   0  0  0  0  0  0  0  0  0  0  0  0  # atno 8008 bound_to 7997
  155.1515  140.3274  155.4411 H   0  0  0  0  0  0  0  0  0  0  0  0  # atno 8009 bound_to 7997
  156.2531  140.1946  156.6627 H   0  0  0  0  0  0  0  0  0  0  0  0  # atno 8010 bound_to 7997
  140.6283  143.8050  150.7262 H   0  0  0  0  0  0  0  0  0  0  0  0  # atno 10167 bound_to 10162
  156.9219  130.5794  149.5648 H   0  0  0  0  0  0  0  0  0  0  0  0  # atno 10718 bound_to 10713
  154.4465  135.5928  153.6163 H   0  0  0  0  0  0  0  0  0  0  0  0  # atno 10763 bound_to 10752
  152.9810  135.6010  154.3657 H   0  0  0  0  0  0  0  0  0  0  0  0  # atno 10764 bound_to 10752
  154.3514  135.2841  155.2349 H   0  0  0  0  0  0  0  0  0  0  0  0  # atno 10765 bound_to 10752
  139.8772  134.9057  156.4482 H   0  0  0  0  0  0  0  0  0  0  0  0  # atno 11005 bound_to 11000
  144.6863  140.2917  143.7277 LP  0  0  0  0  0  0  0  0  0  0  0  0  # atno 17320 bound_to 7965
  145.7762  139.1874  143.2184 LP  0  0  0  0  0  0  0  0  0  0  0  0  # atno 17321 bound_to 7965
  140.1656  143.4238  152.2037 LP  0  0  0  0  0  0  0  0  0  0  0  0  # atno 17342 bound_to 10162
  139.5501  144.7330  151.4463 LP  0  0  0  0  0  0  0  0  0  0  0  0  # atno 17343 bound_to 10162
  156.0487  130.5559  150.8940 LP  0  0  0  0  0  0  0  0  0  0  0  0  # atno 17370 bound_to 10713
  157.5902  131.0944  150.9131 LP  0  0  0  0  0  0  0  0  0  0  0  0  # atno 17371 bound_to 10713
  140.8951  133.7820  155.9616 LP  0  0  0  0  0  0  0  0  0  0  0  0  # atno 17394 bound_to 11000
  140.8712  134.2724  157.5190 LP  0  0  0  0  0  0  0  0  0  0  0  0  # atno 17395 bound_to 11000

$$$$
