AV-unprocessed.smi:36|AV-procd|sdf|294|dock9
  -GOLD-   2262016 93D 1   1.00000     0.00000
 Structure written by MMmdl.
 64 67  0  0  0  0  0  0  0  0  1 V2000
  148.5075  131.7875  153.8586 C   0  0  0  0  0  0  0  0  0  0  0  0
  147.4341  132.8441  154.1680 C   0  0  0  0  0  0  0  0  0  0  0  0
  147.0839  133.6243  152.8900 C   0  0  0  0  0  0  0  0  0  0  0  0
  146.1700  132.1626  154.7210 C   0  0  0  0  0  0  0  0  0  0  0  0
  148.1005  134.0612  155.4814 Si  0  0  0  0  0  0  0  0  0  0  0  0
  148.3683  133.1696  157.1407 C   0  0  0  0  0  0  0  0  0  0  0  0
  149.7324  134.8541  154.9203 C   0  0  0  0  0  0  0  0  0  0  0  0
  146.9542  135.2982  155.6511 O   0  0  0  0  0  0  0  0  0  0  0  0
  146.3866  136.0317  154.5844 C   0  0  0  0  0  0  0  0  0  0  0  0
  146.8004  137.5012  154.7326 C   0  0  1  0  0  0  0  0  0  0  0  0
  148.2202  137.6014  154.8125 O   0  0  0  0  0  0  0  0  0  0  0  0
  148.6620  138.7651  154.1838 C   0  0  2  0  0  0  0  0  0  0  0  0
  149.4684  139.5609  155.1592 N   0  0  0  0  0  0  0  0  0  0  0  0
  149.3773  140.8876  155.3655 C   0  0  0  0  0  0  0  0  0  0  0  0
  150.2097  141.3828  156.2773 N   0  0  0  0  0  0  0  0  0  0  0  0
  150.9081  140.2550  156.6954 C   0  0  0  0  0  0  0  0  0  0  0  0
  151.9879  140.1182  157.6969 C   0  0  0  0  0  0  0  0  0  0  0  0
  152.3747  141.1921  158.3158 N   0  0  0  0  0  0  0  0  0  0  0  0
  153.3765  141.1228  159.2756 C   0  0  0  0  0  0  0  0  0  0  0  0
  154.3936  140.4236  159.2809 O   0  0  0  0  0  0  0  0  0  0  0  0
  153.1862  142.0897  160.4000 C   0  0  0  0  0  0  0  0  0  0  0  0
  152.4652  143.2856  160.1942 C   0  0  0  0  0  0  0  0  0  0  0  0
  152.2909  144.1971  161.2539 C   0  0  0  0  0  0  0  0  0  0  0  0
  152.8348  143.9162  162.5221 C   0  0  0  0  0  0  0  0  0  0  0  0
  153.5544  142.7239  162.7309 C   0  0  0  0  0  0  0  0  0  0  0  0
  153.7316  141.8124  161.6716 C   0  0  0  0  0  0  0  0  0  0  0  0
  152.3946  138.7803  157.7790 N   0  0  0  0  0  0  0  0  0  0  0  0
  151.8670  137.7132  157.0365 C   0  0  0  0  0  0  0  0  0  0  0  0
  150.9096  137.8198  156.1547 N   0  0  0  0  0  0  0  0  0  0  0  0
  150.4709  139.1306  156.0280 C   0  0  0  0  0  0  0  0  0  0  0  0
  147.4222  139.5325  153.7292 C   0  0  0  0  0  0  0  0  0  0  0  0
  146.4401  138.3944  153.5436 C   0  0  2  0  0  0  0  0  0  0  0  0
  145.1084  138.8613  153.6020 O   0  0  0  0  0  0  0  0  0  0  0  0
  148.1575  131.0751  153.1108 H   0  0  0  0  0  0  0  0  0  0  0  0
  148.7761  131.2208  154.7505 H   0  0  0  0  0  0  0  0  0  0  0  0
  149.4180  132.2475  153.4738 H   0  0  0  0  0  0  0  0  0  0  0  0
  147.9631  134.1113  152.4674 H   0  0  0  0  0  0  0  0  0  0  0  0
  146.3429  134.3989  153.0897 H   0  0  0  0  0  0  0  0  0  0  0  0
  146.6740  132.9660  152.1233 H   0  0  0  0  0  0  0  0  0  0  0  0
  145.7438  131.4676  153.9969 H   0  0  0  0  0  0  0  0  0  0  0  0
  145.4006  132.8957  154.9659 H   0  0  0  0  0  0  0  0  0  0  0  0
  146.3837  131.5986  155.6292 H   0  0  0  0  0  0  0  0  0  0  0  0
  149.1661  132.4309  157.0694 H   0  0  0  0  0  0  0  0  0  0  0  0
  147.4728  132.6408  157.4654 H   0  0  0  0  0  0  0  0  0  0  0  0
  148.6434  133.8640  157.9340 H   0  0  0  0  0  0  0  0  0  0  0  0
  150.5065  134.1050  154.7557 H   0  0  0  0  0  0  0  0  0  0  0  0
  150.1112  135.5544  155.6644 H   0  0  0  0  0  0  0  0  0  0  0  0
  149.6103  135.4069  153.9893 H   0  0  0  0  0  0  0  0  0  0  0  0
  146.6799  135.6268  153.6154 H   0  0  0  0  0  0  0  0  0  0  0  0
  145.3030  135.9376  154.6579 H   0  0  0  0  0  0  0  0  0  0  0  0
  146.3683  137.9209  155.6424 H   0  0  0  0  0  0  0  0  0  0  0  0
  149.3437  138.5151  153.3695 H   0  0  0  0  0  0  0  0  0  0  0  0
  148.6787  141.5115  154.8278 H   0  0  0  0  0  0  0  0  0  0  0  0
  152.0454  143.5092  159.2239 H   0  0  0  0  0  0  0  0  0  0  0  0
  151.7399  145.1119  161.0938 H   0  0  0  0  0  0  0  0  0  0  0  0
  152.6998  144.6152  163.3342 H   0  0  0  0  0  0  0  0  0  0  0  0
  153.9720  142.5086  163.7034 H   0  0  0  0  0  0  0  0  0  0  0  0
  154.2863  140.9005  161.8399 H   0  0  0  0  0  0  0  0  0  0  0  0
  152.3293  136.7493  157.2540 H   0  0  0  0  0  0  0  0  0  0  0  0
  147.0939  140.2101  154.5197 H   0  0  0  0  0  0  0  0  0  0  0  0
  147.6180  140.1050  152.8222 H   0  0  0  0  0  0  0  0  0  0  0  0
  146.6244  137.8809  152.5986 H   0  0  0  0  0  0  0  0  0  0  0  0
  144.9590  139.4341  152.8652 H   0  0  0  0  0  0  0  0  0  0  0  0
  153.1346  138.5661  158.4322 H   0  0  0  0  0  0  0  0  0  0  0  0
  1  2  1  0  0  0  0
  1 34  1  0  0  0  0
  1 35  1  0  0  0  0
  1 36  1  0  0  0  0
  2  3  1  0  0  0  0
  2  4  1  0  0  0  0
  2  5  1  0  0  0  0
  3 37  1  0  0  0  0
  3 38  1  0  0  0  0
  3 39  1  0  0  0  0
  4 40  1  0  0  0  0
  4 41  1  0  0  0  0
  4 42  1  0  0  0  0
  5  6  1  0  0  0  0
  5  7  1  0  0  0  0
  5  8  1  0  0  0  0
  6 43  1  0  0  0  0
  6 44  1  0  0  0  0
  6 45  1  0  0  0  0
  7 46  1  0  0  0  0
  7 47  1  0  0  0  0
  7 48  1  0  0  0  0
  8  9  1  0  0  0  0
  9 10  1  0  0  0  0
  9 49  1  0  0  0  0
  9 50  1  0  0  0  0
 10 32  1  0  0  0  0
 10 11  1  0  0  0  0
 10 51  1  0  0  0  0
 11 12  1  0  0  0  0
 12 13  1  0  0  0  0
 12 31  1  0  0  0  0
 12 52  1  0  0  0  0
 13 30  1  0  0  0  0
 13 14  1  0  0  0  0
 14 15  2  0  0  0  0
 14 53  1  0  0  0  0
 15 16  1  0  0  0  0
 16 30  2  0  0  0  0
 16 17  1  0  0  0  0
 17 18  2  0  0  0  0
 17 27  1  0  0  0  0
 18 19  1  0  0  0  0
 19 20  2  0  0  0  0
 19 21  1  0  0  0  0
 21 26  1  0  0  0  0
 21 22  2  0  0  0  0
 22 23  1  0  0  0  0
 22 54  1  0  0  0  0
 23 24  2  0  0  0  0
 23 55  1  0  0  0  0
 24 25  1  0  0  0  0
 24 56  1  0  0  0  0
 25 26  2  0  0  0  0
 25 57  1  0  0  0  0
 26 58  1  0  0  0  0
 27 28  1  0  0  0  0
 27 64  1  0  0  0  0
 28 29  2  0  0  0  0
 28 59  1  0  0  0  0
 29 30  1  0  0  0  0
 31 32  1  0  0  0  0
 31 60  1  0  0  0  0
 31 61  1  0  0  0  0
 32 33  1  0  0  0  0
 32 62  1  0  0  0  0
 33 63  1  0  0  0  0
M  END
> <s_m_source_file>
AV-unprocessed.smi

> <i_m_source_file_index>
36

> <i_lp_mmshare_version>
43012

> <i_f3d_flags>
0

> <s_epik_input>
W0NIM11DKFtDSDNdKShbQ0gzXSlbU2ldKFtDSDNdKShbQ0gzXSlPW0NIMl1bQ0BASF0xT1tDQEhdKFtDSDJdW0NASF0xW09IXSluKFtjSF1uMiljKGMyMyluW2NIXW5jM1tOSF1DKD1PKWM0W2NIXVtjSF1bY0hdW2NIXVtjSF00

> <s_epik_cmdline>
J2VwaWtfcHl0aG9uJywgJy1waCcsICc3LjAnLCAnLXRuJywgJzgnLCAnLW1hJywgJzIwMCcsICctbWV0YWxfYmluZGluZycsICctaW1hZScsICc8aW5maWxlLm1hZT4nLCAnLW9tYWUnLCAnPG91dGZpbGUubWFlPic=

> <r_epik_Ionization_Penalty>
0.0850405

> <r_epik_Ionization_Penalty_Charging>
0.0850403

> <r_epik_Ionization_Penalty_Neutral>
1.47497e-07

> <r_epik_State_Penalty>
2.6133

> <r_epik_Charging_Adjusted_Penalty>
2.69834

> <i_epik_Tot_Q>
0

> <i_epik_Tot_abs_Q>
0

> <r_epik_Metal_State_Penalty>
2.92945

> <b_epik_Metal_Only>
0

> <s_epik_Chemistry_Notes>
This compound contains an acetal/aminal-like group ( X-CH(R)-Y where X, Y are N, S, or O) that may be acid/base labile, releasing an aldehyde.

> <s_lp_Force_Field>
OPLS_2005

> <r_lp_Energy>
45.0835

> <b_lp_Chiralities_Consistent>
1

> <s_lp_Variant>
AV-unprocessed.smi:36-16

> <Gold.Version>
5.8.1

> <Gold.Id.Protein>
6NUR|6NUR_protein|mol2

> <Gold.PLP.Fitness>
50.3675

> <Gold.PLP.PLP>
-49.7367

> <Gold.PLP.part.hbond>
-2.0000

> <Gold.PLP.part.metal>
0.0000

> <Gold.PLP.part.buried>
-4.2503

> <Gold.PLP.part.nonpolar>
-43.3945

> <Gold.PLP.part.repulsive>
0.3456

> <Gold.PLP.ligand.clash>
0.0000

> <Gold.PLP.ligand.torsion>
1.5224

> <Gold.PLP.Chemscore.Hbond>
1.1504

> <Gold.PLP.Chemscore.CHOScore>
0.0000

> <Gold.PLP.Chemscore.Metal>
0.0000

> <Gold.Chemscore.Hbonds>
donor molecule, donor type, donor heavy atom, donor atom, acceptor molecule, acceptor atom, score
      L1  H    33    63       P1 10175  0.66
      P1  H  7997  8010       L1    20  0.43

> <Gold.PLP.Chemscore.Internal.Correction>
0.2243

> <Gold.Rescore>
     Score         DG    S(hbond)    S(metal)    S(lipo)     H(rot)  DE(clash)    DE(int)     intcor
     12.98     -16.15       1.45        0.00     108.86       2.70       0.24       2.93       ----

> <Gold.Chemscore.Fitness>
12.9785

> <Gold.Chemscore.DG>
-16.1480

> <Gold.Chemscore.ZeroCoef>
-5.4800

> <Gold.Chemscore.Hbond>
1.4533

> <Gold.Chemscore.Metal>
0.0000

> <Gold.Chemscore.Lipo>
108.8584

> <Gold.Chemscore.Internal_Hbond>
0.0000

> <Gold.Chemscore.DEClash>
0.2379

> <Gold.Chemscore.DEInternal>
2.9317

> <Gold.Chemscore.Rot>
2.7041

> <Gold.Chemscore.Internal.Correction>
   9.000000E+99

> <Gold.Chemscore.Hbonds>
donor molecule, donor type, donor heavy atom, donor atom, acceptor molecule, acceptor atom, score
      L1  H    33    63       P1 10175  0.64
      P1  H  7997  8010       L1    20  0.40

> <Gold.Chemscore.Hbond.Weighted>
-4.8541

> <Gold.Chemscore.Metal.Weighted>
-0.0000

> <Gold.Chemscore.Lipo.Weighted>
-12.7364

> <Gold.Chemscore.Internal_Hbond.Weighted>
0.0000

> <Gold.Chemscore.DEClash.Weighted>
0.2379

> <Gold.Chemscore.DEInternal.Weighted>
2.9317

> <Gold.Chemscore.Rot.Weighted>
6.9225

> <Gold.Chemscore.Internal.Correction.Weighted>
   9.000000E+99

> <Gold.Protein.RotatedTorsions>
[ 6907 6896 6895 6894 ] final   69.30 input  -60.11 | X-H torsion
[ 7974 7965 7964 7962 ] final   12.55 input  175.53 | X-H torsion
[ 8008 7997 7996 7995 ] final  -15.06 input   59.86 | X-H torsion
[ 10167 10162 10161 10158 ] final   74.06 input  -65.29 | X-H torsion
[ 10718 10713 10712 10709 ] final   -4.79 input   66.30 | X-H torsion
[ 10763 10752 10751 10750 ] final  -98.42 input  -60.55 | X-H torsion
[ 11005 11000 10999 10996 ] final    0.59 input  -57.11 | X-H torsion

> <Gold.Protein.ActiveResidues>
 VAL166  LYS551  ARG553  GLY616  TRP617  ASP618  TYR619  PRO620  LYS621  CYS622 
 ASP623  PHE694  ASN695  SER759  ASP760  ASP761  ALA762  ILE779  LEU786  VAL792 
 PHE793  MET794  SER795  GLU796  ALA797  LYS798  CYS799  TRP800  GLU811  SER814 

> <Gold.Protein.RotatedAtoms>
  152.4677  134.5035  159.9731 H   0  0  0  0  0  0  0  0  0  0  0  0  # atno 6907 bound_to 6896
  151.5069  133.3487  159.2886 H   0  0  0  0  0  0  0  0  0  0  0  0  # atno 6908 bound_to 6896
  150.8670  134.8064  159.7188 H   0  0  0  0  0  0  0  0  0  0  0  0  # atno 6909 bound_to 6896
  146.2349  139.9320  142.8495 H   0  0  0  0  0  0  0  0  0  0  0  0  # atno 7974 bound_to 7965
  154.5160  140.2206  155.9064 H   0  0  0  0  0  0  0  0  0  0  0  0  # atno 8008 bound_to 7997
  156.1608  140.3142  155.8770 H   0  0  0  0  0  0  0  0  0  0  0  0  # atno 8009 bound_to 7997
  155.3755  140.0469  157.3035 H   0  0  0  0  0  0  0  0  0  0  0  0  # atno 8010 bound_to 7997
  140.0178  144.5564  150.7606 H   0  0  0  0  0  0  0  0  0  0  0  0  # atno 10167 bound_to 10162
  156.7561  130.5255  149.5794 H   0  0  0  0  0  0  0  0  0  0  0  0  # atno 10718 bound_to 10713
  154.7413  135.5010  153.9127 H   0  0  0  0  0  0  0  0  0  0  0  0  # atno 10763 bound_to 10752
  153.1046  135.6694  153.9618 H   0  0  0  0  0  0  0  0  0  0  0  0  # atno 10764 bound_to 10752
  153.9395  135.3069  155.3422 H   0  0  0  0  0  0  0  0  0  0  0  0  # atno 10765 bound_to 10752
  140.6249  133.9628  155.8244 H   0  0  0  0  0  0  0  0  0  0  0  0  # atno 11005 bound_to 11000
  145.2035  140.9865  143.4142 LP  0  0  0  0  0  0  0  0  0  0  0  0  # atno 17320 bound_to 7965
  144.9753  139.3838  143.6289 LP  0  0  0  0  0  0  0  0  0  0  0  0  # atno 17321 bound_to 7965
  140.7355  143.2742  151.3794 LP  0  0  0  0  0  0  0  0  0  0  0  0  # atno 17342 bound_to 10162
  139.6161  144.1001  152.2346 LP  0  0  0  0  0  0  0  0  0  0  0  0  # atno 17343 bound_to 10162
  156.1369  130.6217  151.0413 LP  0  0  0  0  0  0  0  0  0  0  0  0  # atno 17370 bound_to 10713
  157.6755  131.0851  150.7504 LP  0  0  0  0  0  0  0  0  0  0  0  0  # atno 17371 bound_to 10713
  141.0717  134.0196  157.3517 LP  0  0  0  0  0  0  0  0  0  0  0  0  # atno 17394 bound_to 11000
  139.9139  135.0194  156.7802 LP  0  0  0  0  0  0  0  0  0  0  0  0  # atno 17395 bound_to 11000

$$$$
