AV-unprocessed.smi:740|AV-procd|sdf|3552|dock3
  -GOLD-   22720 0543D 1   1.00000     0.00000
 Structure written by MMmdl.
 45 47  0  0  0  0  0  0  0  0  2 V2000
  151.9758  144.6901  160.2899 C   0  0  0  0  0  0  0  0  0  0  0  0
  152.4577  143.2592  160.1222 C   0  0  0  0  0  0  0  0  0  0  0  0
  153.1705  142.6591  161.1843 C   0  0  0  0  0  0  0  0  0  0  0  0
  153.6000  141.3504  161.0005 C   0  0  0  0  0  0  0  0  0  0  0  0
  154.3164  140.4981  161.8429 N   0  3  0  0  0  0  0  0  0  0  0  0
  154.5074  139.3014  161.2223 C   0  0  0  0  0  0  0  0  0  0  0  0
  153.9208  139.3753  159.9970 N   0  0  0  0  0  0  0  0  0  0  0  0
  153.8409  138.3591  158.9380 C   0  0  0  0  0  0  0  0  0  0  0  0
  152.4365  137.7365  158.8140 C   0  0  2  0  0  0  0  0  0  0  0  0
  152.0919  137.1380  160.0482 O   0  0  0  0  0  0  0  0  0  0  0  0
  152.3882  136.6619  157.7078 C   0  0  0  0  0  0  0  0  0  0  0  0
  151.6572  137.1227  156.5218 N   0  0  0  0  0  0  0  0  0  0  0  0
  152.0640  138.1257  155.7317 C   0  0  0  0  0  0  0  0  0  0  0  0
  153.0889  138.7925  155.8713 O   0  0  0  0  0  0  0  0  0  0  0  0
  151.0746  138.3649  154.5999 C   0  0  0  0  0  0  0  0  0  0  0  0
  149.9786  137.3207  154.8616 C   0  0  2  0  0  0  0  0  0  0  0  0
  148.5822  137.9287  155.0736 C   0  0  0  0  0  0  0  0  0  0  0  0
  150.4854  136.6128  156.1168 C   0  0  0  0  0  0  0  0  0  0  0  0
  149.8662  135.6980  156.6605 O   0  0  0  0  0  0  0  0  0  0  0  0
  153.3417  140.6370  159.8135 C   0  0  0  0  0  0  0  0  0  0  0  0
  152.6395  141.2140  158.7576 C   0  0  0  0  0  0  0  0  0  0  0  0
  152.1972  142.5461  158.9235 C   0  0  0  0  0  0  0  0  0  0  0  0
  151.4335  143.2023  157.7856 C   0  0  0  0  0  0  0  0  0  0  0  0
  152.2169  145.0786  161.2798 H   0  0  0  0  0  0  0  0  0  0  0  0
  150.8945  144.7493  160.1642 H   0  0  0  0  0  0  0  0  0  0  0  0
  152.4471  145.3403  159.5525 H   0  0  0  0  0  0  0  0  0  0  0  0
  153.3746  143.1960  162.0992 H   0  0  0  0  0  0  0  0  0  0  0  0
  155.0298  138.4473  161.6287 H   0  0  0  0  0  0  0  0  0  0  0  0
  154.1057  138.8583  158.0051 H   0  0  0  0  0  0  0  0  0  0  0  0
  154.6042  137.5982  159.1030 H   0  0  0  0  0  0  0  0  0  0  0  0
  151.7194  138.5302  158.6000 H   0  0  0  0  0  0  0  0  0  0  0  0
  152.6621  137.4817  160.7189 H   0  0  0  0  0  0  0  0  0  0  0  0
  153.4049  136.4131  157.3984 H   0  0  0  0  0  0  0  0  0  0  0  0
  151.9734  135.7290  158.0940 H   0  0  0  0  0  0  0  0  0  0  0  0
  150.6971  139.3874  154.6416 H   0  0  0  0  0  0  0  0  0  0  0  0
  151.5568  138.2121  153.6338 H   0  0  0  0  0  0  0  0  0  0  0  0
  149.9472  136.6017  154.0420 H   0  0  0  0  0  0  0  0  0  0  0  0
  147.8320  137.1510  155.2195 H   0  0  0  0  0  0  0  0  0  0  0  0
  148.2795  138.5172  154.2072 H   0  0  0  0  0  0  0  0  0  0  0  0
  148.5570  138.5848  155.9447 H   0  0  0  0  0  0  0  0  0  0  0  0
  152.4428  140.6741  157.8436 H   0  0  0  0  0  0  0  0  0  0  0  0
  151.3640  142.5441  156.9190 H   0  0  0  0  0  0  0  0  0  0  0  0
  151.9307  144.1185  157.4665 H   0  0  0  0  0  0  0  0  0  0  0  0
  150.4190  143.4491  158.0995 H   0  0  0  0  0  0  0  0  0  0  0  0
  154.6520  140.7146  162.7729 H   0  0  0  0  0  0  0  0  0  0  0  0
  1  2  1  0  0  0  0
  1 24  1  0  0  0  0
  1 25  1  0  0  0  0
  1 26  1  0  0  0  0
  2 22  1  0  0  0  0
  2  3  2  0  0  0  0
  3  4  1  0  0  0  0
  3 27  1  0  0  0  0
  4 20  2  0  0  0  0
  4  5  1  0  0  0  0
  5  6  2  0  0  0  0
  5 45  1  0  0  0  0
  6  7  1  0  0  0  0
  6 28  1  0  0  0  0
  7  8  1  0  0  0  0
  7 20  1  0  0  0  0
  8  9  1  0  0  0  0
  8 29  1  0  0  0  0
  8 30  1  0  0  0  0
  9 10  1  0  0  0  0
  9 11  1  0  0  0  0
  9 31  1  0  0  0  0
 10 32  1  0  0  0  0
 11 12  1  0  0  0  0
 11 33  1  0  0  0  0
 11 34  1  0  0  0  0
 12 18  1  0  0  0  0
 12 13  1  0  0  0  0
 13 14  2  0  0  0  0
 13 15  1  0  0  0  0
 15 16  1  0  0  0  0
 15 35  1  0  0  0  0
 15 36  1  0  0  0  0
 16 17  1  0  0  0  0
 16 18  1  0  0  0  0
 16 37  1  0  0  0  0
 17 38  1  0  0  0  0
 17 39  1  0  0  0  0
 17 40  1  0  0  0  0
 18 19  2  0  0  0  0
 20 21  1  0  0  0  0
 21 22  2  0  0  0  0
 21 41  1  0  0  0  0
 22 23  1  0  0  0  0
 23 42  1  0  0  0  0
 23 43  1  0  0  0  0
 23 44  1  0  0  0  0
M  CHG  1   5   1
M  END
> <s_m_source_file>
AV-unprocessed.smi

> <i_m_source_file_index>
740

> <i_lp_mmshare_version>
43012

> <i_f3d_flags>
0

> <s_epik_input>
W0NIM11jKFtjSF0xKWMoW0NIM10pW2NIXWMoYzEyKW4oW2NIXW4yKVtDSDJdW0NASF0oW09IXSlbQ0gyXU4zQyg9TylbQ0gyXVtDQEBIXShbQ0gzXSlDMz1P

> <s_epik_cmdline>
J2VwaWtfcHl0aG9uJywgJy1waCcsICc3LjAnLCAnLXRuJywgJzgnLCAnLW1hJywgJzIwMCcsICctbWV0YWxfYmluZGluZycsICctaW1hZScsICc8aW5maWxlLm1hZT4nLCAnLW9tYWUnLCAnPG91dGZpbGUubWFlPic=

> <r_lp_tautomer_probability>
1

> <r_epik_Ionization_Penalty>
1.08202

> <r_epik_Ionization_Penalty_Charging>
1.08202

> <r_epik_Ionization_Penalty_Neutral>
1.16605e-06

> <r_epik_State_Penalty>
1.13754

> <r_epik_Charging_Adjusted_Penalty>
2.21956

> <i_epik_Tot_Q>
1

> <i_epik_Tot_abs_Q>
1

> <r_epik_Metal_State_Penalty>
5.13645

> <b_epik_Metal_Only>
0

> <s_lp_Force_Field>
OPLS_2005

> <r_lp_Energy>
22.2654

> <b_lp_Chiralities_Consistent>
1

> <s_lp_Variant>
AV-unprocessed.smi:740-7

> <Gold.Version>
5.8.1

> <Gold.Id.Protein>
6NUR|6NUR_protein|mol2

> <Gold.PLP.Fitness>
48.0342

> <Gold.PLP.PLP>
-43.7919

> <Gold.PLP.part.hbond>
-1.7463

> <Gold.PLP.part.metal>
0.0000

> <Gold.PLP.part.buried>
-7.7948

> <Gold.PLP.part.nonpolar>
-35.5213

> <Gold.PLP.part.repulsive>
0.0120

> <Gold.PLP.ligand.clash>
0.0000

> <Gold.PLP.ligand.torsion>
0.8749

> <Gold.PLP.Chemscore.Hbond>
1.9825

> <Gold.PLP.Chemscore.CHOScore>
0.0000

> <Gold.PLP.Chemscore.Metal>
0.0000

> <Gold.Chemscore.Hbonds>
donor molecule, donor type, donor heavy atom, donor atom, acceptor molecule, acceptor atom, score
      P1  H  6896  6907       L1    10  1.00
      P1  H  7997  8009       L1    14  1.00

> <Gold.PLP.Chemscore.Internal.Correction>
0.0447

> <Gold.Rescore>
     Score         DG    S(hbond)    S(metal)    S(lipo)     H(rot)  DE(clash)    DE(int)     intcor
     18.09     -19.05       1.96        0.00     111.86       2.37       0.00       0.96       ----

> <Gold.Chemscore.Fitness>
18.0883

> <Gold.Chemscore.DG>
-19.0456

> <Gold.Chemscore.ZeroCoef>
-5.4800

> <Gold.Chemscore.Hbond>
1.9615

> <Gold.Chemscore.Metal>
0.0000

> <Gold.Chemscore.Lipo>
111.8592

> <Gold.Chemscore.Internal_Hbond>
0.0000

> <Gold.Chemscore.DEClash>
0.0004

> <Gold.Chemscore.DEInternal>
0.9570

> <Gold.Chemscore.Rot>
2.3724

> <Gold.Chemscore.Internal.Correction>
   9.000000E+99

> <Gold.Chemscore.Hbonds>
donor molecule, donor type, donor heavy atom, donor atom, acceptor molecule, acceptor atom, score
      P1  H  6896  6907       L1    10  0.85
      P1  H  7997  8009       L1    14  0.98

> <Gold.Chemscore.Hbond.Weighted>
-6.5515

> <Gold.Chemscore.Metal.Weighted>
-0.0000

> <Gold.Chemscore.Lipo.Weighted>
-13.0875

> <Gold.Chemscore.Internal_Hbond.Weighted>
0.0000

> <Gold.Chemscore.DEClash.Weighted>
0.0004

> <Gold.Chemscore.DEInternal.Weighted>
0.9570

> <Gold.Chemscore.Rot.Weighted>
6.0734

> <Gold.Chemscore.Internal.Correction.Weighted>
   9.000000E+99

> <Gold.Protein.RotatedTorsions>
[ 6907 6896 6895 6894 ] final   11.63 input  -60.11 | X-H torsion
[ 7974 7965 7964 7962 ] final  -62.54 input  175.53 | X-H torsion
[ 8008 7997 7996 7995 ] final -159.71 input   59.86 | X-H torsion
[ 10167 10162 10161 10158 ] final  145.47 input  -65.29 | X-H torsion
[ 10718 10713 10712 10709 ] final  -48.75 input   66.30 | X-H torsion
[ 10763 10752 10751 10750 ] final   95.23 input  -60.55 | X-H torsion
[ 11005 11000 10999 10996 ] final   -4.29 input  -57.11 | X-H torsion

> <Gold.Protein.ActiveResidues>
 VAL166  LYS551  ARG553  GLY616  TRP617  ASP618  TYR619  PRO620  LYS621  CYS622 
 ASP623  PHE694  ASN695  SER759  ASP760  ASP761  ALA762  ILE779  LEU786  VAL792 
 PHE793  MET794  SER795  GLU796  ALA797  LYS798  CYS799  TRP800  GLU811  SER814 

> <Gold.Protein.RotatedAtoms>
  151.7575  135.0818  160.0340 H   0  0  0  0  0  0  0  0  0  0  0  0  # atno 6907 bound_to 6896
  152.3376  133.6025  159.5862 H   0  0  0  0  0  0  0  0  0  0  0  0  # atno 6908 bound_to 6896
  150.7459  133.9689  159.3581 H   0  0  0  0  0  0  0  0  0  0  0  0  # atno 6909 bound_to 6896
  145.7900  140.8715  143.0285 H   0  0  0  0  0  0  0  0  0  0  0  0  # atno 7974 bound_to 7965
  155.7666  140.0846  157.2129 H   0  0  0  0  0  0  0  0  0  0  0  0  # atno 8008 bound_to 7997
  154.3999  140.1533  156.2950 H   0  0  0  0  0  0  0  0  0  0  0  0  # atno 8009 bound_to 7997
  155.8788  140.3421  155.5875 H   0  0  0  0  0  0  0  0  0  0  0  0  # atno 8010 bound_to 7997
  139.4925  144.5899  151.6701 H   0  0  0  0  0  0  0  0  0  0  0  0  # atno 10167 bound_to 10162
  156.1958  130.4154  149.9308 H   0  0  0  0  0  0  0  0  0  0  0  0  # atno 10718 bound_to 10713
  153.2508  135.4261  155.0795 H   0  0  0  0  0  0  0  0  0  0  0  0  # atno 10763 bound_to 10752
  154.8381  135.3425  154.6516 H   0  0  0  0  0  0  0  0  0  0  0  0  # atno 10764 bound_to 10752
  153.6937  135.7032  153.5139 H   0  0  0  0  0  0  0  0  0  0  0  0  # atno 10765 bound_to 10752
  140.6787  133.9173  155.8541 H   0  0  0  0  0  0  0  0  0  0  0  0  # atno 11005 bound_to 11000
  144.6783  140.0110  143.7484 LP  0  0  0  0  0  0  0  0  0  0  0  0  # atno 17320 bound_to 7965
  145.9986  139.3073  143.0941 LP  0  0  0  0  0  0  0  0  0  0  0  0  # atno 17321 bound_to 7965
  140.5524  144.0403  150.6133 LP  0  0  0  0  0  0  0  0  0  0  0  0  # atno 17342 bound_to 10162
  140.3462  143.2990  152.0536 LP  0  0  0  0  0  0  0  0  0  0  0  0  # atno 17343 bound_to 10162
  156.7034  130.8942  151.3602 LP  0  0  0  0  0  0  0  0  0  0  0  0  # atno 17370 bound_to 10713
  157.6957  130.9279  150.0637 LP  0  0  0  0  0  0  0  0  0  0  0  0  # atno 17371 bound_to 10713
  141.0335  134.0723  157.3987 LP  0  0  0  0  0  0  0  0  0  0  0  0  # atno 17394 bound_to 11000
  139.8958  135.0143  156.7022 LP  0  0  0  0  0  0  0  0  0  0  0  0  # atno 17395 bound_to 11000

$$$$
