AV-unprocessed.smi:3285|AV-procd|sdf|12582|dock3
  -GOLD-   2272018503D 1   1.00000     0.00000
 Structure written by MMmdl.
 45 46  0  0  0  0  0  0  0  0  2 V2000
  145.3097  145.1782  152.4059 C   0  0  0  0  0  0  0  0  0  0  0  0
  144.4677  144.9993  153.6368 C   0  0  0  0  0  0  0  0  0  0  0  0
  143.3127  145.6347  153.7369 N   0  0  0  0  0  0  0  0  0  0  0  0
  142.7775  145.2642  154.9741 O   0  0  0  0  0  0  0  0  0  0  0  0
  143.6405  144.4070  155.5765 C   0  0  0  0  0  0  0  0  0  0  0  0
  143.2449  143.8906  156.9185 C   0  0  0  0  0  0  0  0  0  0  0  0
  144.7336  144.1950  154.7821 C   0  0  0  0  0  0  0  0  0  0  0  0
  145.9321  143.3231  155.0414 C   0  0  0  0  0  0  0  0  0  0  0  0
  145.5160  141.9201  155.5014 C   0  0  0  0  0  0  0  0  0  0  0  0
  145.7307  140.9270  154.4286 N   0  3  0  0  0  0  0  0  0  0  0  0
  146.8485  141.2198  153.5006 C   0  0  2  0  0  0  0  0  0  0  0  0
  147.0331  140.0649  152.5022 C   0  0  0  0  0  0  0  0  0  0  0  0
  147.6069  138.8076  153.1751 C   0  0  0  0  0  0  0  0  0  0  0  0
  148.9344  139.0913  153.9072 C   0  0  2  0  0  0  0  0  0  0  0  0
  149.4623  137.7965  154.5504 C   0  0  0  0  0  0  0  0  0  0  0  0
  148.7608  140.2472  154.9277 C   0  0  1  0  0  0  0  0  0  0  0  0
  150.0720  140.6148  155.6453 C   0  0  0  0  0  0  0  0  0  0  0  0
  148.1751  141.4987  154.2381 C   0  0  0  0  0  0  0  0  0  0  0  0
  145.2944  144.2792  151.7897 H   0  0  0  0  0  0  0  0  0  0  0  0
  146.3474  145.3834  152.6688 H   0  0  0  0  0  0  0  0  0  0  0  0
  144.9565  146.0071  151.7911 H   0  0  0  0  0  0  0  0  0  0  0  0
  143.3416  142.8056  156.9594 H   0  0  0  0  0  0  0  0  0  0  0  0
  142.2098  144.1447  157.1484 H   0  0  0  0  0  0  0  0  0  0  0  0
  143.8774  144.3170  157.6972 H   0  0  0  0  0  0  0  0  0  0  0  0
  146.5441  143.2421  154.1424 H   0  0  0  0  0  0  0  0  0  0  0  0
  146.5771  143.7733  155.7969 H   0  0  0  0  0  0  0  0  0  0  0  0
  146.0929  141.6330  156.3816 H   0  0  0  0  0  0  0  0  0  0  0  0
  144.4656  141.9284  155.7908 H   0  0  0  0  0  0  0  0  0  0  0  0
  145.8817  140.0184  154.8432 H   0  0  0  0  0  0  0  0  0  0  0  0
  146.5715  142.1078  152.9305 H   0  0  0  0  0  0  0  0  0  0  0  0
  146.0860  139.8299  152.0145 H   0  0  0  0  0  0  0  0  0  0  0  0
  147.7108  140.3821  151.7083 H   0  0  0  0  0  0  0  0  0  0  0  0
  146.8779  138.4030  153.8787 H   0  0  0  0  0  0  0  0  0  0  0  0
  147.7586  138.0358  152.4195 H   0  0  0  0  0  0  0  0  0  0  0  0
  149.6636  139.4058  153.1587 H   0  0  0  0  0  0  0  0  0  0  0  0
  148.8168  137.4647  155.3642 H   0  0  0  0  0  0  0  0  0  0  0  0
  150.4682  137.9232  154.9496 H   0  0  0  0  0  0  0  0  0  0  0  0
  149.5136  136.9895  153.8191 H   0  0  0  0  0  0  0  0  0  0  0  0
  148.0538  139.9235  155.6929 H   0  0  0  0  0  0  0  0  0  0  0  0
  150.8538  140.8809  154.9332 H   0  0  0  0  0  0  0  0  0  0  0  0
  150.4423  139.7947  156.2598 H   0  0  0  0  0  0  0  0  0  0  0  0
  149.9279  141.4661  156.3111 H   0  0  0  0  0  0  0  0  0  0  0  0
  148.9011  141.8710  153.5138 H   0  0  0  0  0  0  0  0  0  0  0  0
  148.0523  142.3052  154.9607 H   0  0  0  0  0  0  0  0  0  0  0  0
  144.8831  140.8900  153.8805 H   0  0  0  0  0  0  0  0  0  0  0  0
  1  2  1  0  0  0  0
  1 19  1  0  0  0  0
  1 20  1  0  0  0  0
  1 21  1  0  0  0  0
  2  7  1  0  0  0  0
  2  3  2  0  0  0  0
  3  4  1  0  0  0  0
  4  5  1  0  0  0  0
  5  6  1  0  0  0  0
  5  7  2  0  0  0  0
  6 22  1  0  0  0  0
  6 23  1  0  0  0  0
  6 24  1  0  0  0  0
  7  8  1  0  0  0  0
  8  9  1  0  0  0  0
  8 25  1  0  0  0  0
  8 26  1  0  0  0  0
  9 10  1  0  0  0  0
  9 27  1  0  0  0  0
  9 28  1  0  0  0  0
 10 11  1  0  0  0  0
 10 29  1  0  0  0  0
 10 45  1  0  0  0  0
 11 18  1  0  0  0  0
 11 12  1  0  0  0  0
 11 30  1  0  0  0  0
 12 13  1  0  0  0  0
 12 31  1  0  0  0  0
 12 32  1  0  0  0  0
 13 14  1  0  0  0  0
 13 33  1  0  0  0  0
 13 34  1  0  0  0  0
 14 15  1  0  0  0  0
 14 16  1  0  0  0  0
 14 35  1  0  0  0  0
 15 36  1  0  0  0  0
 15 37  1  0  0  0  0
 15 38  1  0  0  0  0
 16 17  1  0  0  0  0
 16 18  1  0  0  0  0
 16 39  1  0  0  0  0
 17 40  1  0  0  0  0
 17 41  1  0  0  0  0
 17 42  1  0  0  0  0
 18 43  1  0  0  0  0
 18 44  1  0  0  0  0
M  CHG  1  10   1
M  END
> <s_m_source_file>
AV-unprocessed.smi

> <i_m_source_file_index>
3285

> <i_lp_mmshare_version>
43012

> <i_f3d_flags>
0

> <s_epik_input>
W0NIM11jMW5vYyhbQ0gzXSljMVtDSDJdW0NIMl1bTkhdW0NAQEhdMltDSDJdW0NIMl1bQ0BASF0oW0NIM10pW0NAQEhdKFtDSDNdKVtDSDJdMg==

> <s_epik_cmdline>
J2VwaWtfcHl0aG9uJywgJy1waCcsICc3LjAnLCAnLXRuJywgJzgnLCAnLW1hJywgJzIwMCcsICctbWV0YWxfYmluZGluZycsICctaW1hZScsICc8aW5maWxlLm1hZT4nLCAnLW9tYWUnLCAnPG91dGZpbGUubWFlPic=

> <r_lp_tautomer_probability>
1

> <r_epik_Ionization_Penalty>
0.000204615

> <r_epik_Ionization_Penalty_Charging>
0.000204615

> <r_epik_Ionization_Penalty_Neutral>
9.28663e-11

> <r_epik_State_Penalty>
-0

> <r_epik_Charging_Adjusted_Penalty>
0.000204615

> <i_epik_Tot_Q>
1

> <i_epik_Tot_abs_Q>
1

> <r_epik_Metal_State_Penalty>
-0

> <b_epik_Metal_Only>
0

> <s_lp_Force_Field>
OPLS_2005

> <r_lp_Energy>
13.9042

> <b_lp_Chiralities_Consistent>
1

> <s_lp_Variant>
AV-unprocessed.smi:3285-3

> <Gold.Version>
5.8.1

> <Gold.Id.Protein>
6NUR|6NUR_protein|mol2

> <Gold.PLP.Fitness>
36.7016

> <Gold.PLP.PLP>
-31.9926

> <Gold.PLP.part.hbond>
-2.0000

> <Gold.PLP.part.metal>
0.0000

> <Gold.PLP.part.buried>
-0.3251

> <Gold.PLP.part.nonpolar>
-28.9009

> <Gold.PLP.part.repulsive>
0.1699

> <Gold.PLP.ligand.clash>
0.0000

> <Gold.PLP.ligand.torsion>
0.6482

> <Gold.PLP.Chemscore.Hbond>
2.0000

> <Gold.PLP.Chemscore.CHOScore>
0.0000

> <Gold.PLP.Chemscore.Metal>
0.0000

> <Gold.Chemscore.Hbonds>
donor molecule, donor type, donor heavy atom, donor atom, acceptor molecule, acceptor atom, score
      L1  H    10    45       P1 10175  2.00

> <Gold.PLP.Chemscore.Internal.Correction>
0.0055

> <Gold.Rescore>
     Score         DG    S(hbond)    S(metal)    S(lipo)     H(rot)  DE(clash)    DE(int)     intcor
     13.77     -14.71       0.82        0.00      84.86       1.35       0.35       0.60       ----

> <Gold.Chemscore.Fitness>
13.7691

> <Gold.Chemscore.DG>
-14.7144

> <Gold.Chemscore.ZeroCoef>
-5.4800

> <Gold.Chemscore.Hbond>
0.8240

> <Gold.Chemscore.Metal>
0.0000

> <Gold.Chemscore.Lipo>
84.8649

> <Gold.Chemscore.Internal_Hbond>
0.0000

> <Gold.Chemscore.DEClash>
0.3482

> <Gold.Chemscore.DEInternal>
0.5971

> <Gold.Chemscore.Rot>
1.3465

> <Gold.Chemscore.Internal.Correction>
   9.000000E+99

> <Gold.Chemscore.Hbonds>
donor molecule, donor type, donor heavy atom, donor atom, acceptor molecule, acceptor atom, score
      L1  H    10    45       P1 10175  0.90

> <Gold.Chemscore.Hbond.Weighted>
-2.7522

> <Gold.Chemscore.Metal.Weighted>
-0.0000

> <Gold.Chemscore.Lipo.Weighted>
-9.9292

> <Gold.Chemscore.Internal_Hbond.Weighted>
0.0000

> <Gold.Chemscore.DEClash.Weighted>
0.3482

> <Gold.Chemscore.DEInternal.Weighted>
0.5971

> <Gold.Chemscore.Rot.Weighted>
3.4470

> <Gold.Chemscore.Internal.Correction.Weighted>
   9.000000E+99

> <Gold.Protein.RotatedTorsions>
[ 6907 6896 6895 6894 ] final   55.25 input  -60.11 | X-H torsion
[ 7974 7965 7964 7962 ] final  -18.05 input  175.53 | X-H torsion
[ 8008 7997 7996 7995 ] final   38.59 input   59.86 | X-H torsion
[ 10167 10162 10161 10158 ] final  -83.01 input  -65.29 | X-H torsion
[ 10718 10713 10712 10709 ] final  141.45 input   66.30 | X-H torsion
[ 10763 10752 10751 10750 ] final -179.73 input  -60.55 | X-H torsion
[ 11005 11000 10999 10996 ] final  -28.73 input  -57.11 | X-H torsion

> <Gold.Protein.ActiveResidues>
 VAL166  LYS551  ARG553  GLY616  TRP617  ASP618  TYR619  PRO620  LYS621  CYS622 
 ASP623  PHE694  ASN695  SER759  ASP760  ASP761  ALA762  ILE779  LEU786  VAL792 
 PHE793  MET794  SER795  GLU796  ALA797  LYS798  CYS799  TRP800  GLU811  SER814 

> <Gold.Protein.RotatedAtoms>
  152.3519  134.6993  160.0233 H   0  0  0  0  0  0  0  0  0  0  0  0  # atno 6907 bound_to 6896
  151.7344  133.3313  159.3357 H   0  0  0  0  0  0  0  0  0  0  0  0  # atno 6908 bound_to 6896
  150.7546  134.6268  159.6209 H   0  0  0  0  0  0  0  0  0  0  0  0  # atno 6909 bound_to 6896
  146.1911  140.3866  142.8457 H   0  0  0  0  0  0  0  0  0  0  0  0  # atno 7974 bound_to 7965
  155.2227  140.3332  155.4313 H   0  0  0  0  0  0  0  0  0  0  0  0  # atno 8008 bound_to 7997
  156.2327  140.1858  156.7249 H   0  0  0  0  0  0  0  0  0  0  0  0  # atno 8009 bound_to 7997
  154.6005  140.0624  156.9347 H   0  0  0  0  0  0  0  0  0  0  0  0  # atno 8010 bound_to 7997
  140.4266  143.2564  151.8816 H   0  0  0  0  0  0  0  0  0  0  0  0  # atno 10167 bound_to 10162
  157.3919  131.1006  151.0638 H   0  0  0  0  0  0  0  0  0  0  0  0  # atno 10718 bound_to 10713
  154.5314  135.2800  155.1177 H   0  0  0  0  0  0  0  0  0  0  0  0  # atno 10763 bound_to 10752
  154.2695  135.6306  153.5308 H   0  0  0  0  0  0  0  0  0  0  0  0  # atno 10764 bound_to 10752
  152.9958  135.5625  154.5829 H   0  0  0  0  0  0  0  0  0  0  0  0  # atno 10765 bound_to 10752
  140.9234  133.7384  156.0833 H   0  0  0  0  0  0  0  0  0  0  0  0  # atno 11005 bound_to 11000
  144.8489  140.6971  143.6181 LP  0  0  0  0  0  0  0  0  0  0  0  0  # atno 17320 bound_to 7965
  145.3789  139.1641  143.4291 LP  0  0  0  0  0  0  0  0  0  0  0  0  # atno 17321 bound_to 7965
  139.4783  144.5380  151.8570 LP  0  0  0  0  0  0  0  0  0  0  0  0  # atno 17342 bound_to 10162
  140.4474  144.1903  150.5895 LP  0  0  0  0  0  0  0  0  0  0  0  0  # atno 17343 bound_to 10162
  157.1669  130.6250  149.5628 LP  0  0  0  0  0  0  0  0  0  0  0  0  # atno 17370 bound_to 10713
  155.9800  130.4798  150.6750 LP  0  0  0  0  0  0  0  0  0  0  0  0  # atno 17371 bound_to 10713
  140.7958  134.3565  157.5453 LP  0  0  0  0  0  0  0  0  0  0  0  0  # atno 17394 bound_to 11000
  139.8780  134.9168  156.3163 LP  0  0  0  0  0  0  0  0  0  0  0  0  # atno 17395 bound_to 11000

$$$$
