AV-unprocessed.smi:246|AV-procd|sdf|1880|dock7
  -GOLD-   2262020523D 1   1.00000     0.00000
 Structure written by MMmdl.
 57 60  0  0  0  0  0  0  0  0  1 V2000
  144.3500  132.1321  150.8495 C   0  0  0  0  0  0  0  0  0  0  0  0
  145.4023  131.0310  151.0385 C   0  0  0  0  0  0  0  0  0  0  0  0
  146.4018  131.4092  151.9746 O   0  0  0  0  0  0  0  0  0  0  0  0
  147.1513  132.5565  151.6014 C   0  0  0  0  0  0  0  0  0  0  0  0
  148.2980  132.7404  152.5994 C   0  0  0  0  0  0  0  0  0  0  0  0
  148.1065  133.9559  153.3079 O   0  0  0  0  0  0  0  0  0  0  0  0
  148.9566  134.0980  154.4369 C   0  0  1  0  0  0  0  0  0  0  0  0
  150.4240  133.8198  154.1172 C   0  0  0  0  0  0  0  0  0  0  0  0
  151.1536  134.6118  155.1990 C   0  0  0  0  0  0  0  0  0  0  0  0
  150.3153  135.7724  155.4894 N   0  0  0  0  0  0  0  0  0  0  0  0
  150.8292  136.9891  155.1974 C   0  0  0  0  0  0  0  0  0  0  0  0
  151.2017  137.2892  153.9246 N   0  0  0  0  0  0  0  0  0  0  0  0
  151.6885  138.5008  153.6391 C   0  0  0  0  0  0  0  0  0  0  0  0
  151.8824  139.5370  154.4582 N   0  0  0  0  0  0  0  0  0  0  0  0
  151.5051  139.2374  155.7346 C   0  0  0  0  0  0  0  0  0  0  0  0
  150.9669  137.9997  156.1845 C   0  0  0  0  0  0  0  0  0  0  0  0
  150.6930  138.0642  157.5446 N   0  0  0  0  0  0  0  0  0  0  0  0
  151.0572  139.2713  157.8829 C   0  0  0  0  0  0  0  0  0  0  0  0
  151.5728  140.0381  156.8615 N   0  0  0  0  0  0  0  0  0  0  0  0
  152.0488  141.4070  156.9580 C   0  0  0  0  0  0  0  0  0  0  0  0
  151.0210  142.3849  157.5730 C   0  0  2  0  0  0  0  0  0  0  0  0
  150.2624  142.8700  156.4834 O   0  0  0  0  0  0  0  0  0  0  0  0
  151.6217  143.6148  158.2937 C   0  0  2  0  0  0  0  0  0  0  0  0
  152.5317  143.3178  159.4914 C   0  0  0  0  0  0  0  0  0  0  0  0
  152.3679  144.5238  160.4044 C   0  0  0  0  0  0  0  0  0  0  0  0
  151.1874  145.2831  159.8024 C   0  0  0  0  0  0  0  0  0  0  0  0
  150.5808  144.3462  158.9268 O   0  0  0  0  0  0  0  0  0  0  0  0
  148.9915  135.5539  154.9113 C   0  0  0  0  0  0  0  0  0  0  0  0
  148.6246  133.4632  155.2607 H   0  0  0  0  0  0  0  0  0  0  0  0
  143.6495  131.8622  150.0592 H   0  0  0  0  0  0  0  0  0  0  0  0
  144.8185  133.0759  150.5699 H   0  0  0  0  0  0  0  0  0  0  0  0
  143.7688  132.2999  151.7558 H   0  0  0  0  0  0  0  0  0  0  0  0
  144.9370  130.0865  151.3237 H   0  0  0  0  0  0  0  0  0  0  0  0
  145.8995  130.8541  150.0844 H   0  0  0  0  0  0  0  0  0  0  0  0
  147.5424  132.4734  150.5873 H   0  0  0  0  0  0  0  0  0  0  0  0
  146.5027  133.4331  151.6328 H   0  0  0  0  0  0  0  0  0  0  0  0
  148.3019  131.9121  153.3094 H   0  0  0  0  0  0  0  0  0  0  0  0
  149.2539  132.7261  152.0749 H   0  0  0  0  0  0  0  0  0  0  0  0
  150.6764  132.7593  154.1279 H   0  0  0  0  0  0  0  0  0  0  0  0
  150.6750  134.2211  153.1343 H   0  0  0  0  0  0  0  0  0  0  0  0
  151.2284  134.0178  156.1103 H   0  0  0  0  0  0  0  0  0  0  0  0
  152.1705  134.8675  154.8983 H   0  0  0  0  0  0  0  0  0  0  0  0
  151.9619  138.6627  152.6068 H   0  0  0  0  0  0  0  0  0  0  0  0
  150.9660  139.6357  158.8960 H   0  0  0  0  0  0  0  0  0  0  0  0
  152.9780  141.4252  157.5287 H   0  0  0  0  0  0  0  0  0  0  0  0
  152.3039  141.7249  155.9459 H   0  0  0  0  0  0  0  0  0  0  0  0
  150.3484  141.8477  158.2423 H   0  0  0  0  0  0  0  0  0  0  0  0
  149.6945  143.5581  156.7951 H   0  0  0  0  0  0  0  0  0  0  0  0
  152.1443  144.2624  157.5866 H   0  0  0  0  0  0  0  0  0  0  0  0
  152.1921  142.4240  160.0158 H   0  0  0  0  0  0  0  0  0  0  0  0
  153.5699  143.1654  159.1983 H   0  0  0  0  0  0  0  0  0  0  0  0
  152.1545  144.2036  161.4249 H   0  0  0  0  0  0  0  0  0  0  0  0
  153.2637  145.1453  160.4269 H   0  0  0  0  0  0  0  0  0  0  0  0
  150.4846  145.6374  160.5566 H   0  0  0  0  0  0  0  0  0  0  0  0
  151.5349  146.1424  159.2269 H   0  0  0  0  0  0  0  0  0  0  0  0
  148.8279  136.2251  154.0656 H   0  0  0  0  0  0  0  0  0  0  0  0
  148.2088  135.7526  155.6438 H   0  0  0  0  0  0  0  0  0  0  0  0
  1  2  1  0  0  0  0
  1 30  1  0  0  0  0
  1 31  1  0  0  0  0
  1 32  1  0  0  0  0
  2  3  1  0  0  0  0
  2 33  1  0  0  0  0
  2 34  1  0  0  0  0
  3  4  1  0  0  0  0
  4  5  1  0  0  0  0
  4 35  1  0  0  0  0
  4 36  1  0  0  0  0
  5  6  1  0  0  0  0
  5 37  1  0  0  0  0
  5 38  1  0  0  0  0
  6  7  1  0  0  0  0
  7 29  1  0  0  0  0
  7 28  1  0  0  0  0
  7  8  1  0  0  0  0
  8  9  1  0  0  0  0
  8 39  1  0  0  0  0
  8 40  1  0  0  0  0
  9 10  1  0  0  0  0
  9 41  1  0  0  0  0
  9 42  1  0  0  0  0
 10 11  1  0  0  0  0
 10 28  1  0  0  0  0
 11 16  1  0  0  0  0
 11 12  2  0  0  0  0
 12 13  1  0  0  0  0
 13 14  2  0  0  0  0
 13 43  1  0  0  0  0
 14 15  1  0  0  0  0
 15 19  1  0  0  0  0
 15 16  2  0  0  0  0
 16 17  1  0  0  0  0
 17 18  2  0  0  0  0
 18 19  1  0  0  0  0
 18 44  1  0  0  0  0
 19 20  1  0  0  0  0
 20 21  1  0  0  0  0
 20 45  1  0  0  0  0
 20 46  1  0  0  0  0
 21 22  1  0  0  0  0
 21 23  1  0  0  0  0
 21 47  1  0  0  0  0
 22 48  1  0  0  0  0
 23 27  1  0  0  0  0
 23 24  1  0  0  0  0
 23 49  1  0  0  0  0
 24 25  1  0  0  0  0
 24 50  1  0  0  0  0
 24 51  1  0  0  0  0
 25 26  1  0  0  0  0
 25 52  1  0  0  0  0
 25 53  1  0  0  0  0
 26 27  1  0  0  0  0
 26 54  1  0  0  0  0
 26 55  1  0  0  0  0
 28 56  1  0  0  0  0
 28 57  1  0  0  0  0
M  END
> <s_m_source_file>
AV-unprocessed.smi

> <i_m_source_file_index>
246

> <i_lp_mmshare_version>
43012

> <i_f3d_flags>
0

> <s_epik_input>
W0NIM11bQ0gyXU9bQ0gyXVtDSDJdT1tDQEhdMVtDSDJdW0NIMl1OKFtDSDJdMSljKG5bY0hdbjIpYyhjMjMpbltjSF1uM1tDSDJdW0NASF0oW09IXSlbQ0BASF00W0NIMl1bQ0gyXVtDSDJdTzQ=

> <s_epik_cmdline>
J2VwaWtfcHl0aG9uJywgJy1waCcsICc3LjAnLCAnLXRuJywgJzgnLCAnLW1hJywgJzIwMCcsICctbWV0YWxfYmluZGluZycsICctaW1hZScsICc8aW5maWxlLm1hZT4nLCAnLW9tYWUnLCAnPG91dGZpbGUubWFlPic=

> <r_lp_tautomer_probability>
1

> <r_epik_Ionization_Penalty>
0.0024631

> <r_epik_Ionization_Penalty_Charging>
0

> <r_epik_Ionization_Penalty_Neutral>
0.0024631

> <r_epik_State_Penalty>
0.00162428

> <r_epik_Charging_Adjusted_Penalty>
0.00162428

> <i_epik_Tot_Q>
0

> <i_epik_Tot_abs_Q>
0

> <r_epik_Metal_State_Penalty>
-0

> <b_epik_Metal_Only>
0

> <s_lp_Force_Field>
OPLS_2005

> <r_lp_Energy>
54.9549

> <b_lp_Chiralities_Consistent>
1

> <s_lp_Variant>
AV-unprocessed.smi:246-1

> <Gold.Version>
5.8.1

> <Gold.Id.Protein>
6NUR|6NUR_protein|mol2

> <Gold.PLP.Fitness>
49.2105

> <Gold.PLP.PLP>
-44.8193

> <Gold.PLP.part.hbond>
-1.7225

> <Gold.PLP.part.metal>
0.0000

> <Gold.PLP.part.buried>
-9.9905

> <Gold.PLP.part.nonpolar>
-35.4659

> <Gold.PLP.part.repulsive>
2.5995

> <Gold.PLP.ligand.clash>
0.0000

> <Gold.PLP.ligand.torsion>
1.0011

> <Gold.PLP.Chemscore.Hbond>
1.7430

> <Gold.PLP.Chemscore.CHOScore>
0.1816

> <Gold.PLP.Chemscore.Metal>
0.0000

> <Gold.Chemscore.Hbonds>
donor molecule, donor type, donor heavy atom, donor atom, acceptor molecule, acceptor atom, score
      L1  H    22    48       P1  8028  0.45
      P1  H  7989  7998       L1    14  0.96

> <Gold.PLP.Chemscore.Internal.Correction>
0.6197

> <Gold.Rescore>
     Score         DG    S(hbond)    S(metal)    S(lipo)     H(rot)  DE(clash)    DE(int)     intcor
     11.77     -13.32       0.98        0.00     112.96       3.37       0.59       0.97       ----

> <Gold.Chemscore.Fitness>
11.7650

> <Gold.Chemscore.DG>
-13.3249

> <Gold.Chemscore.ZeroCoef>
-5.4800

> <Gold.Chemscore.Hbond>
0.9778

> <Gold.Chemscore.Metal>
0.0000

> <Gold.Chemscore.Lipo>
112.9584

> <Gold.Chemscore.Internal_Hbond>
0.0000

> <Gold.Chemscore.DEClash>
0.5892

> <Gold.Chemscore.DEInternal>
0.9707

> <Gold.Chemscore.Rot>
3.3739

> <Gold.Chemscore.Internal.Correction>
   9.000000E+99

> <Gold.Chemscore.Hbonds>
donor molecule, donor type, donor heavy atom, donor atom, acceptor molecule, acceptor atom, score
      L1  H    22    48       P1  8028  0.46
      P1  H  7989  7998       L1    14  0.41

> <Gold.Chemscore.Hbond.Weighted>
-3.2659

> <Gold.Chemscore.Metal.Weighted>
-0.0000

> <Gold.Chemscore.Lipo.Weighted>
-13.2161

> <Gold.Chemscore.Internal_Hbond.Weighted>
0.0000

> <Gold.Chemscore.DEClash.Weighted>
0.5892

> <Gold.Chemscore.DEInternal.Weighted>
0.9707

> <Gold.Chemscore.Rot.Weighted>
8.6371

> <Gold.Chemscore.Internal.Correction.Weighted>
   9.000000E+99

> <Gold.Protein.RotatedTorsions>
[ 6907 6896 6895 6894 ] final  -63.21 input  -60.11 | X-H torsion
[ 7974 7965 7964 7962 ] final  114.57 input  175.53 | X-H torsion
[ 8008 7997 7996 7995 ] final   77.61 input   59.86 | X-H torsion
[ 10167 10162 10161 10158 ] final  -46.27 input  -65.29 | X-H torsion
[ 10718 10713 10712 10709 ] final   11.11 input   66.30 | X-H torsion
[ 10763 10752 10751 10750 ] final  -28.96 input  -60.55 | X-H torsion
[ 11005 11000 10999 10996 ] final  109.39 input  -57.11 | X-H torsion

> <Gold.Protein.ActiveResidues>
 VAL166  LYS551  ARG553  GLY616  TRP617  ASP618  TYR619  PRO620  LYS621  CYS622 
 ASP623  PHE694  ASN695  SER759  ASP760  ASP761  ALA762  ILE779  LEU786  VAL792 
 PHE793  MET794  SER795  GLU796  ALA797  LYS798  CYS799  TRP800  GLU811  SER814 

> <Gold.Protein.RotatedAtoms>
  150.7664  134.6466  159.6265 H   0  0  0  0  0  0  0  0  0  0  0  0  # atno 6907 bound_to 6896
  152.3697  134.6748  160.0189 H   0  0  0  0  0  0  0  0  0  0  0  0  # atno 6908 bound_to 6896
  151.7112  133.3276  159.3327 H   0  0  0  0  0  0  0  0  0  0  0  0  # atno 6909 bound_to 6896
  145.2028  139.2944  143.4309 H   0  0  0  0  0  0  0  0  0  0  0  0  # atno 7974 bound_to 7965
  155.8441  140.3461  155.5651 H   0  0  0  0  0  0  0  0  0  0  0  0  # atno 8008 bound_to 7997
  155.8109  140.0898  157.1924 H   0  0  0  0  0  0  0  0  0  0  0  0  # atno 8009 bound_to 7997
  154.4006  140.1448  156.3373 H   0  0  0  0  0  0  0  0  0  0  0  0  # atno 8010 bound_to 7997
  140.6824  143.2839  151.3759 H   0  0  0  0  0  0  0  0  0  0  0  0  # atno 10167 bound_to 10162
  156.9909  130.6042  149.5686 H   0  0  0  0  0  0  0  0  0  0  0  0  # atno 10718 bound_to 10713
  153.7569  135.6922  153.4933 H   0  0  0  0  0  0  0  0  0  0  0  0  # atno 10763 bound_to 10752
  153.1965  135.4452  155.0212 H   0  0  0  0  0  0  0  0  0  0  0  0  # atno 10764 bound_to 10752
  154.8167  135.3402  154.7087 H   0  0  0  0  0  0  0  0  0  0  0  0  # atno 10765 bound_to 10752
  139.8861  134.9457  156.6118 H   0  0  0  0  0  0  0  0  0  0  0  0  # atno 11005 bound_to 11000
  146.3414  140.2278  142.8592 LP  0  0  0  0  0  0  0  0  0  0  0  0  # atno 17320 bound_to 7965
  144.9931  140.8565  143.5327 LP  0  0  0  0  0  0  0  0  0  0  0  0  # atno 17321 bound_to 7965
  139.6156  144.1009  152.2342 LP  0  0  0  0  0  0  0  0  0  0  0  0  # atno 17342 bound_to 10162
  140.0437  144.5987  150.7390 LP  0  0  0  0  0  0  0  0  0  0  0  0  # atno 17343 bound_to 10162
  156.0208  130.5302  150.8268 LP  0  0  0  0  0  0  0  0  0  0  0  0  # atno 17370 bound_to 10713
  157.5460  131.0942  150.9762 LP  0  0  0  0  0  0  0  0  0  0  0  0  # atno 17371 bound_to 10713
  140.7806  133.8663  155.8564 LP  0  0  0  0  0  0  0  0  0  0  0  0  # atno 17394 bound_to 11000
  140.9764  134.1464  157.4533 LP  0  0  0  0  0  0  0  0  0  0  0  0  # atno 17395 bound_to 11000

$$$$
