AV-unprocessed.smi:148|AV-procd|sdf|1227|dock4
  -GOLD-   2262018423D 1   1.00000     0.00000
 Structure written by MMmdl.
 63 67  0  0  0  0  0  0  0  0  1 V2000
  153.3977  136.9480  156.8587 O   0  0  0  0  0  0  0  0  0  0  0  0
  152.1334  136.7435  157.4545 C   0  0  0  0  0  0  0  0  0  0  0  0
  151.0341  136.6019  156.3752 C   0  0  1  0  0  0  0  0  0  0  0  0
  149.7867  135.8984  156.9672 C   0  0  0  0  0  0  0  0  0  0  0  0
  148.9607  135.2492  155.9642 N   0  0  0  0  0  0  0  0  0  0  0  0
  149.2707  135.0754  154.6338 C   0  0  0  0  0  0  0  0  0  0  0  0
  148.3647  134.4564  153.9266 N   0  0  0  0  0  0  0  0  0  0  0  0
  147.3575  134.1806  154.8419 C   0  0  0  0  0  0  0  0  0  0  0  0
  146.0999  133.5292  154.7572 C   0  0  0  0  0  0  0  0  0  0  0  0
  145.6386  133.0169  153.5955 N   0  0  0  0  0  0  0  0  0  0  0  0
  146.4714  131.8798  153.1963 C   0  0  0  0  0  0  0  0  0  0  0  0
  145.8319  131.0926  152.0493 C   0  0  0  0  0  0  0  0  0  0  0  0
  145.5599  132.0275  150.8707 C   0  0  0  0  0  0  0  0  0  0  0  0
  144.6854  133.2011  151.3299 C   0  0  0  0  0  0  0  0  0  0  0  0
  145.2960  133.9797  152.5275 C   0  0  1  0  0  0  0  0  0  0  0  0
  144.3159  135.1146  152.9917 C   0  0  2  0  0  0  0  0  0  0  0  0
  142.8252  134.7272  153.0012 C   0  0  0  0  0  0  0  0  0  0  0  0
  142.0373  136.0401  153.0628 C   0  0  0  0  0  0  0  0  0  0  0  0
  143.0044  137.1391  152.6096 C   0  0  0  0  0  0  0  0  0  0  0  0
  144.2892  136.4262  152.1723 C   0  0  2  0  0  0  0  0  0  0  0  0
  144.2144  136.1634  150.7832 O   0  0  0  0  0  0  0  0  0  0  0  0
  145.3489  133.4384  155.8870 N   0  0  0  0  0  0  0  0  0  0  0  0
  145.8116  133.9433  157.0348 C   0  0  0  0  0  0  0  0  0  0  0  0
  146.9688  134.5678  157.2660 N   0  0  0  0  0  0  0  0  0  0  0  0
  147.7163  134.6670  156.1292 C   0  0  0  0  0  0  0  0  0  0  0  0
  150.6744  137.9388  155.6657 C   0  0  1  0  0  0  0  0  0  0  0  0
  150.2623  139.0930  156.5605 C   0  0  0  0  0  0  0  0  0  0  0  0
  150.3465  140.2685  155.5928 C   0  0  0  0  0  0  0  0  0  0  0  0
  151.4132  139.9585  154.7001 O   0  0  0  0  0  0  0  0  0  0  0  0
  151.7802  138.5868  154.8269 C   0  0  0  0  0  0  0  0  0  0  0  0
  153.4149  137.8123  156.4768 H   0  0  0  0  0  0  0  0  0  0  0  0
  152.1814  135.8566  158.0865 H   0  0  0  0  0  0  0  0  0  0  0  0
  151.9501  137.5923  158.1101 H   0  0  0  0  0  0  0  0  0  0  0  0
  151.4332  135.9483  155.5980 H   0  0  0  0  0  0  0  0  0  0  0  0
  150.0818  135.1355  157.6880 H   0  0  0  0  0  0  0  0  0  0  0  0
  149.1747  136.6152  157.5158 H   0  0  0  0  0  0  0  0  0  0  0  0
  150.1962  135.4277  154.2016 H   0  0  0  0  0  0  0  0  0  0  0  0
  147.4553  132.2374  152.8887 H   0  0  0  0  0  0  0  0  0  0  0  0
  146.6268  131.2142  154.0471 H   0  0  0  0  0  0  0  0  0  0  0  0
  146.4869  130.2771  151.7417 H   0  0  0  0  0  0  0  0  0  0  0  0
  144.8997  130.6374  152.3866 H   0  0  0  0  0  0  0  0  0  0  0  0
  146.5018  132.4026  150.4683 H   0  0  0  0  0  0  0  0  0  0  0  0
  145.0680  131.4830  150.0642 H   0  0  0  0  0  0  0  0  0  0  0  0
  144.5382  133.8587  150.4738 H   0  0  0  0  0  0  0  0  0  0  0  0
  143.6988  132.8247  151.6046 H   0  0  0  0  0  0  0  0  0  0  0  0
  146.2246  134.4322  152.1773 H   0  0  0  0  0  0  0  0  0  0  0  0
  144.5747  135.3746  154.0200 H   0  0  0  0  0  0  0  0  0  0  0  0
  142.5737  134.2048  152.0770 H   0  0  0  0  0  0  0  0  0  0  0  0
  142.5674  134.0695  153.8318 H   0  0  0  0  0  0  0  0  0  0  0  0
  141.1538  135.9944  152.4257 H   0  0  0  0  0  0  0  0  0  0  0  0
  141.6968  136.2377  154.0798 H   0  0  0  0  0  0  0  0  0  0  0  0
  142.5827  137.7687  151.8245 H   0  0  0  0  0  0  0  0  0  0  0  0
  143.2241  137.7903  153.4565 H   0  0  0  0  0  0  0  0  0  0  0  0
  145.1468  137.0689  152.3608 H   0  0  0  0  0  0  0  0  0  0  0  0
  143.9042  136.9433  150.3482 H   0  0  0  0  0  0  0  0  0  0  0  0
  145.1632  133.8281  157.8908 H   0  0  0  0  0  0  0  0  0  0  0  0
  149.8524  137.7563  154.9726 H   0  0  0  0  0  0  0  0  0  0  0  0
  149.2682  138.9737  156.9907 H   0  0  0  0  0  0  0  0  0  0  0  0
  150.9727  139.2380  157.3743 H   0  0  0  0  0  0  0  0  0  0  0  0
  149.4244  140.3503  155.0158 H   0  0  0  0  0  0  0  0  0  0  0  0
  150.5129  141.2180  156.1017 H   0  0  0  0  0  0  0  0  0  0  0  0
  152.7505  138.5498  155.3187 H   0  0  0  0  0  0  0  0  0  0  0  0
  151.8853  138.1159  153.8494 H   0  0  0  0  0  0  0  0  0  0  0  0
  1  2  1  0  0  0  0
  1 31  1  0  0  0  0
  2  3  1  0  0  0  0
  2 32  1  0  0  0  0
  2 33  1  0  0  0  0
  3  4  1  0  0  0  0
  3 26  1  0  0  0  0
  3 34  1  0  0  0  0
  4  5  1  0  0  0  0
  4 35  1  0  0  0  0
  4 36  1  0  0  0  0
  5 25  1  0  0  0  0
  5  6  1  0  0  0  0
  6  7  2  0  0  0  0
  6 37  1  0  0  0  0
  7  8  1  0  0  0  0
  8 25  2  0  0  0  0
  8  9  1  0  0  0  0
  9 10  1  0  0  0  0
  9 22  2  0  0  0  0
 10 15  1  0  0  0  0
 10 11  1  0  0  0  0
 11 12  1  0  0  0  0
 11 38  1  0  0  0  0
 11 39  1  0  0  0  0
 12 13  1  0  0  0  0
 12 40  1  0  0  0  0
 12 41  1  0  0  0  0
 13 14  1  0  0  0  0
 13 42  1  0  0  0  0
 13 43  1  0  0  0  0
 14 15  1  0  0  0  0
 14 44  1  0  0  0  0
 14 45  1  0  0  0  0
 15 16  1  0  0  0  0
 15 46  1  0  0  0  0
 16 20  1  0  0  0  0
 16 17  1  0  0  0  0
 16 47  1  0  0  0  0
 17 18  1  0  0  0  0
 17 48  1  0  0  0  0
 17 49  1  0  0  0  0
 18 19  1  0  0  0  0
 18 50  1  0  0  0  0
 18 51  1  0  0  0  0
 19 20  1  0  0  0  0
 19 52  1  0  0  0  0
 19 53  1  0  0  0  0
 20 21  1  0  0  0  0
 20 54  1  0  0  0  0
 21 55  1  0  0  0  0
 22 23  1  0  0  0  0
 23 24  2  0  0  0  0
 23 56  1  0  0  0  0
 24 25  1  0  0  0  0
 26 30  1  0  0  0  0
 26 27  1  0  0  0  0
 26 57  1  0  0  0  0
 27 28  1  0  0  0  0
 27 58  1  0  0  0  0
 27 59  1  0  0  0  0
 28 29  1  0  0  0  0
 28 60  1  0  0  0  0
 28 61  1  0  0  0  0
 29 30  1  0  0  0  0
 30 62  1  0  0  0  0
 30 63  1  0  0  0  0
M  END
> <s_m_source_file>
AV-unprocessed.smi

> <i_m_source_file_index>
148

> <i_lp_mmshare_version>
43012

> <i_f3d_flags>
0

> <s_epik_input>
W0NIMl0xT1tDSDJdW0NIMl1bQ0BIXTFbQ0BIXShbQ0gyXVtPSF0pW0NIMl1uKFtjSF1uMiljKGMyMyluW2NIXW5jM040W0NIMl1bQ0gyXVtDSDJdW0NIMl1bQ0BIXTRbQ0BASF01W0NIMl1bQ0gyXVtDSDJdW0NASF01W09IXQ==

> <s_epik_cmdline>
J2VwaWtfcHl0aG9uJywgJy1waCcsICc3LjAnLCAnLXRuJywgJzgnLCAnLW1hJywgJzIwMCcsICctbWV0YWxfYmluZGluZycsICctaW1hZScsICc8aW5maWxlLm1hZT4nLCAnLW9tYWUnLCAnPG91dGZpbGUubWFlPic=

> <r_lp_tautomer_probability>
1

> <r_epik_Ionization_Penalty>
0.00556303

> <r_epik_Ionization_Penalty_Charging>
0

> <r_epik_Ionization_Penalty_Neutral>
0.00556303

> <r_epik_State_Penalty>
0.00401767

> <r_epik_Charging_Adjusted_Penalty>
0.00401767

> <i_epik_Tot_Q>
0

> <i_epik_Tot_abs_Q>
0

> <r_epik_Metal_State_Penalty>
-0

> <b_epik_Metal_Only>
0

> <s_lp_Force_Field>
OPLS_2005

> <r_lp_Energy>
69.6846

> <b_lp_Chiralities_Consistent>
1

> <s_lp_Variant>
AV-unprocessed.smi:148-26

> <Gold.Version>
5.8.1

> <Gold.Id.Protein>
6NUR|6NUR_protein|mol2

> <Gold.PLP.Fitness>
42.1769

> <Gold.PLP.PLP>
-34.2962

> <Gold.PLP.part.hbond>
-3.0000

> <Gold.PLP.part.metal>
0.0000

> <Gold.PLP.part.buried>
-6.8057

> <Gold.PLP.part.nonpolar>
-26.3250

> <Gold.PLP.part.repulsive>
2.2032

> <Gold.PLP.ligand.clash>
0.0000

> <Gold.PLP.ligand.torsion>
0.9629

> <Gold.PLP.Chemscore.Hbond>
2.9920

> <Gold.PLP.Chemscore.CHOScore>
0.0336

> <Gold.PLP.Chemscore.Metal>
0.0000

> <Gold.Chemscore.Hbonds>
donor molecule, donor type, donor heavy atom, donor atom, acceptor molecule, acceptor atom, score
      L1  H    21    55       P1 10171  1.00
      P1  H  7989  7998       L1    29  0.98
      P1  H 10752 10765       L1     1  0.46
      L1  C     6    37       P1  7948  0.08

> <Gold.PLP.Chemscore.Internal.Correction>
0.7297

> <Gold.Rescore>
     Score         DG    S(hbond)    S(metal)    S(lipo)     H(rot)  DE(clash)    DE(int)     intcor
     11.89     -14.66       2.26        0.00      86.59       3.32       1.28       1.49       ----

> <Gold.Chemscore.Fitness>
11.8924

> <Gold.Chemscore.DG>
-14.6598

> <Gold.Chemscore.ZeroCoef>
-5.4800

> <Gold.Chemscore.Hbond>
2.2602

> <Gold.Chemscore.Metal>
0.0000

> <Gold.Chemscore.Lipo>
86.5872

> <Gold.Chemscore.Internal_Hbond>
0.0000

> <Gold.Chemscore.DEClash>
1.2769

> <Gold.Chemscore.DEInternal>
1.4905

> <Gold.Chemscore.Rot>
3.3203

> <Gold.Chemscore.Internal.Correction>
   9.000000E+99

> <Gold.Chemscore.Hbonds>
donor molecule, donor type, donor heavy atom, donor atom, acceptor molecule, acceptor atom, score
      L1  H    21    55       P1 10171  1.00
      P1  H  7989  7998       L1    29  0.88
      P1  H 10752 10765       L1     1  0.31

> <Gold.Chemscore.Hbond.Weighted>
-7.5491

> <Gold.Chemscore.Metal.Weighted>
-0.0000

> <Gold.Chemscore.Lipo.Weighted>
-10.1307

> <Gold.Chemscore.Internal_Hbond.Weighted>
0.0000

> <Gold.Chemscore.DEClash.Weighted>
1.2769

> <Gold.Chemscore.DEInternal.Weighted>
1.4905

> <Gold.Chemscore.Rot.Weighted>
8.5000

> <Gold.Chemscore.Internal.Correction.Weighted>
   9.000000E+99

> <Gold.Protein.RotatedTorsions>
[ 6907 6896 6895 6894 ] final  163.63 input  -60.11 | X-H torsion
[ 7974 7965 7964 7962 ] final -148.85 input  175.53 | X-H torsion
[ 8008 7997 7996 7995 ] final   75.03 input   59.86 | X-H torsion
[ 10167 10162 10161 10158 ] final  -66.70 input  -65.29 | X-H torsion
[ 10718 10713 10712 10709 ] final  114.80 input   66.30 | X-H torsion
[ 10763 10752 10751 10750 ] final -103.65 input  -60.55 | X-H torsion
[ 11005 11000 10999 10996 ] final -148.97 input  -57.11 | X-H torsion

> <Gold.Protein.ActiveResidues>
 VAL166  LYS551  ARG553  GLY616  TRP617  ASP618  TYR619  PRO620  LYS621  CYS622 
 ASP623  PHE694  ASN695  SER759  ASP760  ASP761  ALA762  ILE779  LEU786  VAL792 
 PHE793  MET794  SER795  GLU796  ALA797  LYS798  CYS799  TRP800  GLU811  SER814 

> <Gold.Protein.RotatedAtoms>
  151.9222  133.3588  159.3900 H   0  0  0  0  0  0  0  0  0  0  0  0  # atno 6907 bound_to 6896
  150.7034  134.4624  159.5396 H   0  0  0  0  0  0  0  0  0  0  0  0  # atno 6908 bound_to 6896
  152.2249  134.8378  160.0532 H   0  0  0  0  0  0  0  0  0  0  0  0  # atno 6909 bound_to 6896
  144.8003  140.5142  143.5711 H   0  0  0  0  0  0  0  0  0  0  0  0  # atno 7974 bound_to 7965
  155.8070  140.3474  155.5435 H   0  0  0  0  0  0  0  0  0  0  0  0  # atno 8008 bound_to 7997
  155.8480  140.0952  157.1713 H   0  0  0  0  0  0  0  0  0  0  0  0  # atno 8009 bound_to 7997
  154.4007  140.1382  156.3796 H   0  0  0  0  0  0  0  0  0  0  0  0  # atno 8010 bound_to 7997
  140.5637  143.2314  151.6677 H   0  0  0  0  0  0  0  0  0  0  0  0  # atno 10167 bound_to 10162
  157.6260  131.1003  150.7238 H   0  0  0  0  0  0  0  0  0  0  0  0  # atno 10718 bound_to 10713
  154.7823  135.4815  153.9870 H   0  0  0  0  0  0  0  0  0  0  0  0  # atno 10763 bound_to 10752
  153.1510  135.6791  153.8889 H   0  0  0  0  0  0  0  0  0  0  0  0  # atno 10764 bound_to 10752
  153.8533  135.3164  155.3412 H   0  0  0  0  0  0  0  0  0  0  0  0  # atno 10765 bound_to 10752
  140.7557  134.3356  157.5115 H   0  0  0  0  0  0  0  0  0  0  0  0  # atno 11005 bound_to 11000
  145.5569  139.1478  143.3363 LP  0  0  0  0  0  0  0  0  0  0  0  0  # atno 17320 bound_to 7965
  146.2283  140.5706  142.8986 LP  0  0  0  0  0  0  0  0  0  0  0  0  # atno 17321 bound_to 7965
  139.5082  144.3618  152.0555 LP  0  0  0  0  0  0  0  0  0  0  0  0  # atno 17342 bound_to 10162
  140.2747  144.3925  150.6139 LP  0  0  0  0  0  0  0  0  0  0  0  0  # atno 17343 bound_to 10162
  156.7586  130.4791  149.5441 LP  0  0  0  0  0  0  0  0  0  0  0  0  # atno 17370 bound_to 10713
  156.1432  130.6259  151.0496 LP  0  0  0  0  0  0  0  0  0  0  0  0  # atno 17371 bound_to 10713
  139.8779  134.9170  156.3168 LP  0  0  0  0  0  0  0  0  0  0  0  0  # atno 17394 bound_to 11000
  140.9710  133.7327  156.0534 LP  0  0  0  0  0  0  0  0  0  0  0  0  # atno 17395 bound_to 11000

$$$$
