#       Name:                AV-unprocessed.smi:216
#       Creating user name   scv26
#       Creation time:       Thu Mar 26 20:05:26 2020


#       File generated by GOLD software.
#

@<TRIPOS>MOLECULE
AV-unprocessed.smi:216
    73    77     1
SMALL
NO_CHARGES


@<TRIPOS>ATOM
      1 ****        -6.2190   0.3215  -0.8748 C.3            1 S1                 0.0000
      2 ****        -4.7737   0.8090  -1.1150 C.3            1 S1                 0.0000
      3 ****        -4.3067   1.6438   0.0945 C.3            1 S1                 0.0000
      4 ****        -2.9193   2.2467  -0.1405 C.3            1 S1                 0.0000
      5 ****        -1.9620   1.2056  -0.5021 N.3            1 S1                 0.0000
      6 ****        -0.6451   1.5348  -0.4544 C.ar           1 S1                 0.0000
      7 ****        -0.2658   2.8372  -0.5597 N.ar           1 S1                 0.0000
      8 ****         1.0270   3.1713  -0.5188 C.ar           1 S1                 0.0000
      9 ****         2.0891   2.3774  -0.3754 N.ar           1 S1                 0.0000
     10 ****         1.7178   1.0702  -0.2616 C.ar           1 S1                 0.0000
     11 ****         0.3865   0.5663  -0.2965 C.ar           1 S1                 0.0000
     12 ****         0.4031  -0.8149  -0.1505 N.2            1 S1                 0.0000
     13 ****         1.6693  -1.1119  -0.0482 C.2            1 S1                 0.0000
     14 ****         2.5292  -0.0373  -0.0826 N.pl3          1 S1                 0.0000
     15 ****         3.9810  -0.0764   0.0224 C.3            1 S1                 0.0000
     16 ****         4.5318  -0.0069   1.4786 C.3            1 S1                 0.0000
     17 ****         4.0088  -1.2023   2.3263 C.3            1 S1                 0.0000
     18 ****         4.3487  -2.4518   1.7587 O.3            1 S1                 0.0000
     19 ****         6.0799   0.0038   1.4162 C.3            1 S1                 0.0000
     20 ****         6.7339   0.3590   2.7640 C.3            1 S1                 0.0000
     21 ****         6.2528   1.6164   3.2204 O.3            1 S1                 0.0000
     22 ****         4.8505   1.6193   3.4523 C.3            1 S1                 0.0000
     23 ****         4.0976   1.3247   2.1420 C.3            1 S1                 0.0000
     24 ****        -2.3443   0.4043  -1.6652 C.3            1 S1                 0.0000
     25 ****        -3.7256  -0.2970  -1.4929 C.3            1 S1                 0.0000
     26 ****        -3.6428  -1.4174  -0.4122 C.3            1 S1                 0.0000
     27 ****        -2.7597  -2.6131  -0.8172 C.3            1 S1                 0.0000
     28 ****        -3.1963  -3.2072  -2.1620 C.3            1 S1                 0.0000
     29 ****        -3.2169  -2.1316  -3.2553 C.3            1 S1                 0.0000
     30 ****        -4.1169  -0.9503  -2.8499 C.3            1 S1                 0.0000
     31 ****        -6.2930  -0.3356  -0.0090 H              1 S1                 0.0000
     32 ****        -6.6359  -0.2003  -1.7341 H              1 S1                 0.0000
     33 ****        -6.8775   1.1690  -0.6822 H              1 S1                 0.0000
     34 ****        -4.8255   1.4958  -1.9615 H              1 S1                 0.0000
     35 ****        -5.0152   2.4497   0.2896 H              1 S1                 0.0000
     36 ****        -4.2926   1.0297   0.9952 H              1 S1                 0.0000
     37 ****        -2.9679   2.9881  -0.9394 H              1 S1                 0.0000
     38 ****        -2.5909   2.7635   0.7625 H              1 S1                 0.0000
     39 ****         1.2409   4.2255  -0.6142 H              1 S1                 0.0000
     40 ****         2.0120  -2.1297   0.0687 H              1 S1                 0.0000
     41 ****         4.3293  -0.9829  -0.4744 H              1 S1                 0.0000
     42 ****         4.3786   0.7495  -0.5691 H              1 S1                 0.0000
     43 ****         4.4091  -1.1849   3.3384 H              1 S1                 0.0000
     44 ****         2.9254  -1.1566   2.4366 H              1 S1                 0.0000
     45 ****         4.0255  -3.1363   2.3246 H              1 S1                 0.0000
     46 ****         6.4594  -0.9547   1.0612 H              1 S1                 0.0000
     47 ****         6.4069   0.7416   0.6822 H              1 S1                 0.0000
     48 ****         6.5542  -0.4110   3.5148 H              1 S1                 0.0000
     49 ****         7.8151   0.4267   2.6429 H              1 S1                 0.0000
     50 ****         4.5956   0.9024   4.2335 H              1 S1                 0.0000
     51 ****         4.5643   2.6014   3.8290 H              1 S1                 0.0000
     52 ****         4.2863   2.1500   1.4543 H              1 S1                 0.0000
     53 ****         3.0240   1.3285   2.3333 H              1 S1                 0.0000
     54 ****        -2.3819   1.0739  -2.5258 H              1 S1                 0.0000
     55 ****        -1.5681  -0.3227  -1.8953 H              1 S1                 0.0000
     56 ****        -3.2805  -1.0159   0.5341 H              1 S1                 0.0000
     57 ****        -4.6376  -1.8103  -0.2077 H              1 S1                 0.0000
     58 ****        -1.7154  -2.3127  -0.8748 H              1 S1                 0.0000
     59 ****        -2.8074  -3.3811  -0.0449 H              1 S1                 0.0000
     60 ****        -2.5258  -4.0182  -2.4477 H              1 S1                 0.0000
     61 ****        -4.1895  -3.6468  -2.0614 H              1 S1                 0.0000
     62 ****        -2.2028  -1.7881  -3.4601 H              1 S1                 0.0000
     63 ****        -3.5808  -2.5654  -4.1871 H              1 S1                 0.0000
     64 ****        -5.1357  -1.3312  -2.8068 H              1 S1                 0.0000
     65 ****        -4.1129  -0.2016  -3.6429 H              1 S1                 0.0000
     66 ****        -2.0420   0.5845   0.2775 LP             1 S1                 0.0000
     67 ****        -0.9595   3.5492  -0.6685 LP             1 S1                 0.0000
     68 ****         3.0356   2.6992  -0.3541 LP             1 S1                 0.0000
     69 ****        -0.3777  -1.4394  -0.1288 LP             1 S1                 0.0000
     70 ****         5.3424  -2.5249   1.6745 LP             1 S1                 0.0000
     71 ****         3.9305  -2.5364   0.8542 LP             1 S1                 0.0000
     72 ****         6.4638   2.3086   2.5303 LP             1 S1                 0.0000
     73 ****         6.7183   1.8452   4.0753 LP             1 S1                 0.0000
@<TRIPOS>BOND
    1    1    2 1     
    2    1   31 1     
    3    1   32 1     
    4    1   33 1     
    5    2   25 1     
    6    2    3 1     
    7    2   34 1     
    8    3    4 1     
    9    3   35 1     
   10    3   36 1     
   11    4    5 1     
   12    4   37 1     
   13    4   38 1     
   14    5    6 1     
   15    5   24 1     
   16    6   11 ar    
   17    6    7 ar    
   18    7    8 ar    
   19    8    9 ar    
   20    8   39 1     
   21    9   10 ar    
   22   10   14 1     
   23   10   11 ar    
   24   11   12 1     
   25   12   13 2     
   26   13   14 1     
   27   13   40 1     
   28   14   15 1     
   29   15   16 1     
   30   15   41 1     
   31   15   42 1     
   32   16   23 1     
   33   16   17 1     
   34   16   19 1     
   35   17   18 1     
   36   17   43 1     
   37   17   44 1     
   38   18   45 1     
   39   19   20 1     
   40   19   46 1     
   41   19   47 1     
   42   20   21 1     
   43   20   48 1     
   44   20   49 1     
   45   21   22 1     
   46   22   23 1     
   47   22   50 1     
   48   22   51 1     
   49   23   52 1     
   50   23   53 1     
   51   24   25 1     
   52   24   54 1     
   53   24   55 1     
   54   25   30 1     
   55   25   26 1     
   56   26   27 1     
   57   26   56 1     
   58   26   57 1     
   59   27   28 1     
   60   27   58 1     
   61   27   59 1     
   62   28   29 1     
   63   28   60 1     
   64   28   61 1     
   65   29   30 1     
   66   29   62 1     
   67   29   63 1     
   68   30   64 1     
   69   30   65 1     
   70    5   66 1     
   71    7   67 1     
   72    9   68 1     
   73   12   69 1     
   74   18   70 1     
   75   18   71 1     
   76   21   72 1     
   77   21   73 1     
@<TRIPOS>SUBSTRUCTURE
      1 S1             1
@<TRIPOS>SET
LONE_PAIRS      STATIC     ATOMS    <user>   **** ""
8 66 67 68 69 70 71 72 73
DONOR_HYDROGENS      STATIC     ATOMS    <user>   **** ""
1 45
ATOM$BLUE        STATIC     ATOMS    COLORGROUP SYSTEM
8 66 67 68 69 70 71 72 73
ATOM$RED        STATIC     ATOMS    COLORGROUP SYSTEM
1 45
