#       Name:                AV-unprocessed.smi:2728
#       Creating user name   scv26
#       Creation time:       Fri Mar 27 14:56:56 2020


#       File generated by GOLD software.
#

@<TRIPOS>MOLECULE
AV-unprocessed.smi:2728
    37    38     1
SMALL
NO_CHARGES


@<TRIPOS>ATOM
      1 ****        -0.7941   1.4468   0.3860 O.2            1 S1                 0.0000
      2 ****        -1.2669   0.3301   0.6006 C.2            1 S1                 0.0000
      3 ****        -0.5180  -0.7709   0.7600 N.am           1 S1                 0.0000
      4 ****         0.9391  -0.8057   0.7122 C.3            1 S1                 0.0000
      5 ****         1.4559  -0.8429  -0.7359 C.3            1 S1                 0.0000
      6 ****         2.9643  -0.9749  -0.8120 C.2            1 S1                 0.0000
      7 ****         3.6464  -1.9985  -1.3238 C.2            1 S1                 0.0000
      8 ****         5.1351  -1.7947  -1.2579 C.3            1 S1                 0.0000
      9 ****         5.2944  -0.4130  -0.5852 C.3            1 S1                 0.0000
     10 ****         3.8702   0.1197  -0.3090 C.3            1 S1                 0.0000
     11 ****        -2.5774   0.0467   0.7063 N.am           1 S1                 0.0000
     12 ****        -3.6790   0.9394   0.6194 C.ar           1 S1                 0.0000
     13 ****        -4.9484   0.3418   0.7916 C.ar           1 S1                 0.0000
     14 ****        -6.1059   1.1421   0.7274 C.ar           1 S1                 0.0000
     15 ****        -5.9619   2.5208   0.4917 C.ar           1 S1                 0.0000
     16 ****        -7.0453   3.3302   0.4224 F              1 S1                 0.0000
     17 ****        -4.6630   3.0372   0.3298 C.ar           1 S1                 0.0000
     18 ****        -3.5529   2.2712   0.3914 N.ar           1 S1                 0.0000
     19 ****        -0.9880  -1.6476   0.9318 H              1 S1                 0.0000
     20 ****         1.3491   0.0509   1.2499 H              1 S1                 0.0000
     21 ****         1.2719  -1.6959   1.2467 H              1 S1                 0.0000
     22 ****         1.0027  -1.6814  -1.2666 H              1 S1                 0.0000
     23 ****         1.1616   0.0615  -1.2698 H              1 S1                 0.0000
     24 ****         3.2084  -2.8886  -1.7509 H              1 S1                 0.0000
     25 ****         5.5997  -2.5872  -0.6708 H              1 S1                 0.0000
     26 ****         5.5612  -1.8073  -2.2613 H              1 S1                 0.0000
     27 ****         5.8571  -0.5025   0.3446 H              1 S1                 0.0000
     28 ****         5.8451   0.2711  -1.2316 H              1 S1                 0.0000
     29 ****         3.6757   1.0470  -0.8486 H              1 S1                 0.0000
     30 ****         3.7104   0.2966   0.7549 H              1 S1                 0.0000
     31 ****        -2.8142  -0.9189   0.8788 H              1 S1                 0.0000
     32 ****        -5.0396  -0.7193   0.9732 H              1 S1                 0.0000
     33 ****        -7.0849   0.7051   0.8574 H              1 S1                 0.0000
     34 ****        -4.5102   4.0905   0.1471 H              1 S1                 0.0000
     35 ****         0.1967   1.5666   0.3226 LP             1 S1                 0.0000
     36 ****        -1.4009   2.2339   0.2751 LP             1 S1                 0.0000
     37 ****        -2.6485   2.6804   0.2705 LP             1 S1                 0.0000
@<TRIPOS>BOND
    1    1    2 2     
    2    2    3 am    
    3    2   11 am    
    4    3    4 1     
    5    3   19 1     
    6    4    5 1     
    7    4   20 1     
    8    4   21 1     
    9    5    6 1     
   10    5   22 1     
   11    5   23 1     
   12    6   10 1     
   13    6    7 2     
   14    7    8 1     
   15    7   24 1     
   16    8    9 1     
   17    8   25 1     
   18    8   26 1     
   19    9   10 1     
   20    9   27 1     
   21    9   28 1     
   22   10   29 1     
   23   10   30 1     
   24   11   12 1     
   25   11   31 1     
   26   12   18 ar    
   27   12   13 ar    
   28   13   14 ar    
   29   13   32 1     
   30   14   15 ar    
   31   14   33 1     
   32   15   16 1     
   33   15   17 ar    
   34   17   18 ar    
   35   17   34 1     
   36    1   35 1     
   37    1   36 1     
   38   18   37 1     
@<TRIPOS>SUBSTRUCTURE
      1 S1             1
@<TRIPOS>SET
LONE_PAIRS      STATIC     ATOMS    <user>   **** ""
3 35 36 37
DONOR_HYDROGENS      STATIC     ATOMS    <user>   **** ""
2 19 31
ATOM$BLUE        STATIC     ATOMS    COLORGROUP SYSTEM
3 35 36 37
ATOM$RED        STATIC     ATOMS    COLORGROUP SYSTEM
2 19 31
