#       Name:                AV-unprocessed.smi:3303
#       Creating user name   scv26
#       Creation time:       Fri Mar 27 19:02:29 2020


#       File generated by GOLD software.
#

@<TRIPOS>MOLECULE
AV-unprocessed.smi:3303
    46    47     1
SMALL
NO_CHARGES


@<TRIPOS>ATOM
      1 ****        -3.0373   0.7279  -0.7999 C.3            1 S1                 0.0000
      2 ****        -1.5305   0.5500  -0.5452 C.3            1 S1                 0.0000
      3 ****        -1.0844  -0.9087  -0.7675 C.3            1 S1                 0.0000
      4 ****        -1.5716  -1.8207   0.2997 N.4            1 S1                 1.0000
      5 ****        -1.2624  -3.2321  -0.0343 C.3            1 S1                 0.0000
      6 ****        -1.1015  -1.3990   1.6529 C.3            1 S1                 0.0000
      7 ****        -1.6096  -2.3255   2.7750 C.3            1 S1                 0.0000
      8 ****        -1.5335   0.0542   1.9524 C.3            1 S1                 0.0000
      9 ****        -1.1187   1.0546   0.8586 C.3            1 S1                 0.0000
     10 ****         0.3181   1.2842   0.9499 N.3            1 S1                 0.0000
     11 ****         0.7316   2.5534   0.3661 C.3            1 S1                 0.0000
     12 ****         2.2614   2.5991   0.2132 C.3            1 S1                 0.0000
     13 ****         2.7878   1.5882  -0.7937 C.ar           1 S1                 0.0000
     14 ****         2.9376   1.9421  -2.1517 C.ar           1 S1                 0.0000
     15 ****         3.4034   0.9657  -3.0534 C.ar           1 S1                 0.0000
     16 ****         3.6983  -0.3222  -2.5660 C.ar           1 S1                 0.0000
     17 ****         3.5158  -0.5764  -1.1922 C.ar           1 S1                 0.0000
     18 ****         3.0692   0.3524  -0.3198 N.ar           1 S1                 0.0000
     19 ****        -3.6403   0.1349  -0.1123 H              1 S1                 0.0000
     20 ****        -3.3014   0.4256  -1.8138 H              1 S1                 0.0000
     21 ****        -3.3322   1.7712  -0.6838 H              1 S1                 0.0000
     22 ****        -1.0352   1.1533  -1.3054 H              1 S1                 0.0000
     23 ****        -1.4422  -1.2503  -1.7397 H              1 S1                 0.0000
     24 ****         0.0053  -0.9600  -0.8077 H              1 S1                 0.0000
     25 ****        -0.1924  -3.4278   0.0464 H              1 S1                 0.0000
     26 ****        -1.5725  -3.4653  -1.0534 H              1 S1                 0.0000
     27 ****        -1.7941  -3.9248   0.6174 H              1 S1                 0.0000
     28 ****        -0.0108  -1.4415   1.6551 H              1 S1                 0.0000
     29 ****        -1.3312  -1.9369   3.7551 H              1 S1                 0.0000
     30 ****        -1.1819  -3.3256   2.7070 H              1 S1                 0.0000
     31 ****        -2.6959  -2.4177   2.7545 H              1 S1                 0.0000
     32 ****        -2.6184   0.0856   2.0615 H              1 S1                 0.0000
     33 ****        -1.1349   0.3737   2.9165 H              1 S1                 0.0000
     34 ****        -1.6141   2.0040   1.0688 H              1 S1                 0.0000
     35 ****         0.6140   1.2602   1.9157 H              1 S1                 0.0000
     36 ****         0.2700   2.7141  -0.6073 H              1 S1                 0.0000
     37 ****         0.3951   3.3623   1.0152 H              1 S1                 0.0000
     38 ****         2.5623   3.5974  -0.1060 H              1 S1                 0.0000
     39 ****         2.7424   2.4351   1.1788 H              1 S1                 0.0000
     40 ****         2.6970   2.9370  -2.4971 H              1 S1                 0.0000
     41 ****         3.5298   1.1999  -4.1002 H              1 S1                 0.0000
     42 ****         4.0568  -1.0960  -3.2285 H              1 S1                 0.0000
     43 ****         3.7311  -1.5525  -0.7834 H              1 S1                 0.0000
     44 ****        -2.5786  -1.7422   0.3036 H              1 S1                 0.0000
     45 ****         0.7525   0.5511   0.4265 LP             1 S1                 0.0000
     46 ****         2.9498   0.1333   0.6486 LP             1 S1                 0.0000
@<TRIPOS>BOND
    1    1    2 1     
    2    1   19 1     
    3    1   20 1     
    4    1   21 1     
    5    2    9 1     
    6    2    3 1     
    7    2   22 1     
    8    3    4 1     
    9    3   23 1     
   10    3   24 1     
   11    4    5 1     
   12    4    6 1     
   13    4   44 1     
   14    5   25 1     
   15    5   26 1     
   16    5   27 1     
   17    6    7 1     
   18    6    8 1     
   19    6   28 1     
   20    7   29 1     
   21    7   30 1     
   22    7   31 1     
   23    8    9 1     
   24    8   32 1     
   25    8   33 1     
   26    9   10 1     
   27    9   34 1     
   28   10   11 1     
   29   10   35 1     
   30   11   12 1     
   31   11   36 1     
   32   11   37 1     
   33   12   13 1     
   34   12   38 1     
   35   12   39 1     
   36   13   18 ar    
   37   13   14 ar    
   38   14   15 ar    
   39   14   40 1     
   40   15   16 ar    
   41   15   41 1     
   42   16   17 ar    
   43   16   42 1     
   44   17   18 ar    
   45   17   43 1     
   46   10   45 1     
   47   18   46 1     
@<TRIPOS>SUBSTRUCTURE
      1 S1             1
@<TRIPOS>SET
LONE_PAIRS      STATIC     ATOMS    <user>   **** ""
2 45 46
DONOR_HYDROGENS      STATIC     ATOMS    <user>   **** ""
2 44 35
ATOM$BLUE        STATIC     ATOMS    COLORGROUP SYSTEM
2 45 46
ATOM$RED        STATIC     ATOMS    COLORGROUP SYSTEM
2 44 35
