AV-unprocessed.smi:2164|AV-procd|sdf|8810|dock4
  -GOLD-   2272012 03D 1   1.00000     0.00000
 Structure written by MMmdl.
 38 40  0  0  0  0  0  0  0  0  2 V2000
  154.1779  137.3558  157.3400 O   0  0  0  0  0  0  0  0  0  0  0  0
  154.4831  137.9980  158.3532 C   0  0  0  0  0  0  0  0  0  0  0  0
  154.2924  139.3422  158.5181 N   0  5  0  0  0  0  0  0  0  0  0  0
  153.3894  139.9554  159.4920 C   0  0  0  0  0  0  0  0  0  0  0  0
  154.0591  141.2013  160.1056 C   0  0  0  0  0  0  0  0  0  0  0  0
  153.0929  142.3464  160.3767 C   0  0  0  0  0  0  0  0  0  0  0  0
  152.8457  142.7934  161.6932 C   0  0  0  0  0  0  0  0  0  0  0  0
  151.9342  143.8475  161.8943 C   0  0  0  0  0  0  0  0  0  0  0  0
  151.3022  144.4110  160.7682 C   0  0  0  0  0  0  0  0  0  0  0  0
  151.5236  143.9899  159.5046 N   0  0  0  0  0  0  0  0  0  0  0  0
  152.3996  142.9786  159.3201 C   0  0  0  0  0  0  0  0  0  0  0  0
  155.0992  137.2731  159.4746 C   0  0  0  0  0  0  0  0  0  0  0  0
  155.0740  137.7207  160.7492 C   0  0  0  0  0  0  0  0  0  0  0  0
  155.6577  137.0392  161.8203 N   0  0  0  0  0  0  0  0  0  0  0  0
  155.6439  137.6806  163.1301 C   0  0  0  0  0  0  0  0  0  0  0  0
  155.3530  136.6584  164.2173 C   0  0  0  0  0  0  0  0  0  0  0  0
  156.7404  135.4603  164.1834 S   0  0  0  0  0  0  0  0  0  0  0  0
  157.9840  136.1955  164.4626 O   0  0  0  0  0  0  0  0  0  0  0  0
  156.3757  134.3142  165.0301 O   0  0  0  0  0  0  0  0  0  0  0  0
  156.7192  135.0059  162.5702 N   0  0  0  0  0  0  0  0  0  0  0  0
  156.2612  135.7707  161.6256 C   0  0  0  0  0  0  0  0  0  0  0  0
  156.3263  135.3051  160.2502 C   0  0  0  0  0  0  0  0  0  0  0  0
  155.7793  136.0094  159.2386 C   0  0  0  0  0  0  0  0  0  0  0  0
  152.4451  140.2509  159.0331 H   0  0  0  0  0  0  0  0  0  0  0  0
  153.1306  139.2618  160.2932 H   0  0  0  0  0  0  0  0  0  0  0  0
  154.5503  140.9344  161.0427 H   0  0  0  0  0  0  0  0  0  0  0  0
  154.8465  141.5627  159.4426 H   0  0  0  0  0  0  0  0  0  0  0  0
  153.3477  142.3379  162.5342 H   0  0  0  0  0  0  0  0  0  0  0  0
  151.7246  144.2149  162.8878 H   0  0  0  0  0  0  0  0  0  0  0  0
  150.5973  145.2206  160.8860 H   0  0  0  0  0  0  0  0  0  0  0  0
  152.5523  142.6640  158.2981 H   0  0  0  0  0  0  0  0  0  0  0  0
  154.5973  138.6476  161.0340 H   0  0  0  0  0  0  0  0  0  0  0  0
  156.6042  138.1679  163.3021 H   0  0  0  0  0  0  0  0  0  0  0  0
  154.8849  138.4628  163.1668 H   0  0  0  0  0  0  0  0  0  0  0  0
  155.3110  137.1188  165.2040 H   0  0  0  0  0  0  0  0  0  0  0  0
  154.4147  136.1312  164.0410 H   0  0  0  0  0  0  0  0  0  0  0  0
  156.8090  134.3715  159.9999 H   0  0  0  0  0  0  0  0  0  0  0  0
  155.8584  135.6097  158.2380 H   0  0  0  0  0  0  0  0  0  0  0  0
  1  2  2  0  0  0  0
  2  3  1  0  0  0  0
  2 12  1  0  0  0  0
  3  4  1  0  0  0  0
  4  5  1  0  0  0  0
  4 24  1  0  0  0  0
  4 25  1  0  0  0  0
  5  6  1  0  0  0  0
  5 26  1  0  0  0  0
  5 27  1  0  0  0  0
  6 11  1  0  0  0  0
  6  7  2  0  0  0  0
  7  8  1  0  0  0  0
  7 28  1  0  0  0  0
  8  9  2  0  0  0  0
  8 29  1  0  0  0  0
  9 10  1  0  0  0  0
  9 30  1  0  0  0  0
 10 11  2  0  0  0  0
 11 31  1  0  0  0  0
 12 23  1  0  0  0  0
 12 13  2  0  0  0  0
 13 14  1  0  0  0  0
 13 32  1  0  0  0  0
 14 21  1  0  0  0  0
 14 15  1  0  0  0  0
 15 16  1  0  0  0  0
 15 33  1  0  0  0  0
 15 34  1  0  0  0  0
 16 17  1  0  0  0  0
 16 35  1  0  0  0  0
 16 36  1  0  0  0  0
 17 18  2  0  0  0  0
 17 19  2  0  0  0  0
 17 20  1  0  0  0  0
 20 21  2  0  0  0  0
 21 22  1  0  0  0  0
 22 23  2  0  0  0  0
 22 37  1  0  0  0  0
 23 38  1  0  0  0  0
M  CHG  1   3  -1
M  END
> <s_m_source_file>
AV-unprocessed.smi

> <i_m_source_file_index>
2164

> <i_lp_mmshare_version>
43012

> <i_f3d_flags>
0

> <s_epik_input>
W0NIMl0xW0NIMl1TKD1PKSg9TylOPUMoTjEyKVtDSF09W0NIXUMoPVtDSF0yKUMoPU8pW05IXVtDSDJdW0NIMl1jM1tjSF1bY0hdW2NIXW5bY0hdMw==

> <s_epik_cmdline>
J2VwaWtfcHl0aG9uJywgJy1waCcsICc3LjAnLCAnLXRuJywgJzgnLCAnLW1hJywgJzIwMCcsICctbWV0YWxfYmluZGluZycsICctaW1hZScsICc8aW5maWxlLm1hZT4nLCAnLW9tYWUnLCAnPG91dGZpbGUubWFlPic=

> <r_epik_Ionization_Penalty>
5.17728

> <r_epik_Ionization_Penalty_Charging>
5.15676

> <r_epik_Ionization_Penalty_Neutral>
0.0205175

> <r_epik_State_Penalty>
5.1638

> <r_epik_Charging_Adjusted_Penalty>
10.3206

> <i_epik_Tot_Q>
-1

> <i_epik_Tot_abs_Q>
1

> <r_epik_Metal_State_Penalty>
1.2481

> <b_epik_Metal_Only>
1

> <s_lp_Force_Field>
OPLS_2005

> <r_lp_Energy>
26.7817

> <b_lp_Chiralities_Consistent>
1

> <s_lp_Variant>
AV-unprocessed.smi:2164-3

> <Gold.Version>
5.8.1

> <Gold.Id.Protein>
6NUR|6NUR_protein|mol2

> <Gold.PLP.Fitness>
49.7606

> <Gold.PLP.PLP>
-46.2156

> <Gold.PLP.part.hbond>
-1.0000

> <Gold.PLP.part.metal>
0.0000

> <Gold.PLP.part.buried>
-6.7897

> <Gold.PLP.part.nonpolar>
-38.2381

> <Gold.PLP.part.repulsive>
0.1890

> <Gold.PLP.ligand.clash>
0.0000

> <Gold.PLP.ligand.torsion>
1.2485

> <Gold.PLP.Chemscore.Hbond>
2.0000

> <Gold.PLP.Chemscore.CHOScore>
0.0000

> <Gold.PLP.Chemscore.Metal>
0.0000

> <Gold.Chemscore.Hbonds>
donor molecule, donor type, donor heavy atom, donor atom, acceptor molecule, acceptor atom, score
      P1  H  7997  8010       L1     3  2.00

> <Gold.PLP.Chemscore.Internal.Correction>
0.0420

> <Gold.Rescore>
     Score         DG    S(hbond)    S(metal)    S(lipo)     H(rot)  DE(clash)    DE(int)     intcor
     16.07     -17.17       0.83        0.00     107.69       1.44       0.04       1.07       ----

> <Gold.Chemscore.Fitness>
16.0656

> <Gold.Chemscore.DG>
-17.1718

> <Gold.Chemscore.ZeroCoef>
-5.4800

> <Gold.Chemscore.Hbond>
0.8345

> <Gold.Chemscore.Metal>
0.0000

> <Gold.Chemscore.Lipo>
107.6873

> <Gold.Chemscore.Internal_Hbond>
0.0000

> <Gold.Chemscore.DEClash>
0.0392

> <Gold.Chemscore.DEInternal>
1.0670

> <Gold.Chemscore.Rot>
1.4433

> <Gold.Chemscore.Internal.Correction>
   9.000000E+99

> <Gold.Chemscore.Hbonds>
donor molecule, donor type, donor heavy atom, donor atom, acceptor molecule, acceptor atom, score
      P1  H  7997  8010       L1     3  0.43

> <Gold.Chemscore.Hbond.Weighted>
-2.7873

> <Gold.Chemscore.Metal.Weighted>
-0.0000

> <Gold.Chemscore.Lipo.Weighted>
-12.5994

> <Gold.Chemscore.Internal_Hbond.Weighted>
0.0000

> <Gold.Chemscore.DEClash.Weighted>
0.0392

> <Gold.Chemscore.DEInternal.Weighted>
1.0670

> <Gold.Chemscore.Rot.Weighted>
3.6949

> <Gold.Chemscore.Internal.Correction.Weighted>
   9.000000E+99

> <Gold.Protein.RotatedTorsions>
[ 6907 6896 6895 6894 ] final   87.78 input  -60.11 | X-H torsion
[ 7974 7965 7964 7962 ] final   66.09 input  175.53 | X-H torsion
[ 8008 7997 7996 7995 ] final   -5.26 input   59.86 | X-H torsion
[ 10167 10162 10161 10158 ] final   59.97 input  -65.29 | X-H torsion
[ 10718 10713 10712 10709 ] final -153.26 input   66.30 | X-H torsion
[ 10763 10752 10751 10750 ] final   84.43 input  -60.55 | X-H torsion
[ 11005 11000 10999 10996 ] final  -43.31 input  -57.11 | X-H torsion

> <Gold.Protein.ActiveResidues>
 VAL166  LYS551  ARG553  GLY616  TRP617  ASP618  TYR619  PRO620  LYS621  CYS622 
 ASP623  PHE694  ASN695  SER759  ASP760  ASP761  ALA762  ILE779  LEU786  VAL792 
 PHE793  MET794  SER795  GLU796  ALA797  LYS798  CYS799  TRP800  GLU811  SER814 

> <Gold.Protein.RotatedAtoms>
  152.5416  134.2224  159.8792 H   0  0  0  0  0  0  0  0  0  0  0  0  # atno 6907 bound_to 6896
  151.2200  133.4501  159.2608 H   0  0  0  0  0  0  0  0  0  0  0  0  # atno 6908 bound_to 6896
  151.0815  134.9874  159.8414 H   0  0  0  0  0  0  0  0  0  0  0  0  # atno 6909 bound_to 6896
  145.8308  139.3138  143.0989 H   0  0  0  0  0  0  0  0  0  0  0  0  # atno 7974 bound_to 7965
  154.6057  140.2463  155.7733 H   0  0  0  0  0  0  0  0  0  0  0  0  # atno 8008 bound_to 7997
  156.2339  140.2957  156.0213 H   0  0  0  0  0  0  0  0  0  0  0  0  # atno 8009 bound_to 7997
  155.2135  140.0398  157.2927 H   0  0  0  0  0  0  0  0  0  0  0  0  # atno 8010 bound_to 7997
  140.1707  144.4280  150.6663 H   0  0  0  0  0  0  0  0  0  0  0  0  # atno 10167 bound_to 10162
  156.4834  130.8314  151.2540 H   0  0  0  0  0  0  0  0  0  0  0  0  # atno 10718 bound_to 10713
  153.1381  135.4654  154.9453 H   0  0  0  0  0  0  0  0  0  0  0  0  # atno 10763 bound_to 10752
  154.7723  135.3162  154.8166 H   0  0  0  0  0  0  0  0  0  0  0  0  # atno 10764 bound_to 10752
  153.8694  135.6905  153.4830 H   0  0  0  0  0  0  0  0  0  0  0  0  # atno 10765 bound_to 10752
  141.0375  133.6794  156.2715 H   0  0  0  0  0  0  0  0  0  0  0  0  # atno 11005 bound_to 11000
  145.9573  140.8862  143.0228 LP  0  0  0  0  0  0  0  0  0  0  0  0  # atno 17320 bound_to 7965
  144.6740  140.1764  143.7410 LP  0  0  0  0  0  0  0  0  0  0  0  0  # atno 17321 bound_to 7965
  140.6584  143.2244  151.5914 LP  0  0  0  0  0  0  0  0  0  0  0  0  # atno 17342 bound_to 10162
  139.5339  144.2836  152.1209 LP  0  0  0  0  0  0  0  0  0  0  0  0  # atno 17343 bound_to 10162
  157.7481  131.0037  150.3049 LP  0  0  0  0  0  0  0  0  0  0  0  0  # atno 17370 bound_to 10713
  156.3499  130.3829  149.7338 LP  0  0  0  0  0  0  0  0  0  0  0  0  # atno 17371 bound_to 10713
  140.6295  134.5278  157.5558 LP  0  0  0  0  0  0  0  0  0  0  0  0  # atno 17394 bound_to 11000
  139.9251  134.8071  156.1092 LP  0  0  0  0  0  0  0  0  0  0  0  0  # atno 17395 bound_to 11000

$$$$
