#       Name:                AV-unprocessed.smi:3342
#       Creating user name   scv26
#       Creation time:       Fri Mar 27 19:29:17 2020


#       File generated by GOLD software.
#

@<TRIPOS>MOLECULE
AV-unprocessed.smi:3342
    46    47     1
SMALL
NO_CHARGES


@<TRIPOS>ATOM
      1 ****        -3.2844  -0.4961   0.8409 C.3            1 S1                 0.0000
      2 ****        -2.2392   0.3363   0.0810 C.3            1 S1                 0.0000
      3 ****        -2.0114  -0.1516  -1.3665 C.3            1 S1                 0.0000
      4 ****        -3.2303  -0.1186  -2.1797 N.pl3          1 S1                 0.0000
      5 ****        -3.8592   0.9915  -2.6815 C.2            1 S1                 0.0000
      6 ****        -4.9467   0.5405  -3.3842 C.2            1 S1                 0.0000
      7 ****        -4.9332  -0.8251  -3.2846 N.pl3          1 S1                 1.0000
      8 ****        -3.8870  -1.2244  -2.5542 C.2            1 S1                 0.0000
      9 ****        -0.9792   0.3143   0.8179 N.am           1 S1                 0.0000
     10 ****        -0.0133   1.2464   0.7404 C.2            1 S1                 0.0000
     11 ****        -0.1344   2.2551   0.0433 O.2            1 S1                 0.0000
     12 ****         1.0901   0.9851   1.4859 N.am           1 S1                 0.0000
     13 ****         1.3801  -0.2676   2.2030 C.3            1 S1                 0.0000
     14 ****         2.4237  -1.0623   1.3974 C.3            1 S1                 0.0000
     15 ****         3.7066  -0.2264   1.1698 C.3            1 S1                 0.0000
     16 ****         4.6857  -0.9608   0.2441 C.2            1 S1                 0.0000
     17 ****         5.8907  -1.2520   0.7400 N.am           1 S1                 0.0000
     18 ****         4.3606  -1.2632  -0.9026 O.2            1 S1                 0.0000
     19 ****         3.3632   1.1757   0.6122 C.3            1 S1                 0.0000
     20 ****         2.2696   1.8577   1.4551 C.3            1 S1                 0.0000
     21 ****        -4.2653  -0.4338   0.3695 H              1 S1                 0.0000
     22 ****        -3.3967  -0.1416   1.8662 H              1 S1                 0.0000
     23 ****        -2.9999  -1.5480   0.8824 H              1 S1                 0.0000
     24 ****        -2.6027   1.3652   0.0505 H              1 S1                 0.0000
     25 ****        -1.2728   0.4716  -1.8725 H              1 S1                 0.0000
     26 ****        -1.6194  -1.1700  -1.3715 H              1 S1                 0.0000
     27 ****        -3.4944   1.9934  -2.5048 H              1 S1                 0.0000
     28 ****        -5.7078   1.0744  -3.9345 H              1 S1                 0.0000
     29 ****        -3.6263  -2.2398  -2.3134 H              1 S1                 0.0000
     30 ****        -0.8150  -0.4816   1.4171 H              1 S1                 0.0000
     31 ****         1.7763  -0.0320   3.1918 H              1 S1                 0.0000
     32 ****         0.5014  -0.8854   2.3881 H              1 S1                 0.0000
     33 ****         2.6682  -1.9859   1.9237 H              1 S1                 0.0000
     34 ****         1.9858  -1.3580   0.4425 H              1 S1                 0.0000
     35 ****         4.1864  -0.0875   2.1404 H              1 S1                 0.0000
     36 ****         6.5685  -1.7359   0.1695 H              1 S1                 0.0000
     37 ****         6.1188  -0.9874   1.6873 H              1 S1                 0.0000
     38 ****         4.2566   1.8011   0.5955 H              1 S1                 0.0000
     39 ****         3.0209   1.1004  -0.4214 H              1 S1                 0.0000
     40 ****         2.0513   2.8484   1.0538 H              1 S1                 0.0000
     41 ****         2.6274   2.0250   2.4720 H              1 S1                 0.0000
     42 ****        -5.6144  -1.4455  -3.7043 H              1 S1                 0.0000
     43 ****        -0.9701   2.3993  -0.4866 LP             1 S1                 0.0000
     44 ****         0.6030   2.9296   0.0075 LP             1 S1                 0.0000
     45 ****         3.4490  -1.0306  -1.2416 LP             1 S1                 0.0000
     46 ****         5.0077  -1.7417  -1.4960 LP             1 S1                 0.0000
@<TRIPOS>BOND
    1    1    2 1     
    2    1   21 1     
    3    1   22 1     
    4    1   23 1     
    5    2    3 1     
    6    2    9 1     
    7    2   24 1     
    8    3    4 1     
    9    3   25 1     
   10    3   26 1     
   11    4    8 1     
   12    4    5 1     
   13    5    6 2     
   14    5   27 1     
   15    6    7 1     
   16    6   28 1     
   17    7    8 2     
   18    7   42 1     
   19    8   29 1     
   20    9   10 am    
   21    9   30 1     
   22   10   11 2     
   23   10   12 am    
   24   12   20 1     
   25   12   13 1     
   26   13   14 1     
   27   13   31 1     
   28   13   32 1     
   29   14   15 1     
   30   14   33 1     
   31   14   34 1     
   32   15   16 1     
   33   15   19 1     
   34   15   35 1     
   35   16   17 am    
   36   16   18 2     
   37   17   36 1     
   38   17   37 1     
   39   19   20 1     
   40   19   38 1     
   41   19   39 1     
   42   20   40 1     
   43   20   41 1     
   44   11   43 1     
   45   11   44 1     
   46   18   45 1     
   47   18   46 1     
@<TRIPOS>SUBSTRUCTURE
      1 S1             1
@<TRIPOS>SET
LONE_PAIRS      STATIC     ATOMS    <user>   **** ""
4 43 44 45 46
DONOR_HYDROGENS      STATIC     ATOMS    <user>   **** ""
4 42 30 36 37
ATOM$BLUE        STATIC     ATOMS    COLORGROUP SYSTEM
4 43 44 45 46
ATOM$RED        STATIC     ATOMS    COLORGROUP SYSTEM
4 42 30 36 37
