AV-unprocessed.smi:311|AV-procd|sdf|2304|dock9
  -GOLD-   2262022203D 1   1.00000     0.00000
 Structure written by MMmdl.
 44 46  0  0  0  0  0  0  0  0  2 V2000
  149.5560  132.9714  153.9160 C   0  0  0  0  0  0  0  0  0  0  0  0
  149.5368  133.5051  155.3198 C   0  0  0  0  0  0  0  0  0  0  0  0
  150.0890  132.8015  156.2935 N   0  0  0  0  0  0  0  0  0  0  0  0
  149.9201  133.5586  157.4566 O   0  0  0  0  0  0  0  0  0  0  0  0
  149.2699  134.7050  157.1329 C   0  0  0  0  0  0  0  0  0  0  0  0
  149.0037  135.6576  158.2490 C   0  0  0  0  0  0  0  0  0  0  0  0
  148.9971  134.7361  155.7927 C   0  0  0  0  0  0  0  0  0  0  0  0
  148.3079  135.8125  154.9926 C   0  0  0  0  0  0  0  0  0  0  0  0
  147.0169  135.2501  154.4000 C   0  0  0  0  0  0  0  0  0  0  0  0
  146.2432  134.6053  155.1071 O   0  0  0  0  0  0  0  0  0  0  0  0
  146.8148  135.4753  153.0926 N   0  0  0  0  0  0  0  0  0  0  0  0
  145.7175  134.9260  152.3034 C   0  0  1  0  0  0  0  0  0  0  0  0
  144.7841  136.0049  151.7375 C   0  0  0  0  0  0  0  0  0  0  0  0
  144.3904  135.5078  150.3318 C   0  0  0  0  0  0  0  0  0  0  0  0
  145.0309  134.1842  150.1507 N   0  3  2  0  0  0  0  0  0  0  0  0
  144.0852  133.0641  150.4135 C   0  0  0  0  0  0  0  0  0  0  0  0
  144.7951  131.7047  150.4637 C   0  0  0  0  0  0  0  0  0  0  0  0
  145.8899  131.7181  151.5337 C   0  0  0  0  0  0  0  0  0  0  0  0
  146.8900  132.8350  151.2208 C   0  0  0  0  0  0  0  0  0  0  0  0
  146.2175  134.2151  151.0391 C   0  0  2  0  0  0  0  0  0  0  0  0
  148.6212  133.1912  153.4001 H   0  0  0  0  0  0  0  0  0  0  0  0
  149.6955  131.8899  153.8976 H   0  0  0  0  0  0  0  0  0  0  0  0
  150.3649  133.4221  153.3408 H   0  0  0  0  0  0  0  0  0  0  0  0
  148.9536  136.6836  157.8837 H   0  0  0  0  0  0  0  0  0  0  0  0
  149.7923  135.6075  159.0004 H   0  0  0  0  0  0  0  0  0  0  0  0
  148.0570  135.4243  158.7363 H   0  0  0  0  0  0  0  0  0  0  0  0
  148.0715  136.6768  155.6144 H   0  0  0  0  0  0  0  0  0  0  0  0
  148.9392  136.1836  154.1846 H   0  0  0  0  0  0  0  0  0  0  0  0
  147.5060  136.0204  152.5977 H   0  0  0  0  0  0  0  0  0  0  0  0
  145.1194  134.2391  152.9048 H   0  0  0  0  0  0  0  0  0  0  0  0
  143.9121  136.1439  152.3774 H   0  0  0  0  0  0  0  0  0  0  0  0
  145.2894  136.9688  151.6592 H   0  0  0  0  0  0  0  0  0  0  0  0
  143.3089  135.4708  150.1923 H   0  0  0  0  0  0  0  0  0  0  0  0
  144.7886  136.1881  149.5779 H   0  0  0  0  0  0  0  0  0  0  0  0
  143.5620  133.2319  151.3563 H   0  0  0  0  0  0  0  0  0  0  0  0
  143.3234  133.0542  149.6331 H   0  0  0  0  0  0  0  0  0  0  0  0
  144.0736  130.9162  150.6797 H   0  0  0  0  0  0  0  0  0  0  0  0
  145.2271  131.4730  149.4892 H   0  0  0  0  0  0  0  0  0  0  0  0
  145.4516  131.8688  152.5210 H   0  0  0  0  0  0  0  0  0  0  0  0
  146.4006  130.7550  151.5627 H   0  0  0  0  0  0  0  0  0  0  0  0
  147.6589  132.8805  151.9919 H   0  0  0  0  0  0  0  0  0  0  0  0
  147.4136  132.5800  150.2985 H   0  0  0  0  0  0  0  0  0  0  0  0
  146.9479  134.8696  150.5586 H   0  0  0  0  0  0  0  0  0  0  0  0
  145.3452  134.0920  149.1951 H   0  0  0  0  0  0  0  0  0  0  0  0
  1  2  1  0  0  0  0
  1 21  1  0  0  0  0
  1 22  1  0  0  0  0
  1 23  1  0  0  0  0
  2  7  1  0  0  0  0
  2  3  2  0  0  0  0
  3  4  1  0  0  0  0
  4  5  1  0  0  0  0
  5  6  1  0  0  0  0
  5  7  2  0  0  0  0
  6 24  1  0  0  0  0
  6 25  1  0  0  0  0
  6 26  1  0  0  0  0
  7  8  1  0  0  0  0
  8  9  1  0  0  0  0
  8 27  1  0  0  0  0
  8 28  1  0  0  0  0
  9 10  2  0  0  0  0
  9 11  1  0  0  0  0
 11 12  1  0  0  0  0
 11 29  1  0  0  0  0
 12 20  1  0  0  0  0
 12 13  1  0  0  0  0
 12 30  1  0  0  0  0
 13 14  1  0  0  0  0
 13 31  1  0  0  0  0
 13 32  1  0  0  0  0
 14 15  1  0  0  0  0
 14 33  1  0  0  0  0
 14 34  1  0  0  0  0
 15 20  1  0  0  0  0
 15 16  1  0  0  0  0
 15 44  1  0  0  0  0
 16 17  1  0  0  0  0
 16 35  1  0  0  0  0
 16 36  1  0  0  0  0
 17 18  1  0  0  0  0
 17 37  1  0  0  0  0
 17 38  1  0  0  0  0
 18 19  1  0  0  0  0
 18 39  1  0  0  0  0
 18 40  1  0  0  0  0
 19 20  1  0  0  0  0
 19 41  1  0  0  0  0
 19 42  1  0  0  0  0
 20 43  1  0  0  0  0
M  CHG  1  15   1
M  END
> <s_m_source_file>
AV-unprocessed.smi

> <i_m_source_file_index>
311

> <i_lp_mmshare_version>
43012

> <i_f3d_flags>
0

> <s_epik_input>
W0NIM11jMW5vYyhbQ0gzXSljMVtDSDJdQyg9TylbTkhdW0NASF0oW0NIMl1bQ0gyXTIpW0NAQEhdKE4yMylbQ0gyXVtDSDJdW0NIMl1bQ0gyXTM=

> <s_epik_cmdline>
J2VwaWtfcHl0aG9uJywgJy1waCcsICc3LjAnLCAnLXRuJywgJzgnLCAnLW1hJywgJzIwMCcsICctbWV0YWxfYmluZGluZycsICctaW1hZScsICc8aW5maWxlLm1hZT4nLCAnLW9tYWUnLCAnPG91dGZpbGUubWFlPic=

> <r_epik_Ionization_Penalty>
0.00173669

> <r_epik_Ionization_Penalty_Charging>
0.0017366

> <r_epik_Ionization_Penalty_Neutral>
9.2145e-08

> <r_epik_State_Penalty>
0.00117499

> <r_epik_Charging_Adjusted_Penalty>
0.00291159

> <i_epik_Tot_Q>
1

> <i_epik_Tot_abs_Q>
1

> <r_epik_Metal_State_Penalty>
-0

> <b_epik_Metal_Only>
0

> <s_lp_Force_Field>
OPLS_2005

> <r_lp_Energy>
30.3664

> <b_lp_Chiralities_Consistent>
1

> <s_lp_Variant>
AV-unprocessed.smi:311-8

> <Gold.Version>
5.8.1

> <Gold.Id.Protein>
6NUR|6NUR_protein|mol2

> <Gold.PLP.Fitness>
38.9880

> <Gold.PLP.PLP>
-30.3500

> <Gold.PLP.part.hbond>
-3.0000

> <Gold.PLP.part.metal>
0.0000

> <Gold.PLP.part.buried>
-2.3858

> <Gold.PLP.part.nonpolar>
-24.4053

> <Gold.PLP.part.repulsive>
0.1085

> <Gold.PLP.ligand.clash>
0.0000

> <Gold.PLP.ligand.torsion>
0.1753

> <Gold.PLP.Chemscore.Hbond>
2.9920

> <Gold.PLP.Chemscore.CHOScore>
0.0000

> <Gold.PLP.Chemscore.Metal>
0.0000

> <Gold.Chemscore.Hbonds>
donor molecule, donor type, donor heavy atom, donor atom, acceptor molecule, acceptor atom, score
      L1  H    11    29       P1  7948  1.00
      L1  H    15    44       P1  7921  1.00
      P1  H  6896  6907       L1     4  0.99

> <Gold.PLP.Chemscore.Internal.Correction>
0.0125

> <Gold.Rescore>
     Score         DG    S(hbond)    S(metal)    S(lipo)     H(rot)  DE(clash)    DE(int)     intcor
     19.97     -20.64       2.88        0.00      76.96       1.36       0.36       0.31       ----

> <Gold.Chemscore.Fitness>
19.9749

> <Gold.Chemscore.DG>
-20.6433

> <Gold.Chemscore.ZeroCoef>
-5.4800

> <Gold.Chemscore.Hbond>
2.8840

> <Gold.Chemscore.Metal>
0.0000

> <Gold.Chemscore.Lipo>
76.9553

> <Gold.Chemscore.Internal_Hbond>
0.0000

> <Gold.Chemscore.DEClash>
0.3559

> <Gold.Chemscore.DEInternal>
0.3125

> <Gold.Chemscore.Rot>
1.3567

> <Gold.Chemscore.Internal.Correction>
   9.000000E+99

> <Gold.Chemscore.Hbonds>
donor molecule, donor type, donor heavy atom, donor atom, acceptor molecule, acceptor atom, score
      L1  H    11    29       P1  7948  0.96
      L1  H    15    44       P1  7921  0.87
      P1  H  6896  6907       L1     4  0.82

> <Gold.Chemscore.Hbond.Weighted>
-9.6326

> <Gold.Chemscore.Metal.Weighted>
-0.0000

> <Gold.Chemscore.Lipo.Weighted>
-9.0038

> <Gold.Chemscore.Internal_Hbond.Weighted>
0.0000

> <Gold.Chemscore.DEClash.Weighted>
0.3559

> <Gold.Chemscore.DEInternal.Weighted>
0.3125

> <Gold.Chemscore.Rot.Weighted>
3.4731

> <Gold.Chemscore.Internal.Correction.Weighted>
   9.000000E+99

> <Gold.Protein.RotatedTorsions>
[ 6907 6896 6895 6894 ] final -133.18 input  -60.11 | X-H torsion
[ 7974 7965 7964 7962 ] final   21.30 input  175.53 | X-H torsion
[ 8008 7997 7996 7995 ] final   88.08 input   59.86 | X-H torsion
[ 10167 10162 10161 10158 ] final  -17.48 input  -65.29 | X-H torsion
[ 10718 10713 10712 10709 ] final  150.94 input   66.30 | X-H torsion
[ 10763 10752 10751 10750 ] final  114.67 input  -60.55 | X-H torsion
[ 11005 11000 10999 10996 ] final   38.78 input  -57.11 | X-H torsion

> <Gold.Protein.ActiveResidues>
 VAL166  LYS551  ARG553  GLY616  TRP617  ASP618  TYR619  PRO620  LYS621  CYS622 
 ASP623  PHE694  ASN695  SER759  ASP760  ASP761  ALA762  ILE779  LEU786  VAL792 
 PHE793  MET794  SER795  GLU796  ALA797  LYS798  CYS799  TRP800  GLU811  SER814 

> <Gold.Protein.RotatedAtoms>
  150.9710  133.6343  159.2737 H   0  0  0  0  0  0  0  0  0  0  0  0  # atno 6907 bound_to 6896
  151.3632  135.0907  159.9451 H   0  0  0  0  0  0  0  0  0  0  0  0  # atno 6908 bound_to 6896
  152.5183  133.9280  159.7621 H   0  0  0  0  0  0  0  0  0  0  0  0  # atno 6909 bound_to 6896
  146.2077  139.8046  142.8713 H   0  0  0  0  0  0  0  0  0  0  0  0  # atno 7974 bound_to 7965
  155.9833  140.3375  155.6684 H   0  0  0  0  0  0  0  0  0  0  0  0  # atno 8008 bound_to 7997
  155.6519  140.0706  157.2602 H   0  0  0  0  0  0  0  0  0  0  0  0  # atno 8009 bound_to 7997
  154.4198  140.1724  156.1671 H   0  0  0  0  0  0  0  0  0  0  0  0  # atno 8010 bound_to 7997
  140.7247  143.5011  150.9868 H   0  0  0  0  0  0  0  0  0  0  0  0  # atno 10167 bound_to 10162
  157.2770  131.0828  151.1559 H   0  0  0  0  0  0  0  0  0  0  0  0  # atno 10718 bound_to 10713
  153.5107  135.3618  155.2585 H   0  0  0  0  0  0  0  0  0  0  0  0  # atno 10763 bound_to 10752
  154.8742  135.4022  154.3372 H   0  0  0  0  0  0  0  0  0  0  0  0  # atno 10764 bound_to 10752
  153.4025  135.7075  153.6483 H   0  0  0  0  0  0  0  0  0  0  0  0  # atno 10765 bound_to 10752
  140.2093  134.3775  155.8057 H   0  0  0  0  0  0  0  0  0  0  0  0  # atno 11005 bound_to 11000
  145.3260  141.0255  143.3473 LP  0  0  0  0  0  0  0  0  0  0  0  0  # atno 17320 bound_to 7965
  144.8833  139.4874  143.6713 LP  0  0  0  0  0  0  0  0  0  0  0  0  # atno 17321 bound_to 7965
  139.8720  143.7180  152.3165 LP  0  0  0  0  0  0  0  0  0  0  0  0  # atno 17342 bound_to 10162
  139.7432  144.7554  151.0620 LP  0  0  0  0  0  0  0  0  0  0  0  0  # atno 17343 bound_to 10162
  157.3008  130.6841  149.6163 LP  0  0  0  0  0  0  0  0  0  0  0  0  # atno 17370 bound_to 10713
  155.9664  130.4393  150.5251 LP  0  0  0  0  0  0  0  0  0  0  0  0  # atno 17371 bound_to 10713
  141.2226  133.7134  156.8390 LP  0  0  0  0  0  0  0  0  0  0  0  0  # atno 17394 bound_to 11000
  140.1969  134.8925  157.3124 LP  0  0  0  0  0  0  0  0  0  0  0  0  # atno 17395 bound_to 11000

$$$$
