#       Name:                AV-unprocessed.smi:1381
#       Creating user name   scv26
#       Creation time:       Fri Mar 27 05:22:39 2020


#       File generated by GOLD software.
#

@<TRIPOS>MOLECULE
AV-unprocessed.smi:1381
    50    51     1
SMALL
NO_CHARGES


@<TRIPOS>ATOM
      1 ****        -2.5234   6.9412  -1.5727 C.3            1 S1                 0.0000
      2 ****        -2.9059   5.5187  -1.3454 C.2            1 S1                 0.0000
      3 ****        -2.3650   4.5230  -0.5825 C.2            1 S1                 0.0000
      4 ****        -3.2251   3.4187  -0.8325 C.2            1 S1                 0.0000
      5 ****        -3.1131   2.1940  -0.2951 N.pl3          1 S1                -1.0000
      6 ****        -2.2810   1.2823  -0.8473 C.2            1 S1                 0.0000
      7 ****        -1.5671   1.4480  -1.8392 O.2            1 S1                 0.0000
      8 ****        -2.2676   0.1053  -0.2053 N.am           1 S1                 0.0000
      9 ****        -1.4522  -1.0494  -0.5632 C.3            1 S1                 0.0000
     10 ****         0.0009  -0.8769  -0.0831 C.3            1 S1                 0.0000
     11 ****         0.8654  -2.0188  -0.4809 N.4            1 S1                 1.0000
     12 ****         2.3075  -1.6781  -0.5409 C.3            1 S1                 0.0000
     13 ****         2.9250  -1.6119   0.8705 C.3            1 S1                 0.0000
     14 ****         4.4327  -1.3397   0.8284 C.3            1 S1                 0.0000
     15 ****         2.7189  -2.8618   1.5203 O.3            1 S1                 0.0000
     16 ****         1.3409  -3.1768   1.6915 C.3            1 S1                 0.0000
     17 ****         1.2505  -4.5014   2.4570 C.3            1 S1                 0.0000
     18 ****         0.6601  -3.2606   0.3077 C.3            1 S1                 0.0000
     19 ****        -4.2102   3.7223  -1.6609 N.2            1 S1                 0.0000
     20 ****        -4.0096   5.0660  -1.9990 O.3            1 S1                 0.0000
     21 ****        -2.8570   7.5661  -0.7443 H              1 S1                 0.0000
     22 ****        -2.9709   7.3262  -2.4892 H              1 S1                 0.0000
     23 ****        -1.4413   7.0416  -1.6586 H              1 S1                 0.0000
     24 ****        -1.4922   4.5745   0.0507 H              1 S1                 0.0000
     25 ****        -2.8710   0.0105   0.5986 H              1 S1                 0.0000
     26 ****        -1.9127  -1.9233  -0.1046 H              1 S1                 0.0000
     27 ****        -1.4850  -1.2105  -1.6421 H              1 S1                 0.0000
     28 ****         0.4015   0.0346  -0.5284 H              1 S1                 0.0000
     29 ****         0.0312  -0.7234   0.9954 H              1 S1                 0.0000
     30 ****         2.8154  -2.4469  -1.1251 H              1 S1                 0.0000
     31 ****         2.4571  -0.7403  -1.0775 H              1 S1                 0.0000
     32 ****         2.4499  -0.8196   1.4516 H              1 S1                 0.0000
     33 ****         4.6460  -0.3875   0.3415 H              1 S1                 0.0000
     34 ****         4.9614  -2.1216   0.2823 H              1 S1                 0.0000
     35 ****         4.8490  -1.2977   1.8352 H              1 S1                 0.0000
     36 ****         0.8704  -2.4025   2.2986 H              1 S1                 0.0000
     37 ****         0.2119  -4.7851   2.6288 H              1 S1                 0.0000
     38 ****         1.7380  -4.4233   3.4291 H              1 S1                 0.0000
     39 ****         1.7325  -5.3102   1.9071 H              1 S1                 0.0000
     40 ****        -0.4000  -3.4876   0.4128 H              1 S1                 0.0000
     41 ****         1.0908  -4.0890  -0.2566 H              1 S1                 0.0000
     42 ****         0.5940  -2.2302  -1.4308 H              1 S1                 0.0000
     43 ****        -3.6467   1.9550   0.5161 LP             1 S1                 0.0000
     44 ****        -1.5700   2.3270  -2.3161 LP             1 S1                 0.0000
     45 ****        -0.9854   0.7034  -2.1666 LP             1 S1                 0.0000
     46 ****         3.1529  -2.8287   2.4206 LP             1 S1                 0.0000
     47 ****         3.1447  -3.5809   0.9712 LP             1 S1                 0.0000
     48 ****        -4.9427   3.1201  -1.9784 LP             1 S1                 0.0000
     49 ****        -3.8737   5.1482  -2.9863 LP             1 S1                 0.0000
     50 ****        -4.8069   5.6045  -1.7264 LP             1 S1                 0.0000
@<TRIPOS>BOND
    1    1    2 1     
    2    1   21 1     
    3    1   22 1     
    4    1   23 1     
    5    2   20 1     
    6    2    3 2     
    7    3    4 1     
    8    3   24 1     
    9    4    5 1     
   10    4   19 2     
   11    5    6 1     
   12    6    7 2     
   13    6    8 am    
   14    8    9 1     
   15    8   25 1     
   16    9   10 1     
   17    9   26 1     
   18    9   27 1     
   19   10   11 1     
   20   10   28 1     
   21   10   29 1     
   22   11   18 1     
   23   11   12 1     
   24   11   42 1     
   25   12   13 1     
   26   12   30 1     
   27   12   31 1     
   28   13   14 1     
   29   13   15 1     
   30   13   32 1     
   31   14   33 1     
   32   14   34 1     
   33   14   35 1     
   34   15   16 1     
   35   16   17 1     
   36   16   18 1     
   37   16   36 1     
   38   17   37 1     
   39   17   38 1     
   40   17   39 1     
   41   18   40 1     
   42   18   41 1     
   43   19   20 1     
   44    5   43 1     
   45    7   44 1     
   46    7   45 1     
   47   15   46 1     
   48   15   47 1     
   49   19   48 1     
   50   20   49 1     
   51   20   50 1     
@<TRIPOS>SUBSTRUCTURE
      1 S1             1
@<TRIPOS>SET
LONE_PAIRS      STATIC     ATOMS    <user>   **** ""
8 43 44 45 46 47 48 49 50
DONOR_HYDROGENS      STATIC     ATOMS    <user>   **** ""
2 25 42
ATOM$BLUE        STATIC     ATOMS    COLORGROUP SYSTEM
8 43 44 45 46 47 48 49 50
ATOM$RED        STATIC     ATOMS    COLORGROUP SYSTEM
2 25 42
