AV-unprocessed.smi:56|AV-procd|sdf|580|dock2
  -GOLD-   2262016483D 1   1.00000     0.00000
 Structure written by MMmdl.
 23 24  0  0  0  0  0  0  0  0  2 V2000
  145.0512  134.5033  150.2345 O   0  0  0  0  0  0  0  0  0  0  0  0
  145.0516  133.1102  150.4972 C   0  0  2  0  0  0  0  0  0  0  0  0
  146.1267  132.7765  151.4904 C   0  0  0  0  0  0  0  0  0  0  0  0
  147.0684  133.5478  152.1160 C   0  0  0  0  0  0  0  0  0  0  0  0
  147.7883  132.6303  152.9345 C   0  0  0  0  0  0  0  0  0  0  0  0
  147.3378  131.3910  152.8327 N   0  0  0  0  0  0  0  0  0  0  0  0
  146.3247  131.4929  151.9529 N   0  0  0  0  0  0  0  0  0  0  0  0
  145.1395  132.3707  149.1567 C   0  0  0  0  0  0  0  0  0  0  0  0
  143.7100  132.4191  148.5995 C   0  0  0  0  0  0  0  0  0  0  0  0
  142.8148  132.6254  149.7565 N   0  3  0  0  0  0  0  0  0  0  0  0
  143.6464  132.7159  150.9720 C   0  0  0  0  0  0  0  0  0  0  0  0
  145.7756  130.6884  151.6851 H   0  0  0  0  0  0  0  0  0  0  0  0
  145.6238  134.6799  149.5043 H   0  0  0  0  0  0  0  0  0  0  0  0
  147.2243  134.6111  152.0101 H   0  0  0  0  0  0  0  0  0  0  0  0
  148.6192  132.8283  153.5955 H   0  0  0  0  0  0  0  0  0  0  0  0
  145.8866  132.7836  148.4774 H   0  0  0  0  0  0  0  0  0  0  0  0
  145.3981  131.3247  149.3277 H   0  0  0  0  0  0  0  0  0  0  0  0
  143.5923  133.2604  147.9158 H   0  0  0  0  0  0  0  0  0  0  0  0
  143.4523  131.5081  148.0585 H   0  0  0  0  0  0  0  0  0  0  0  0
  142.3185  133.4958  149.6288 H   0  0  0  0  0  0  0  0  0  0  0  0
  143.6718  131.7215  151.4204 H   0  0  0  0  0  0  0  0  0  0  0  0
  143.2269  133.3996  151.7112 H   0  0  0  0  0  0  0  0  0  0  0  0
  142.1530  131.8668  149.8412 H   0  0  0  0  0  0  0  0  0  0  0  0
  1  2  1  0  0  0  0
  1 13  1  0  0  0  0
  2 11  1  0  0  0  0
  2  3  1  0  0  0  0
  2  8  1  0  0  0  0
  3  7  1  0  0  0  0
  3  4  2  0  0  0  0
  4  5  1  0  0  0  0
  4 14  1  0  0  0  0
  5  6  2  0  0  0  0
  5 15  1  0  0  0  0
  6  7  1  0  0  0  0
  7 12  1  0  0  0  0
  8  9  1  0  0  0  0
  8 16  1  0  0  0  0
  8 17  1  0  0  0  0
  9 10  1  0  0  0  0
  9 18  1  0  0  0  0
  9 19  1  0  0  0  0
 10 11  1  0  0  0  0
 10 20  1  0  0  0  0
 10 23  1  0  0  0  0
 11 21  1  0  0  0  0
 11 22  1  0  0  0  0
M  CHG  1  10   1
M  END
> <s_m_source_file>
AV-unprocessed.smi

> <i_m_source_file_index>
56

> <i_lp_mmshare_version>
43012

> <i_f3d_flags>
0

> <s_epik_input>
W0NIMl0xW05IXVtDSDJdW0NIMl1bQ0BAXTEoW09IXSljMltjSF1bY0hdbltuSF0y

> <s_epik_cmdline>
J2VwaWtfcHl0aG9uJywgJy1waCcsICc3LjAnLCAnLXRuJywgJzgnLCAnLW1hJywgJzIwMCcsICctbWV0YWxfYmluZGluZycsICctaW1hZScsICc8aW5maWxlLm1hZT4nLCAnLW9tYWUnLCAnPG91dGZpbGUubWFlPic=

> <r_lp_tautomer_probability>
0.5

> <r_epik_Ionization_Penalty>
0.00599842

> <r_epik_Ionization_Penalty_Charging>
0.00599115

> <r_epik_Ionization_Penalty_Neutral>
7.26593e-06

> <r_epik_State_Penalty>
0.41068

> <r_epik_Charging_Adjusted_Penalty>
0.416671

> <i_epik_Tot_Q>
1

> <i_epik_Tot_abs_Q>
1

> <r_epik_Metal_State_Penalty>
0.410678

> <b_epik_Metal_Only>
0

> <s_lp_Force_Field>
OPLS_2005

> <r_lp_Energy>
26.3948

> <b_lp_Chiralities_Consistent>
1

> <s_lp_Variant>
AV-unprocessed.smi:56-4

> <Gold.Version>
5.8.1

> <Gold.Id.Protein>
6NUR|6NUR_protein|mol2

> <Gold.PLP.Fitness>
35.7280

> <Gold.PLP.PLP>
-23.7386

> <Gold.PLP.part.hbond>
-3.4843

> <Gold.PLP.part.metal>
0.0000

> <Gold.PLP.part.buried>
-2.3647

> <Gold.PLP.part.nonpolar>
-18.0828

> <Gold.PLP.part.repulsive>
0.7103

> <Gold.PLP.ligand.clash>
0.0000

> <Gold.PLP.ligand.torsion>
0.0127

> <Gold.PLP.Chemscore.Hbond>
4.0000

> <Gold.PLP.Chemscore.CHOScore>
0.0000

> <Gold.PLP.Chemscore.Metal>
0.0000

> <Gold.Chemscore.Hbonds>
donor molecule, donor type, donor heavy atom, donor atom, acceptor molecule, acceptor atom, score
      L1  H     1    13       P1  7921  1.00
      L1  H    10    20       P1 10186  2.00
      L1  H    10    23       P1 10952  0.99

> <Gold.PLP.Chemscore.Internal.Correction>
0.0147

> <Gold.Rescore>
     Score         DG    S(hbond)    S(metal)    S(lipo)     H(rot)  DE(clash)    DE(int)     intcor
     17.92     -19.17       2.99        0.00      64.56       1.50       1.24       0.01       ----

> <Gold.Chemscore.Fitness>
17.9214

> <Gold.Chemscore.DG>
-19.1670

> <Gold.Chemscore.ZeroCoef>
-5.4800

> <Gold.Chemscore.Hbond>
2.9851

> <Gold.Chemscore.Metal>
0.0000

> <Gold.Chemscore.Lipo>
64.5553

> <Gold.Chemscore.Internal_Hbond>
0.0000

> <Gold.Chemscore.DEClash>
1.2366

> <Gold.Chemscore.DEInternal>
0.0089

> <Gold.Chemscore.Rot>
1.4985

> <Gold.Chemscore.Internal.Correction>
   9.000000E+99

> <Gold.Chemscore.Hbonds>
donor molecule, donor type, donor heavy atom, donor atom, acceptor molecule, acceptor atom, score
      L1  H     1    13       P1  7921  0.93
      L1  H    10    20       P1 10186  0.96
      L1  H    10    23       P1 10952  0.90

> <Gold.Chemscore.Hbond.Weighted>
-9.9702

> <Gold.Chemscore.Metal.Weighted>
-0.0000

> <Gold.Chemscore.Lipo.Weighted>
-7.5530

> <Gold.Chemscore.Internal_Hbond.Weighted>
0.0000

> <Gold.Chemscore.DEClash.Weighted>
1.2366

> <Gold.Chemscore.DEInternal.Weighted>
0.0089

> <Gold.Chemscore.Rot.Weighted>
3.8362

> <Gold.Chemscore.Internal.Correction.Weighted>
   9.000000E+99

> <Gold.Protein.RotatedTorsions>
[ 6907 6896 6895 6894 ] final -173.86 input  -60.11 | X-H torsion
[ 7974 7965 7964 7962 ] final   14.72 input  175.53 | X-H torsion
[ 8008 7997 7996 7995 ] final -167.73 input   59.86 | X-H torsion
[ 10167 10162 10161 10158 ] final  153.60 input  -65.29 | X-H torsion
[ 10718 10713 10712 10709 ] final  174.52 input   66.30 | X-H torsion
[ 10763 10752 10751 10750 ] final  156.89 input  -60.55 | X-H torsion
[ 11005 11000 10999 10996 ] final -168.97 input  -57.11 | X-H torsion

> <Gold.Protein.ActiveResidues>
 VAL166  LYS551  ARG553  GLY616  TRP617  ASP618  TYR619  PRO620  LYS621  CYS622 
 ASP623  PHE694  ASN695  SER759  ASP760  ASP761  ALA762  ILE779  LEU786  VAL792 
 PHE793  MET794  SER795  GLU796  ALA797  LYS798  CYS799  TRP800  GLU811  SER814 

> <Gold.Protein.RotatedAtoms>
  151.5629  133.3400  159.2974 H   0  0  0  0  0  0  0  0  0  0  0  0  # atno 6907 bound_to 6896
  150.8412  134.7707  159.6945 H   0  0  0  0  0  0  0  0  0  0  0  0  # atno 6908 bound_to 6896
  152.4479  134.5463  159.9905 H   0  0  0  0  0  0  0  0  0  0  0  0  # atno 6909 bound_to 6896
  146.2298  139.9000  142.8541 H   0  0  0  0  0  0  0  0  0  0  0  0  # atno 7974 bound_to 7965
  155.8817  140.1010  157.1481 H   0  0  0  0  0  0  0  0  0  0  0  0  # atno 8008 bound_to 7997
  154.4006  140.1328  156.4268 H   0  0  0  0  0  0  0  0  0  0  0  0  # atno 8009 bound_to 7997
  155.7636  140.3462  155.5213 H   0  0  0  0  0  0  0  0  0  0  0  0  # atno 8010 bound_to 7997
  139.4826  144.5259  151.7802 H   0  0  0  0  0  0  0  0  0  0  0  0  # atno 10167 bound_to 10162
  156.9483  131.0023  151.2954 H   0  0  0  0  0  0  0  0  0  0  0  0  # atno 10718 bound_to 10713
  154.1916  135.2794  155.3020 H   0  0  0  0  0  0  0  0  0  0  0  0  # atno 10763 bound_to 10752
  154.5924  135.5555  153.7295 H   0  0  0  0  0  0  0  0  0  0  0  0  # atno 10764 bound_to 10752
  153.0111  135.6371  154.2054 H   0  0  0  0  0  0  0  0  0  0  0  0  # atno 10765 bound_to 10752
  140.5360  134.5569  157.5087 H   0  0  0  0  0  0  0  0  0  0  0  0  # atno 11005 bound_to 11000
  145.2333  140.9981  143.3978 LP  0  0  0  0  0  0  0  0  0  0  0  0  # atno 17320 bound_to 7965
  144.9513  139.4080  143.6401 LP  0  0  0  0  0  0  0  0  0  0  0  0  # atno 17321 bound_to 7965
  140.4779  144.1493  150.5928 LP  0  0  0  0  0  0  0  0  0  0  0  0  # atno 17342 bound_to 10162
  140.4311  143.2568  151.9594 LP  0  0  0  0  0  0  0  0  0  0  0  0  # atno 17343 bound_to 10162
  157.5739  130.8329  149.8429 LP  0  0  0  0  0  0  0  0  0  0  0  0  # atno 17370 bound_to 10713
  156.0374  130.3748  150.1525 LP  0  0  0  0  0  0  0  0  0  0  0  0  # atno 17371 bound_to 10713
  139.9529  134.7586  156.0407 LP  0  0  0  0  0  0  0  0  0  0  0  0  # atno 17394 bound_to 11000
  141.1254  133.6600  156.3324 LP  0  0  0  0  0  0  0  0  0  0  0  0  # atno 17395 bound_to 11000

$$$$
