AV-unprocessed.smi:525|AV-procd|sdf|2808|dock9
  -GOLD-   2262023283D 1   1.00000     0.00000
 Structure written by MMmdl.
 43 45  0  0  0  0  0  0  0  0  1 V2000
  147.7630  136.3718  155.4753 C   0  0  0  0  0  0  0  0  0  0  0  0
  147.1100  135.4862  156.3718 O   0  0  0  0  0  0  0  0  0  0  0  0
  147.9749  134.5144  156.9417 C   0  0  0  0  0  0  0  0  0  0  0  0
  149.1033  135.1574  157.7672 C   0  0  0  0  0  0  0  0  0  0  0  0
  148.6192  135.6981  159.0302 N   0  0  0  0  0  0  0  0  0  0  0  0
  148.5910  136.9902  159.4441 C   0  0  0  0  0  0  0  0  0  0  0  0
  149.1826  138.3075  158.4220 S   0  0  0  0  0  0  0  0  0  0  0  0
  150.9164  138.4210  158.9851 C   0  0  1  0  0  0  0  0  0  0  0  0
  151.8721  137.4529  158.2696 C   0  0  0  0  0  0  0  0  0  0  0  0
  152.0083  137.6030  156.9495 N   0  0  0  0  0  0  0  0  0  0  0  0
  152.4813  136.5856  158.8924 O   0  0  0  0  0  0  0  0  0  0  0  0
  151.4104  139.8541  158.8181 C   0  0  0  0  0  0  0  0  0  0  0  0
  152.6301  140.2752  159.3973 C   0  0  0  0  0  0  0  0  0  0  0  0
  153.0764  141.6007  159.2333 C   0  0  0  0  0  0  0  0  0  0  0  0
  152.3081  142.5156  158.4889 C   0  0  0  0  0  0  0  0  0  0  0  0
  151.0926  142.1042  157.9096 C   0  0  0  0  0  0  0  0  0  0  0  0
  150.6457  140.7786  158.0732 C   0  0  0  0  0  0  0  0  0  0  0  0
  148.0716  137.1912  160.6574 N   0  0  0  0  0  0  0  0  0  0  0  0
  147.7528  135.9149  161.0736 C   0  0  0  0  0  0  0  0  0  0  0  0
  147.1775  135.4588  162.2814 C   0  0  0  0  0  0  0  0  0  0  0  0
  146.9408  134.0832  162.4836 C   0  0  0  0  0  0  0  0  0  0  0  0
  147.2738  133.1471  161.4832 C   0  0  0  0  0  0  0  0  0  0  0  0
  147.8469  133.5815  160.2726 C   0  0  0  0  0  0  0  0  0  0  0  0
  148.0824  134.9555  160.0767 C   0  0  0  0  0  0  0  0  0  0  0  0
  147.0372  137.0672  155.0543 H   0  0  0  0  0  0  0  0  0  0  0  0
  148.2325  135.8401  154.6479 H   0  0  0  0  0  0  0  0  0  0  0  0
  148.5264  136.9567  155.9893 H   0  0  0  0  0  0  0  0  0  0  0  0
  147.4141  133.7964  157.5421 H   0  0  0  0  0  0  0  0  0  0  0  0
  148.4147  133.9444  156.1230 H   0  0  0  0  0  0  0  0  0  0  0  0
  149.9121  134.4510  157.9495 H   0  0  0  0  0  0  0  0  0  0  0  0
  149.5473  135.9749  157.1985 H   0  0  0  0  0  0  0  0  0  0  0  0
  150.9207  138.1868  160.0506 H   0  0  0  0  0  0  0  0  0  0  0  0
  152.6219  136.9901  156.4328 H   0  0  0  0  0  0  0  0  0  0  0  0
  151.4931  138.3289  156.4729 H   0  0  0  0  0  0  0  0  0  0  0  0
  153.2274  139.5814  159.9710 H   0  0  0  0  0  0  0  0  0  0  0  0
  154.0086  141.9151  159.6790 H   0  0  0  0  0  0  0  0  0  0  0  0
  152.6503  143.5320  158.3630 H   0  0  0  0  0  0  0  0  0  0  0  0
  150.5021  142.8065  157.3396 H   0  0  0  0  0  0  0  0  0  0  0  0
  149.7111  140.4757  157.6244 H   0  0  0  0  0  0  0  0  0  0  0  0
  146.9185  136.1680  163.0535 H   0  0  0  0  0  0  0  0  0  0  0  0
  146.5017  133.7448  163.4105 H   0  0  0  0  0  0  0  0  0  0  0  0
  147.0896  132.0951  161.6455 H   0  0  0  0  0  0  0  0  0  0  0  0
  148.1042  132.8675  159.5046 H   0  0  0  0  0  0  0  0  0  0  0  0
  1  2  1  0  0  0  0
  1 25  1  0  0  0  0
  1 26  1  0  0  0  0
  1 27  1  0  0  0  0
  2  3  1  0  0  0  0
  3  4  1  0  0  0  0
  3 28  1  0  0  0  0
  3 29  1  0  0  0  0
  4  5  1  0  0  0  0
  4 30  1  0  0  0  0
  4 31  1  0  0  0  0
  5 24  1  0  0  0  0
  5  6  1  0  0  0  0
  6  7  1  0  0  0  0
  6 18  2  0  0  0  0
  7  8  1  0  0  0  0
  8  9  1  0  0  0  0
  8 12  1  0  0  0  0
  8 32  1  0  0  0  0
  9 10  1  0  0  0  0
  9 11  2  0  0  0  0
 10 33  1  0  0  0  0
 10 34  1  0  0  0  0
 12 17  1  0  0  0  0
 12 13  2  0  0  0  0
 13 14  1  0  0  0  0
 13 35  1  0  0  0  0
 14 15  2  0  0  0  0
 14 36  1  0  0  0  0
 15 16  1  0  0  0  0
 15 37  1  0  0  0  0
 16 17  2  0  0  0  0
 16 38  1  0  0  0  0
 17 39  1  0  0  0  0
 18 19  1  0  0  0  0
 19 24  2  0  0  0  0
 19 20  1  0  0  0  0
 20 21  2  0  0  0  0
 20 40  1  0  0  0  0
 21 22  1  0  0  0  0
 21 41  1  0  0  0  0
 22 23  2  0  0  0  0
 22 42  1  0  0  0  0
 23 24  1  0  0  0  0
 23 43  1  0  0  0  0
M  END
> <s_m_source_file>
AV-unprocessed.smi

> <i_m_source_file_index>
525

> <i_lp_mmshare_version>
43012

> <i_f3d_flags>
0

> <s_epik_input>
W2NIXTFbY0hdW2NIXVtjSF1jKGMxMiluKFtDSDJdW0NIMl1PW0NIM10pYyhuMilTW0NASF0oQyg9TylbTkgyXSljM1tjSF1bY0hdW2NIXVtjSF1bY0hdMw==

> <s_epik_cmdline>
J2VwaWtfcHl0aG9uJywgJy1waCcsICc3LjAnLCAnLXRuJywgJzgnLCAnLW1hJywgJzIwMCcsICctbWV0YWxfYmluZGluZycsICctaW1hZScsICc8aW5maWxlLm1hZT4nLCAnLW9tYWUnLCAnPG91dGZpbGUubWFlPic=

> <r_epik_Ionization_Penalty>
0.0706634

> <r_epik_Ionization_Penalty_Charging>
0

> <r_epik_Ionization_Penalty_Neutral>
0.0706634

> <r_epik_State_Penalty>
0.0619781

> <r_epik_Charging_Adjusted_Penalty>
0.0619781

> <i_epik_Tot_Q>
0

> <i_epik_Tot_abs_Q>
0

> <r_epik_Metal_State_Penalty>
0.0552401

> <b_epik_Metal_Only>
0

> <s_lp_Force_Field>
OPLS_2005

> <r_lp_Energy>
10.3034

> <b_lp_Chiralities_Consistent>
1

> <s_lp_Variant>
AV-unprocessed.smi:525-2

> <Gold.Version>
5.8.1

> <Gold.Id.Protein>
6NUR|6NUR_protein|mol2

> <Gold.PLP.Fitness>
43.7283

> <Gold.PLP.PLP>
-38.1258

> <Gold.PLP.part.hbond>
-3.0000

> <Gold.PLP.part.metal>
0.0000

> <Gold.PLP.part.buried>
-4.9620

> <Gold.PLP.part.nonpolar>
-31.4417

> <Gold.PLP.part.repulsive>
0.0965

> <Gold.PLP.ligand.clash>
0.0000

> <Gold.PLP.ligand.torsion>
0.9210

> <Gold.PLP.Chemscore.Hbond>
2.4160

> <Gold.PLP.Chemscore.CHOScore>
0.0000

> <Gold.PLP.Chemscore.Metal>
0.0000

> <Gold.Chemscore.Hbonds>
donor molecule, donor type, donor heavy atom, donor atom, acceptor molecule, acceptor atom, score
      P1  H  6896  6909       L1    11  0.77
      P1  H  6931  6943       L1    18  0.82
      P1  H  6934  6947       L1    18  0.69

> <Gold.PLP.Chemscore.Internal.Correction>
0.1965

> <Gold.Rescore>
     Score         DG    S(hbond)    S(metal)    S(lipo)     H(rot)  DE(clash)    DE(int)     intcor
     16.68     -17.62       2.22        0.00      93.81       2.44       0.22       0.72       ----

> <Gold.Chemscore.Fitness>
16.6822

> <Gold.Chemscore.DG>
-17.6183

> <Gold.Chemscore.ZeroCoef>
-5.4800

> <Gold.Chemscore.Hbond>
2.2178

> <Gold.Chemscore.Metal>
0.0000

> <Gold.Chemscore.Lipo>
93.8135

> <Gold.Chemscore.Internal_Hbond>
0.0000

> <Gold.Chemscore.DEClash>
0.2175

> <Gold.Chemscore.DEInternal>
0.7185

> <Gold.Chemscore.Rot>
2.4396

> <Gold.Chemscore.Internal.Correction>
   9.000000E+99

> <Gold.Chemscore.Hbonds>
donor molecule, donor type, donor heavy atom, donor atom, acceptor molecule, acceptor atom, score
      P1  H  6896  6909       L1    11  0.77
      P1  H  6931  6943       L1    18  0.72
      P1  H  6934  6947       L1    18  0.59

> <Gold.Chemscore.Hbond.Weighted>
-7.4076

> <Gold.Chemscore.Metal.Weighted>
-0.0000

> <Gold.Chemscore.Lipo.Weighted>
-10.9762

> <Gold.Chemscore.Internal_Hbond.Weighted>
0.0000

> <Gold.Chemscore.DEClash.Weighted>
0.2175

> <Gold.Chemscore.DEInternal.Weighted>
0.7185

> <Gold.Chemscore.Rot.Weighted>
6.2454

> <Gold.Chemscore.Internal.Correction.Weighted>
   9.000000E+99

> <Gold.Protein.RotatedTorsions>
[ 6907 6896 6895 6894 ] final  128.35 input  -60.11 | X-H torsion
[ 7974 7965 7964 7962 ] final   33.92 input  175.53 | X-H torsion
[ 8008 7997 7996 7995 ] final -131.24 input   59.86 | X-H torsion
[ 10167 10162 10161 10158 ] final   16.20 input  -65.29 | X-H torsion
[ 10718 10713 10712 10709 ] final   59.68 input   66.30 | X-H torsion
[ 10763 10752 10751 10750 ] final  -44.92 input  -60.55 | X-H torsion
[ 11005 11000 10999 10996 ] final   10.65 input  -57.11 | X-H torsion

> <Gold.Protein.ActiveResidues>
 VAL166  LYS551  ARG553  GLY616  TRP617  ASP618  TYR619  PRO620  LYS621  CYS622 
 ASP623  PHE694  ASN695  SER759  ASP760  ASP761  ALA762  ILE779  LEU786  VAL792 
 PHE793  MET794  SER795  GLU796  ALA797  LYS798  CYS799  TRP800  GLU811  SER814 

> <Gold.Protein.RotatedAtoms>
  152.3727  133.6440  159.6099 H   0  0  0  0  0  0  0  0  0  0  0  0  # atno 6907 bound_to 6896
  150.7681  133.9244  159.3416 H   0  0  0  0  0  0  0  0  0  0  0  0  # atno 6908 bound_to 6896
  151.7063  135.0922  160.0311 H   0  0  0  0  0  0  0  0  0  0  0  0  # atno 6909 bound_to 6896
  146.1388  139.6335  142.9177 H   0  0  0  0  0  0  0  0  0  0  0  0  # atno 7974 bound_to 7965
  155.3090  140.0456  157.3034 H   0  0  0  0  0  0  0  0  0  0  0  0  # atno 8008 bound_to 7997
  154.5443  140.2297  155.8555 H   0  0  0  0  0  0  0  0  0  0  0  0  # atno 8009 bound_to 7997
  156.1910  140.3050  155.9339 H   0  0  0  0  0  0  0  0  0  0  0  0  # atno 8010 bound_to 7997
  140.5814  143.8973  150.6793 H   0  0  0  0  0  0  0  0  0  0  0  0  # atno 10167 bound_to 10162
  157.5695  130.8896  149.9243 H   0  0  0  0  0  0  0  0  0  0  0  0  # atno 10718 bound_to 10713
  154.0201  135.6670  153.4772 H   0  0  0  0  0  0  0  0  0  0  0  0  # atno 10763 bound_to 10752
  153.0584  135.5042  154.8031 H   0  0  0  0  0  0  0  0  0  0  0  0  # atno 10764 bound_to 10752
  154.6943  135.3067  154.9399 H   0  0  0  0  0  0  0  0  0  0  0  0  # atno 10765 bound_to 10752
  140.5121  134.0642  155.7821 H   0  0  0  0  0  0  0  0  0  0  0  0  # atno 11005 bound_to 11000
  145.5095  141.0436  143.2496 LP  0  0  0  0  0  0  0  0  0  0  0  0  # atno 17320 bound_to 7965
  144.7769  139.6611  143.7171 LP  0  0  0  0  0  0  0  0  0  0  0  0  # atno 17321 bound_to 7965
  140.2473  143.3619  152.1435 LP  0  0  0  0  0  0  0  0  0  0  0  0  # atno 17342 bound_to 10162
  139.5172  144.6988  151.5553 LP  0  0  0  0  0  0  0  0  0  0  0  0  # atno 17343 bound_to 10162
  156.0741  130.3681  150.0714 LP  0  0  0  0  0  0  0  0  0  0  0  0  # atno 17370 bound_to 10713
  156.8869  130.9575  151.3593 LP  0  0  0  0  0  0  0  0  0  0  0  0  # atno 17371 bound_to 10713
  141.1380  133.9188  157.2391 LP  0  0  0  0  0  0  0  0  0  0  0  0  # atno 17394 bound_to 11000
  139.9653  135.0143  156.9370 LP  0  0  0  0  0  0  0  0  0  0  0  0  # atno 17395 bound_to 11000

$$$$
