AV-unprocessed.smi:435|AV-procd|sdf|2556|dock1
  -GOLD-   2262022523D 1   1.00000     0.00000
 Structure written by MMmdl.
 44 45  0  0  0  0  0  0  0  0  1 V2000
  153.0978  137.1784  162.3916 C   0  0  0  0  0  0  0  0  0  0  0  0
  153.8724  136.9715  161.1179 C   0  0  0  0  0  0  0  0  0  0  0  0
  153.3750  137.4945  160.0457 N   0  0  0  0  0  0  0  0  0  0  0  0
  154.0044  137.3645  158.8228 N   0  0  0  0  0  0  0  0  0  0  0  0
  153.3125  138.0428  157.7167 C   0  0  0  0  0  0  0  0  0  0  0  0
  153.3349  139.5745  157.8302 C   0  0  0  0  0  0  0  0  0  0  0  0
  153.8285  140.2670  156.9388 O   0  0  0  0  0  0  0  0  0  0  0  0
  152.8074  140.0868  158.9524 N   0  0  0  0  0  0  0  0  0  0  0  0
  152.7152  141.5085  159.2706 C   0  0  2  0  0  0  0  0  0  0  0  0
  151.9139  141.7277  160.5697 C   0  0  0  0  0  0  0  0  0  0  0  0
  151.7396  143.2239  160.8767 C   0  0  0  0  0  0  0  0  0  0  0  0
  151.0799  143.9720  159.7026 C   0  0  1  0  0  0  0  0  0  0  0  0
  150.9112  145.4661  160.0122 C   0  0  0  0  0  0  0  0  0  0  0  0
  151.8853  143.7521  158.4079 C   0  0  0  0  0  0  0  0  0  0  0  0
  152.0590  142.2569  158.0964 C   0  0  0  0  0  0  0  0  0  0  0  0
  155.1657  136.6785  158.6162 C   0  0  0  0  0  0  0  0  0  0  0  0
  155.6830  136.5718  157.5032 O   0  0  0  0  0  0  0  0  0  0  0  0
  155.7263  136.0934  159.8360 C   0  0  0  0  0  0  0  0  0  0  0  0
  156.9471  135.3737  159.6661 C   0  0  0  0  0  0  0  0  0  0  0  0
  157.9344  134.7905  159.5078 N   0  0  0  0  0  0  0  0  0  0  0  0
  155.1257  136.2268  161.0449 C   0  0  0  0  0  0  0  0  0  0  0  0
  155.6682  135.6360  162.3392 C   0  0  0  0  0  0  0  0  0  0  0  0
  152.9047  136.2275  162.8881 H   0  0  0  0  0  0  0  0  0  0  0  0
  152.1329  137.6533  162.2079 H   0  0  0  0  0  0  0  0  0  0  0  0
  153.6527  137.8142  163.0813 H   0  0  0  0  0  0  0  0  0  0  0  0
  153.7519  137.7410  156.7641 H   0  0  0  0  0  0  0  0  0  0  0  0
  152.2696  137.7245  157.6709 H   0  0  0  0  0  0  0  0  0  0  0  0
  152.4318  139.4438  159.6345 H   0  0  0  0  0  0  0  0  0  0  0  0
  153.7227  141.9070  159.4050 H   0  0  0  0  0  0  0  0  0  0  0  0
  150.9324  141.2598  160.4824 H   0  0  0  0  0  0  0  0  0  0  0  0
  152.4133  141.2415  161.4086 H   0  0  0  0  0  0  0  0  0  0  0  0
  151.1394  143.3431  161.7795 H   0  0  0  0  0  0  0  0  0  0  0  0
  152.7137  143.6642  161.0942 H   0  0  0  0  0  0  0  0  0  0  0  0
  150.0835  143.5532  159.5542 H   0  0  0  0  0  0  0  0  0  0  0  0
  151.8754  145.9500  160.1710 H   0  0  0  0  0  0  0  0  0  0  0  0
  150.3117  145.6161  160.9106 H   0  0  0  0  0  0  0  0  0  0  0  0
  150.4106  145.9823  159.1929 H   0  0  0  0  0  0  0  0  0  0  0  0
  151.3873  144.2430  157.5711 H   0  0  0  0  0  0  0  0  0  0  0  0
  152.8668  144.2194  158.4996 H   0  0  0  0  0  0  0  0  0  0  0  0
  152.6613  142.1388  157.1948 H   0  0  0  0  0  0  0  0  0  0  0  0
  151.0842  141.8192  157.8761 H   0  0  0  0  0  0  0  0  0  0  0  0
  156.6777  135.2436  162.2200 H   0  0  0  0  0  0  0  0  0  0  0  0
  155.0317  134.8184  162.6780 H   0  0  0  0  0  0  0  0  0  0  0  0
  155.7077  136.3903  163.1254 H   0  0  0  0  0  0  0  0  0  0  0  0
  1  2  1  0  0  0  0
  1 23  1  0  0  0  0
  1 24  1  0  0  0  0
  1 25  1  0  0  0  0
  2 21  1  0  0  0  0
  2  3  2  0  0  0  0
  3  4  1  0  0  0  0
  4  5  1  0  0  0  0
  4 16  1  0  0  0  0
  5  6  1  0  0  0  0
  5 26  1  0  0  0  0
  5 27  1  0  0  0  0
  6  7  2  0  0  0  0
  6  8  1  0  0  0  0
  8  9  1  0  0  0  0
  8 28  1  0  0  0  0
  9 15  1  0  0  0  0
  9 10  1  0  0  0  0
  9 29  1  0  0  0  0
 10 11  1  0  0  0  0
 10 30  1  0  0  0  0
 10 31  1  0  0  0  0
 11 12  1  0  0  0  0
 11 32  1  0  0  0  0
 11 33  1  0  0  0  0
 12 13  1  0  0  0  0
 12 14  1  0  0  0  0
 12 34  1  0  0  0  0
 13 35  1  0  0  0  0
 13 36  1  0  0  0  0
 13 37  1  0  0  0  0
 14 15  1  0  0  0  0
 14 38  1  0  0  0  0
 14 39  1  0  0  0  0
 15 40  1  0  0  0  0
 15 41  1  0  0  0  0
 16 17  2  0  0  0  0
 16 18  1  0  0  0  0
 18 19  1  0  0  0  0
 18 21  2  0  0  0  0
 19 20  3  0  0  0  0
 21 22  1  0  0  0  0
 22 42  1  0  0  0  0
 22 43  1  0  0  0  0
 22 44  1  0  0  0  0
M  END
> <s_m_source_file>
AV-unprocessed.smi

> <i_m_source_file_index>
435

> <i_lp_mmshare_version>
43012

> <i_f3d_flags>
0

> <s_epik_input>
TiNDYyhjMVtDSDNdKWMoPU8pbihuYzFbQ0gzXSlbQ0gyXUMoPU8pW05IXVtDQEBIXTJbQ0gyXVtDSDJdW0NAQEhdKFtDSDNdKVtDSDJdW0NIMl0y

> <s_epik_cmdline>
J2VwaWtfcHl0aG9uJywgJy1waCcsICc3LjAnLCAnLXRuJywgJzgnLCAnLW1hJywgJzIwMCcsICctbWV0YWxfYmluZGluZycsICctaW1hZScsICc8aW5maWxlLm1hZT4nLCAnLW9tYWUnLCAnPG91dGZpbGUubWFlPic=

> <r_lp_tautomer_probability>
1

> <r_epik_Ionization_Penalty>
1.90703e-08

> <r_epik_Ionization_Penalty_Charging>
2.32563e-11

> <r_epik_Ionization_Penalty_Neutral>
1.90471e-08

> <r_epik_State_Penalty>
-0

> <r_epik_Charging_Adjusted_Penalty>
2.32563e-11

> <i_epik_Tot_Q>
0

> <i_epik_Tot_abs_Q>
0

> <r_epik_Metal_State_Penalty>
-0

> <b_epik_Metal_Only>
0

> <s_lp_Force_Field>
OPLS_2005

> <r_lp_Energy>
23.1706

> <b_lp_Chiralities_Consistent>
1

> <s_lp_Variant>
AV-unprocessed.smi:435-1

> <Gold.Version>
5.8.1

> <Gold.Id.Protein>
6NUR|6NUR_protein|mol2

> <Gold.PLP.Fitness>
43.5169

> <Gold.PLP.PLP>
-37.7523

> <Gold.PLP.part.hbond>
-2.0000

> <Gold.PLP.part.metal>
0.0000

> <Gold.PLP.part.buried>
-5.4654

> <Gold.PLP.part.nonpolar>
-29.7667

> <Gold.PLP.part.repulsive>
0.1246

> <Gold.PLP.ligand.clash>
0.0000

> <Gold.PLP.ligand.torsion>
0.1203

> <Gold.PLP.Chemscore.Hbond>
2.0000

> <Gold.PLP.Chemscore.CHOScore>
0.0000

> <Gold.PLP.Chemscore.Metal>
0.0000

> <Gold.PLP.Chemscore.Internal.Correction>
0.0052

> <Gold.Rescore>
     Score         DG    S(hbond)    S(metal)    S(lipo)     H(rot)  DE(clash)    DE(int)     intcor
     19.36     -20.60       1.98        0.00     104.70       1.46       0.00       1.24       ----

> <Gold.Chemscore.Fitness>
19.3643

> <Gold.Chemscore.DG>
-20.5995

> <Gold.Chemscore.ZeroCoef>
-5.4800

> <Gold.Chemscore.Hbond>
1.9794

> <Gold.Chemscore.Metal>
0.0000

> <Gold.Chemscore.Lipo>
104.6971

> <Gold.Chemscore.Internal_Hbond>
0.0000

> <Gold.Chemscore.DEClash>
0.0000

> <Gold.Chemscore.DEInternal>
1.2352

> <Gold.Chemscore.Rot>
1.4615

> <Gold.Chemscore.Internal.Correction>
   9.000000E+99

> <Gold.Chemscore.Hbond.Weighted>
-6.6113

> <Gold.Chemscore.Metal.Weighted>
-0.0000

> <Gold.Chemscore.Lipo.Weighted>
-12.2496

> <Gold.Chemscore.Internal_Hbond.Weighted>
0.0000

> <Gold.Chemscore.DEClash.Weighted>
0.0000

> <Gold.Chemscore.DEInternal.Weighted>
1.2352

> <Gold.Chemscore.Rot.Weighted>
3.7414

> <Gold.Chemscore.Internal.Correction.Weighted>
   9.000000E+99

> <Gold.Protein.RotatedTorsions>
[ 6907 6896 6895 6894 ] final  166.87 input  -60.11 | X-H torsion
[ 7974 7965 7964 7962 ] final   68.48 input  175.53 | X-H torsion
[ 8008 7997 7996 7995 ] final -167.90 input   59.86 | X-H torsion
[ 10167 10162 10161 10158 ] final  124.13 input  -65.29 | X-H torsion
[ 10718 10713 10712 10709 ] final   25.20 input   66.30 | X-H torsion
[ 10763 10752 10751 10750 ] final    3.50 input  -60.55 | X-H torsion
[ 11005 11000 10999 10996 ] final -126.17 input  -57.11 | X-H torsion

> <Gold.Protein.ActiveResidues>
 VAL166  LYS551  ARG553  GLY616  TRP617  ASP618  TYR619  PRO620  LYS621  CYS622 
 ASP623  PHE694  ASN695  SER759  ASP760  ASP761  ALA762  ILE779  LEU786  VAL792 
 PHE793  MET794  SER795  GLU796  ALA797  LYS798  CYS799  TRP800  GLU811  SER814 

> <Gold.Protein.RotatedAtoms>
  151.8721  133.3478  159.3738 H   0  0  0  0  0  0  0  0  0  0  0  0  # atno 6907 bound_to 6896
  150.7150  134.5102  159.5613 H   0  0  0  0  0  0  0  0  0  0  0  0  # atno 6908 bound_to 6896
  152.2637  134.8007  160.0477 H   0  0  0  0  0  0  0  0  0  0  0  0  # atno 6909 bound_to 6896
  145.8021  139.2988  143.1148 H   0  0  0  0  0  0  0  0  0  0  0  0  # atno 7974 bound_to 7965
  155.8841  140.1014  157.1465 H   0  0  0  0  0  0  0  0  0  0  0  0  # atno 8008 bound_to 7997
  154.4008  140.1323  156.4297 H   0  0  0  0  0  0  0  0  0  0  0  0  # atno 8009 bound_to 7997
  155.7609  140.3463  155.5200 H   0  0  0  0  0  0  0  0  0  0  0  0  # atno 8010 bound_to 7997
  139.5759  144.6963  151.3655 H   0  0  0  0  0  0  0  0  0  0  0  0  # atno 10167 bound_to 10162
  157.1901  130.6842  149.6146 H   0  0  0  0  0  0  0  0  0  0  0  0  # atno 10718 bound_to 10713
  153.2826  135.6942  153.7371 H   0  0  0  0  0  0  0  0  0  0  0  0  # atno 10763 bound_to 10752
  153.6352  135.3403  155.3055 H   0  0  0  0  0  0  0  0  0  0  0  0  # atno 10764 bound_to 10752
  154.8500  135.4418  154.1884 H   0  0  0  0  0  0  0  0  0  0  0  0  # atno 10765 bound_to 10752
  140.9703  134.0815  157.3876 H   0  0  0  0  0  0  0  0  0  0  0  0  # atno 11005 bound_to 11000
  145.9867  140.8637  143.0087 LP  0  0  0  0  0  0  0  0  0  0  0  0  # atno 17320 bound_to 7965
  144.6767  140.2157  143.7372 LP  0  0  0  0  0  0  0  0  0  0  0  0  # atno 17321 bound_to 7965
  140.7041  143.7557  150.7453 LP  0  0  0  0  0  0  0  0  0  0  0  0  # atno 17342 bound_to 10162
  140.1076  143.4729  152.2389 LP  0  0  0  0  0  0  0  0  0  0  0  0  # atno 17343 bound_to 10162
  155.9713  130.4617  150.6121 LP  0  0  0  0  0  0  0  0  0  0  0  0  # atno 17370 bound_to 10713
  157.3869  131.0789  151.1428 LP  0  0  0  0  0  0  0  0  0  0  0  0  # atno 17371 bound_to 10713
  139.8910  135.0115  156.6766 LP  0  0  0  0  0  0  0  0  0  0  0  0  # atno 17394 bound_to 11000
  140.7338  133.9036  155.8230 LP  0  0  0  0  0  0  0  0  0  0  0  0  # atno 17395 bound_to 11000

$$$$
