AV-unprocessed.smi:1383|AV-procd|sdf|5622|dock3
  -GOLD-   22720 5233D 1   1.00000     0.00000
 Structure written by MMmdl.
 31 31  0  0  0  0  0  0  0  0  1 V2000
  152.4625  143.1390  160.5494 C   0  0  0  0  0  0  0  0  0  0  0  0
  152.9746  143.8338  159.2778 C   0  0  0  0  0  0  0  0  0  0  0  0
  151.9043  144.0170  158.1792 C   0  0  2  0  0  0  0  0  0  0  0  0
  150.6838  144.7799  158.7226 C   0  0  0  0  0  0  0  0  0  0  0  0
  151.4639  142.6731  157.5779 C   0  0  0  0  0  0  0  0  0  0  0  0
  151.8746  141.6216  158.0707 O   0  0  0  0  0  0  0  0  0  0  0  0
  150.6363  142.7480  156.5185 N   0  0  0  0  0  0  0  0  0  0  0  0
  150.0745  141.6864  155.7629 C   0  0  0  0  0  0  0  0  0  0  0  0
  148.9624  141.7896  155.0269 N   0  0  0  0  0  0  0  0  0  0  0  0
  148.6409  140.5914  154.3799 C   0  0  0  0  0  0  0  0  0  0  0  0
  147.4237  140.5131  153.5033 C   0  0  0  0  0  0  0  0  0  0  0  0
  147.1212  139.0615  153.1218 C   0  0  0  0  0  0  0  0  0  0  0  0
  147.9983  138.4392  152.3286 N   0  0  0  0  0  0  0  0  0  0  0  0
  146.1127  138.5028  153.5475 O   0  0  0  0  0  0  0  0  0  0  0  0
  149.5262  139.5759  154.6522 C   0  0  0  0  0  0  0  0  0  0  0  0
  150.8050  140.0899  155.7195 S   0  0  0  0  0  0  0  0  0  0  0  0
  153.2767  142.9831  161.2573 H   0  0  0  0  0  0  0  0  0  0  0  0
  152.0325  142.1639  160.3193 H   0  0  0  0  0  0  0  0  0  0  0  0
  151.7003  143.7322  161.0550 H   0  0  0  0  0  0  0  0  0  0  0  0
  153.4072  144.7993  159.5441 H   0  0  0  0  0  0  0  0  0  0  0  0
  153.7968  143.2419  158.8739 H   0  0  0  0  0  0  0  0  0  0  0  0
  152.3392  144.6245  157.3835 H   0  0  0  0  0  0  0  0  0  0  0  0
  149.9113  144.8904  157.9605 H   0  0  0  0  0  0  0  0  0  0  0  0
  150.9641  145.7819  159.0485 H   0  0  0  0  0  0  0  0  0  0  0  0
  150.2379  144.2685  159.5768 H   0  0  0  0  0  0  0  0  0  0  0  0
  150.3811  143.6770  156.2175 H   0  0  0  0  0  0  0  0  0  0  0  0
  146.5548  140.9362  154.0093 H   0  0  0  0  0  0  0  0  0  0  0  0
  147.5668  141.1021  152.5963 H   0  0  0  0  0  0  0  0  0  0  0  0
  147.8435  137.4788  152.0592 H   0  0  0  0  0  0  0  0  0  0  0  0
  148.8196  138.9318  152.0086 H   0  0  0  0  0  0  0  0  0  0  0  0
  149.5046  138.5596  154.2879 H   0  0  0  0  0  0  0  0  0  0  0  0
  1  2  1  0  0  0  0
  1 17  1  0  0  0  0
  1 18  1  0  0  0  0
  1 19  1  0  0  0  0
  2  3  1  0  0  0  0
  2 20  1  0  0  0  0
  2 21  1  0  0  0  0
  3  4  1  0  0  0  0
  3  5  1  0  0  0  0
  3 22  1  0  0  0  0
  4 23  1  0  0  0  0
  4 24  1  0  0  0  0
  4 25  1  0  0  0  0
  5  6  2  0  0  0  0
  5  7  1  0  0  0  0
  7  8  1  0  0  0  0
  7 26  1  0  0  0  0
  8 16  1  0  0  0  0
  8  9  2  0  0  0  0
  9 10  1  0  0  0  0
 10 11  1  0  0  0  0
 10 15  2  0  0  0  0
 11 12  1  0  0  0  0
 11 27  1  0  0  0  0
 11 28  1  0  0  0  0
 12 13  1  0  0  0  0
 12 14  2  0  0  0  0
 13 29  1  0  0  0  0
 13 30  1  0  0  0  0
 15 16  1  0  0  0  0
 15 31  1  0  0  0  0
M  END
> <s_m_source_file>
AV-unprocessed.smi

> <i_m_source_file_index>
1383

> <i_lp_mmshare_version>
43012

> <i_f3d_flags>
0

> <s_epik_input>
W0NIM11bQ0gyXVtDQEhdKFtDSDNdKUMoPU8pW05IXWMxbmMoW2NIXXMxKVtDSDJdQyg9TylbTkgyXQ==

> <s_epik_cmdline>
J2VwaWtfcHl0aG9uJywgJy1waCcsICc3LjAnLCAnLXRuJywgJzgnLCAnLW1hJywgJzIwMCcsICctbWV0YWxfYmluZGluZycsICctaW1hZScsICc8aW5maWxlLm1hZT4nLCAnLW9tYWUnLCAnPG91dGZpbGUubWFlPic=

> <r_lp_tautomer_probability>
1

> <r_epik_Ionization_Penalty>
0.00017492

> <r_epik_Ionization_Penalty_Charging>
0

> <r_epik_Ionization_Penalty_Neutral>
0.00017492

> <r_epik_State_Penalty>
-0

> <r_epik_Charging_Adjusted_Penalty>
0

> <i_epik_Tot_Q>
0

> <i_epik_Tot_abs_Q>
0

> <r_epik_Metal_State_Penalty>
0.109333

> <b_epik_Metal_Only>
0

> <s_lp_Force_Field>
OPLS_2005

> <r_lp_Energy>
2.98053

> <b_lp_Chiralities_Consistent>
1

> <s_lp_Variant>
AV-unprocessed.smi:1383-1

> <Gold.Version>
5.8.1

> <Gold.Id.Protein>
6NUR|6NUR_protein|mol2

> <Gold.PLP.Fitness>
42.5717

> <Gold.PLP.PLP>
-35.7558

> <Gold.PLP.part.hbond>
-2.6566

> <Gold.PLP.part.metal>
0.0000

> <Gold.PLP.part.buried>
-5.1356

> <Gold.PLP.part.nonpolar>
-29.2397

> <Gold.PLP.part.repulsive>
1.3807

> <Gold.PLP.ligand.clash>
0.0000

> <Gold.PLP.ligand.torsion>
0.3359

> <Gold.PLP.Chemscore.Hbond>
2.4720

> <Gold.PLP.Chemscore.CHOScore>
0.0000

> <Gold.PLP.Chemscore.Metal>
0.0000

> <Gold.Chemscore.Hbonds>
donor molecule, donor type, donor heavy atom, donor atom, acceptor molecule, acceptor atom, score
      L1  H     7    26       P1  8028  0.86
      L1  H    13    29       P1  7948  0.58
      L1  H    13    30       P1  7957  1.00

> <Gold.PLP.Chemscore.Internal.Correction>
0.0717

> <Gold.Rescore>
     Score         DG    S(hbond)    S(metal)    S(lipo)     H(rot)  DE(clash)    DE(int)     intcor
     15.72     -17.03       2.58        0.00      73.15       2.19       0.05       1.27       ----

> <Gold.Chemscore.Fitness>
15.7195

> <Gold.Chemscore.DG>
-17.0337

> <Gold.Chemscore.ZeroCoef>
-5.4800

> <Gold.Chemscore.Hbond>
2.5790

> <Gold.Chemscore.Metal>
0.0000

> <Gold.Chemscore.Lipo>
73.1503

> <Gold.Chemscore.Internal_Hbond>
0.0000

> <Gold.Chemscore.DEClash>
0.0456

> <Gold.Chemscore.DEInternal>
1.2685

> <Gold.Chemscore.Rot>
2.1948

> <Gold.Chemscore.Internal.Correction>
   9.000000E+99

> <Gold.Chemscore.Hbonds>
donor molecule, donor type, donor heavy atom, donor atom, acceptor molecule, acceptor atom, score
      L1  H     7    26       P1  8028  0.85
      L1  H    13    29       P1  7948  0.58
      L1  H    13    30       P1  7957  0.84

> <Gold.Chemscore.Hbond.Weighted>
-8.6137

> <Gold.Chemscore.Metal.Weighted>
-0.0000

> <Gold.Chemscore.Lipo.Weighted>
-8.5586

> <Gold.Chemscore.Internal_Hbond.Weighted>
0.0000

> <Gold.Chemscore.DEClash.Weighted>
0.0456

> <Gold.Chemscore.DEInternal.Weighted>
1.2685

> <Gold.Chemscore.Rot.Weighted>
5.6186

> <Gold.Chemscore.Internal.Correction.Weighted>
   9.000000E+99

> <Gold.Protein.RotatedTorsions>
[ 6907 6896 6895 6894 ] final  -55.95 input  -60.11 | X-H torsion
[ 7974 7965 7964 7962 ] final   87.01 input  175.53 | X-H torsion
[ 8008 7997 7996 7995 ] final  -58.82 input   59.86 | X-H torsion
[ 10167 10162 10161 10158 ] final -137.18 input  -65.29 | X-H torsion
[ 10718 10713 10712 10709 ] final -139.34 input   66.30 | X-H torsion
[ 10763 10752 10751 10750 ] final  -98.89 input  -60.55 | X-H torsion
[ 11005 11000 10999 10996 ] final   45.25 input  -57.11 | X-H torsion

> <Gold.Protein.ActiveResidues>
 VAL166  LYS551  ARG553  GLY616  TRP617  ASP618  TYR619  PRO620  LYS621  CYS622 
 ASP623  PHE694  ASN695  SER759  ASP760  ASP761  ALA762  ILE779  LEU786  VAL792 
 PHE793  MET794  SER795  GLU796  ALA797  LYS798  CYS799  TRP800  GLU811  SER814 

> <Gold.Protein.RotatedAtoms>
  150.8208  134.7415  159.6770 H   0  0  0  0  0  0  0  0  0  0  0  0  # atno 6907 bound_to 6896
  152.4324  134.5749  159.9941 H   0  0  0  0  0  0  0  0  0  0  0  0  # atno 6908 bound_to 6896
  151.5934  133.3326  159.3068 H   0  0  0  0  0  0  0  0  0  0  0  0  # atno 6909 bound_to 6896
  145.5647  139.2307  143.2440 H   0  0  0  0  0  0  0  0  0  0  0  0  # atno 7974 bound_to 7965
  154.4325  140.1075  156.6018 H   0  0  0  0  0  0  0  0  0  0  0  0  # atno 8008 bound_to 7997
  155.5903  140.3492  155.4546 H   0  0  0  0  0  0  0  0  0  0  0  0  # atno 8009 bound_to 7997
  156.0251  140.1248  157.0306 H   0  0  0  0  0  0  0  0  0  0  0  0  # atno 8010 bound_to 7997
  139.8603  143.7085  152.2650 H   0  0  0  0  0  0  0  0  0  0  0  0  # atno 10167 bound_to 10162
  156.3096  130.7474  151.1547 H   0  0  0  0  0  0  0  0  0  0  0  0  # atno 10718 bound_to 10713
  154.7453  135.4992  153.9193 H   0  0  0  0  0  0  0  0  0  0  0  0  # atno 10763 bound_to 10752
  153.1085  135.6703  153.9551 H   0  0  0  0  0  0  0  0  0  0  0  0  # atno 10764 bound_to 10752
  153.9317  135.3077  155.3424 H   0  0  0  0  0  0  0  0  0  0  0  0  # atno 10765 bound_to 10752
  140.1477  134.4501  155.8404 H   0  0  0  0  0  0  0  0  0  0  0  0  # atno 11005 bound_to 11000
  146.1826  140.6472  142.9182 LP  0  0  0  0  0  0  0  0  0  0  0  0  # atno 17320 bound_to 7965
  144.7466  140.5083  143.6831 LP  0  0  0  0  0  0  0  0  0  0  0  0  # atno 17321 bound_to 7965
  139.7380  144.7566  151.0697 LP  0  0  0  0  0  0  0  0  0  0  0  0  # atno 17342 bound_to 10162
  140.7776  143.5007  150.9775 LP  0  0  0  0  0  0  0  0  0  0  0  0  # atno 17343 bound_to 10162
  157.7388  131.0537  150.5273 LP  0  0  0  0  0  0  0  0  0  0  0  0  # atno 17370 bound_to 10713
  156.5411  130.4208  149.6153 LP  0  0  0  0  0  0  0  0  0  0  0  0  # atno 17371 bound_to 10713
  141.2195  133.6859  156.7365 LP  0  0  0  0  0  0  0  0  0  0  0  0  # atno 17394 bound_to 11000
  140.2643  134.8442  157.3788 LP  0  0  0  0  0  0  0  0  0  0  0  0  # atno 17395 bound_to 11000

$$$$
