#       Name:                AV-unprocessed.smi:273
#       Creating user name   scv26
#       Creation time:       Thu Mar 26 21:29:30 2020


#       File generated by GOLD software.
#

@<TRIPOS>MOLECULE
AV-unprocessed.smi:273
    69    72     1
SMALL
NO_CHARGES


@<TRIPOS>ATOM
      1 ****        -8.5158  -2.3619   2.3157 C.3            1 S1                 0.0000
      2 ****        -7.9092  -2.5881   0.9246 C.3            1 S1                 0.0000
      3 ****        -6.5138  -2.1688   0.8768 N.am           1 S1                 0.0000
      4 ****        -6.0915  -0.9057   0.7121 C.2            1 S1                 0.0000
      5 ****        -6.8566   0.0485   0.5686 O.2            1 S1                 0.0000
      6 ****        -4.5730  -0.6879   0.7168 C.3            1 S1                 0.0000
      7 ****        -4.1465   0.2425   1.8717 C.3            1 S1                 0.0000
      8 ****        -2.6292   0.4889   1.8486 C.3            1 S1                 0.0000
      9 ****        -2.2065   0.9887   0.5441 N.3            1 S1                 0.0000
     10 ****        -0.9375   1.4496   0.5485 C.ar           1 S1                 0.0000
     11 ****        -0.7678   2.7815   0.7353 N.ar           1 S1                 0.0000
     12 ****         0.4631   3.3012   0.7650 C.ar           1 S1                 0.0000
     13 ****         1.6366   2.6774   0.6397 N.ar           1 S1                 0.0000
     14 ****         1.4682   1.3350   0.4649 C.ar           1 S1                 0.0000
     15 ****         0.2264   0.6414   0.4062 C.ar           1 S1                 0.0000
     16 ****         0.4531  -0.7185   0.2285 N.2            1 S1                 0.0000
     17 ****         1.7528  -0.8216   0.1739 C.2            1 S1                 0.0000
     18 ****         2.4406   0.3633   0.3047 N.pl3          1 S1                 0.0000
     19 ****         3.8840   0.5311   0.2912 C.3            1 S1                 0.0000
     20 ****         4.5060   0.3864  -1.1206 C.3            1 S1                 0.0000
     21 ****         3.9287   1.4468  -2.0929 C.3            1 S1                 0.0000
     22 ****         4.1257   1.0849  -3.4434 O.3            1 S1                 0.0000
     23 ****         6.0564   0.4466  -1.0346 C.3            1 S1                 0.0000
     24 ****         6.8013   0.1857  -2.3331 C.3            1 S1                 0.0000
     25 ****         8.2061  -0.1462  -1.8445 C.3            1 S1                 0.0000
     26 ****         8.0300  -0.7968  -0.5925 O.3            1 S1                 0.0000
     27 ****         6.6900  -0.6280  -0.1416 C.3            1 S1                 0.0000
     28 ****        -2.5692   0.1456  -0.5926 C.3            1 S1                 0.0000
     29 ****        -4.0872  -0.0965  -0.6232 C.3            1 S1                 0.0000
     30 ****        -9.5466  -2.7146   2.3502 H              1 S1                 0.0000
     31 ****        -8.5192  -1.3040   2.5807 H              1 S1                 0.0000
     32 ****        -7.9554  -2.8978   3.0823 H              1 S1                 0.0000
     33 ****        -7.9546  -3.6475   0.6714 H              1 S1                 0.0000
     34 ****        -8.4903  -2.0622   0.1653 H              1 S1                 0.0000
     35 ****        -5.8168  -2.8909   0.9878 H              1 S1                 0.0000
     36 ****        -4.0848  -1.6540   0.8594 H              1 S1                 0.0000
     37 ****        -4.6644   1.2001   1.7963 H              1 S1                 0.0000
     38 ****        -4.4321  -0.1889   2.8321 H              1 S1                 0.0000
     39 ****        -2.3608   1.2035   2.6281 H              1 S1                 0.0000
     40 ****        -2.0970  -0.4380   2.0678 H              1 S1                 0.0000
     41 ****         0.5145   4.3699   0.9121 H              1 S1                 0.0000
     42 ****         2.2498  -1.7710   0.0363 H              1 S1                 0.0000
     43 ****         4.1301   1.5062   0.7132 H              1 S1                 0.0000
     44 ****         4.2947  -0.2110   0.9753 H              1 S1                 0.0000
     45 ****         4.2248  -0.5994  -1.4948 H              1 S1                 0.0000
     46 ****         2.8533   1.5632  -1.9676 H              1 S1                 0.0000
     47 ****         4.3719   2.4255  -1.9067 H              1 S1                 0.0000
     48 ****         3.7479   1.7556  -3.9918 H              1 S1                 0.0000
     49 ****         6.3577   1.4264  -0.6598 H              1 S1                 0.0000
     50 ****         6.3735  -0.6730  -2.8527 H              1 S1                 0.0000
     51 ****         6.7953   1.0374  -3.0135 H              1 S1                 0.0000
     52 ****         8.7559  -0.7725  -2.5471 H              1 S1                 0.0000
     53 ****         8.7786   0.7682  -1.6834 H              1 S1                 0.0000
     54 ****         6.6713  -0.3576   0.9145 H              1 S1                 0.0000
     55 ****         6.1707  -1.5807  -0.2546 H              1 S1                 0.0000
     56 ****        -2.2479   0.6185  -1.5216 H              1 S1                 0.0000
     57 ****        -2.0555  -0.8133  -0.5242 H              1 S1                 0.0000
     58 ****        -4.3333  -0.7691  -1.4457 H              1 S1                 0.0000
     59 ****        -4.5975   0.8459  -0.8294 H              1 S1                 0.0000
     60 ****        -7.8457  -0.0989   0.5713 LP             1 S1                 0.0000
     61 ****        -6.4888   0.9707   0.4494 LP             1 S1                 0.0000
     62 ****        -2.7694   1.7982   0.3775 LP             1 S1                 0.0000
     63 ****        -1.5640   3.3754   0.8510 LP             1 S1                 0.0000
     64 ****         2.5251   3.1353   0.6701 LP             1 S1                 0.0000
     65 ****        -0.2247  -1.4504   0.1586 LP             1 S1                 0.0000
     66 ****         3.6797   0.2088  -3.6263 LP             1 S1                 0.0000
     67 ****         5.1046   1.0065  -3.6322 LP             1 S1                 0.0000
     68 ****         8.6576  -0.4009   0.0779 LP             1 S1                 0.0000
     69 ****         8.2245  -1.7723  -0.6956 LP             1 S1                 0.0000
@<TRIPOS>BOND
    1    1    2 1     
    2    1   30 1     
    3    1   31 1     
    4    1   32 1     
    5    2    3 1     
    6    2   33 1     
    7    2   34 1     
    8    3    4 am    
    9    3   35 1     
   10    4    5 2     
   11    4    6 1     
   12    6   29 1     
   13    6    7 1     
   14    6   36 1     
   15    7    8 1     
   16    7   37 1     
   17    7   38 1     
   18    8    9 1     
   19    8   39 1     
   20    8   40 1     
   21    9   10 1     
   22    9   28 1     
   23   10   15 ar    
   24   10   11 ar    
   25   11   12 ar    
   26   12   13 ar    
   27   12   41 1     
   28   13   14 ar    
   29   14   18 1     
   30   14   15 ar    
   31   15   16 1     
   32   16   17 2     
   33   17   18 1     
   34   17   42 1     
   35   18   19 1     
   36   19   20 1     
   37   19   43 1     
   38   19   44 1     
   39   20   21 1     
   40   20   23 1     
   41   20   45 1     
   42   21   22 1     
   43   21   46 1     
   44   21   47 1     
   45   22   48 1     
   46   23   27 1     
   47   23   24 1     
   48   23   49 1     
   49   24   25 1     
   50   24   50 1     
   51   24   51 1     
   52   25   26 1     
   53   25   52 1     
   54   25   53 1     
   55   26   27 1     
   56   27   54 1     
   57   27   55 1     
   58   28   29 1     
   59   28   56 1     
   60   28   57 1     
   61   29   58 1     
   62   29   59 1     
   63    5   60 1     
   64    5   61 1     
   65    9   62 1     
   66   11   63 1     
   67   13   64 1     
   68   16   65 1     
   69   22   66 1     
   70   22   67 1     
   71   26   68 1     
   72   26   69 1     
@<TRIPOS>SUBSTRUCTURE
      1 S1             1
@<TRIPOS>SET
LONE_PAIRS      STATIC     ATOMS    <user>   **** ""
10 60 61 62 63 64 65 66 67 68 69
DONOR_HYDROGENS      STATIC     ATOMS    <user>   **** ""
2 35 48
ATOM$BLUE        STATIC     ATOMS    COLORGROUP SYSTEM
10 60 61 62 63 64 65 66 67 68 69
ATOM$RED        STATIC     ATOMS    COLORGROUP SYSTEM
2 35 48
