AV-unprocessed.smi:2445|AV-procd|sdf|9639|dock2
  -GOLD-   2272013273D 1   1.00000     0.00000
 Structure written by MMmdl.
 40 41  0  0  0  0  0  0  0  0  1 V2000
  154.1686  142.2660  163.5274 C   0  0  0  0  0  0  0  0  0  0  0  0
  153.5349  142.5044  162.1988 C   0  0  0  0  0  0  0  0  0  0  0  0
  153.7097  141.7848  161.0429 C   0  0  0  0  0  0  0  0  0  0  0  0
  152.9673  142.2645  159.9620 N   0  0  0  0  0  0  0  0  0  0  0  0
  152.2347  143.3356  160.2796 C   0  0  0  0  0  0  0  0  0  0  0  0
  151.3561  144.0616  159.3061 C   0  0  2  0  0  0  0  0  0  0  0  0
  152.1537  144.6312  158.1243 C   0  0  0  0  0  0  0  0  0  0  0  0
  150.4498  145.1085  159.9827 C   0  0  0  0  0  0  0  0  0  0  0  0
  149.0789  145.0264  159.4865 N   0  0  0  0  0  0  0  0  0  0  0  0
  148.0505  144.4769  160.1450 C   0  0  0  0  0  0  0  0  0  0  0  0
  148.1274  143.9974  161.2762 O   0  0  0  0  0  0  0  0  0  0  0  0
  146.9251  144.5094  159.4193 N   0  0  0  0  0  0  0  0  0  0  0  0
  145.6396  143.9766  159.8568 C   0  0  1  0  0  0  0  0  0  0  0  0
  145.3849  144.1950  161.3357 C   0  0  0  0  0  0  0  0  0  0  0  0
  143.8611  144.1533  161.4097 C   0  0  0  0  0  0  0  0  0  0  0  0
  143.3861  144.5870  160.1382 O   0  0  0  0  0  0  0  0  0  0  0  0
  144.4733  144.7465  159.2325 C   0  0  2  0  0  0  0  0  0  0  0  0
  144.0810  144.2602  157.8326 C   0  0  0  0  0  0  0  0  0  0  0  0
  152.4205  143.8246  161.9603 S   0  0  0  0  0  0  0  0  0  0  0  0
  154.8249  141.3956  163.4995 H   0  0  0  0  0  0  0  0  0  0  0  0
  153.4105  142.0913  164.2909 H   0  0  0  0  0  0  0  0  0  0  0  0
  154.7636  143.1270  163.8320 H   0  0  0  0  0  0  0  0  0  0  0  0
  154.3403  140.9196  160.9000 H   0  0  0  0  0  0  0  0  0  0  0  0
  150.6896  143.3085  158.8832 H   0  0  0  0  0  0  0  0  0  0  0  0
  152.7080  143.8450  157.6107 H   0  0  0  0  0  0  0  0  0  0  0  0
  152.8710  145.3829  158.4551 H   0  0  0  0  0  0  0  0  0  0  0  0
  151.4937  145.1006  157.3945 H   0  0  0  0  0  0  0  0  0  0  0  0
  150.4719  144.9552  161.0632 H   0  0  0  0  0  0  0  0  0  0  0  0
  150.8299  146.1141  159.8006 H   0  0  0  0  0  0  0  0  0  0  0  0
  148.9080  145.3942  158.5621 H   0  0  0  0  0  0  0  0  0  0  0  0
  146.9597  144.9219  158.4986 H   0  0  0  0  0  0  0  0  0  0  0  0
  145.5556  142.9139  159.6196 H   0  0  0  0  0  0  0  0  0  0  0  0
  145.8619  143.4466  161.9695 H   0  0  0  0  0  0  0  0  0  0  0  0
  145.7419  145.1792  161.6436 H   0  0  0  0  0  0  0  0  0  0  0  0
  143.5168  143.1316  161.5738 H   0  0  0  0  0  0  0  0  0  0  0  0
  143.4686  144.7751  162.2147 H   0  0  0  0  0  0  0  0  0  0  0  0
  144.7100  145.8116  159.2001 H   0  0  0  0  0  0  0  0  0  0  0  0
  144.9111  144.3667  157.1338 H   0  0  0  0  0  0  0  0  0  0  0  0
  143.2412  144.8351  157.4423 H   0  0  0  0  0  0  0  0  0  0  0  0
  143.7882  143.2101  157.8480 H   0  0  0  0  0  0  0  0  0  0  0  0
  1  2  1  0  0  0  0
  1 20  1  0  0  0  0
  1 21  1  0  0  0  0
  1 22  1  0  0  0  0
  2 19  1  0  0  0  0
  2  3  2  0  0  0  0
  3  4  1  0  0  0  0
  3 23  1  0  0  0  0
  4  5  2  0  0  0  0
  5  6  1  0  0  0  0
  5 19  1  0  0  0  0
  6  7  1  0  0  0  0
  6  8  1  0  0  0  0
  6 24  1  0  0  0  0
  7 25  1  0  0  0  0
  7 26  1  0  0  0  0
  7 27  1  0  0  0  0
  8  9  1  0  0  0  0
  8 28  1  0  0  0  0
  8 29  1  0  0  0  0
  9 10  1  0  0  0  0
  9 30  1  0  0  0  0
 10 11  2  0  0  0  0
 10 12  1  0  0  0  0
 12 13  1  0  0  0  0
 12 31  1  0  0  0  0
 13 17  1  0  0  0  0
 13 14  1  0  0  0  0
 13 32  1  0  0  0  0
 14 15  1  0  0  0  0
 14 33  1  0  0  0  0
 14 34  1  0  0  0  0
 15 16  1  0  0  0  0
 15 35  1  0  0  0  0
 15 36  1  0  0  0  0
 16 17  1  0  0  0  0
 17 18  1  0  0  0  0
 17 37  1  0  0  0  0
 18 38  1  0  0  0  0
 18 39  1  0  0  0  0
 18 40  1  0  0  0  0
M  END
> <s_m_source_file>
AV-unprocessed.smi

> <i_m_source_file_index>
2445

> <i_lp_mmshare_version>
43012

> <i_f3d_flags>
0

> <s_epik_input>
W0NIM11jMVtjSF1uYyhzMSlbQ0BIXShbQ0gzXSlbQ0gyXVtOSF1DKD1PKVtOSF1bQ0BASF0yW0NIMl1bQ0gyXU9bQ0BIXTJbQ0gzXQ==

> <s_epik_cmdline>
J2VwaWtfcHl0aG9uJywgJy1waCcsICc3LjAnLCAnLXRuJywgJzgnLCAnLW1hJywgJzIwMCcsICctbWV0YWxfYmluZGluZycsICctaW1hZScsICc8aW5maWxlLm1hZT4nLCAnLW9tYWUnLCAnPG91dGZpbGUubWFlPic=

> <r_epik_Ionization_Penalty>
0.000649483

> <r_epik_Ionization_Penalty_Charging>
0

> <r_epik_Ionization_Penalty_Neutral>
0.000649483

> <r_epik_State_Penalty>
0.000379895

> <r_epik_Charging_Adjusted_Penalty>
0.000379895

> <i_epik_Tot_Q>
0

> <i_epik_Tot_abs_Q>
0

> <r_epik_Metal_State_Penalty>
-0

> <b_epik_Metal_Only>
0

> <s_lp_Force_Field>
OPLS_2005

> <r_lp_Energy>
6.75485

> <b_lp_Chiralities_Consistent>
1

> <s_lp_Variant>
AV-unprocessed.smi:2445-7

> <Gold.Version>
5.8.1

> <Gold.Id.Protein>
6NUR|6NUR_protein|mol2

> <Gold.PLP.Fitness>
48.5080

> <Gold.PLP.PLP>
-41.6392

> <Gold.PLP.part.hbond>
-3.0000

> <Gold.PLP.part.metal>
0.0000

> <Gold.PLP.part.buried>
-6.3044

> <Gold.PLP.part.nonpolar>
-34.1327

> <Gold.PLP.part.repulsive>
0.4892

> <Gold.PLP.ligand.clash>
0.0000

> <Gold.PLP.ligand.torsion>
1.1297

> <Gold.PLP.Chemscore.Hbond>
3.0000

> <Gold.PLP.Chemscore.CHOScore>
0.0000

> <Gold.PLP.Chemscore.Metal>
0.0000

> <Gold.Chemscore.Hbonds>
donor molecule, donor type, donor heavy atom, donor atom, acceptor molecule, acceptor atom, score
      L1  H     9    30       P1  8029  1.00
      L1  H    12    31       P1  8029  0.99
      P1  H  6933  6944       L1    11  1.00

> <Gold.PLP.Chemscore.Internal.Correction>
0.1281

> <Gold.Rescore>
     Score         DG    S(hbond)    S(metal)    S(lipo)     H(rot)  DE(clash)    DE(int)     intcor
     22.57     -24.04       2.92        0.00     108.79       1.53       0.05       1.42       ----

> <Gold.Chemscore.Fitness>
22.5743

> <Gold.Chemscore.DG>
-24.0390

> <Gold.Chemscore.ZeroCoef>
-5.4800

> <Gold.Chemscore.Hbond>
2.9204

> <Gold.Chemscore.Metal>
0.0000

> <Gold.Chemscore.Lipo>
108.7868

> <Gold.Chemscore.Internal_Hbond>
0.0000

> <Gold.Chemscore.DEClash>
0.0457

> <Gold.Chemscore.DEInternal>
1.4189

> <Gold.Chemscore.Rot>
1.5325

> <Gold.Chemscore.Internal.Correction>
   9.000000E+99

> <Gold.Chemscore.Hbonds>
donor molecule, donor type, donor heavy atom, donor atom, acceptor molecule, acceptor atom, score
      L1  H     9    30       P1  8029  0.97
      L1  H    12    31       P1  8029  0.93
      P1  H  6933  6944       L1    11  0.96

> <Gold.Chemscore.Hbond.Weighted>
-9.7542

> <Gold.Chemscore.Metal.Weighted>
-0.0000

> <Gold.Chemscore.Lipo.Weighted>
-12.7281

> <Gold.Chemscore.Internal_Hbond.Weighted>
0.0000

> <Gold.Chemscore.DEClash.Weighted>
0.0457

> <Gold.Chemscore.DEInternal.Weighted>
1.4189

> <Gold.Chemscore.Rot.Weighted>
3.9233

> <Gold.Chemscore.Internal.Correction.Weighted>
   9.000000E+99

> <Gold.Protein.RotatedTorsions>
[ 6907 6896 6895 6894 ] final -120.52 input  -60.11 | X-H torsion
[ 7974 7965 7964 7962 ] final   46.37 input  175.53 | X-H torsion
[ 8008 7997 7996 7995 ] final -124.28 input   59.86 | X-H torsion
[ 10167 10162 10161 10158 ] final -165.54 input  -65.29 | X-H torsion
[ 10718 10713 10712 10709 ] final   17.28 input   66.30 | X-H torsion
[ 10763 10752 10751 10750 ] final  141.89 input  -60.55 | X-H torsion
[ 11005 11000 10999 10996 ] final  -30.88 input  -57.11 | X-H torsion

> <Gold.Protein.ActiveResidues>
 VAL166  LYS551  ARG553  GLY616  TRP617  ASP618  TYR619  PRO620  LYS621  CYS622 
 ASP623  PHE694  ASN695  SER759  ASP760  ASP761  ALA762  ILE779  LEU786  VAL792 
 PHE793  MET794  SER795  GLU796  ALA797  LYS798  CYS799  TRP800  GLU811  SER814 

> <Gold.Protein.RotatedAtoms>
  150.8400  133.7951  159.3064 H   0  0  0  0  0  0  0  0  0  0  0  0  # atno 6907 bound_to 6896
  151.5655  135.1062  159.9992 H   0  0  0  0  0  0  0  0  0  0  0  0  # atno 6908 bound_to 6896
  152.4466  133.7505  159.6748 H   0  0  0  0  0  0  0  0  0  0  0  0  # atno 6909 bound_to 6896
  146.0395  139.4863  142.9787 H   0  0  0  0  0  0  0  0  0  0  0  0  # atno 7974 bound_to 7965
  155.1943  140.0414  157.2906 H   0  0  0  0  0  0  0  0  0  0  0  0  # atno 8008 bound_to 7997
  154.6117  140.2478  155.7632 H   0  0  0  0  0  0  0  0  0  0  0  0  # atno 8009 bound_to 7997
  156.2383  140.2913  156.0383 H   0  0  0  0  0  0  0  0  0  0  0  0  # atno 8010 bound_to 7997
  139.6175  144.0691  152.1901 H   0  0  0  0  0  0  0  0  0  0  0  0  # atno 10167 bound_to 10162
  157.0799  130.6383  149.5824 H   0  0  0  0  0  0  0  0  0  0  0  0  # atno 10718 bound_to 10713
  153.9468  135.2974  155.3440 H   0  0  0  0  0  0  0  0  0  0  0  0  # atno 10763 bound_to 10752
  154.7448  135.5008  153.9187 H   0  0  0  0  0  0  0  0  0  0  0  0  # atno 10764 bound_to 10752
  153.1014  135.6735  153.9773 H   0  0  0  0  0  0  0  0  0  0  0  0  # atno 10765 bound_to 10752
  140.9421  133.7272  156.1091 H   0  0  0  0  0  0  0  0  0  0  0  0  # atno 11005 bound_to 11000
  145.6907  141.0165  143.1557 LP  0  0  0  0  0  0  0  0  0  0  0  0  # atno 17320 bound_to 7965
  144.7068  139.8529  143.7427 LP  0  0  0  0  0  0  0  0  0  0  0  0  # atno 17321 bound_to 7965
  140.0324  144.6070  150.7477 LP  0  0  0  0  0  0  0  0  0  0  0  0  # atno 17342 bound_to 10162
  140.7360  143.2748  151.3775 LP  0  0  0  0  0  0  0  0  0  0  0  0  # atno 17343 bound_to 10162
  155.9926  130.4985  150.7348 LP  0  0  0  0  0  0  0  0  0  0  0  0  # atno 17370 bound_to 10713
  157.4808  131.0902  151.0538 LP  0  0  0  0  0  0  0  0  0  0  0  0  # atno 17371 bound_to 10713
  140.7720  134.3822  157.5506 LP  0  0  0  0  0  0  0  0  0  0  0  0  # atno 17394 bound_to 11000
  139.8823  134.9028  156.2840 LP  0  0  0  0  0  0  0  0  0  0  0  0  # atno 17395 bound_to 11000

$$$$
