AV-unprocessed.smi:72|AV-procd|sdf|718|dock1
  -GOLD-   2262017 43D 1   1.00000     0.00000
 Structure written by MMmdl.
 28 29  0  0  0  0  0  0  0  0  2 V2000
  154.1049  138.2972  154.7669 N   0  0  0  0  0  0  0  0  0  0  0  0
  152.8665  138.5130  154.8615 C   0  0  0  0  0  0  0  0  0  0  0  0
  152.3735  139.8656  155.0068 N   0  0  0  0  0  0  0  0  0  0  0  0
  151.0912  140.0336  155.1144 C   0  0  0  0  0  0  0  0  0  0  0  0
  150.1666  138.9079  155.1048 N   0  0  0  0  0  0  0  0  0  0  0  0
  148.6702  139.1168  155.2240 C   0  0  1  0  0  0  0  0  0  0  0  0
  148.4118  140.4587  155.4924 O   0  0  0  0  0  0  0  0  0  0  0  0
  147.1143  140.7659  155.0085 C   0  0  1  0  0  0  0  0  0  0  0  0
  146.9573  142.2862  154.8514 C   0  0  0  0  0  0  0  0  0  0  0  0
  148.0508  142.8171  154.1334 O   0  0  0  0  0  0  0  0  0  0  0  0
  147.0639  140.0048  153.6779 C   0  0  2  0  0  0  0  0  0  0  0  0
  145.7273  139.6715  153.3587 O   0  0  0  0  0  0  0  0  0  0  0  0
  147.8870  138.7454  153.9444 C   0  0  1  0  0  0  0  0  0  0  0  0
  148.7028  138.4412  152.8270 O   0  0  0  0  0  0  0  0  0  0  0  0
  150.6754  137.5941  154.9313 C   0  0  0  0  0  0  0  0  0  0  0  0
  149.8721  136.6626  154.8784 O   0  0  0  0  0  0  0  0  0  0  0  0
  152.0226  137.4250  154.8177 N   0  5  0  0  0  0  0  0  0  0  0  0
  148.3458  138.5464  156.0962 H   0  0  0  0  0  0  0  0  0  0  0  0
  146.3721  140.3597  155.6998 H   0  0  0  0  0  0  0  0  0  0  0  0
  147.5108  140.6042  152.8827 H   0  0  0  0  0  0  0  0  0  0  0  0
  147.2592  137.8841  154.1781 H   0  0  0  0  0  0  0  0  0  0  0  0
  154.3170  137.3149  154.6678 H   0  0  0  0  0  0  0  0  0  0  0  0
  150.6288  141.0165  155.2110 H   0  0  0  0  0  0  0  0  0  0  0  0
  146.0177  142.5388  154.3588 H   0  0  0  0  0  0  0  0  0  0  0  0
  146.9484  142.7651  155.8309 H   0  0  0  0  0  0  0  0  0  0  0  0
  148.5380  143.3884  154.7072 H   0  0  0  0  0  0  0  0  0  0  0  0
  145.3895  140.3262  152.7670 H   0  0  0  0  0  0  0  0  0  0  0  0
  148.5007  137.5627  152.5415 H   0  0  0  0  0  0  0  0  0  0  0  0
  1  2  2  0  0  0  0
  1 22  1  0  0  0  0
  2 17  1  0  0  0  0
  2  3  1  0  0  0  0
  3  4  2  0  0  0  0
  4  5  1  0  0  0  0
  4 23  1  0  0  0  0
  5  6  1  0  0  0  0
  5 15  1  0  0  0  0
  6 18  1  0  0  0  0
  6 13  1  0  0  0  0
  6  7  1  0  0  0  0
  7  8  1  0  0  0  0
  8 19  1  0  0  0  0
  8  9  1  0  0  0  0
  8 11  1  0  0  0  0
  9 10  1  0  0  0  0
  9 24  1  0  0  0  0
  9 25  1  0  0  0  0
 10 26  1  0  0  0  0
 11 20  1  0  0  0  0
 11 12  1  0  0  0  0
 11 13  1  0  0  0  0
 12 27  1  0  0  0  0
 13 21  1  0  0  0  0
 13 14  1  0  0  0  0
 14 28  1  0  0  0  0
 15 16  2  0  0  0  0
 15 17  1  0  0  0  0
M  CHG  1  17  -1
M  END
> <s_m_source_file>
AV-unprocessed.smi

> <i_m_source_file_index>
72

> <i_lp_mmshare_version>
43012

> <i_f3d_flags>
0

> <s_epik_input>
W05IMl1jMW5bY0hdbihjKD1PKW4xKVtDQEBIXTJPW0NASF0oW0NIMl1bT0hdKVtDQEBIXShbT0hdKVtDQEhdMltPSF0=

> <s_epik_cmdline>
J2VwaWtfcHl0aG9uJywgJy1waCcsICc3LjAnLCAnLXRuJywgJzgnLCAnLW1hJywgJzIwMCcsICctbWV0YWxfYmluZGluZycsICctaW1hZScsICc8aW5maWxlLm1hZT4nLCAnLW9tYWUnLCAnPG91dGZpbGUubWFlPic=

> <r_lp_tautomer_probability>
7.17554e-07

> <r_epik_Ionization_Penalty>
12.8705

> <r_epik_Ionization_Penalty_Charging>
5.64144

> <r_epik_Ionization_Penalty_Neutral>
7.22905

> <r_epik_State_Penalty>
3.30104

> <r_epik_Charging_Adjusted_Penalty>
8.94249

> <i_epik_Tot_Q>
-1

> <i_epik_Tot_abs_Q>
1

> <r_epik_Metal_State_Penalty>
0.529074

> <b_epik_Metal_Only>
1

> <s_epik_Chemistry_Notes>
This compound contains an acetal/aminal-like group ( X-CH(R)-Y where X, Y are N, S, or O) that may be acid/base labile, releasing an aldehyde.

> <s_lp_Force_Field>
OPLS_2005

> <r_lp_Energy>
37.5202

> <b_lp_Chiralities_Consistent>
1

> <s_lp_Variant>
AV-unprocessed.smi:72-56

> <Gold.Version>
5.8.1

> <Gold.Id.Protein>
6NUR|6NUR_protein|mol2

> <Gold.PLP.Fitness>
38.5223

> <Gold.PLP.PLP>
-25.9625

> <Gold.PLP.part.hbond>
-8.7862

> <Gold.PLP.part.metal>
0.0000

> <Gold.PLP.part.buried>
-2.0298

> <Gold.PLP.part.nonpolar>
-16.4201

> <Gold.PLP.part.repulsive>
0.3504

> <Gold.PLP.ligand.clash>
0.0000

> <Gold.PLP.ligand.torsion>
0.1043

> <Gold.PLP.Chemscore.Hbond>
4.2092

> <Gold.PLP.Chemscore.CHOScore>
0.0000

> <Gold.PLP.Chemscore.Metal>
0.0000

> <Gold.Chemscore.Hbonds>
donor molecule, donor type, donor heavy atom, donor atom, acceptor molecule, acceptor atom, score
      L1  H    10    26       P1  8028  1.00
      L1  H    12    27       P1 10175  0.45
      L1  H    14    28       P1  7948  0.96
      P1  H  7997  8009       L1     1  0.12
      P1  H 10752 10764       L1    17  1.65

> <Gold.PLP.Chemscore.Internal.Correction>
0.1407

> <Gold.Rescore>
     Score         DG    S(hbond)    S(metal)    S(lipo)     H(rot)  DE(clash)    DE(int)     intcor
      8.42      -8.72       3.57        0.00      14.06       4.04       0.02       0.28       ----

> <Gold.Chemscore.Fitness>
8.4153

> <Gold.Chemscore.DG>
-8.7201

> <Gold.Chemscore.ZeroCoef>
-5.4800

> <Gold.Chemscore.Hbond>
3.5742

> <Gold.Chemscore.Metal>
0.0000

> <Gold.Chemscore.Lipo>
14.0614

> <Gold.Chemscore.Internal_Hbond>
0.0000

> <Gold.Chemscore.DEClash>
0.0234

> <Gold.Chemscore.DEInternal>
0.2813

> <Gold.Chemscore.Rot>
4.0403

> <Gold.Chemscore.Internal.Correction>
   9.000000E+99

> <Gold.Chemscore.Hbonds>
donor molecule, donor type, donor heavy atom, donor atom, acceptor molecule, acceptor atom, score
      L1  H    10    26       P1  8028  0.98
      L1  H    12    27       P1 10175  0.40
      L1  H    14    28       P1  7948  0.87
      P1  H  7997  8009       L1     1  0.06
      P1  H 10752 10764       L1    17  0.69

> <Gold.Chemscore.Hbond.Weighted>
-11.9380

> <Gold.Chemscore.Metal.Weighted>
-0.0000

> <Gold.Chemscore.Lipo.Weighted>
-1.6452

> <Gold.Chemscore.Internal_Hbond.Weighted>
0.0000

> <Gold.Chemscore.DEClash.Weighted>
0.0234

> <Gold.Chemscore.DEInternal.Weighted>
0.2813

> <Gold.Chemscore.Rot.Weighted>
10.3431

> <Gold.Chemscore.Internal.Correction.Weighted>
   9.000000E+99

> <Gold.Protein.RotatedTorsions>
[ 6907 6896 6895 6894 ] final  116.47 input  -60.11 | X-H torsion
[ 7974 7965 7964 7962 ] final  171.23 input  175.53 | X-H torsion
[ 8008 7997 7996 7995 ] final  -85.07 input   59.86 | X-H torsion
[ 10167 10162 10161 10158 ] final  104.62 input  -65.29 | X-H torsion
[ 10718 10713 10712 10709 ] final   31.82 input   66.30 | X-H torsion
[ 10763 10752 10751 10750 ] final  -67.17 input  -60.55 | X-H torsion
[ 11005 11000 10999 10996 ] final  152.57 input  -57.11 | X-H torsion

> <Gold.Protein.ActiveResidues>
 VAL166  LYS551  ARG553  GLY616  TRP617  ASP618  TYR619  PRO620  LYS621  CYS622 
 ASP623  PHE694  ASN695  SER759  ASP760  ASP761  ALA762  ILE779  LEU786  VAL792 
 PHE793  MET794  SER795  GLU796  ALA797  LYS798  CYS799  TRP800  GLU811  SER814 

> <Gold.Protein.RotatedAtoms>
  152.4676  133.7957  159.6925 H   0  0  0  0  0  0  0  0  0  0  0  0  # atno 6907 bound_to 6896
  150.8648  133.7581  159.2987 H   0  0  0  0  0  0  0  0  0  0  0  0  # atno 6908 bound_to 6896
  151.5135  135.1069  159.9912 H   0  0  0  0  0  0  0  0  0  0  0  0  # atno 6909 bound_to 6896
  144.7301  139.9319  143.6425 H   0  0  0  0  0  0  0  0  0  0  0  0  # atno 7974 bound_to 7965
  154.6367  140.0596  156.9797 H   0  0  0  0  0  0  0  0  0  0  0  0  # atno 8008 bound_to 7997
  155.1580  140.3280  155.4399 H   0  0  0  0  0  0  0  0  0  0  0  0  # atno 8009 bound_to 7997
  156.2511  140.1936  156.6689 H   0  0  0  0  0  0  0  0  0  0  0  0  # atno 8010 bound_to 7997
  139.7162  144.7068  151.0946 H   0  0  0  0  0  0  0  0  0  0  0  0  # atno 10167 bound_to 10162
  157.2774  130.7238  149.6537 H   0  0  0  0  0  0  0  0  0  0  0  0  # atno 10718 bound_to 10713
  154.3706  135.6096  153.5738 H   0  0  0  0  0  0  0  0  0  0  0  0  # atno 10763 bound_to 10752
  152.9790  135.5837  154.4526 H   0  0  0  0  0  0  0  0  0  0  0  0  # atno 10764 bound_to 10752
  154.4279  135.2847  155.1909 H   0  0  0  0  0  0  0  0  0  0  0  0  # atno 10765 bound_to 10752
  140.1319  134.8796  157.2215 H   0  0  0  0  0  0  0  0  0  0  0  0  # atno 11005 bound_to 11000
  146.0851  139.3839  143.0440 LP  0  0  0  0  0  0  0  0  0  0  0  0  # atno 17320 bound_to 7965
  145.7788  140.9865  143.1110 LP  0  0  0  0  0  0  0  0  0  0  0  0  # atno 17321 bound_to 7965
  140.7744  143.5227  150.9518 LP  0  0  0  0  0  0  0  0  0  0  0  0  # atno 17342 bound_to 10162
  139.8913  143.6950  152.3145 LP  0  0  0  0  0  0  0  0  0  0  0  0  # atno 17343 bound_to 10162
  155.9664  130.4348  150.5067 LP  0  0  0  0  0  0  0  0  0  0  0  0  # atno 17370 bound_to 10713
  157.3004  131.0644  151.2072 LP  0  0  0  0  0  0  0  0  0  0  0  0  # atno 17371 bound_to 10713
  140.2831  134.3327  155.7337 LP  0  0  0  0  0  0  0  0  0  0  0  0  # atno 17394 bound_to 11000
  141.2172  133.7490  156.9393 LP  0  0  0  0  0  0  0  0  0  0  0  0  # atno 17395 bound_to 11000

$$$$
