AV-unprocessed.smi:1699|AV-procd|sdf|6818|dock5
  -GOLD-   22720 7593D 1   1.00000     0.00000
 Structure written by MMmdl.
 37 38  0  0  0  0  0  0  0  0  1 V2000
  147.6685  133.1509  152.2800 C   0  0  0  0  0  0  0  0  0  0  0  0
  146.3987  133.1731  151.4443 C   0  0  0  0  0  0  0  0  0  0  0  0
  145.8972  131.9633  150.9189 C   0  0  0  0  0  0  0  0  0  0  0  0
  144.7236  131.9849  150.1463 C   0  0  0  0  0  0  0  0  0  0  0  0
  144.0959  133.2239  149.9317 C   0  0  0  0  0  0  0  0  0  0  0  0
  144.5680  134.3845  150.4300 N   0  0  0  0  0  0  0  0  0  0  0  0
  145.7006  134.3815  151.1773 C   0  0  0  0  0  0  0  0  0  0  0  0
  146.2575  135.5681  151.7329 N   0  0  0  0  0  0  0  0  0  0  0  0
  145.6180  136.6165  152.2806 C   0  0  0  0  0  0  0  0  0  0  0  0
  144.3978  136.7190  152.4094 O   0  0  0  0  0  0  0  0  0  0  0  0
  146.4874  137.5595  152.6742 N   0  0  0  0  0  0  0  0  0  0  0  0
  146.1441  138.8306  153.3107 C   0  0  1  0  0  0  0  0  0  0  0  0
  145.7466  138.5589  154.7690 C   0  0  0  0  0  0  0  0  0  0  0  0
  147.3220  139.8229  153.2130 C   0  0  1  0  0  0  0  0  0  0  0  0
  147.0903  141.1757  153.8908 C   0  0  0  0  0  0  0  0  0  0  0  0
  148.5057  141.6338  154.1532 C   0  0  0  0  0  0  0  0  0  0  0  0
  149.1859  140.3257  154.5437 C   0  0  0  0  0  0  0  0  0  0  0  0
  148.4779  139.2941  153.8604 O   0  0  0  0  0  0  0  0  0  0  0  0
  148.0626  132.1388  152.3769 H   0  0  0  0  0  0  0  0  0  0  0  0
  147.4717  133.5315  153.2827 H   0  0  0  0  0  0  0  0  0  0  0  0
  148.4406  133.7679  151.8194 H   0  0  0  0  0  0  0  0  0  0  0  0
  146.4040  131.0276  151.1040 H   0  0  0  0  0  0  0  0  0  0  0  0
  144.3148  131.0762  149.7298 H   0  0  0  0  0  0  0  0  0  0  0  0
  143.1912  133.2856  149.3454 H   0  0  0  0  0  0  0  0  0  0  0  0
  147.2644  135.6262  151.7037 H   0  0  0  0  0  0  0  0  0  0  0  0
  147.4703  137.3859  152.5237 H   0  0  0  0  0  0  0  0  0  0  0  0
  145.2790  139.2720  152.8125 H   0  0  0  0  0  0  0  0  0  0  0  0
  145.4466  139.4778  155.2734 H   0  0  0  0  0  0  0  0  0  0  0  0
  146.5731  138.1251  155.3328 H   0  0  0  0  0  0  0  0  0  0  0  0
  144.9055  137.8670  154.8242 H   0  0  0  0  0  0  0  0  0  0  0  0
  147.5810  139.9943  152.1667 H   0  0  0  0  0  0  0  0  0  0  0  0
  146.5238  141.8722  153.2721 H   0  0  0  0  0  0  0  0  0  0  0  0
  146.5606  141.0479  154.8361 H   0  0  0  0  0  0  0  0  0  0  0  0
  148.9466  142.0303  153.2377 H   0  0  0  0  0  0  0  0  0  0  0  0
  148.5745  142.3986  154.9274 H   0  0  0  0  0  0  0  0  0  0  0  0
  150.2459  140.3178  154.2892 H   0  0  0  0  0  0  0  0  0  0  0  0
  149.0941  140.1541  155.6167 H   0  0  0  0  0  0  0  0  0  0  0  0
  1  2  1  0  0  0  0
  1 19  1  0  0  0  0
  1 20  1  0  0  0  0
  1 21  1  0  0  0  0
  2  7  1  0  0  0  0
  2  3  2  0  0  0  0
  3  4  1  0  0  0  0
  3 22  1  0  0  0  0
  4  5  2  0  0  0  0
  4 23  1  0  0  0  0
  5  6  1  0  0  0  0
  5 24  1  0  0  0  0
  6  7  2  0  0  0  0
  7  8  1  0  0  0  0
  8  9  1  0  0  0  0
  8 25  1  0  0  0  0
  9 10  2  0  0  0  0
  9 11  1  0  0  0  0
 11 12  1  0  0  0  0
 11 26  1  0  0  0  0
 12 13  1  0  0  0  0
 12 14  1  0  0  0  0
 12 27  1  0  0  0  0
 13 28  1  0  0  0  0
 13 29  1  0  0  0  0
 13 30  1  0  0  0  0
 14 18  1  0  0  0  0
 14 15  1  0  0  0  0
 14 31  1  0  0  0  0
 15 16  1  0  0  0  0
 15 32  1  0  0  0  0
 15 33  1  0  0  0  0
 16 17  1  0  0  0  0
 16 34  1  0  0  0  0
 16 35  1  0  0  0  0
 17 18  1  0  0  0  0
 17 36  1  0  0  0  0
 17 37  1  0  0  0  0
M  END
> <s_m_source_file>
AV-unprocessed.smi

> <i_m_source_file_index>
1699

> <i_lp_mmshare_version>
43012

> <i_f3d_flags>
0

> <s_epik_input>
W0NIM11jMVtjSF1bY0hdW2NIXW5jMVtOSF1DKD1PKVtOSF1bQ0BIXShbQ0gzXSlbQ0BASF0yW0NIMl1bQ0gyXVtDSDJdTzI=

> <s_epik_cmdline>
J2VwaWtfcHl0aG9uJywgJy1waCcsICc3LjAnLCAnLXRuJywgJzgnLCAnLW1hJywgJzIwMCcsICctbWV0YWxfYmluZGluZycsICctaW1hZScsICc8aW5maWxlLm1hZT4nLCAnLW9tYWUnLCAnPG91dGZpbGUubWFlPic=

> <r_lp_tautomer_probability>
1

> <r_epik_Ionization_Penalty>
5.52788e-05

> <r_epik_Ionization_Penalty_Charging>
0

> <r_epik_Ionization_Penalty_Neutral>
5.52788e-05

> <r_epik_State_Penalty>
-0

> <r_epik_Charging_Adjusted_Penalty>
0

> <i_epik_Tot_Q>
0

> <i_epik_Tot_abs_Q>
0

> <r_epik_Metal_State_Penalty>
-0

> <b_epik_Metal_Only>
0

> <s_lp_Force_Field>
OPLS_2005

> <r_lp_Energy>
20.3495

> <b_lp_Chiralities_Consistent>
1

> <s_lp_Variant>
AV-unprocessed.smi:1699-4

> <Gold.Version>
5.8.1

> <Gold.Id.Protein>
6NUR|6NUR_protein|mol2

> <Gold.PLP.Fitness>
38.9237

> <Gold.PLP.PLP>
-30.9415

> <Gold.PLP.part.hbond>
-2.0000

> <Gold.PLP.part.metal>
0.0000

> <Gold.PLP.part.buried>
-2.7484

> <Gold.PLP.part.nonpolar>
-28.0988

> <Gold.PLP.part.repulsive>
1.5155

> <Gold.PLP.ligand.clash>
0.0000

> <Gold.PLP.ligand.torsion>
0.5153

> <Gold.PLP.Chemscore.Hbond>
2.0000

> <Gold.PLP.Chemscore.CHOScore>
1.0000

> <Gold.PLP.Chemscore.Metal>
0.0000

> <Gold.Chemscore.Hbonds>
donor molecule, donor type, donor heavy atom, donor atom, acceptor molecule, acceptor atom, score
      L1  H     8    25       P1  7948  1.00
      L1  H    11    26       P1  7948  1.00
      L1  C     5    24       P1 10186  1.00

> <Gold.PLP.Chemscore.Internal.Correction>
0.0127

> <Gold.Rescore>
     Score         DG    S(hbond)    S(metal)    S(lipo)     H(rot)  DE(clash)    DE(int)     intcor
     17.10     -17.80       1.96        0.00      76.14       1.22       0.19       0.51       ----

> <Gold.Chemscore.Fitness>
17.0956

> <Gold.Chemscore.DG>
-17.7957

> <Gold.Chemscore.ZeroCoef>
-5.4800

> <Gold.Chemscore.Hbond>
1.9553

> <Gold.Chemscore.Metal>
0.0000

> <Gold.Chemscore.Lipo>
76.1365

> <Gold.Chemscore.Internal_Hbond>
0.0000

> <Gold.Chemscore.DEClash>
0.1905

> <Gold.Chemscore.DEInternal>
0.5096

> <Gold.Chemscore.Rot>
1.2200

> <Gold.Chemscore.Internal.Correction>
   9.000000E+99

> <Gold.Chemscore.Hbonds>
donor molecule, donor type, donor heavy atom, donor atom, acceptor molecule, acceptor atom, score
      L1  H     8    25       P1  7948  1.00
      L1  H    11    26       P1  7948  0.93

> <Gold.Chemscore.Hbond.Weighted>
-6.5309

> <Gold.Chemscore.Metal.Weighted>
-0.0000

> <Gold.Chemscore.Lipo.Weighted>
-8.9080

> <Gold.Chemscore.Internal_Hbond.Weighted>
0.0000

> <Gold.Chemscore.DEClash.Weighted>
0.1905

> <Gold.Chemscore.DEInternal.Weighted>
0.5096

> <Gold.Chemscore.Rot.Weighted>
3.1232

> <Gold.Chemscore.Internal.Correction.Weighted>
   9.000000E+99

> <Gold.Protein.RotatedTorsions>
[ 6907 6896 6895 6894 ] final  179.76 input  -60.11 | X-H torsion
[ 7974 7965 7964 7962 ] final -133.88 input  175.53 | X-H torsion
[ 8008 7997 7996 7995 ] final  153.87 input   59.86 | X-H torsion
[ 10167 10162 10161 10158 ] final  -77.49 input  -65.29 | X-H torsion
[ 10718 10713 10712 10709 ] final   80.44 input   66.30 | X-H torsion
[ 10763 10752 10751 10750 ] final  -31.39 input  -60.55 | X-H torsion
[ 11005 11000 10999 10996 ] final  -94.68 input  -57.11 | X-H torsion

> <Gold.Protein.ActiveResidues>
 VAL166  LYS551  ARG553  GLY616  TRP617  ASP618  TYR619  PRO620  LYS621  CYS622 
 ASP623  PHE694  ASN695  SER759  ASP760  ASP761  ALA762  ILE779  LEU786  VAL792 
 PHE793  MET794  SER795  GLU796  ALA797  LYS798  CYS799  TRP800  GLU811  SER814 

> <Gold.Protein.RotatedAtoms>
  151.6664  133.3315  159.3185 H   0  0  0  0  0  0  0  0  0  0  0  0  # atno 6907 bound_to 6896
  150.7888  134.6899  159.6500 H   0  0  0  0  0  0  0  0  0  0  0  0  # atno 6908 bound_to 6896
  152.3964  134.6362  160.0139 H   0  0  0  0  0  0  0  0  0  0  0  0  # atno 6909 bound_to 6896
  144.9153  140.6946  143.4999 H   0  0  0  0  0  0  0  0  0  0  0  0  # atno 7974 bound_to 7965
  156.2560  140.1982  156.6557 H   0  0  0  0  0  0  0  0  0  0  0  0  # atno 8008 bound_to 7997
  154.6503  140.0573  156.9972 H   0  0  0  0  0  0  0  0  0  0  0  0  # atno 8009 bound_to 7997
  155.1429  140.3244  155.4451 H   0  0  0  0  0  0  0  0  0  0  0  0  # atno 8010 bound_to 7997
  140.4766  143.2413  151.8124 H   0  0  0  0  0  0  0  0  0  0  0  0  # atno 10167 bound_to 10162
  157.6806  130.9959  150.2079 H   0  0  0  0  0  0  0  0  0  0  0  0  # atno 10718 bound_to 10713
  153.7966  135.6893  153.4862 H   0  0  0  0  0  0  0  0  0  0  0  0  # atno 10763 bound_to 10752
  153.1715  135.4541  154.9907 H   0  0  0  0  0  0  0  0  0  0  0  0  # atno 10764 bound_to 10752
  154.8023  135.3342  154.7458 H   0  0  0  0  0  0  0  0  0  0  0  0  # atno 10765 bound_to 10752
  141.1464  133.7973  157.0331 H   0  0  0  0  0  0  0  0  0  0  0  0  # atno 11005 bound_to 11000
  145.3386  139.1739  143.4498 LP  0  0  0  0  0  0  0  0  0  0  0  0  # atno 17320 bound_to 7965
  146.3179  140.3424  142.8649 LP  0  0  0  0  0  0  0  0  0  0  0  0  # atno 17321 bound_to 7965
  139.4826  144.4826  151.9287 LP  0  0  0  0  0  0  0  0  0  0  0  0  # atno 17342 bound_to 10162
  140.3911  144.2614  150.5899 LP  0  0  0  0  0  0  0  0  0  0  0  0  # atno 17343 bound_to 10162
  156.2756  130.3727  149.7987 LP  0  0  0  0  0  0  0  0  0  0  0  0  # atno 17370 bound_to 10713
  156.5691  130.8417  151.3351 LP  0  0  0  0  0  0  0  0  0  0  0  0  # atno 17371 bound_to 10713
  140.0741  134.9685  157.1516 LP  0  0  0  0  0  0  0  0  0  0  0  0  # atno 17394 bound_to 11000
  140.3669  134.2433  155.7181 LP  0  0  0  0  0  0  0  0  0  0  0  0  # atno 17395 bound_to 11000

$$$$
