AV-unprocessed.smi:1929|AV-procd|sdf|7801|dock1
  -GOLD-   22720 9543D 1   1.00000     0.00000
 Structure written by MMmdl.
 43 44  0  0  0  0  0  0  0  0  2 V2000
  149.0431  132.7857  153.3196 C   0  0  0  0  0  0  0  0  0  0  0  0
  148.6276  134.1103  153.7564 N   0  0  0  0  0  0  0  0  0  0  0  0
  148.5053  134.4768  155.0401 C   0  0  0  0  0  0  0  0  0  0  0  0
  148.7446  133.7223  155.9835 O   0  0  0  0  0  0  0  0  0  0  0  0
  148.0598  135.9209  155.2946 C   0  0  0  0  0  0  0  0  0  0  0  0
  148.9954  136.9263  154.7276 N   0  3  2  0  0  0  0  0  0  0  0  0
  150.3502  136.8722  155.3389 C   0  0  0  0  0  0  0  0  0  0  0  0
  151.3197  137.8260  154.6201 C   0  0  0  0  0  0  0  0  0  0  0  0
  150.7942  139.2756  154.5994 C   0  0  2  0  0  0  0  0  0  0  0  0
  150.8334  139.8932  155.9254 N   0  0  0  0  0  0  0  0  0  0  0  0
  151.9089  139.9423  156.7258 C   0  0  0  0  0  0  0  0  0  0  0  0
  152.9914  139.4367  156.4318 O   0  0  0  0  0  0  0  0  0  0  0  0
  151.6326  140.5912  157.8709 N   0  0  0  0  0  0  0  0  0  0  0  0
  152.4885  140.8743  158.9712 C   0  0  0  0  0  0  0  0  0  0  0  0
  153.3900  139.8659  159.3712 C   0  0  0  0  0  0  0  0  0  0  0  0
  154.2419  140.1099  160.4668 C   0  0  0  0  0  0  0  0  0  0  0  0
  154.2389  141.2641  161.1659 N   0  0  0  0  0  0  0  0  0  0  0  0
  153.3680  142.2244  160.7898 C   0  0  0  0  0  0  0  0  0  0  0  0
  152.4735  142.0825  159.7100 C   0  0  0  0  0  0  0  0  0  0  0  0
  149.3623  139.2984  154.0361 C   0  0  0  0  0  0  0  0  0  0  0  0
  148.4369  138.3022  154.7597 C   0  0  0  0  0  0  0  0  0  0  0  0
  149.0683  132.7442  152.2305 H   0  0  0  0  0  0  0  0  0  0  0  0
  148.3478  132.0232  153.6731 H   0  0  0  0  0  0  0  0  0  0  0  0
  150.0402  132.5475  153.6921 H   0  0  0  0  0  0  0  0  0  0  0  0
  148.4209  134.7881  153.0367 H   0  0  0  0  0  0  0  0  0  0  0  0
  147.0784  136.0297  154.8307 H   0  0  0  0  0  0  0  0  0  0  0  0
  147.9227  136.0987  156.3627 H   0  0  0  0  0  0  0  0  0  0  0  0
  150.2860  137.1260  156.3981 H   0  0  0  0  0  0  0  0  0  0  0  0
  150.7466  135.8579  155.2843 H   0  0  0  0  0  0  0  0  0  0  0  0
  152.3048  137.7776  155.0851 H   0  0  0  0  0  0  0  0  0  0  0  0
  151.4570  137.4822  153.5939 H   0  0  0  0  0  0  0  0  0  0  0  0
  151.4272  139.8690  153.9370 H   0  0  0  0  0  0  0  0  0  0  0  0
  149.9857  140.3366  156.2474 H   0  0  0  0  0  0  0  0  0  0  0  0
  150.6765  140.8927  157.9872 H   0  0  0  0  0  0  0  0  0  0  0  0
  153.4351  138.9210  158.8494 H   0  0  0  0  0  0  0  0  0  0  0  0
  154.9441  139.3561  160.7910 H   0  0  0  0  0  0  0  0  0  0  0  0
  153.3798  143.1341  161.3716 H   0  0  0  0  0  0  0  0  0  0  0  0
  151.7976  142.8924  159.4858 H   0  0  0  0  0  0  0  0  0  0  0  0
  148.9482  140.3060  154.0937 H   0  0  0  0  0  0  0  0  0  0  0  0
  149.3931  139.0457  152.9752 H   0  0  0  0  0  0  0  0  0  0  0  0
  147.4584  138.3133  154.2779 H   0  0  0  0  0  0  0  0  0  0  0  0
  148.2816  138.6086  155.7954 H   0  0  0  0  0  0  0  0  0  0  0  0
  149.1037  136.6868  153.7520 H   0  0  0  0  0  0  0  0  0  0  0  0
  1  2  1  0  0  0  0
  1 22  1  0  0  0  0
  1 23  1  0  0  0  0
  1 24  1  0  0  0  0
  2  3  1  0  0  0  0
  2 25  1  0  0  0  0
  3  4  2  0  0  0  0
  3  5  1  0  0  0  0
  5  6  1  0  0  0  0
  5 26  1  0  0  0  0
  5 27  1  0  0  0  0
  6 21  1  0  0  0  0
  6  7  1  0  0  0  0
  6 43  1  0  0  0  0
  7  8  1  0  0  0  0
  7 28  1  0  0  0  0
  7 29  1  0  0  0  0
  8  9  1  0  0  0  0
  8 30  1  0  0  0  0
  8 31  1  0  0  0  0
  9 10  1  0  0  0  0
  9 20  1  0  0  0  0
  9 32  1  0  0  0  0
 10 11  1  0  0  0  0
 10 33  1  0  0  0  0
 11 12  2  0  0  0  0
 11 13  1  0  0  0  0
 13 14  1  0  0  0  0
 13 34  1  0  0  0  0
 14 19  1  0  0  0  0
 14 15  2  0  0  0  0
 15 16  1  0  0  0  0
 15 35  1  0  0  0  0
 16 17  2  0  0  0  0
 16 36  1  0  0  0  0
 17 18  1  0  0  0  0
 18 19  2  0  0  0  0
 18 37  1  0  0  0  0
 19 38  1  0  0  0  0
 20 21  1  0  0  0  0
 20 39  1  0  0  0  0
 20 40  1  0  0  0  0
 21 41  1  0  0  0  0
 21 42  1  0  0  0  0
M  CHG  1   6   1
M  END
> <s_m_source_file>
AV-unprocessed.smi

> <i_m_source_file_index>
1929

> <i_lp_mmshare_version>
43012

> <i_f3d_flags>
0

> <s_epik_input>
W0NIM11bTkhdQyg9TylbQ0gyXU4xW0NIMl1bQ0gyXVtDSF0oW0NIMl1bQ0gyXTEpW05IXUMoPU8pW05IXWMyW2NIXVtjSF1uW2NIXVtjSF0y

> <s_epik_cmdline>
J2VwaWtfcHl0aG9uJywgJy1waCcsICc3LjAnLCAnLXRuJywgJzgnLCAnLW1hJywgJzIwMCcsICctbWV0YWxfYmluZGluZycsICctaW1hZScsICc8aW5maWxlLm1hZT4nLCAnLW9tYWUnLCAnPG91dGZpbGUubWFlPic=

> <r_epik_Ionization_Penalty>
0.938295

> <r_epik_Ionization_Penalty_Charging>
0.838844

> <r_epik_Ionization_Penalty_Neutral>
0.0994513

> <r_epik_State_Penalty>
0.957722

> <r_epik_Charging_Adjusted_Penalty>
1.79657

> <i_epik_Tot_Q>
1

> <i_epik_Tot_abs_Q>
1

> <r_epik_Metal_State_Penalty>
0.961727

> <b_epik_Metal_Only>
0

> <s_lp_Force_Field>
OPLS_2005

> <r_lp_Energy>
19.6911

> <b_lp_Chiralities_Consistent>
1

> <s_lp_Variant>
AV-unprocessed.smi:1929-3

> <Gold.Version>
5.8.1

> <Gold.Id.Protein>
6NUR|6NUR_protein|mol2

> <Gold.PLP.Fitness>
45.2745

> <Gold.PLP.PLP>
-33.9878

> <Gold.PLP.part.hbond>
-3.2403

> <Gold.PLP.part.metal>
0.0000

> <Gold.PLP.part.buried>
-2.6286

> <Gold.PLP.part.nonpolar>
-28.3244

> <Gold.PLP.part.repulsive>
0.1780

> <Gold.PLP.ligand.clash>
0.0000

> <Gold.PLP.ligand.torsion>
0.3755

> <Gold.PLP.Chemscore.Hbond>
4.0000

> <Gold.PLP.Chemscore.CHOScore>
0.0000

> <Gold.PLP.Chemscore.Metal>
0.0000

> <Gold.Chemscore.Hbonds>
donor molecule, donor type, donor heavy atom, donor atom, acceptor molecule, acceptor atom, score
      L1  H     2    25       P1  7948  1.00
      L1  H     6    43       P1  7948  2.00
      P1  H  7997  8010       L1    12  1.00

> <Gold.PLP.Chemscore.Internal.Correction>
0.0376

> <Gold.Rescore>
     Score         DG    S(hbond)    S(metal)    S(lipo)     H(rot)  DE(clash)    DE(int)     intcor
     17.30     -19.84       2.75        0.00      81.11       1.69       0.03       2.51       ----

> <Gold.Chemscore.Fitness>
17.2954

> <Gold.Chemscore.DG>
-19.8351

> <Gold.Chemscore.ZeroCoef>
-5.4800

> <Gold.Chemscore.Hbond>
2.7498

> <Gold.Chemscore.Metal>
0.0000

> <Gold.Chemscore.Lipo>
81.1134

> <Gold.Chemscore.Internal_Hbond>
0.0000

> <Gold.Chemscore.DEClash>
0.0332

> <Gold.Chemscore.DEInternal>
2.5066

> <Gold.Chemscore.Rot>
1.6873

> <Gold.Chemscore.Internal.Correction>
   9.000000E+99

> <Gold.Chemscore.Hbonds>
donor molecule, donor type, donor heavy atom, donor atom, acceptor molecule, acceptor atom, score
      L1  H     2    25       P1  7948  0.57
      L1  H     6    43       P1  7948  0.99
      P1  H  7997  8010       L1    12  0.92

> <Gold.Chemscore.Hbond.Weighted>
-9.1842

> <Gold.Chemscore.Metal.Weighted>
-0.0000

> <Gold.Chemscore.Lipo.Weighted>
-9.4903

> <Gold.Chemscore.Internal_Hbond.Weighted>
0.0000

> <Gold.Chemscore.DEClash.Weighted>
0.0332

> <Gold.Chemscore.DEInternal.Weighted>
2.5066

> <Gold.Chemscore.Rot.Weighted>
4.3194

> <Gold.Chemscore.Internal.Correction.Weighted>
   9.000000E+99

> <Gold.Protein.RotatedTorsions>
[ 6907 6896 6895 6894 ] final   51.30 input  -60.11 | X-H torsion
[ 7974 7965 7964 7962 ] final   41.60 input  175.53 | X-H torsion
[ 8008 7997 7996 7995 ] final   91.78 input   59.86 | X-H torsion
[ 10167 10162 10161 10158 ] final    5.81 input  -65.29 | X-H torsion
[ 10718 10713 10712 10709 ] final   98.59 input   66.30 | X-H torsion
[ 10763 10752 10751 10750 ] final   16.28 input  -60.55 | X-H torsion
[ 11005 11000 10999 10996 ] final   89.29 input  -57.11 | X-H torsion

> <Gold.Protein.ActiveResidues>
 VAL166  LYS551  ARG553  GLY616  TRP617  ASP618  TYR619  PRO620  LYS621  CYS622 
 ASP623  PHE694  ASN695  SER759  ASP760  ASP761  ALA762  ILE779  LEU786  VAL792 
 PHE793  MET794  SER795  GLU796  ALA797  LYS798  CYS799  TRP800  GLU811  SER814 

> <Gold.Protein.RotatedAtoms>
  152.3111  134.7496  160.0335 H   0  0  0  0  0  0  0  0  0  0  0  0  # atno 6907 bound_to 6896
  151.7976  133.3361  159.3525 H   0  0  0  0  0  0  0  0  0  0  0  0  # atno 6908 bound_to 6896
  150.7321  134.5714  159.5937 H   0  0  0  0  0  0  0  0  0  0  0  0  # atno 6909 bound_to 6896
  146.0810  139.5396  142.9537 H   0  0  0  0  0  0  0  0  0  0  0  0  # atno 7974 bound_to 7965
  156.0278  140.3333  155.7107 H   0  0  0  0  0  0  0  0  0  0  0  0  # atno 8008 bound_to 7997
  155.5930  140.0648  157.2771 H   0  0  0  0  0  0  0  0  0  0  0  0  # atno 8009 bound_to 7997
  154.4341  140.1824  156.1082 H   0  0  0  0  0  0  0  0  0  0  0  0  # atno 8010 bound_to 7997
  140.6462  143.7657  150.7502 H   0  0  0  0  0  0  0  0  0  0  0  0  # atno 10167 bound_to 10162
  157.6893  131.0644  150.4819 H   0  0  0  0  0  0  0  0  0  0  0  0  # atno 10718 bound_to 10713
  153.1445  135.6766  153.8975 H   0  0  0  0  0  0  0  0  0  0  0  0  # atno 10763 bound_to 10752
  153.8421  135.3104  155.3428 H   0  0  0  0  0  0  0  0  0  0  0  0  # atno 10764 bound_to 10752
  154.7814  135.4886  153.9938 H   0  0  0  0  0  0  0  0  0  0  0  0  # atno 10765 bound_to 10752
  139.8878  134.8542  156.3121 H   0  0  0  0  0  0  0  0  0  0  0  0  # atno 11005 bound_to 11000
  145.6218  141.0321  143.1910 LP  0  0  0  0  0  0  0  0  0  0  0  0  # atno 17320 bound_to 7965
  144.7293  139.7776  143.7353 LP  0  0  0  0  0  0  0  0  0  0  0  0  # atno 17321 bound_to 7965
  140.1298  143.4536  152.2261 LP  0  0  0  0  0  0  0  0  0  0  0  0  # atno 17342 bound_to 10162
  139.5673  144.7442  151.3988 LP  0  0  0  0  0  0  0  0  0  0  0  0  # atno 17343 bound_to 10162
  156.5150  130.4148  149.6280 LP  0  0  0  0  0  0  0  0  0  0  0  0  # atno 17370 bound_to 10713
  156.3206  130.7278  151.2189 LP  0  0  0  0  0  0  0  0  0  0  0  0  # atno 17371 bound_to 10713
  140.9843  133.7247  156.0719 LP  0  0  0  0  0  0  0  0  0  0  0  0  # atno 17394 bound_to 11000
  140.7708  134.3835  157.5508 LP  0  0  0  0  0  0  0  0  0  0  0  0  # atno 17395 bound_to 11000

$$$$
