AV-unprocessed.smi:1086|AV-procd|sdf|4724|dock3
  -GOLD-   22720 3253D 1   1.00000     0.00000
 Structure written by MMmdl.
 41 42  0  0  0  0  0  0  0  0  1 V2000
  150.9210  141.8966  158.1448 C   0  0  0  0  0  0  0  0  0  0  0  0
  151.3358  141.4959  156.8433 O   0  0  0  0  0  0  0  0  0  0  0  0
  150.7325  140.3926  156.2751 C   0  0  0  0  0  0  0  0  0  0  0  0
  149.9894  139.5285  157.1036 C   0  0  0  0  0  0  0  0  0  0  0  0
  149.3754  138.3970  156.5328 C   0  0  0  0  0  0  0  0  0  0  0  0
  149.5322  138.1609  155.1461 C   0  0  0  0  0  0  0  0  0  0  0  0
  148.9577  137.0638  154.4489 N   0  0  0  0  0  0  0  0  0  0  0  0
  148.0904  136.1437  154.9045 C   0  0  0  0  0  0  0  0  0  0  0  0
  147.6203  136.1074  156.0415 O   0  0  0  0  0  0  0  0  0  0  0  0
  147.8030  135.2382  153.9575 N   0  0  0  0  0  0  0  0  0  0  0  0
  146.8920  134.1068  154.1258 C   0  0  0  0  0  0  0  0  0  0  0  0
  146.9978  133.0621  152.9983 C   0  0  0  0  0  0  0  0  0  0  0  0
  147.7129  132.0720  153.1658 O   0  0  0  0  0  0  0  0  0  0  0  0
  146.2975  133.2600  151.8547 N   0  0  0  0  0  0  0  0  0  0  0  0
  146.2604  132.3451  150.7055 C   0  0  0  0  0  0  0  0  0  0  0  0
  144.8732  131.6802  150.6512 C   0  0  0  0  0  0  0  0  0  0  0  0
  143.7593  132.7427  150.5781 C   0  0  0  0  0  0  0  0  0  0  0  0
  143.9254  133.8216  151.6660 C   0  0  0  0  0  0  0  0  0  0  0  0
  145.3616  134.3785  151.6811 C   0  0  0  0  0  0  0  0  0  0  0  0
  150.2806  139.0963  154.4021 C   0  0  0  0  0  0  0  0  0  0  0  0
  150.8724  140.1818  154.9431 N   0  0  0  0  0  0  0  0  0  0  0  0
  151.4855  142.7782  158.4482 H   0  0  0  0  0  0  0  0  0  0  0  0
  151.1084  141.1143  158.8819 H   0  0  0  0  0  0  0  0  0  0  0  0
  149.8624  142.1599  158.1625 H   0  0  0  0  0  0  0  0  0  0  0  0
  149.8898  139.7316  158.1597 H   0  0  0  0  0  0  0  0  0  0  0  0
  148.7918  137.7464  157.1650 H   0  0  0  0  0  0  0  0  0  0  0  0
  149.3029  136.9200  153.5112 H   0  0  0  0  0  0  0  0  0  0  0  0
  148.2313  135.3452  153.0498 H   0  0  0  0  0  0  0  0  0  0  0  0
  147.1255  133.6259  155.0759 H   0  0  0  0  0  0  0  0  0  0  0  0
  145.8682  134.4778  154.1963 H   0  0  0  0  0  0  0  0  0  0  0  0
  146.4340  132.9140  149.7908 H   0  0  0  0  0  0  0  0  0  0  0  0
  147.0410  131.5861  150.7206 H   0  0  0  0  0  0  0  0  0  0  0  0
  144.8092  131.0124  149.7918 H   0  0  0  0  0  0  0  0  0  0  0  0
  144.7316  131.0605  151.5378 H   0  0  0  0  0  0  0  0  0  0  0  0
  143.7872  133.2196  149.5975 H   0  0  0  0  0  0  0  0  0  0  0  0
  142.7805  132.2696  150.6625 H   0  0  0  0  0  0  0  0  0  0  0  0
  143.2107  134.6290  151.5037 H   0  0  0  0  0  0  0  0  0  0  0  0
  143.6929  133.3935  152.6422 H   0  0  0  0  0  0  0  0  0  0  0  0
  145.4561  135.1367  152.4595 H   0  0  0  0  0  0  0  0  0  0  0  0
  145.5776  134.8903  150.7422 H   0  0  0  0  0  0  0  0  0  0  0  0
  150.4166  138.9675  153.3382 H   0  0  0  0  0  0  0  0  0  0  0  0
  1  2  1  0  0  0  0
  1 22  1  0  0  0  0
  1 23  1  0  0  0  0
  1 24  1  0  0  0  0
  2  3  1  0  0  0  0
  3 21  1  0  0  0  0
  3  4  2  0  0  0  0
  4  5  1  0  0  0  0
  4 25  1  0  0  0  0
  5  6  2  0  0  0  0
  5 26  1  0  0  0  0
  6  7  1  0  0  0  0
  6 20  1  0  0  0  0
  7  8  1  0  0  0  0
  7 27  1  0  0  0  0
  8  9  2  0  0  0  0
  8 10  1  0  0  0  0
 10 11  1  0  0  0  0
 10 28  1  0  0  0  0
 11 12  1  0  0  0  0
 11 29  1  0  0  0  0
 11 30  1  0  0  0  0
 12 13  2  0  0  0  0
 12 14  1  0  0  0  0
 14 19  1  0  0  0  0
 14 15  1  0  0  0  0
 15 16  1  0  0  0  0
 15 31  1  0  0  0  0
 15 32  1  0  0  0  0
 16 17  1  0  0  0  0
 16 33  1  0  0  0  0
 16 34  1  0  0  0  0
 17 18  1  0  0  0  0
 17 35  1  0  0  0  0
 17 36  1  0  0  0  0
 18 19  1  0  0  0  0
 18 37  1  0  0  0  0
 18 38  1  0  0  0  0
 19 39  1  0  0  0  0
 19 40  1  0  0  0  0
 20 21  2  0  0  0  0
 20 41  1  0  0  0  0
M  END
> <s_m_source_file>
AV-unprocessed.smi

> <i_m_source_file_index>
1086

> <i_lp_mmshare_version>
43012

> <i_f3d_flags>
0

> <s_epik_input>
W0NIM11PYzFbY0hdW2NIXWMoW2NIXW4xKVtOSF1DKD1PKVtOSF1bQ0gyXUMoPU8pTjJbQ0gyXVtDSDJdW0NIMl1bQ0gyXVtDSDJdMg==

> <s_epik_cmdline>
J2VwaWtfcHl0aG9uJywgJy1waCcsICc3LjAnLCAnLXRuJywgJzgnLCAnLW1hJywgJzIwMCcsICctbWV0YWxfYmluZGluZycsICctaW1hZScsICc8aW5maWxlLm1hZT4nLCAnLW9tYWUnLCAnPG91dGZpbGUubWFlPic=

> <r_lp_tautomer_probability>
1

> <r_epik_Ionization_Penalty>
0.0001417

> <r_epik_Ionization_Penalty_Charging>
0

> <r_epik_Ionization_Penalty_Neutral>
0.0001417

> <r_epik_State_Penalty>
-0

> <r_epik_Charging_Adjusted_Penalty>
0

> <i_epik_Tot_Q>
0

> <i_epik_Tot_abs_Q>
0

> <r_epik_Metal_State_Penalty>
-0

> <b_epik_Metal_Only>
0

> <s_lp_Force_Field>
OPLS_2005

> <r_lp_Energy>
23.1479

> <b_lp_Chiralities_Consistent>
1

> <s_lp_Variant>
AV-unprocessed.smi:1086-1

> <Gold.Version>
5.8.1

> <Gold.Id.Protein>
6NUR|6NUR_protein|mol2

> <Gold.PLP.Fitness>
40.7855

> <Gold.PLP.PLP>
-30.1122

> <Gold.PLP.part.hbond>
-3.0000

> <Gold.PLP.part.metal>
0.0000

> <Gold.PLP.part.buried>
-4.8503

> <Gold.PLP.part.nonpolar>
-22.7309

> <Gold.PLP.part.repulsive>
0.2397

> <Gold.PLP.ligand.clash>
0.0167

> <Gold.PLP.ligand.torsion>
0.6294

> <Gold.PLP.Chemscore.Hbond>
2.9760

> <Gold.PLP.Chemscore.CHOScore>
1.0000

> <Gold.PLP.Chemscore.Metal>
0.0000

> <Gold.Chemscore.Hbonds>
donor molecule, donor type, donor heavy atom, donor atom, acceptor molecule, acceptor atom, score
      L1  H     7    27       P1  7948  0.94
      L1  H    10    28       P1  7948  1.00
      P1  H  7989  7998       L1    21  1.00
      L1  C    20    41       P1  7957  0.97

> <Gold.PLP.Chemscore.Internal.Correction>
0.0208

> <Gold.Rescore>
     Score         DG    S(hbond)    S(metal)    S(lipo)     H(rot)  DE(clash)    DE(int)     intcor
     16.57     -18.28       2.81        0.00      63.13       1.55       0.00       1.70       ----

> <Gold.Chemscore.Fitness>
16.5734

> <Gold.Chemscore.DG>
-18.2801

> <Gold.Chemscore.ZeroCoef>
-5.4800

> <Gold.Chemscore.Hbond>
2.8108

> <Gold.Chemscore.Metal>
0.0000

> <Gold.Chemscore.Lipo>
63.1251

> <Gold.Chemscore.Internal_Hbond>
0.0000

> <Gold.Chemscore.DEClash>
0.0048

> <Gold.Chemscore.DEInternal>
1.7019

> <Gold.Chemscore.Rot>
1.5521

> <Gold.Chemscore.Internal.Correction>
   9.000000E+99

> <Gold.Chemscore.Hbonds>
donor molecule, donor type, donor heavy atom, donor atom, acceptor molecule, acceptor atom, score
      L1  H     7    27       P1  7948  0.89
      L1  H    10    28       P1  7948  0.97
      P1  H  7989  7998       L1    21  0.26

> <Gold.Chemscore.Hbond.Weighted>
-9.3879

> <Gold.Chemscore.Metal.Weighted>
-0.0000

> <Gold.Chemscore.Lipo.Weighted>
-7.3856

> <Gold.Chemscore.Internal_Hbond.Weighted>
0.0000

> <Gold.Chemscore.DEClash.Weighted>
0.0048

> <Gold.Chemscore.DEInternal.Weighted>
1.7019

> <Gold.Chemscore.Rot.Weighted>
3.9734

> <Gold.Chemscore.Internal.Correction.Weighted>
   9.000000E+99

> <Gold.Protein.RotatedTorsions>
[ 6907 6896 6895 6894 ] final   74.10 input  -60.11 | X-H torsion
[ 7974 7965 7964 7962 ] final   15.28 input  175.53 | X-H torsion
[ 8008 7997 7996 7995 ] final   50.00 input   59.86 | X-H torsion
[ 10167 10162 10161 10158 ] final  148.84 input  -65.29 | X-H torsion
[ 10718 10713 10712 10709 ] final  -31.69 input   66.30 | X-H torsion
[ 10763 10752 10751 10750 ] final -159.77 input  -60.55 | X-H torsion
[ 11005 11000 10999 10996 ] final  -96.82 input  -57.11 | X-H torsion

> <Gold.Protein.ActiveResidues>
 VAL166  LYS551  ARG553  GLY616  TRP617  ASP618  TYR619  PRO620  LYS621  CYS622 
 ASP623  PHE694  ASN695  SER759  ASP760  ASP761  ALA762  ILE779  LEU786  VAL792 
 PHE793  MET794  SER795  GLU796  ALA797  LYS798  CYS799  TRP800  GLU811  SER814 

> <Gold.Protein.RotatedAtoms>
  152.4958  134.4321  159.9515 H   0  0  0  0  0  0  0  0  0  0  0  0  # atno 6907 bound_to 6896
  151.4300  133.3667  159.2775 H   0  0  0  0  0  0  0  0  0  0  0  0  # atno 6908 bound_to 6896
  150.9161  134.8602  159.7518 H   0  0  0  0  0  0  0  0  0  0  0  0  # atno 6909 bound_to 6896
  146.2283  139.8918  142.8553 H   0  0  0  0  0  0  0  0  0  0  0  0  # atno 7974 bound_to 7965
  155.4115  140.3442  155.4264 H   0  0  0  0  0  0  0  0  0  0  0  0  # atno 8008 bound_to 7997
  156.1446  140.1552  156.8898 H   0  0  0  0  0  0  0  0  0  0  0  0  # atno 8009 bound_to 7997
  154.5000  140.0817  156.7758 H   0  0  0  0  0  0  0  0  0  0  0  0  # atno 8010 bound_to 7997
  139.4869  144.5648  151.7165 H   0  0  0  0  0  0  0  0  0  0  0  0  # atno 10167 bound_to 10162
  156.3841  130.4361  149.7445 H   0  0  0  0  0  0  0  0  0  0  0  0  # atno 10718 bound_to 10713
  154.7447  135.3077  154.8666 H   0  0  0  0  0  0  0  0  0  0  0  0  # atno 10763 bound_to 10752
  153.9471  135.6768  153.4748 H   0  0  0  0  0  0  0  0  0  0  0  0  # atno 10764 bound_to 10752
  153.1044  135.4896  154.8850 H   0  0  0  0  0  0  0  0  0  0  0  0  # atno 10765 bound_to 10752
  141.1399  133.8125  157.0622 H   0  0  0  0  0  0  0  0  0  0  0  0  # atno 11005 bound_to 11000
  145.2410  141.0009  143.3936 LP  0  0  0  0  0  0  0  0  0  0  0  0  # atno 17320 bound_to 7965
  144.9452  139.4144  143.6429 LP  0  0  0  0  0  0  0  0  0  0  0  0  # atno 17321 bound_to 7965
  140.5224  144.0858  150.6027 LP  0  0  0  0  0  0  0  0  0  0  0  0  # atno 17342 bound_to 10162
  140.3820  143.2797  152.0159 LP  0  0  0  0  0  0  0  0  0  0  0  0  # atno 17343 bound_to 10162
  156.4524  130.7913  151.2934 LP  0  0  0  0  0  0  0  0  0  0  0  0  # atno 17370 bound_to 10713
  157.7494  131.0091  150.3255 LP  0  0  0  0  0  0  0  0  0  0  0  0  # atno 17371 bound_to 10713
  140.0564  134.9778  157.1227 LP  0  0  0  0  0  0  0  0  0  0  0  0  # atno 17394 bound_to 11000
  140.3913  134.2181  155.7166 LP  0  0  0  0  0  0  0  0  0  0  0  0  # atno 17395 bound_to 11000

$$$$
