AV-unprocessed.smi:2182|AV-procd|sdf|8864|dock5
  -GOLD-   2272012 63D 1   1.00000     0.00000
 Structure written by MMmdl.
 41 43  0  0  0  0  0  0  0  0  1 V2000
  153.0190  136.9305  159.6913 N   0  0  0  0  0  0  0  0  0  0  0  0
  152.6514  137.8446  159.0839 C   0  0  0  0  0  0  0  0  0  0  0  0
  152.1691  138.9613  158.3404 C   0  0  0  0  0  0  0  0  0  0  0  0
  151.9796  140.1681  158.9127 C   0  0  0  0  0  0  0  0  0  0  0  0
  151.5231  141.2599  158.2068 N   0  0  0  0  0  0  0  0  0  0  0  0
  151.1797  142.4882  158.8657 C   0  0  0  0  0  0  0  0  0  0  0  0
  151.8115  143.7935  158.4227 C   0  0  0  0  0  0  0  0  0  0  0  0
  152.2132  143.1692  159.7365 C   0  0  0  0  0  0  0  0  0  0  0  0
  151.1573  141.1251  156.8498 C   0  0  0  0  0  0  0  0  0  0  0  0
  150.6551  142.0646  156.2276 O   0  0  0  0  0  0  0  0  0  0  0  0
  151.3726  139.8719  156.2267 N   0  0  0  0  0  0  0  0  0  0  0  0
  151.0075  139.7195  154.8008 C   0  0  0  0  0  0  0  0  0  0  0  0
  149.4910  139.6837  154.5553 C   0  0  0  0  0  0  0  0  0  0  0  0
  148.8019  138.7481  154.9645 O   0  0  0  0  0  0  0  0  0  0  0  0
  148.9843  140.7245  153.8779 N   0  0  0  0  0  0  0  0  0  0  0  0
  147.5744  140.9025  153.5481 C   0  0  0  0  0  0  0  0  0  0  0  0
  146.9296  142.0403  154.3592 C   0  0  1  0  0  0  0  0  0  0  0  0
  145.6526  142.6174  153.7485 C   0  0  0  0  0  0  0  0  0  0  0  0
  144.9808  143.2116  154.9652 C   0  0  0  0  0  0  0  0  0  0  0  0
  145.3130  142.1828  156.0433 C   0  0  0  0  0  0  0  0  0  0  0  0
  146.5375  141.5699  155.6452 O   0  0  0  0  0  0  0  0  0  0  0  0
  151.8790  138.7457  156.9248 C   0  0  0  0  0  0  0  0  0  0  0  0
  152.0412  137.6654  156.3548 O   0  0  0  0  0  0  0  0  0  0  0  0
  152.1987  140.2875  159.9642 H   0  0  0  0  0  0  0  0  0  0  0  0
  150.1500  142.5556  159.2129 H   0  0  0  0  0  0  0  0  0  0  0  0
  152.5411  143.7646  157.6157 H   0  0  0  0  0  0  0  0  0  0  0  0
  151.1910  144.6866  158.4576 H   0  0  0  0  0  0  0  0  0  0  0  0
  151.8631  143.6481  160.6486 H   0  0  0  0  0  0  0  0  0  0  0  0
  153.2061  142.7275  159.7948 H   0  0  0  0  0  0  0  0  0  0  0  0
  151.4373  140.5265  154.2048 H   0  0  0  0  0  0  0  0  0  0  0  0
  151.4466  138.8156  154.3759 H   0  0  0  0  0  0  0  0  0  0  0  0
  149.6184  141.4497  153.5756 H   0  0  0  0  0  0  0  0  0  0  0  0
  147.5011  141.1187  152.4820 H   0  0  0  0  0  0  0  0  0  0  0  0
  147.0323  139.9694  153.7103 H   0  0  0  0  0  0  0  0  0  0  0  0
  147.6475  142.8475  154.5132 H   0  0  0  0  0  0  0  0  0  0  0  0
  145.8484  143.3516  152.9664 H   0  0  0  0  0  0  0  0  0  0  0  0
  145.0321  141.8243  153.3288 H   0  0  0  0  0  0  0  0  0  0  0  0
  145.4352  144.1728  155.2099 H   0  0  0  0  0  0  0  0  0  0  0  0
  143.9088  143.3626  154.8349 H   0  0  0  0  0  0  0  0  0  0  0  0
  145.3981  142.6341  157.0320 H   0  0  0  0  0  0  0  0  0  0  0  0
  144.5413  141.4136  156.0881 H   0  0  0  0  0  0  0  0  0  0  0  0
  1  2  3  0  0  0  0
  2  3  1  0  0  0  0
  3 22  1  0  0  0  0
  3  4  2  0  0  0  0
  4  5  1  0  0  0  0
  4 24  1  0  0  0  0
  5  6  1  0  0  0  0
  5  9  1  0  0  0  0
  6  8  1  0  0  0  0
  6  7  1  0  0  0  0
  6 25  1  0  0  0  0
  7  8  1  0  0  0  0
  7 26  1  0  0  0  0
  7 27  1  0  0  0  0
  8 28  1  0  0  0  0
  8 29  1  0  0  0  0
  9 10  2  0  0  0  0
  9 11  1  0  0  0  0
 11 12  1  0  0  0  0
 11 22  1  0  0  0  0
 12 13  1  0  0  0  0
 12 30  1  0  0  0  0
 12 31  1  0  0  0  0
 13 14  2  0  0  0  0
 13 15  1  0  0  0  0
 15 16  1  0  0  0  0
 15 32  1  0  0  0  0
 16 17  1  0  0  0  0
 16 33  1  0  0  0  0
 16 34  1  0  0  0  0
 17 21  1  0  0  0  0
 17 18  1  0  0  0  0
 17 35  1  0  0  0  0
 18 19  1  0  0  0  0
 18 36  1  0  0  0  0
 18 37  1  0  0  0  0
 19 20  1  0  0  0  0
 19 38  1  0  0  0  0
 19 39  1  0  0  0  0
 20 21  1  0  0  0  0
 20 40  1  0  0  0  0
 20 41  1  0  0  0  0
 22 23  2  0  0  0  0
M  END
> <s_m_source_file>
AV-unprocessed.smi

> <i_m_source_file_index>
2182

> <i_lp_mmshare_version>
43012

> <i_f3d_flags>
0

> <s_epik_input>
TiNDYzFbY0hdbihbQ0hdMltDSDJdW0NIMl0yKWMoPU8pbihjMT1PKVtDSDJdQyg9TylbTkhdW0NIMl1bQ0BASF0zW0NIMl1bQ0gyXVtDSDJdTzM=

> <s_epik_cmdline>
J2VwaWtfcHl0aG9uJywgJy1waCcsICc3LjAnLCAnLXRuJywgJzgnLCAnLW1hJywgJzIwMCcsICctbWV0YWxfYmluZGluZycsICctaW1hZScsICc8aW5maWxlLm1hZT4nLCAnLW9tYWUnLCAnPG91dGZpbGUubWFlPic=

> <r_lp_tautomer_probability>
1

> <r_epik_Ionization_Penalty>
2.69429e-08

> <r_epik_Ionization_Penalty_Charging>
8.38654e-11

> <r_epik_Ionization_Penalty_Neutral>
2.6859e-08

> <r_epik_State_Penalty>
-0

> <r_epik_Charging_Adjusted_Penalty>
8.38654e-11

> <i_epik_Tot_Q>
0

> <i_epik_Tot_abs_Q>
0

> <r_epik_Metal_State_Penalty>
-0

> <b_epik_Metal_Only>
0

> <s_lp_Force_Field>
OPLS_2005

> <r_lp_Energy>
43.7942

> <b_lp_Chiralities_Consistent>
1

> <s_lp_Variant>
AV-unprocessed.smi:2182-2

> <Gold.Version>
5.8.1

> <Gold.Id.Protein>
6NUR|6NUR_protein|mol2

> <Gold.PLP.Fitness>
45.3343

> <Gold.PLP.PLP>
-43.3078

> <Gold.PLP.part.hbond>
-2.0000

> <Gold.PLP.part.metal>
0.0000

> <Gold.PLP.part.buried>
-3.8855

> <Gold.PLP.part.nonpolar>
-37.3287

> <Gold.PLP.part.repulsive>
0.5019

> <Gold.PLP.ligand.clash>
0.0000

> <Gold.PLP.ligand.torsion>
0.6008

> <Gold.PLP.Chemscore.Hbond>
1.0000

> <Gold.PLP.Chemscore.CHOScore>
0.0000

> <Gold.PLP.Chemscore.Metal>
0.0000

> <Gold.Chemscore.Hbonds>
donor molecule, donor type, donor heavy atom, donor atom, acceptor molecule, acceptor atom, score
      P1  H  6896  6909       L1     1  0.68

> <Gold.PLP.Chemscore.Internal.Correction>
0.2282

> <Gold.Rescore>
     Score         DG    S(hbond)    S(metal)    S(lipo)     H(rot)  DE(clash)    DE(int)     intcor
     11.66     -13.05       1.00        0.00      81.65       2.08       0.05       1.35       ----

> <Gold.Chemscore.Fitness>
11.6587

> <Gold.Chemscore.DG>
-13.0543

> <Gold.Chemscore.ZeroCoef>
-5.4800

> <Gold.Chemscore.Hbond>
1.0002

> <Gold.Chemscore.Metal>
0.0000

> <Gold.Chemscore.Lipo>
81.6478

> <Gold.Chemscore.Internal_Hbond>
0.0000

> <Gold.Chemscore.DEClash>
0.0497

> <Gold.Chemscore.DEInternal>
1.3459

> <Gold.Chemscore.Rot>
2.0778

> <Gold.Chemscore.Internal.Correction>
   9.000000E+99

> <Gold.Chemscore.Hbonds>
donor molecule, donor type, donor heavy atom, donor atom, acceptor molecule, acceptor atom, score
      P1  H  6896  6909       L1     1  0.69

> <Gold.Chemscore.Hbond.Weighted>
-3.3405

> <Gold.Chemscore.Metal.Weighted>
-0.0000

> <Gold.Chemscore.Lipo.Weighted>
-9.5528

> <Gold.Chemscore.Internal_Hbond.Weighted>
0.0000

> <Gold.Chemscore.DEClash.Weighted>
0.0497

> <Gold.Chemscore.DEInternal.Weighted>
1.3459

> <Gold.Chemscore.Rot.Weighted>
5.3191

> <Gold.Chemscore.Internal.Correction.Weighted>
   9.000000E+99

> <Gold.Protein.RotatedTorsions>
[ 6907 6896 6895 6894 ] final  140.91 input  -60.11 | X-H torsion
[ 7974 7965 7964 7962 ] final  -65.13 input  175.53 | X-H torsion
[ 8008 7997 7996 7995 ] final   92.69 input   59.86 | X-H torsion
[ 10167 10162 10161 10158 ] final   35.28 input  -65.29 | X-H torsion
[ 10718 10713 10712 10709 ] final  -52.55 input   66.30 | X-H torsion
[ 10763 10752 10751 10750 ] final   -4.19 input  -60.55 | X-H torsion
[ 11005 11000 10999 10996 ] final   78.00 input  -57.11 | X-H torsion

> <Gold.Protein.ActiveResidues>
 VAL166  LYS551  ARG553  GLY616  TRP617  ASP618  TYR619  PRO620  LYS621  CYS622 
 ASP623  PHE694  ASN695  SER759  ASP760  ASP761  ALA762  ILE779  LEU786  VAL792 
 PHE793  MET794  SER795  GLU796  ALA797  LYS798  CYS799  TRP800  GLU811  SER814 

> <Gold.Protein.RotatedAtoms>
  152.2373  133.5107  159.5249 H   0  0  0  0  0  0  0  0  0  0  0  0  # atno 6907 bound_to 6896
  150.7054  134.1136  159.4018 H   0  0  0  0  0  0  0  0  0  0  0  0  # atno 6908 bound_to 6896
  151.9057  135.0360  160.0561 H   0  0  0  0  0  0  0  0  0  0  0  0  # atno 6909 bound_to 6896
  145.7581  140.8875  143.0444 H   0  0  0  0  0  0  0  0  0  0  0  0  # atno 7974 bound_to 7965
  156.0382  140.3322  155.7214 H   0  0  0  0  0  0  0  0  0  0  0  0  # atno 8008 bound_to 7997
  155.5784  140.0634  157.2807 H   0  0  0  0  0  0  0  0  0  0  0  0  # atno 8009 bound_to 7997
  154.4382  140.1848  156.0939 H   0  0  0  0  0  0  0  0  0  0  0  0  # atno 8010 bound_to 7997
  140.4236  144.1424  150.6151 H   0  0  0  0  0  0  0  0  0  0  0  0  # atno 10167 bound_to 10162
  156.1611  130.4149  149.9791 H   0  0  0  0  0  0  0  0  0  0  0  0  # atno 10718 bound_to 10713
  153.3815  135.6998  153.6562 H   0  0  0  0  0  0  0  0  0  0  0  0  # atno 10763 bound_to 10752
  153.5171  135.3619  155.2615 H   0  0  0  0  0  0  0  0  0  0  0  0  # atno 10764 bound_to 10752
  154.8693  135.4149  154.3114 H   0  0  0  0  0  0  0  0  0  0  0  0  # atno 10765 bound_to 10752
  139.9231  134.7728  156.1593 H   0  0  0  0  0  0  0  0  0  0  0  0  # atno 11005 bound_to 11000
  144.6836  139.9685  143.7481 LP  0  0  0  0  0  0  0  0  0  0  0  0  # atno 17320 bound_to 7965
  146.0291  139.3318  143.0766 LP  0  0  0  0  0  0  0  0  0  0  0  0  # atno 17321 bound_to 7965
  140.4506  143.2488  151.9353 LP  0  0  0  0  0  0  0  0  0  0  0  0  # atno 17342 bound_to 10162
  139.4783  144.5566  151.8304 LP  0  0  0  0  0  0  0  0  0  0  0  0  # atno 17343 bound_to 10162
  156.7620  130.9154  151.3641 LP  0  0  0  0  0  0  0  0  0  0  0  0  # atno 17370 bound_to 10713
  157.6733  130.9071  150.0091 LP  0  0  0  0  0  0  0  0  0  0  0  0  # atno 17371 bound_to 10713
  141.0767  133.6772  156.2252 LP  0  0  0  0  0  0  0  0  0  0  0  0  # atno 17394 bound_to 11000
  140.6416  134.5160  157.5570 LP  0  0  0  0  0  0  0  0  0  0  0  0  # atno 17395 bound_to 11000

$$$$
