AV-unprocessed.smi:2424|AV-procd|sdf|9559|dock5
  -GOLD-   2272013193D 1   1.00000     0.00000
 Structure written by MMmdl.
 50 51  0  0  0  0  0  0  0  0  1 V2000
  150.6089  139.4202  154.7084 C   0  0  0  0  0  0  0  0  0  0  0  0
  149.3076  138.9931  154.0103 C   0  0  0  0  0  0  0  0  0  0  0  0
  148.0150  139.2023  154.8429 C   0  0  0  0  0  0  0  0  0  0  0  0
  147.9249  140.6952  155.2451 C   0  0  0  0  0  0  0  0  0  0  0  0
  147.8556  141.6899  154.0742 C   0  0  0  0  0  0  0  0  0  0  0  0
  146.6849  138.6231  154.2767 C   0  0  1  0  0  0  0  0  0  0  0  0
  146.8779  137.4980  153.3598 N   0  0  0  0  0  0  0  0  0  0  0  0
  145.9028  136.7440  152.8372 C   0  0  0  0  0  0  0  0  0  0  0  0
  144.7099  136.9055  153.0923 O   0  0  0  0  0  0  0  0  0  0  0  0
  146.4123  135.8233  151.9998 N   0  0  0  0  0  0  0  0  0  0  0  0
  145.7455  134.8093  151.3002 C   0  0  0  0  0  0  0  0  0  0  0  0
  144.4119  134.9083  151.1648 C   0  0  0  0  0  0  0  0  0  0  0  0
  143.6722  133.9421  150.4790 N   0  0  0  0  0  0  0  0  0  0  0  0
  144.2093  132.8475  149.8939 C   0  0  0  0  0  0  0  0  0  0  0  0
  143.4906  132.0344  149.3153 O   0  0  0  0  0  0  0  0  0  0  0  0
  145.6721  132.7245  150.0033 C   0  0  0  0  0  0  0  0  0  0  0  0
  146.3392  131.5346  149.3369 C   0  0  0  0  0  0  0  0  0  0  0  0
  146.3866  133.6591  150.6722 C   0  0  0  0  0  0  0  0  0  0  0  0
  146.3108  138.1478  155.6911 C   0  0  1  0  0  0  0  0  0  0  0  0
  145.5132  136.8634  155.9107 C   0  0  0  0  0  0  0  0  0  0  0  0
  147.8096  138.2292  156.0365 C   0  0  1  0  0  0  0  0  0  0  0  0
  148.4835  136.9907  155.8377 O   0  0  0  0  0  0  0  0  0  0  0  0
  148.2664  136.0637  156.8873 C   0  0  0  0  0  0  0  0  0  0  0  0
  142.6729  134.0775  150.4313 H   0  0  0  0  0  0  0  0  0  0  0  0
  151.4737  139.1227  154.1154 H   0  0  0  0  0  0  0  0  0  0  0  0
  150.7070  138.9538  155.6888 H   0  0  0  0  0  0  0  0  0  0  0  0
  150.6673  140.5003  154.8384 H   0  0  0  0  0  0  0  0  0  0  0  0
  149.2324  139.4919  153.0447 H   0  0  0  0  0  0  0  0  0  0  0  0
  149.4294  137.9402  153.7576 H   0  0  0  0  0  0  0  0  0  0  0  0
  147.0360  140.8590  155.8543 H   0  0  0  0  0  0  0  0  0  0  0  0
  148.7495  140.9705  155.9017 H   0  0  0  0  0  0  0  0  0  0  0  0
  147.6673  142.6982  154.4427 H   0  0  0  0  0  0  0  0  0  0  0  0
  147.0535  141.4409  153.3797 H   0  0  0  0  0  0  0  0  0  0  0  0
  148.7895  141.7252  153.5141 H   0  0  0  0  0  0  0  0  0  0  0  0
  145.9965  139.3849  153.9083 H   0  0  0  0  0  0  0  0  0  0  0  0
  147.8303  137.2962  153.0921 H   0  0  0  0  0  0  0  0  0  0  0  0
  147.4092  135.8613  151.8453 H   0  0  0  0  0  0  0  0  0  0  0  0
  143.8147  135.7123  151.5703 H   0  0  0  0  0  0  0  0  0  0  0  0
  147.4206  131.5536  149.4754 H   0  0  0  0  0  0  0  0  0  0  0  0
  146.1369  131.5344  148.2652 H   0  0  0  0  0  0  0  0  0  0  0  0
  145.9620  130.6020  149.7576 H   0  0  0  0  0  0  0  0  0  0  0  0
  147.4574  133.5394  150.7085 H   0  0  0  0  0  0  0  0  0  0  0  0
  145.8006  138.9698  156.1956 H   0  0  0  0  0  0  0  0  0  0  0  0
  146.0177  135.9910  155.4953 H   0  0  0  0  0  0  0  0  0  0  0  0
  144.5316  136.9277  155.4409 H   0  0  0  0  0  0  0  0  0  0  0  0
  145.3559  136.6758  156.9727 H   0  0  0  0  0  0  0  0  0  0  0  0
  148.0257  138.6904  157.0021 H   0  0  0  0  0  0  0  0  0  0  0  0
  148.7697  135.1256  156.6549 H   0  0  0  0  0  0  0  0  0  0  0  0
  147.2059  135.8526  157.0260 H   0  0  0  0  0  0  0  0  0  0  0  0
  148.6719  136.4386  157.8277 H   0  0  0  0  0  0  0  0  0  0  0  0
  1  2  1  0  0  0  0
  1 25  1  0  0  0  0
  1 26  1  0  0  0  0
  1 27  1  0  0  0  0
  2  3  1  0  0  0  0
  2 28  1  0  0  0  0
  2 29  1  0  0  0  0
  3 21  1  0  0  0  0
  3  4  1  0  0  0  0
  3  6  1  0  0  0  0
  4  5  1  0  0  0  0
  4 30  1  0  0  0  0
  4 31  1  0  0  0  0
  5 32  1  0  0  0  0
  5 33  1  0  0  0  0
  5 34  1  0  0  0  0
  6  7  1  0  0  0  0
  6 19  1  0  0  0  0
  6 35  1  0  0  0  0
  7  8  1  0  0  0  0
  7 36  1  0  0  0  0
  8  9  2  0  0  0  0
  8 10  1  0  0  0  0
 10 11  1  0  0  0  0
 10 37  1  0  0  0  0
 11 18  1  0  0  0  0
 11 12  2  0  0  0  0
 12 13  1  0  0  0  0
 12 38  1  0  0  0  0
 13 24  1  0  0  0  0
 13 14  1  0  0  0  0
 14 15  2  0  0  0  0
 14 16  1  0  0  0  0
 16 17  1  0  0  0  0
 16 18  2  0  0  0  0
 17 39  1  0  0  0  0
 17 40  1  0  0  0  0
 17 41  1  0  0  0  0
 18 42  1  0  0  0  0
 19 20  1  0  0  0  0
 19 21  1  0  0  0  0
 19 43  1  0  0  0  0
 20 44  1  0  0  0  0
 20 45  1  0  0  0  0
 20 46  1  0  0  0  0
 21 22  1  0  0  0  0
 21 47  1  0  0  0  0
 22 23  1  0  0  0  0
 23 48  1  0  0  0  0
 23 49  1  0  0  0  0
 23 50  1  0  0  0  0
M  END
> <s_m_source_file>
AV-unprocessed.smi

> <i_m_source_file_index>
2424

> <i_lp_mmshare_version>
43012

> <i_f3d_flags>
0

> <s_epik_input>
W0NIM11PW0NAQEhdMVtDQEhdKFtDSDNdKVtDQEBIXShDMShbQ0gyXVtDSDNdKVtDSDJdW0NIM10pW05IXUMoPU8pW05IXWMyW2NIXVtuSF1jKD1PKWMoW0NIM10pW2NIXTI=

> <s_epik_cmdline>
J2VwaWtfcHl0aG9uJywgJy1waCcsICc3LjAnLCAnLXRuJywgJzgnLCAnLW1hJywgJzIwMCcsICctbWV0YWxfYmluZGluZycsICctaW1hZScsICc8aW5maWxlLm1hZT4nLCAnLW9tYWUnLCAnPG91dGZpbGUubWFlPic=

> <r_lp_tautomer_probability>
1

> <r_epik_Ionization_Penalty>
4.7326e-05

> <r_epik_Ionization_Penalty_Charging>
2.70169e-05

> <r_epik_Ionization_Penalty_Neutral>
2.0309e-05

> <r_epik_State_Penalty>
-0

> <r_epik_Charging_Adjusted_Penalty>
2.70169e-05

> <i_epik_Tot_Q>
0

> <i_epik_Tot_abs_Q>
0

> <r_epik_Metal_State_Penalty>
0.0198736

> <b_epik_Metal_Only>
0

> <s_lp_Force_Field>
OPLS_2005

> <r_lp_Energy>
37.8943

> <b_lp_Chiralities_Consistent>
1

> <s_lp_Variant>
AV-unprocessed.smi:2424-1

> <Gold.Version>
5.8.1

> <Gold.Id.Protein>
6NUR|6NUR_protein|mol2

> <Gold.PLP.Fitness>
42.4534

> <Gold.PLP.PLP>
-31.0699

> <Gold.PLP.part.hbond>
-4.0000

> <Gold.PLP.part.metal>
0.0000

> <Gold.PLP.part.buried>
-2.2270

> <Gold.PLP.part.nonpolar>
-25.5089

> <Gold.PLP.part.repulsive>
0.5562

> <Gold.PLP.ligand.clash>
0.0000

> <Gold.PLP.ligand.torsion>
0.3750

> <Gold.PLP.Chemscore.Hbond>
3.8400

> <Gold.PLP.Chemscore.CHOScore>
0.0000

> <Gold.PLP.Chemscore.Metal>
0.0000

> <Gold.Chemscore.Hbonds>
donor molecule, donor type, donor heavy atom, donor atom, acceptor molecule, acceptor atom, score
      L1  H     7    36       P1  7948  0.88
      L1  H    10    37       P1  7948  1.00
      L1  H    13    24       P1 10186  1.00
      P1  H 10785 10796       L1    15  0.99

> <Gold.PLP.Chemscore.Internal.Correction>
0.6134

> <Gold.Rescore>
     Score         DG    S(hbond)    S(metal)    S(lipo)     H(rot)  DE(clash)    DE(int)     intcor
     19.14     -22.67       3.67        0.00      76.24       1.55       0.65       2.88       ----

> <Gold.Chemscore.Fitness>
19.1440

> <Gold.Chemscore.DG>
-22.6748

> <Gold.Chemscore.ZeroCoef>
-5.4800

> <Gold.Chemscore.Hbond>
3.6656

> <Gold.Chemscore.Metal>
0.0000

> <Gold.Chemscore.Lipo>
76.2414

> <Gold.Chemscore.Internal_Hbond>
0.0000

> <Gold.Chemscore.DEClash>
0.6548

> <Gold.Chemscore.DEInternal>
2.8761

> <Gold.Chemscore.Rot>
1.5502

> <Gold.Chemscore.Internal.Correction>
   9.000000E+99

> <Gold.Chemscore.Hbonds>
donor molecule, donor type, donor heavy atom, donor atom, acceptor molecule, acceptor atom, score
      L1  H     7    36       P1  7948  0.85
      L1  H    10    37       P1  7948  0.96
      L1  H    13    24       P1 10186  0.86
      P1  H 10785 10796       L1    15  0.90

> <Gold.Chemscore.Hbond.Weighted>
-12.2431

> <Gold.Chemscore.Metal.Weighted>
-0.0000

> <Gold.Chemscore.Lipo.Weighted>
-8.9202

> <Gold.Chemscore.Internal_Hbond.Weighted>
0.0000

> <Gold.Chemscore.DEClash.Weighted>
0.6548

> <Gold.Chemscore.DEInternal.Weighted>
2.8761

> <Gold.Chemscore.Rot.Weighted>
3.9685

> <Gold.Chemscore.Internal.Correction.Weighted>
   9.000000E+99

> <Gold.Protein.RotatedTorsions>
[ 6907 6896 6895 6894 ] final  -53.87 input  -60.11 | X-H torsion
[ 7974 7965 7964 7962 ] final  119.92 input  175.53 | X-H torsion
[ 8008 7997 7996 7995 ] final -146.99 input   59.86 | X-H torsion
[ 10167 10162 10161 10158 ] final   50.67 input  -65.29 | X-H torsion
[ 10718 10713 10712 10709 ] final   12.78 input   66.30 | X-H torsion
[ 10763 10752 10751 10750 ] final -155.05 input  -60.55 | X-H torsion
[ 11005 11000 10999 10996 ] final   46.04 input  -57.11 | X-H torsion

> <Gold.Protein.ActiveResidues>
 VAL166  LYS551  ARG553  GLY616  TRP617  ASP618  TYR619  PRO620  LYS621  CYS622 
 ASP623  PHE694  ASN695  SER759  ASP760  ASP761  ALA762  ILE779  LEU786  VAL792 
 PHE793  MET794  SER795  GLU796  ALA797  LYS798  CYS799  TRP800  GLU811  SER814 

> <Gold.Protein.RotatedAtoms>
  150.8388  134.7672  159.6914 H   0  0  0  0  0  0  0  0  0  0  0  0  # atno 6907 bound_to 6896
  152.4479  134.5452  159.9860 H   0  0  0  0  0  0  0  0  0  0  0  0  # atno 6908 bound_to 6896
  151.5596  133.3367  159.3004 H   0  0  0  0  0  0  0  0  0  0  0  0  # atno 6909 bound_to 6896
  145.1374  139.3289  143.4634 H   0  0  0  0  0  0  0  0  0  0  0  0  # atno 7974 bound_to 7965
  155.5684  140.0632  157.2812 H   0  0  0  0  0  0  0  0  0  0  0  0  # atno 8008 bound_to 7997
  154.4368  140.1873  156.0899 H   0  0  0  0  0  0  0  0  0  0  0  0  # atno 8009 bound_to 7997
  156.0395  140.3297  155.7231 H   0  0  0  0  0  0  0  0  0  0  0  0  # atno 8010 bound_to 7997
  140.2699  144.3277  150.6293 H   0  0  0  0  0  0  0  0  0  0  0  0  # atno 10167 bound_to 10162
  157.0151  130.6132  149.5713 H   0  0  0  0  0  0  0  0  0  0  0  0  # atno 10718 bound_to 10713
  154.7815  135.3176  154.7979 H   0  0  0  0  0  0  0  0  0  0  0  0  # atno 10763 bound_to 10752
  153.8690  135.6846  153.4780 H   0  0  0  0  0  0  0  0  0  0  0  0  # atno 10764 bound_to 10752
  153.1453  135.4722  154.9494 H   0  0  0  0  0  0  0  0  0  0  0  0  # atno 10765 bound_to 10752
  140.1405  134.4589  155.8453 H   0  0  0  0  0  0  0  0  0  0  0  0  # atno 11005 bound_to 11000
  146.3508  140.1397  142.8595 LP  0  0  0  0  0  0  0  0  0  0  0  0  # atno 17320 bound_to 7965
  145.0570  140.9059  143.4961 LP  0  0  0  0  0  0  0  0  0  0  0  0  # atno 17321 bound_to 7965
  140.5898  143.2168  151.7275 LP  0  0  0  0  0  0  0  0  0  0  0  0  # atno 17342 bound_to 10162
  139.4992  144.3957  152.0234 LP  0  0  0  0  0  0  0  0  0  0  0  0  # atno 17343 bound_to 10162
  156.0122  130.5214  150.8024 LP  0  0  0  0  0  0  0  0  0  0  0  0  # atno 17370 bound_to 10713
  157.5292  131.0935  150.9978 LP  0  0  0  0  0  0  0  0  0  0  0  0  # atno 17371 bound_to 10713
  141.2185  133.6831  156.7238 LP  0  0  0  0  0  0  0  0  0  0  0  0  # atno 17394 bound_to 11000
  140.2728  134.8378  157.3863 LP  0  0  0  0  0  0  0  0  0  0  0  0  # atno 17395 bound_to 11000

$$$$
