#       Name:                AV-unprocessed.smi:1552
#       Creating user name   scv26
#       Creation time:       Fri Mar 27 06:41:57 2020


#       File generated by GOLD software.
#

@<TRIPOS>MOLECULE
AV-unprocessed.smi:1552
    56    57     1
SMALL
NO_CHARGES


@<TRIPOS>ATOM
      1 ****        -3.7059   0.8941   1.7050 C.3            1 S1                 0.0000
      2 ****        -2.8280  -0.0628   2.4164 N.4            1 S1                 1.0000
      3 ****        -2.5924   0.3624   3.8188 C.3            1 S1                 0.0000
      4 ****        -1.6132  -0.4351   1.6239 C.3            1 S1                 0.0000
      5 ****        -0.3542   0.3886   1.9978 C.3            1 S1                 0.0000
      6 ****         0.7668   0.0974   1.1123 N.am           1 S1                 0.0000
      7 ****         2.0260   0.5448   1.2405 C.2            1 S1                 0.0000
      8 ****         2.3302   1.3012   2.1613 O.2            1 S1                 0.0000
      9 ****         3.0834   0.1277   0.1989 C.3            1 S1                 0.0000
     10 ****         4.4549   0.1504   0.7318 N.am           1 S1                 0.0000
     11 ****         5.2447   1.2821   0.4634 C.2            1 S1                 0.0000
     12 ****         6.5100   1.3875   0.9124 C.2            1 S1                 0.0000
     13 ****         7.0586   0.2875   1.6962 C.2            1 S1                 0.0000
     14 ****         8.2140   0.3643   2.1094 O.2            1 S1                 0.0000
     15 ****         6.2506  -0.7869   1.9344 N.pl3          1 S1                -1.0000
     16 ****         4.9646  -0.8792   1.4737 C.2            1 S1                 0.0000
     17 ****         4.2505  -1.8569   1.7015 O.2            1 S1                 0.0000
     18 ****        -1.3946  -1.9759   1.5994 C.3            1 S1                 0.0000
     19 ****        -2.5796  -2.7220   0.9463 C.3            1 S1                 0.0000
     20 ****        -2.3011  -4.2291   0.8213 C.3            1 S1                 0.0000
     21 ****        -1.9475  -4.8475   2.1824 C.3            1 S1                 0.0000
     22 ****        -0.7676  -4.1115   2.8355 C.3            1 S1                 0.0000
     23 ****        -1.0566  -2.6077   2.9684 C.3            1 S1                 0.0000
     24 ****        -3.1985   1.8470   1.5490 H              1 S1                 0.0000
     25 ****        -4.6164   1.0811   2.2752 H              1 S1                 0.0000
     26 ****        -4.0048   0.4994   0.7335 H              1 S1                 0.0000
     27 ****        -2.1315   1.3500   3.8637 H              1 S1                 0.0000
     28 ****        -1.9535  -0.3352   4.3578 H              1 S1                 0.0000
     29 ****        -3.5390   0.4162   4.3575 H              1 S1                 0.0000
     30 ****        -1.8229  -0.1743   0.5847 H              1 S1                 0.0000
     31 ****        -0.5806   1.4537   1.9267 H              1 S1                 0.0000
     32 ****        -0.0470   0.1901   3.0250 H              1 S1                 0.0000
     33 ****         0.5721  -0.4964   0.3190 H              1 S1                 0.0000
     34 ****         2.8758  -0.8679  -0.1945 H              1 S1                 0.0000
     35 ****         2.9965   0.7979  -0.6576 H              1 S1                 0.0000
     36 ****         4.7614   2.0533  -0.1183 H              1 S1                 0.0000
     37 ****         7.1030   2.2650   0.7002 H              1 S1                 0.0000
     38 ****        -0.5368  -2.1637   0.9523 H              1 S1                 0.0000
     39 ****        -3.4867  -2.5744   1.5331 H              1 S1                 0.0000
     40 ****        -2.7825  -2.3112  -0.0433 H              1 S1                 0.0000
     41 ****        -3.1705  -4.7340   0.3988 H              1 S1                 0.0000
     42 ****        -1.4799  -4.3926   0.1222 H              1 S1                 0.0000
     43 ****        -2.8158  -4.8041   2.8410 H              1 S1                 0.0000
     44 ****        -1.7056  -5.9035   2.0592 H              1 S1                 0.0000
     45 ****        -0.5618  -4.5390   3.8173 H              1 S1                 0.0000
     46 ****         0.1336  -4.2609   2.2393 H              1 S1                 0.0000
     47 ****        -0.1931  -2.1155   3.4159 H              1 S1                 0.0000
     48 ****        -1.8890  -2.4764   3.6594 H              1 S1                 0.0000
     49 ****        -3.3679  -0.9144   2.4765 H              1 S1                 0.0000
     50 ****         1.6370   1.5880   2.8225 LP             1 S1                 0.0000
     51 ****         3.2707   1.6293   2.2489 LP             1 S1                 0.0000
     52 ****         8.7647   1.1739   1.9067 LP             1 S1                 0.0000
     53 ****         8.6030  -0.3830   2.6483 LP             1 S1                 0.0000
     54 ****         6.6169  -1.5456   2.4732 LP             1 S1                 0.0000
     55 ****         3.3163  -1.8876   1.3459 LP             1 S1                 0.0000
     56 ****         4.6049  -2.6199   2.2421 LP             1 S1                 0.0000
@<TRIPOS>BOND
    1    1    2 1     
    2    1   24 1     
    3    1   25 1     
    4    1   26 1     
    5    2    3 1     
    6    2    4 1     
    7    2   49 1     
    8    3   27 1     
    9    3   28 1     
   10    3   29 1     
   11    4    5 1     
   12    4   18 1     
   13    4   30 1     
   14    5    6 1     
   15    5   31 1     
   16    5   32 1     
   17    6    7 am    
   18    6   33 1     
   19    7    8 2     
   20    7    9 1     
   21    9   10 1     
   22    9   34 1     
   23    9   35 1     
   24   10   16 am    
   25   10   11 1     
   26   11   12 2     
   27   11   36 1     
   28   12   13 1     
   29   12   37 1     
   30   13   14 2     
   31   13   15 1     
   32   15   16 1     
   33   16   17 2     
   34   18   23 1     
   35   18   19 1     
   36   18   38 1     
   37   19   20 1     
   38   19   39 1     
   39   19   40 1     
   40   20   21 1     
   41   20   41 1     
   42   20   42 1     
   43   21   22 1     
   44   21   43 1     
   45   21   44 1     
   46   22   23 1     
   47   22   45 1     
   48   22   46 1     
   49   23   47 1     
   50   23   48 1     
   51    8   50 1     
   52    8   51 1     
   53   14   52 1     
   54   14   53 1     
   55   15   54 1     
   56   17   55 1     
   57   17   56 1     
@<TRIPOS>SUBSTRUCTURE
      1 S1             1
@<TRIPOS>SET
LONE_PAIRS      STATIC     ATOMS    <user>   **** ""
7 50 51 52 53 54 55 56
DONOR_HYDROGENS      STATIC     ATOMS    <user>   **** ""
2 49 33
ATOM$BLUE        STATIC     ATOMS    COLORGROUP SYSTEM
7 50 51 52 53 54 55 56
ATOM$RED        STATIC     ATOMS    COLORGROUP SYSTEM
2 49 33
