AV-unprocessed.smi:1952|AV-procd|sdf|7891|dock4
  -GOLD-   2272010 43D 1   1.00000     0.00000
 Structure written by MMmdl.
 39 40  0  0  0  0  0  0  0  0  3 V2000
  153.1506  141.4116  160.9973 C   0  0  0  0  0  0  0  0  0  0  0  0
  152.2597  141.4923  159.8049 C   0  0  0  0  0  0  0  0  0  0  0  0
  152.3093  140.9105  158.5696 C   0  0  0  0  0  0  0  0  0  0  0  0
  151.1486  141.4180  157.9280 C   0  0  0  0  0  0  0  0  0  0  0  0
  150.8405  141.0504  156.5919 N   0  0  0  0  0  0  0  0  0  0  0  0
  151.3379  140.0356  155.8631 C   0  0  0  0  0  0  0  0  0  0  0  0
  152.2320  139.3150  156.3223 O   0  0  0  0  0  0  0  0  0  0  0  0
  150.7381  139.9298  154.6446 N   0  5  0  0  0  0  0  0  0  0  0  0
  149.8865  138.8146  154.2101 C   0  0  2  0  0  0  0  0  0  0  0  0
  148.4283  139.2930  154.1743 C   0  0  0  0  0  0  0  0  0  0  0  0
  150.0586  137.6071  155.1646 C   0  0  0  0  0  0  0  0  0  0  0  0
  149.1372  136.4887  154.8290 N   0  3  0  0  0  0  0  0  0  0  0  0
  149.6904  135.1488  155.1322 C   0  0  0  0  0  0  0  0  0  0  0  0
  148.7330  134.0585  154.6229 C   0  0  0  0  0  0  0  0  0  0  0  0
  147.4484  134.2359  155.2086 O   0  0  0  0  0  0  0  0  0  0  0  0
  146.8743  135.4921  154.8656 C   0  0  0  0  0  0  0  0  0  0  0  0
  147.7694  136.6266  155.3890 C   0  0  0  0  0  0  0  0  0  0  0  0
  150.4551  142.2402  158.7016 N   0  0  0  0  0  0  0  0  0  0  0  0
  151.1619  142.2897  159.9088 O   0  0  0  0  0  0  0  0  0  0  0  0
  154.1931  141.5498  160.7103 H   0  0  0  0  0  0  0  0  0  0  0  0
  153.0588  140.4391  161.4809 H   0  0  0  0  0  0  0  0  0  0  0  0
  152.8984  142.1786  161.7298 H   0  0  0  0  0  0  0  0  0  0  0  0
  153.0570  140.2313  158.1880 H   0  0  0  0  0  0  0  0  0  0  0  0
  150.1368  141.6124  156.1365 H   0  0  0  0  0  0  0  0  0  0  0  0
  150.1397  138.4858  153.2012 H   0  0  0  0  0  0  0  0  0  0  0  0
  147.7631  138.4941  153.8457 H   0  0  0  0  0  0  0  0  0  0  0  0
  148.3041  140.1268  153.4823 H   0  0  0  0  0  0  0  0  0  0  0  0
  148.0903  139.6221  155.1577 H   0  0  0  0  0  0  0  0  0  0  0  0
  151.0943  137.2667  155.1087 H   0  0  0  0  0  0  0  0  0  0  0  0
  149.9032  137.9102  156.2010 H   0  0  0  0  0  0  0  0  0  0  0  0
  150.6622  135.0329  154.6505 H   0  0  0  0  0  0  0  0  0  0  0  0
  149.8458  135.0486  156.2074 H   0  0  0  0  0  0  0  0  0  0  0  0
  148.6566  134.0865  153.5345 H   0  0  0  0  0  0  0  0  0  0  0  0
  149.1109  133.0716  154.8905 H   0  0  0  0  0  0  0  0  0  0  0  0
  146.7465  135.5650  153.7842 H   0  0  0  0  0  0  0  0  0  0  0  0
  145.8812  135.5609  155.3094 H   0  0  0  0  0  0  0  0  0  0  0  0
  147.8128  136.6006  156.4789 H   0  0  0  0  0  0  0  0  0  0  0  0
  147.3410  137.5890  155.1075 H   0  0  0  0  0  0  0  0  0  0  0  0
  149.0434  136.5256  153.8227 H   0  0  0  0  0  0  0  0  0  0  0  0
  1  2  1  0  0  0  0
  1 20  1  0  0  0  0
  1 21  1  0  0  0  0
  1 22  1  0  0  0  0
  2 19  1  0  0  0  0
  2  3  2  0  0  0  0
  3  4  1  0  0  0  0
  3 23  1  0  0  0  0
  4  5  1  0  0  0  0
  4 18  2  0  0  0  0
  5  6  1  0  0  0  0
  5 24  1  0  0  0  0
  6  7  2  0  0  0  0
  6  8  1  0  0  0  0
  8  9  1  0  0  0  0
  9 10  1  0  0  0  0
  9 11  1  0  0  0  0
  9 25  1  0  0  0  0
 10 26  1  0  0  0  0
 10 27  1  0  0  0  0
 10 28  1  0  0  0  0
 11 12  1  0  0  0  0
 11 29  1  0  0  0  0
 11 30  1  0  0  0  0
 12 17  1  0  0  0  0
 12 13  1  0  0  0  0
 12 39  1  0  0  0  0
 13 14  1  0  0  0  0
 13 31  1  0  0  0  0
 13 32  1  0  0  0  0
 14 15  1  0  0  0  0
 14 33  1  0  0  0  0
 14 34  1  0  0  0  0
 15 16  1  0  0  0  0
 16 17  1  0  0  0  0
 16 35  1  0  0  0  0
 16 36  1  0  0  0  0
 17 37  1  0  0  0  0
 17 38  1  0  0  0  0
 18 19  1  0  0  0  0
M  CHG  1   8  -1
M  CHG  1  12   1
M  END
> <s_m_source_file>
AV-unprocessed.smi

> <i_m_source_file_index>
1952

> <i_lp_mmshare_version>
43012

> <i_f3d_flags>
0

> <s_epik_input>
W0NIM11jMVtjSF1jKG5vMSlbTkhdQyg9TylbTkhdW0NASF0oW0NIM10pW0NIMl1OMltDSDJdW0NIMl1PW0NIMl1bQ0gyXTI=

> <s_epik_cmdline>
J2VwaWtfcHl0aG9uJywgJy1waCcsICc3LjAnLCAnLXRuJywgJzgnLCAnLW1hJywgJzIwMCcsICctbWV0YWxfYmluZGluZycsICctaW1hZScsICc8aW5maWxlLm1hZT4nLCAnLW9tYWUnLCAnPG91dGZpbGUubWFlPic=

> <r_epik_Ionization_Penalty>
6.76648

> <r_epik_Ionization_Penalty_Charging>
6.76648

> <r_epik_Ionization_Penalty_Neutral>
5.6208e-06

> <r_epik_State_Penalty>
7.45901

> <r_epik_Charging_Adjusted_Penalty>
14.2255

> <i_epik_Tot_Q>
0

> <i_epik_Tot_abs_Q>
2

> <r_epik_Metal_State_Penalty>
3.38802

> <b_epik_Metal_Only>
1

> <s_lp_Force_Field>
OPLS_2005

> <r_lp_Energy>
9.23167

> <b_lp_Chiralities_Consistent>
1

> <s_lp_Variant>
AV-unprocessed.smi:1952-9

> <Gold.Version>
5.8.1

> <Gold.Id.Protein>
6NUR|6NUR_protein|mol2

> <Gold.PLP.Fitness>
41.5410

> <Gold.PLP.PLP>
-31.7039

> <Gold.PLP.part.hbond>
-4.0000

> <Gold.PLP.part.metal>
0.0000

> <Gold.PLP.part.buried>
-4.9807

> <Gold.PLP.part.nonpolar>
-22.9705

> <Gold.PLP.part.repulsive>
0.3266

> <Gold.PLP.ligand.clash>
0.0000

> <Gold.PLP.ligand.torsion>
1.1876

> <Gold.PLP.Chemscore.Hbond>
4.0000

> <Gold.PLP.Chemscore.CHOScore>
0.0000

> <Gold.PLP.Chemscore.Metal>
0.0000

> <Gold.Chemscore.Hbonds>
donor molecule, donor type, donor heavy atom, donor atom, acceptor molecule, acceptor atom, score
      L1  H    12    39       P1  7948  2.00
      P1  H  7989  7998       L1     8  1.00
      P1  H  7997  8010       L1     7  0.41

> <Gold.PLP.Chemscore.Internal.Correction>
0.2123

> <Gold.Rescore>
     Score         DG    S(hbond)    S(metal)    S(lipo)     H(rot)  DE(clash)    DE(int)     intcor
     14.56     -17.46       2.74        0.00      58.70       1.58       0.02       2.88       ----

> <Gold.Chemscore.Fitness>
14.5634

> <Gold.Chemscore.DG>
-17.4638

> <Gold.Chemscore.ZeroCoef>
-5.4800

> <Gold.Chemscore.Hbond>
2.7424

> <Gold.Chemscore.Metal>
0.0000

> <Gold.Chemscore.Lipo>
58.7034

> <Gold.Chemscore.Internal_Hbond>
0.0000

> <Gold.Chemscore.DEClash>
0.0195

> <Gold.Chemscore.DEInternal>
2.8809

> <Gold.Chemscore.Rot>
1.5798

> <Gold.Chemscore.Internal.Correction>
   9.000000E+99

> <Gold.Chemscore.Hbonds>
donor molecule, donor type, donor heavy atom, donor atom, acceptor molecule, acceptor atom, score
      L1  H    12    39       P1  7948  0.98
      P1  H  7989  7998       L1     8  0.69
      P1  H  7997  8010       L1     7  0.39

> <Gold.Chemscore.Hbond.Weighted>
-9.1597

> <Gold.Chemscore.Metal.Weighted>
-0.0000

> <Gold.Chemscore.Lipo.Weighted>
-6.8683

> <Gold.Chemscore.Internal_Hbond.Weighted>
0.0000

> <Gold.Chemscore.DEClash.Weighted>
0.0195

> <Gold.Chemscore.DEInternal.Weighted>
2.8809

> <Gold.Chemscore.Rot.Weighted>
4.0442

> <Gold.Chemscore.Internal.Correction.Weighted>
   9.000000E+99

> <Gold.Protein.RotatedTorsions>
[ 6907 6896 6895 6894 ] final   73.04 input  -60.11 | X-H torsion
[ 7974 7965 7964 7962 ] final -142.87 input  175.53 | X-H torsion
[ 8008 7997 7996 7995 ] final   83.93 input   59.86 | X-H torsion
[ 10167 10162 10161 10158 ] final  -44.92 input  -65.29 | X-H torsion
[ 10718 10713 10712 10709 ] final -179.77 input   66.30 | X-H torsion
[ 10763 10752 10751 10750 ] final   86.88 input  -60.55 | X-H torsion
[ 11005 11000 10999 10996 ] final  179.08 input  -57.11 | X-H torsion

> <Gold.Protein.ActiveResidues>
 VAL166  LYS551  ARG553  GLY616  TRP617  ASP618  TYR619  PRO620  LYS621  CYS622 
 ASP623  PHE694  ASN695  SER759  ASP760  ASP761  ALA762  ILE779  LEU786  VAL792 
 PHE793  MET794  SER795  GLU796  ALA797  LYS798  CYS799  TRP800  GLU811  SER814 

> <Gold.Protein.RotatedAtoms>
  152.4902  134.4481  159.9565 H   0  0  0  0  0  0  0  0  0  0  0  0  # atno 6907 bound_to 6896
  151.4469  133.3622  159.2797 H   0  0  0  0  0  0  0  0  0  0  0  0  # atno 6908 bound_to 6896
  150.9048  134.8487  159.7445 H   0  0  0  0  0  0  0  0  0  0  0  0  # atno 6909 bound_to 6896
  144.8411  140.5905  143.5451 H   0  0  0  0  0  0  0  0  0  0  0  0  # atno 7974 bound_to 7965
  155.9305  140.3415  155.6245 H   0  0  0  0  0  0  0  0  0  0  0  0  # atno 8008 bound_to 7997
  155.7164  140.0778  157.2368 H   0  0  0  0  0  0  0  0  0  0  0  0  # atno 8009 bound_to 7997
  154.4084  140.1613  156.2340 H   0  0  0  0  0  0  0  0  0  0  0  0  # atno 8010 bound_to 7997
  140.6878  143.2905  151.3565 H   0  0  0  0  0  0  0  0  0  0  0  0  # atno 10167 bound_to 10162
  156.8640  130.9761  151.3080 H   0  0  0  0  0  0  0  0  0  0  0  0  # atno 10718 bound_to 10713
  153.1614  135.4564  154.9777 H   0  0  0  0  0  0  0  0  0  0  0  0  # atno 10763 bound_to 10752
  154.7900  135.3217  154.7802 H   0  0  0  0  0  0  0  0  0  0  0  0  # atno 10764 bound_to 10752
  153.8291  135.6940  153.4871 H   0  0  0  0  0  0  0  0  0  0  0  0  # atno 10765 bound_to 10752
  140.4022  134.6767  157.4568 H   0  0  0  0  0  0  0  0  0  0  0  0  # atno 11005 bound_to 11000
  145.4691  139.1505  143.3824 LP  0  0  0  0  0  0  0  0  0  0  0  0  # atno 17320 bound_to 7965
  146.2704  140.4824  142.8817 LP  0  0  0  0  0  0  0  0  0  0  0  0  # atno 17321 bound_to 7965
  139.6252  144.0828  152.2428 LP  0  0  0  0  0  0  0  0  0  0  0  0  # atno 17342 bound_to 10162
  140.0285  144.6099  150.7507 LP  0  0  0  0  0  0  0  0  0  0  0  0  # atno 17343 bound_to 10162
  157.6234  130.8672  149.9147 LP  0  0  0  0  0  0  0  0  0  0  0  0  # atno 17370 bound_to 10713
  156.0761  130.3678  150.0674 LP  0  0  0  0  0  0  0  0  0  0  0  0  # atno 17371 bound_to 10713
  140.0328  134.6381  155.9083 LP  0  0  0  0  0  0  0  0  0  0  0  0  # atno 17394 bound_to 11000
  141.1852  133.6554  156.5190 LP  0  0  0  0  0  0  0  0  0  0  0  0  # atno 17395 bound_to 11000

$$$$
