AV-unprocessed.smi:1824|AV-procd|sdf|7394|dock9
  -GOLD-   22720 9 63D 1   1.00000     0.00000
 Structure written by MMmdl.
 44 46  0  0  0  0  0  0  0  0  1 V2000
  146.6982  137.7848  156.9240 C   0  0  0  0  0  0  0  0  0  0  0  0
  146.9292  139.0539  156.0968 C   0  0  1  0  0  0  0  0  0  0  0  0
  148.3248  139.6600  156.3375 C   0  0  0  0  0  0  0  0  0  0  0  0
  148.5705  140.8241  155.4935 N   0  0  0  0  0  0  0  0  0  0  0  0
  149.8971  141.3855  155.7493 C   0  0  0  0  0  0  0  0  0  0  0  0
  150.1149  141.9385  157.1737 C   0  0  2  0  0  0  0  0  0  0  0  0
  148.9461  142.6201  157.5884 O   0  0  0  0  0  0  0  0  0  0  0  0
  151.3014  142.9209  157.2338 C   0  0  0  0  0  0  0  0  0  0  0  0
  151.3868  143.6128  158.5078 N   0  0  0  0  0  0  0  0  0  0  0  0
  150.8367  144.8001  158.8277 C   0  0  0  0  0  0  0  0  0  0  0  0
  151.0412  145.2535  160.0614 N   0  0  0  0  0  0  0  0  0  0  0  0
  151.8152  144.2432  160.6058 C   0  0  0  0  0  0  0  0  0  0  0  0
  152.3729  144.1093  161.8975 C   0  0  0  0  0  0  0  0  0  0  0  0
  153.1392  142.9731  162.2313 C   0  0  0  0  0  0  0  0  0  0  0  0
  153.6665  142.8612  163.4735 F   0  0  0  0  0  0  0  0  0  0  0  0
  153.3588  141.9548  161.2798 C   0  0  0  0  0  0  0  0  0  0  0  0
  154.0947  140.8668  161.6087 F   0  0  0  0  0  0  0  0  0  0  0  0
  152.8140  142.0665  159.9861 C   0  0  0  0  0  0  0  0  0  0  0  0
  152.0502  143.2016  159.6582 C   0  0  0  0  0  0  0  0  0  0  0  0
  148.3780  140.4439  154.0965 C   0  0  0  0  0  0  0  0  0  0  0  0
  146.9844  139.8345  153.8498 C   0  0  1  0  0  0  0  0  0  0  0  0
  146.8102  139.3554  152.4052 C   0  0  0  0  0  0  0  0  0  0  0  0
  146.8011  138.7197  154.7178 O   0  0  0  0  0  0  0  0  0  0  0  0
  146.7779  137.9927  157.9914 H   0  0  0  0  0  0  0  0  0  0  0  0
  147.4288  137.0143  156.6769 H   0  0  0  0  0  0  0  0  0  0  0  0
  145.7052  137.3744  156.7388 H   0  0  0  0  0  0  0  0  0  0  0  0
  146.1625  139.7858  156.3562 H   0  0  0  0  0  0  0  0  0  0  0  0
  148.4179  139.9404  157.3874 H   0  0  0  0  0  0  0  0  0  0  0  0
  149.0869  138.9017  156.1494 H   0  0  0  0  0  0  0  0  0  0  0  0
  150.6228  140.5852  155.5979 H   0  0  0  0  0  0  0  0  0  0  0  0
  150.1448  142.1419  155.0024 H   0  0  0  0  0  0  0  0  0  0  0  0
  150.3058  141.1162  157.8649 H   0  0  0  0  0  0  0  0  0  0  0  0
  148.9645  143.4920  157.2249 H   0  0  0  0  0  0  0  0  0  0  0  0
  152.2402  142.3883  157.0769 H   0  0  0  0  0  0  0  0  0  0  0  0
  151.2255  143.6617  156.4363 H   0  0  0  0  0  0  0  0  0  0  0  0
  150.2503  145.3619  158.1152 H   0  0  0  0  0  0  0  0  0  0  0  0
  152.2109  144.8823  162.6337 H   0  0  0  0  0  0  0  0  0  0  0  0
  152.9799  141.2887  159.2557 H   0  0  0  0  0  0  0  0  0  0  0  0
  148.4944  141.3149  153.4522 H   0  0  0  0  0  0  0  0  0  0  0  0
  149.1468  139.7286  153.7999 H   0  0  0  0  0  0  0  0  0  0  0  0
  146.2170  140.5797  154.0665 H   0  0  0  0  0  0  0  0  0  0  0  0
  146.9304  140.1795  151.7015 H   0  0  0  0  0  0  0  0  0  0  0  0
  145.8178  138.9308  152.2527 H   0  0  0  0  0  0  0  0  0  0  0  0
  147.5430  138.5888  152.1524 H   0  0  0  0  0  0  0  0  0  0  0  0
  1  2  1  0  0  0  0
  1 24  1  0  0  0  0
  1 25  1  0  0  0  0
  1 26  1  0  0  0  0
  2 23  1  0  0  0  0
  2  3  1  0  0  0  0
  2 27  1  0  0  0  0
  3  4  1  0  0  0  0
  3 28  1  0  0  0  0
  3 29  1  0  0  0  0
  4  5  1  0  0  0  0
  4 20  1  0  0  0  0
  5  6  1  0  0  0  0
  5 30  1  0  0  0  0
  5 31  1  0  0  0  0
  6  7  1  0  0  0  0
  6  8  1  0  0  0  0
  6 32  1  0  0  0  0
  7 33  1  0  0  0  0
  8  9  1  0  0  0  0
  8 34  1  0  0  0  0
  8 35  1  0  0  0  0
  9 19  1  0  0  0  0
  9 10  1  0  0  0  0
 10 11  2  0  0  0  0
 10 36  1  0  0  0  0
 11 12  1  0  0  0  0
 12 19  2  0  0  0  0
 12 13  1  0  0  0  0
 13 14  2  0  0  0  0
 13 37  1  0  0  0  0
 14 15  1  0  0  0  0
 14 16  1  0  0  0  0
 16 17  1  0  0  0  0
 16 18  2  0  0  0  0
 18 19  1  0  0  0  0
 18 38  1  0  0  0  0
 20 21  1  0  0  0  0
 20 39  1  0  0  0  0
 20 40  1  0  0  0  0
 21 22  1  0  0  0  0
 21 23  1  0  0  0  0
 21 41  1  0  0  0  0
 22 42  1  0  0  0  0
 22 43  1  0  0  0  0
 22 44  1  0  0  0  0
M  END
> <s_m_source_file>
AV-unprocessed.smi

> <i_m_source_file_index>
1824

> <i_lp_mmshare_version>
43012

> <i_f3d_flags>
0

> <s_epik_input>
W0NIM11bQ0BASF0xW0NIMl1OKFtDSDJdW0NASF0oTzEpW0NIM10pW0NIMl1bQ0BIXShbT0hdKVtDSDJdbihbY0hdbjIpYyhjMjMpW2NIXWMoRiljKEYpW2NIXTM=

> <s_epik_cmdline>
J2VwaWtfcHl0aG9uJywgJy1waCcsICc3LjAnLCAnLXRuJywgJzgnLCAnLW1hJywgJzIwMCcsICctbWV0YWxfYmluZGluZycsICctaW1hZScsICc8aW5maWxlLm1hZT4nLCAnLW9tYWUnLCAnPG91dGZpbGUubWFlPic=

> <r_epik_Ionization_Penalty>
0.273778

> <r_epik_Ionization_Penalty_Charging>
0

> <r_epik_Ionization_Penalty_Neutral>
0.273778

> <r_epik_State_Penalty>
0.246794

> <r_epik_Charging_Adjusted_Penalty>
0.246794

> <i_epik_Tot_Q>
0

> <i_epik_Tot_abs_Q>
0

> <r_epik_Metal_State_Penalty>
0.238234

> <b_epik_Metal_Only>
0

> <s_lp_Force_Field>
OPLS_2005

> <r_lp_Energy>
27.3836

> <b_lp_Chiralities_Consistent>
1

> <s_lp_Variant>
AV-unprocessed.smi:1824-2

> <Gold.Version>
5.8.1

> <Gold.Id.Protein>
6NUR|6NUR_protein|mol2

> <Gold.PLP.Fitness>
54.7611

> <Gold.PLP.PLP>
-50.0760

> <Gold.PLP.part.hbond>
-1.0000

> <Gold.PLP.part.metal>
0.0000

> <Gold.PLP.part.buried>
-5.2202

> <Gold.PLP.part.nonpolar>
-43.9432

> <Gold.PLP.part.repulsive>
0.3481

> <Gold.PLP.ligand.clash>
0.0000

> <Gold.PLP.ligand.torsion>
0.6101

> <Gold.PLP.Chemscore.Hbond>
1.0000

> <Gold.PLP.Chemscore.CHOScore>
0.9480

> <Gold.PLP.Chemscore.Metal>
0.0000

> <Gold.Chemscore.Hbonds>
donor molecule, donor type, donor heavy atom, donor atom, acceptor molecule, acceptor atom, score
      L1  H     7    33       P1  8028  1.00
      L1  C    10    36       P1  8028  0.06
      L1  C    10    36       P1  8029  0.84

> <Gold.PLP.Chemscore.Internal.Correction>
0.0612

> <Gold.Rescore>
     Score         DG    S(hbond)    S(metal)    S(lipo)     H(rot)  DE(clash)    DE(int)     intcor
     14.77     -15.68       0.90        0.00     111.08       2.26       0.36       0.56       ----

> <Gold.Chemscore.Fitness>
14.7673

> <Gold.Chemscore.DG>
-15.6808

> <Gold.Chemscore.ZeroCoef>
-5.4800

> <Gold.Chemscore.Hbond>
0.8967

> <Gold.Chemscore.Metal>
0.0000

> <Gold.Chemscore.Lipo>
111.0798

> <Gold.Chemscore.Internal_Hbond>
0.0000

> <Gold.Chemscore.DEClash>
0.3575

> <Gold.Chemscore.DEInternal>
0.5561

> <Gold.Chemscore.Rot>
2.2619

> <Gold.Chemscore.Internal.Correction>
   9.000000E+99

> <Gold.Chemscore.Hbonds>
donor molecule, donor type, donor heavy atom, donor atom, acceptor molecule, acceptor atom, score
      L1  H     7    33       P1  8028  0.42

> <Gold.Chemscore.Hbond.Weighted>
-2.9949

> <Gold.Chemscore.Metal.Weighted>
-0.0000

> <Gold.Chemscore.Lipo.Weighted>
-12.9963

> <Gold.Chemscore.Internal_Hbond.Weighted>
0.0000

> <Gold.Chemscore.DEClash.Weighted>
0.3575

> <Gold.Chemscore.DEInternal.Weighted>
0.5561

> <Gold.Chemscore.Rot.Weighted>
5.7904

> <Gold.Chemscore.Internal.Correction.Weighted>
   9.000000E+99

> <Gold.Protein.RotatedTorsions>
[ 6907 6896 6895 6894 ] final    0.96 input  -60.11 | X-H torsion
[ 7974 7965 7964 7962 ] final   91.82 input  175.53 | X-H torsion
[ 8008 7997 7996 7995 ] final -136.80 input   59.86 | X-H torsion
[ 10167 10162 10161 10158 ] final   70.69 input  -65.29 | X-H torsion
[ 10718 10713 10712 10709 ] final -160.88 input   66.30 | X-H torsion
[ 10763 10752 10751 10750 ] final   75.91 input  -60.55 | X-H torsion
[ 11005 11000 10999 10996 ] final  -26.34 input  -57.11 | X-H torsion

> <Gold.Protein.ActiveResidues>
 VAL166  LYS551  ARG553  GLY616  TRP617  ASP618  TYR619  PRO620  LYS621  CYS622 
 ASP623  PHE694  ASN695  SER759  ASP760  ASP761  ALA762  ILE779  LEU786  VAL792 
 PHE793  MET794  SER795  GLU796  ALA797  LYS798  CYS799  TRP800  GLU811  SER814 

> <Gold.Protein.RotatedAtoms>
  151.5848  135.1056  160.0025 H   0  0  0  0  0  0  0  0  0  0  0  0  # atno 6907 bound_to 6896
  152.4336  133.7317  159.6601 H   0  0  0  0  0  0  0  0  0  0  0  0  # atno 6908 bound_to 6896
  150.8231  133.8148  159.3153 H   0  0  0  0  0  0  0  0  0  0  0  0  # atno 6909 bound_to 6896
  145.5005  139.2276  143.2780 H   0  0  0  0  0  0  0  0  0  0  0  0  # atno 7974 bound_to 7965
  155.4012  140.0506  157.3036 H   0  0  0  0  0  0  0  0  0  0  0  0  # atno 8008 bound_to 7997
  154.4990  140.2149  155.9348 H   0  0  0  0  0  0  0  0  0  0  0  0  # atno 8009 bound_to 7997
  156.1442  140.3148  155.8549 H   0  0  0  0  0  0  0  0  0  0  0  0  # atno 8010 bound_to 7997
  140.0542  144.5287  150.7341 H   0  0  0  0  0  0  0  0  0  0  0  0  # atno 10167 bound_to 10162
  156.5883  130.8759  151.2883 H   0  0  0  0  0  0  0  0  0  0  0  0  # atno 10718 bound_to 10713
  153.0687  135.4971  154.8258 H   0  0  0  0  0  0  0  0  0  0  0  0  # atno 10763 bound_to 10752
  154.6992  135.2998  154.9369 H   0  0  0  0  0  0  0  0  0  0  0  0  # atno 10764 bound_to 10752
  154.0098  135.6755  153.4817 H   0  0  0  0  0  0  0  0  0  0  0  0  # atno 10765 bound_to 10752
  140.9020  133.7517  156.0556 H   0  0  0  0  0  0  0  0  0  0  0  0  # atno 11005 bound_to 11000
  146.2229  140.5806  142.9009 LP  0  0  0  0  0  0  0  0  0  0  0  0  # atno 17320 bound_to 7965
  144.7782  140.5785  143.6623 LP  0  0  0  0  0  0  0  0  0  0  0  0  # atno 17321 bound_to 7965
  140.7202  143.2582  151.4302 LP  0  0  0  0  0  0  0  0  0  0  0  0  # atno 17342 bound_to 10162
  139.5934  144.1450  152.2115 LP  0  0  0  0  0  0  0  0  0  0  0  0  # atno 17343 bound_to 10162
  157.7310  130.9693  150.1858 LP  0  0  0  0  0  0  0  0  0  0  0  0  # atno 17370 bound_to 10713
  156.2571  130.3707  149.8170 LP  0  0  0  0  0  0  0  0  0  0  0  0  # atno 17371 bound_to 10713
  140.8218  134.3281  157.5379 LP  0  0  0  0  0  0  0  0  0  0  0  0  # atno 17394 bound_to 11000
  139.8743  134.9313  156.3525 LP  0  0  0  0  0  0  0  0  0  0  0  0  # atno 17395 bound_to 11000

$$$$
