AV-unprocessed.smi:102|AV-procd|sdf|951|dock7
  -GOLD-   2262017483D 1   1.00000     0.00000
 Structure written by MMmdl.
 44 45  0  0  0  0  0  0  0  0  1 V2000
  151.8712  145.4147  159.5742 C   0  0  0  0  0  0  0  0  0  0  0  0
  151.6436  143.9570  159.9529 C   0  0  0  0  0  0  0  0  0  0  0  0
  151.2945  143.6374  161.0896 O   0  0  0  0  0  0  0  0  0  0  0  0
  151.8640  143.1182  158.9239 O   0  0  0  0  0  0  0  0  0  0  0  0
  151.5233  141.7429  159.0307 C   0  0  0  0  0  0  0  0  0  0  0  0
  152.2134  140.9156  157.9353 C   0  0  2  0  0  0  0  0  0  0  0  0
  151.5936  141.1480  156.6791 O   0  0  0  0  0  0  0  0  0  0  0  0
  151.7752  140.0451  155.8462 C   0  0  2  0  0  0  0  0  0  0  0  0
  150.5287  139.8953  154.9956 N   0  0  0  0  0  0  0  0  0  0  0  0
  149.4969  140.8173  155.1035 C   0  0  0  0  0  0  0  0  0  0  0  0
  148.3423  140.7187  154.4034 C   0  0  0  0  0  0  0  0  0  0  0  0
  147.3918  141.6566  154.5559 F   0  0  0  0  0  0  0  0  0  0  0  0
  148.1187  139.6032  153.4886 C   0  0  0  0  0  0  0  0  0  0  0  0
  147.1094  139.4309  152.8079 O   0  0  0  0  0  0  0  0  0  0  0  0
  149.1725  138.6873  153.4276 N   0  0  0  0  0  0  0  0  0  0  0  0
  150.3658  138.7745  154.1463 C   0  0  0  0  0  0  0  0  0  0  0  0
  151.2207  137.8988  154.0217 O   0  0  0  0  0  0  0  0  0  0  0  0
  152.1219  138.8207  156.7270 C   0  0  2  0  0  0  0  0  0  0  0  0
  151.2162  137.7369  156.5473 O   0  0  0  0  0  0  0  0  0  0  0  0
  151.6050  136.4768  156.7964 C   0  0  0  0  0  0  0  0  0  0  0  0
  150.4433  135.4940  156.7450 C   0  0  0  0  0  0  0  0  0  0  0  0
  152.7521  136.1061  157.0445 O   0  0  0  0  0  0  0  0  0  0  0  0
  152.0421  139.4032  158.1384 C   0  0  1  0  0  0  0  0  0  0  0  0
  152.9358  138.8163  159.0906 O   0  0  0  0  0  0  0  0  0  0  0  0
  152.6987  137.6431  159.7217 C   0  0  0  0  0  0  0  0  0  0  0  0
  153.7948  137.2944  160.7197 C   0  0  0  0  0  0  0  0  0  0  0  0
  151.7320  136.9003  159.5533 O   0  0  0  0  0  0  0  0  0  0  0  0
  149.0582  137.8918  152.8164 H   0  0  0  0  0  0  0  0  0  0  0  0
  150.9464  145.8554  159.2018 H   0  0  0  0  0  0  0  0  0  0  0  0
  152.6319  145.4968  158.7976 H   0  0  0  0  0  0  0  0  0  0  0  0
  152.2026  145.9859  160.4417 H   0  0  0  0  0  0  0  0  0  0  0  0
  151.8740  141.4038  160.0056 H   0  0  0  0  0  0  0  0  0  0  0  0
  150.4430  141.5894  159.0207 H   0  0  0  0  0  0  0  0  0  0  0  0
  153.2640  141.1917  157.8498 H   0  0  0  0  0  0  0  0  0  0  0  0
  152.5865  140.2739  155.1541 H   0  0  0  0  0  0  0  0  0  0  0  0
  149.6097  141.6618  155.7681 H   0  0  0  0  0  0  0  0  0  0  0  0
  153.1353  138.5231  156.4581 H   0  0  0  0  0  0  0  0  0  0  0  0
  149.9384  135.5544  155.7808 H   0  0  0  0  0  0  0  0  0  0  0  0
  149.7213  135.7212  157.5295 H   0  0  0  0  0  0  0  0  0  0  0  0
  150.7981  134.4729  156.8861 H   0  0  0  0  0  0  0  0  0  0  0  0
  151.0303  139.2357  158.5092 H   0  0  0  0  0  0  0  0  0  0  0  0
  154.2566  138.1988  161.1161 H   0  0  0  0  0  0  0  0  0  0  0  0
  154.5660  136.6934  160.2376 H   0  0  0  0  0  0  0  0  0  0  0  0
  153.3828  136.7252  161.5534 H   0  0  0  0  0  0  0  0  0  0  0  0
  1  2  1  0  0  0  0
  1 29  1  0  0  0  0
  1 30  1  0  0  0  0
  1 31  1  0  0  0  0
  2  3  2  0  0  0  0
  2  4  1  0  0  0  0
  4  5  1  0  0  0  0
  5  6  1  0  0  0  0
  5 32  1  0  0  0  0
  5 33  1  0  0  0  0
  6 23  1  0  0  0  0
  6  7  1  0  0  0  0
  6 34  1  0  0  0  0
  7  8  1  0  0  0  0
  8  9  1  0  0  0  0
  8 18  1  0  0  0  0
  8 35  1  0  0  0  0
  9 16  1  0  0  0  0
  9 10  1  0  0  0  0
 10 11  2  0  0  0  0
 10 36  1  0  0  0  0
 11 12  1  0  0  0  0
 11 13  1  0  0  0  0
 13 14  2  0  0  0  0
 13 15  1  0  0  0  0
 15 28  1  0  0  0  0
 15 16  1  0  0  0  0
 16 17  2  0  0  0  0
 18 19  1  0  0  0  0
 18 23  1  0  0  0  0
 18 37  1  0  0  0  0
 19 20  1  0  0  0  0
 20 21  1  0  0  0  0
 20 22  2  0  0  0  0
 21 38  1  0  0  0  0
 21 39  1  0  0  0  0
 21 40  1  0  0  0  0
 23 24  1  0  0  0  0
 23 41  1  0  0  0  0
 24 25  1  0  0  0  0
 25 26  1  0  0  0  0
 25 27  2  0  0  0  0
 26 42  1  0  0  0  0
 26 43  1  0  0  0  0
 26 44  1  0  0  0  0
M  END
> <s_m_source_file>
AV-unprocessed.smi

> <i_m_source_file_index>
102

> <i_lp_mmshare_version>
43012

> <i_f3d_flags>
0

> <s_epik_input>
W0NIM11DKD1PKU9bQ0gyXVtDQEBIXTFPW0NASF0oW0NAQEhdKE9DKD1PKVtDSDNdKVtDQEhdMU9DKD1PKVtDSDNdKW4yW2NIXWMoRiljKD1PKVtuSF1jMj1P

> <s_epik_cmdline>
J2VwaWtfcHl0aG9uJywgJy1waCcsICc3LjAnLCAnLXRuJywgJzgnLCAnLW1hJywgJzIwMCcsICctbWV0YWxfYmluZGluZycsICctaW1hZScsICc8aW5maWxlLm1hZT4nLCAnLW9tYWUnLCAnPG91dGZpbGUubWFlPic=

> <r_lp_tautomer_probability>
0.999537

> <r_epik_Ionization_Penalty>
0.058267

> <r_epik_Ionization_Penalty_Charging>
0.058267

> <r_epik_Ionization_Penalty_Neutral>
6.57791e-16

> <r_epik_State_Penalty>
0.0503774

> <r_epik_Charging_Adjusted_Penalty>
0.108644

> <i_epik_Tot_Q>
0

> <i_epik_Tot_abs_Q>
0

> <r_epik_Metal_State_Penalty>
2.6644

> <b_epik_Metal_Only>
0

> <s_epik_Chemistry_Notes>
This compound has an ester and may undergo hydrolysis at high or low pH. This compound contains an acetal/aminal-like group ( X-CH(R)-Y where X, Y are N, S, or O) that may be acid/base labile, releasing an aldehyde.

> <s_lp_Force_Field>
OPLS_2005

> <r_lp_Energy>
7.12504

> <b_lp_Chiralities_Consistent>
1

> <s_lp_Variant>
AV-unprocessed.smi:102-7

> <Gold.Version>
5.8.1

> <Gold.Id.Protein>
6NUR|6NUR_protein|mol2

> <Gold.PLP.Fitness>
50.3300

> <Gold.PLP.PLP>
-42.9269

> <Gold.PLP.part.hbond>
-4.9136

> <Gold.PLP.part.metal>
0.0000

> <Gold.PLP.part.buried>
-3.9404

> <Gold.PLP.part.nonpolar>
-34.9606

> <Gold.PLP.part.repulsive>
1.2790

> <Gold.PLP.ligand.clash>
0.0000

> <Gold.PLP.ligand.torsion>
0.8850

> <Gold.PLP.Chemscore.Hbond>
3.0000

> <Gold.PLP.Chemscore.CHOScore>
0.0000

> <Gold.PLP.Chemscore.Metal>
0.0000

> <Gold.Chemscore.Hbonds>
donor molecule, donor type, donor heavy atom, donor atom, acceptor molecule, acceptor atom, score
      L1  H    15    28       P1  7948  1.00
      P1  H  6896  6907       L1    27  1.00
      P1  H 10752 10764       L1    22  1.00

> <Gold.PLP.Chemscore.Internal.Correction>
0.1730

> <Gold.Rescore>
     Score         DG    S(hbond)    S(metal)    S(lipo)     H(rot)  DE(clash)    DE(int)     intcor
      7.34     -12.04       3.12        0.00      55.71       4.05       0.06       4.64       ----

> <Gold.Chemscore.Fitness>
7.3382

> <Gold.Chemscore.DG>
-12.0423

> <Gold.Chemscore.ZeroCoef>
-5.4800

> <Gold.Chemscore.Hbond>
3.1190

> <Gold.Chemscore.Metal>
0.0000

> <Gold.Chemscore.Lipo>
55.7090

> <Gold.Chemscore.Internal_Hbond>
0.0000

> <Gold.Chemscore.DEClash>
0.0608

> <Gold.Chemscore.DEInternal>
4.6433

> <Gold.Chemscore.Rot>
4.0520

> <Gold.Chemscore.Internal.Correction>
   9.000000E+99

> <Gold.Chemscore.Hbonds>
donor molecule, donor type, donor heavy atom, donor atom, acceptor molecule, acceptor atom, score
      L1  H    15    28       P1  7948  0.99
      P1  H  6896  6907       L1    27  0.99
      P1  H 10752 10764       L1    22  0.38

> <Gold.Chemscore.Hbond.Weighted>
-10.4175

> <Gold.Chemscore.Metal.Weighted>
-0.0000

> <Gold.Chemscore.Lipo.Weighted>
-6.5180

> <Gold.Chemscore.Internal_Hbond.Weighted>
0.0000

> <Gold.Chemscore.DEClash.Weighted>
0.0608

> <Gold.Chemscore.DEInternal.Weighted>
4.6433

> <Gold.Chemscore.Rot.Weighted>
10.3732

> <Gold.Chemscore.Internal.Correction.Weighted>
   9.000000E+99

> <Gold.Protein.RotatedTorsions>
[ 6907 6896 6895 6894 ] final    7.14 input  -60.11 | X-H torsion
[ 7974 7965 7964 7962 ] final   25.57 input  175.53 | X-H torsion
[ 8008 7997 7996 7995 ] final -118.53 input   59.86 | X-H torsion
[ 10167 10162 10161 10158 ] final  -73.09 input  -65.29 | X-H torsion
[ 10718 10713 10712 10709 ] final    5.64 input   66.30 | X-H torsion
[ 10763 10752 10751 10750 ] final  -11.67 input  -60.55 | X-H torsion
[ 11005 11000 10999 10996 ] final -148.46 input  -57.11 | X-H torsion

> <Gold.Protein.ActiveResidues>
 VAL166  LYS551  ARG553  GLY616  TRP617  ASP618  TYR619  PRO620  LYS621  CYS622 
 ASP623  PHE694  ASN695  SER759  ASP760  ASP761  ALA762  ILE779  LEU786  VAL792 
 PHE793  MET794  SER795  GLU796  ALA797  LYS798  CYS799  TRP800  GLU811  SER814 

> <Gold.Protein.RotatedAtoms>
  151.6851  135.0955  160.0222 H   0  0  0  0  0  0  0  0  0  0  0  0  # atno 6907 bound_to 6896
  152.3812  133.6545  159.6171 H   0  0  0  0  0  0  0  0  0  0  0  0  # atno 6908 bound_to 6896
  150.7749  133.9027  159.3387 H   0  0  0  0  0  0  0  0  0  0  0  0  # atno 6909 bound_to 6896
  146.1881  139.7447  142.8851 H   0  0  0  0  0  0  0  0  0  0  0  0  # atno 7974 bound_to 7965
  155.1011  140.0396  157.2697 H   0  0  0  0  0  0  0  0  0  0  0  0  # atno 8008 bound_to 7997
  154.6757  140.2622  155.6935 H   0  0  0  0  0  0  0  0  0  0  0  0  # atno 8009 bound_to 7997
  156.2676  140.2788  156.1283 H   0  0  0  0  0  0  0  0  0  0  0  0  # atno 8010 bound_to 7997
  140.5139  143.2341  151.7546 H   0  0  0  0  0  0  0  0  0  0  0  0  # atno 10167 bound_to 10162
  156.9105  130.5754  149.5647 H   0  0  0  0  0  0  0  0  0  0  0  0  # atno 10718 bound_to 10713
  153.4871  135.7017  153.5905 H   0  0  0  0  0  0  0  0  0  0  0  0  # atno 10763 bound_to 10752
  153.4093  135.3852  155.2040 H   0  0  0  0  0  0  0  0  0  0  0  0  # atno 10764 bound_to 10752
  154.8719  135.3900  154.4328 H   0  0  0  0  0  0  0  0  0  0  0  0  # atno 10765 bound_to 10752
  140.7610  134.3298  157.5101 H   0  0  0  0  0  0  0  0  0  0  0  0  # atno 11005 bound_to 11000
  145.3875  141.0367  143.3142 LP  0  0  0  0  0  0  0  0  0  0  0  0  # atno 17320 bound_to 7965
  144.8436  139.5433  143.6889 LP  0  0  0  0  0  0  0  0  0  0  0  0  # atno 17321 bound_to 7965
  139.4904  144.4351  151.9828 LP  0  0  0  0  0  0  0  0  0  0  0  0  # atno 17342 bound_to 10162
  140.3445  144.3163  150.5961 LP  0  0  0  0  0  0  0  0  0  0  0  0  # atno 17343 bound_to 10162
  156.0538  130.5603  150.9048 LP  0  0  0  0  0  0  0  0  0  0  0  0  # atno 17370 bound_to 10713
  157.5971  131.0942  150.9023 LP  0  0  0  0  0  0  0  0  0  0  0  0  # atno 17371 bound_to 10713
  139.8771  134.9202  156.3245 LP  0  0  0  0  0  0  0  0  0  0  0  0  # atno 17394 bound_to 11000
  140.9663  133.7356  156.0471 LP  0  0  0  0  0  0  0  0  0  0  0  0  # atno 17395 bound_to 11000

$$$$
