#       Name:                AV-unprocessed.smi:1381
#       Creating user name   scv26
#       Creation time:       Fri Mar 27 05:22:58 2020


#       File generated by GOLD software.
#

@<TRIPOS>MOLECULE
AV-unprocessed.smi:1381
    50    51     1
SMALL
NO_CHARGES


@<TRIPOS>ATOM
      1 ****        -6.1208   6.1859  -0.2442 C.3            1 S1                 0.0000
      2 ****        -5.2697   4.9652  -0.3201 C.2            1 S1                 0.0000
      3 ****        -3.9284   4.7564  -0.1662 C.2            1 S1                 0.0000
      4 ****        -3.7956   3.3569  -0.3698 C.2            1 S1                 0.0000
      5 ****        -2.5227   2.7331  -0.2885 N.am           1 S1                 0.0000
      6 ****        -2.2059   1.4361  -0.4551 C.2            1 S1                 0.0000
      7 ****        -3.0837   0.6084  -0.7276 O.2            1 S1                 0.0000
      8 ****        -0.8743   1.2083  -0.2882 N.pl3          1 S1                -1.0000
      9 ****        -0.2353  -0.0999  -0.4065 C.3            1 S1                 0.0000
     10 ****         1.1956  -0.0282   0.1604 C.3            1 S1                 0.0000
     11 ****         1.9079  -1.3287   0.0468 N.4            1 S1                 1.0000
     12 ****         3.3397  -1.1724  -0.3059 C.3            1 S1                 0.0000
     13 ****         4.0195  -2.5427  -0.4967 C.3            1 S1                 0.0000
     14 ****         3.6245  -3.2478  -1.8064 C.3            1 S1                 0.0000
     15 ****         3.8016  -3.3679   0.6479 O.3            1 S1                 0.0000
     16 ****         2.4324  -3.5633   0.9927 C.3            1 S1                 0.0000
     17 ****         2.3820  -4.4628   2.2323 C.3            1 S1                 0.0000
     18 ****         1.7695  -2.1978   1.2435 C.3            1 S1                 0.0000
     19 ****        -4.9533   2.7656  -0.6257 N.2            1 S1                 0.0000
     20 ****        -5.9037   3.7930  -0.5948 O.3            1 S1                 0.0000
     21 ****        -5.5228   7.0625   0.0058 H              1 S1                 0.0000
     22 ****        -6.8908   6.0730   0.5192 H              1 S1                 0.0000
     23 ****        -6.6131   6.3732  -1.1985 H              1 S1                 0.0000
     24 ****        -3.1659   5.4877   0.0569 H              1 S1                 0.0000
     25 ****        -1.7512   3.3468  -0.0736 H              1 S1                 0.0000
     26 ****        -0.7879  -0.8730   0.1289 H              1 S1                 0.0000
     27 ****        -0.1881  -0.4313  -1.4446 H              1 S1                 0.0000
     28 ****         1.7395   0.7355  -0.3982 H              1 S1                 0.0000
     29 ****         1.1904   0.3063   1.1993 H              1 S1                 0.0000
     30 ****         3.4407  -0.5797  -1.2160 H              1 S1                 0.0000
     31 ****         3.8414  -0.6189   0.4895 H              1 S1                 0.0000
     32 ****         5.0958  -2.3738  -0.5448 H              1 S1                 0.0000
     33 ****         3.9234  -2.6527  -2.6696 H              1 S1                 0.0000
     34 ****         2.5496  -3.4094  -1.8827 H              1 S1                 0.0000
     35 ****         4.1161  -4.2173  -1.8894 H              1 S1                 0.0000
     36 ****         1.9169  -4.0786   0.1822 H              1 S1                 0.0000
     37 ****         1.3525  -4.6612   2.5312 H              1 S1                 0.0000
     38 ****         2.8927  -4.0009   3.0777 H              1 S1                 0.0000
     39 ****         2.8618  -5.4221   2.0369 H              1 S1                 0.0000
     40 ****         2.2276  -1.7075   2.1041 H              1 S1                 0.0000
     41 ****         0.7161  -2.3436   1.4851 H              1 S1                 0.0000
     42 ****         1.4771  -1.8135  -0.7277 H              1 S1                 0.0000
     43 ****        -4.0347   0.9019  -0.8252 LP             1 S1                 0.0000
     44 ****        -2.8424  -0.3542  -0.8503 LP             1 S1                 0.0000
     45 ****        -0.2926   1.9917  -0.0692 LP             1 S1                 0.0000
     46 ****         4.2615  -2.9446   1.4285 LP             1 S1                 0.0000
     47 ****         4.2077  -4.2637   0.4673 LP             1 S1                 0.0000
     48 ****        -5.1137   1.7946  -0.8028 LP             1 S1                 0.0000
     49 ****        -6.3594   3.8568  -1.4827 LP             1 S1                 0.0000
     50 ****        -6.5820   3.6029   0.1150 LP             1 S1                 0.0000
@<TRIPOS>BOND
    1    1    2 1     
    2    1   21 1     
    3    1   22 1     
    4    1   23 1     
    5    2   20 1     
    6    2    3 2     
    7    3    4 1     
    8    3   24 1     
    9    4    5 1     
   10    4   19 2     
   11    5    6 am    
   12    5   25 1     
   13    6    7 2     
   14    6    8 1     
   15    8    9 1     
   16    9   10 1     
   17    9   26 1     
   18    9   27 1     
   19   10   11 1     
   20   10   28 1     
   21   10   29 1     
   22   11   18 1     
   23   11   12 1     
   24   11   42 1     
   25   12   13 1     
   26   12   30 1     
   27   12   31 1     
   28   13   14 1     
   29   13   15 1     
   30   13   32 1     
   31   14   33 1     
   32   14   34 1     
   33   14   35 1     
   34   15   16 1     
   35   16   17 1     
   36   16   18 1     
   37   16   36 1     
   38   17   37 1     
   39   17   38 1     
   40   17   39 1     
   41   18   40 1     
   42   18   41 1     
   43   19   20 1     
   44    7   43 1     
   45    7   44 1     
   46    8   45 1     
   47   15   46 1     
   48   15   47 1     
   49   19   48 1     
   50   20   49 1     
   51   20   50 1     
@<TRIPOS>SUBSTRUCTURE
      1 S1             1
@<TRIPOS>SET
LONE_PAIRS      STATIC     ATOMS    <user>   **** ""
8 43 44 45 46 47 48 49 50
DONOR_HYDROGENS      STATIC     ATOMS    <user>   **** ""
2 25 42
ATOM$BLUE        STATIC     ATOMS    COLORGROUP SYSTEM
8 43 44 45 46 47 48 49 50
ATOM$RED        STATIC     ATOMS    COLORGROUP SYSTEM
2 25 42
