AV-unprocessed.smi:1708|AV-procd|sdf|6890|dock2
  -GOLD-   22720 8 93D 1   1.00000     0.00000
 Structure written by MMmdl.
 36 38  0  0  0  0  0  0  0  0  1 V2000
  154.4918  141.4423  160.0383 C   0  0  0  0  0  0  0  0  0  0  0  0
  153.2001  141.6429  159.3931 N   0  0  0  0  0  0  0  0  0  0  0  0
  152.5624  140.7838  158.5641 C   0  0  0  0  0  0  0  0  0  0  0  0
  152.9702  139.6750  158.2190 O   0  0  0  0  0  0  0  0  0  0  0  0
  151.3889  141.3514  158.1935 N   0  0  0  0  0  0  0  0  0  0  0  0
  150.3534  140.7552  157.3475 C   0  0  0  0  0  0  0  0  0  0  0  0
  150.5779  141.0426  155.8467 C   0  0  1  0  0  0  0  0  0  0  0  0
  151.6223  140.2113  155.3852 O   0  0  0  0  0  0  0  0  0  0  0  0
  149.3105  140.8923  155.0157 C   0  0  0  0  0  0  0  0  0  0  0  0
  149.0735  139.7131  154.2759 C   0  0  0  0  0  0  0  0  0  0  0  0
  147.8858  139.5684  153.5331 C   0  0  0  0  0  0  0  0  0  0  0  0
  146.9285  140.6008  153.5265 C   0  0  0  0  0  0  0  0  0  0  0  0
  147.1589  141.7781  154.2636 C   0  0  0  0  0  0  0  0  0  0  0  0
  146.2368  142.7695  154.2615 F   0  0  0  0  0  0  0  0  0  0  0  0
  148.3468  141.9239  155.0055 C   0  0  0  0  0  0  0  0  0  0  0  0
  151.2765  142.6092  158.8029 C   0  0  0  0  0  0  0  0  0  0  0  0
  150.2609  143.5792  158.7424 C   0  0  0  0  0  0  0  0  0  0  0  0
  150.4528  144.7632  159.4924 C   0  0  0  0  0  0  0  0  0  0  0  0
  151.6267  144.9507  160.2680 C   0  0  0  0  0  0  0  0  0  0  0  0
  152.6335  143.9576  160.3107 C   0  0  0  0  0  0  0  0  0  0  0  0
  152.4161  142.7915  159.5571 C   0  0  0  0  0  0  0  0  0  0  0  0
  154.8395  140.4126  159.9448 H   0  0  0  0  0  0  0  0  0  0  0  0
  154.4260  141.6753  161.1012 H   0  0  0  0  0  0  0  0  0  0  0  0
  155.2402  142.0958  159.5897 H   0  0  0  0  0  0  0  0  0  0  0  0
  150.3256  139.6794  157.5245 H   0  0  0  0  0  0  0  0  0  0  0  0
  149.3761  141.1328  157.6532 H   0  0  0  0  0  0  0  0  0  0  0  0
  150.9327  142.0682  155.7383 H   0  0  0  0  0  0  0  0  0  0  0  0
  151.3008  139.3238  155.3404 H   0  0  0  0  0  0  0  0  0  0  0  0
  149.7979  138.9117  154.2846 H   0  0  0  0  0  0  0  0  0  0  0  0
  147.7078  138.6633  152.9714 H   0  0  0  0  0  0  0  0  0  0  0  0
  146.0170  140.4883  152.9585 H   0  0  0  0  0  0  0  0  0  0  0  0
  148.5104  142.8268  155.5753 H   0  0  0  0  0  0  0  0  0  0  0  0
  149.3704  143.4306  158.1502 H   0  0  0  0  0  0  0  0  0  0  0  0
  149.6965  145.5342  159.4743 H   0  0  0  0  0  0  0  0  0  0  0  0
  151.7530  145.8621  160.8331 H   0  0  0  0  0  0  0  0  0  0  0  0
  153.5291  144.0924  160.8991 H   0  0  0  0  0  0  0  0  0  0  0  0
  1  2  1  0  0  0  0
  1 22  1  0  0  0  0
  1 23  1  0  0  0  0
  1 24  1  0  0  0  0
  2 21  1  0  0  0  0
  2  3  1  0  0  0  0
  3  4  2  0  0  0  0
  3  5  1  0  0  0  0
  5  6  1  0  0  0  0
  5 16  1  0  0  0  0
  6  7  1  0  0  0  0
  6 25  1  0  0  0  0
  6 26  1  0  0  0  0
  7  8  1  0  0  0  0
  7  9  1  0  0  0  0
  7 27  1  0  0  0  0
  8 28  1  0  0  0  0
  9 15  1  0  0  0  0
  9 10  2  0  0  0  0
 10 11  1  0  0  0  0
 10 29  1  0  0  0  0
 11 12  2  0  0  0  0
 11 30  1  0  0  0  0
 12 13  1  0  0  0  0
 12 31  1  0  0  0  0
 13 14  1  0  0  0  0
 13 15  2  0  0  0  0
 15 32  1  0  0  0  0
 16 21  2  0  0  0  0
 16 17  1  0  0  0  0
 17 18  2  0  0  0  0
 17 33  1  0  0  0  0
 18 19  1  0  0  0  0
 18 34  1  0  0  0  0
 19 20  2  0  0  0  0
 19 35  1  0  0  0  0
 20 21  1  0  0  0  0
 20 36  1  0  0  0  0
M  END
> <s_m_source_file>
AV-unprocessed.smi

> <i_m_source_file_index>
1708

> <i_lp_mmshare_version>
43012

> <i_f3d_flags>
0

> <s_epik_input>
W2NIXTFbY0hdW2NIXVtjSF1jKGMxMiluKFtDSDNdKWMoPU8pbjJbQ0gyXVtDQEhdKFtPSF0pYzNbY0hdW2NIXVtjSF1jKEYpW2NIXTM=

> <s_epik_cmdline>
J2VwaWtfcHl0aG9uJywgJy1waCcsICc3LjAnLCAnLXRuJywgJzgnLCAnLW1hJywgJzIwMCcsICctbWV0YWxfYmluZGluZycsICctaW1hZScsICc8aW5maWxlLm1hZT4nLCAnLW9tYWUnLCAnPG91dGZpbGUubWFlPic=

> <r_lp_tautomer_probability>
1

> <r_epik_Ionization_Penalty>
3.53466e-06

> <r_epik_Ionization_Penalty_Charging>
2.57375e-09

> <r_epik_Ionization_Penalty_Neutral>
3.53208e-06

> <r_epik_State_Penalty>
-0

> <r_epik_Charging_Adjusted_Penalty>
2.57375e-09

> <i_epik_Tot_Q>
0

> <i_epik_Tot_abs_Q>
0

> <r_epik_Metal_State_Penalty>
-0

> <b_epik_Metal_Only>
0

> <s_lp_Force_Field>
OPLS_2005

> <r_lp_Energy>
40.1168

> <b_lp_Chiralities_Consistent>
1

> <s_lp_Variant>
AV-unprocessed.smi:1708-2

> <Gold.Version>
5.8.1

> <Gold.Id.Protein>
6NUR|6NUR_protein|mol2

> <Gold.PLP.Fitness>
52.5382

> <Gold.PLP.PLP>
-49.8162

> <Gold.PLP.part.hbond>
-2.0000

> <Gold.PLP.part.metal>
0.0000

> <Gold.PLP.part.buried>
-0.3199

> <Gold.PLP.part.nonpolar>
-47.7024

> <Gold.PLP.part.repulsive>
0.0000

> <Gold.PLP.ligand.clash>
0.0000

> <Gold.PLP.ligand.torsion>
1.1271

> <Gold.PLP.Chemscore.Hbond>
1.6480

> <Gold.PLP.Chemscore.CHOScore>
0.0000

> <Gold.PLP.Chemscore.Metal>
0.0000

> <Gold.Chemscore.Hbonds>
donor molecule, donor type, donor heavy atom, donor atom, acceptor molecule, acceptor atom, score
      P1  H  7989  7998       L1     8  0.78
      P1  H  7997  8010       L1     4  0.96

> <Gold.PLP.Chemscore.Internal.Correction>
0.0323

> <Gold.Rescore>
     Score         DG    S(hbond)    S(metal)    S(lipo)     H(rot)  DE(clash)    DE(int)     intcor
     16.46     -18.21       0.96        0.00     121.76       1.85       0.78       0.96       ----

> <Gold.Chemscore.Fitness>
16.4601

> <Gold.Chemscore.DG>
-18.2078

> <Gold.Chemscore.ZeroCoef>
-5.4800

> <Gold.Chemscore.Hbond>
0.9609

> <Gold.Chemscore.Metal>
0.0000

> <Gold.Chemscore.Lipo>
121.7564

> <Gold.Chemscore.Internal_Hbond>
0.0000

> <Gold.Chemscore.DEClash>
0.7840

> <Gold.Chemscore.DEInternal>
0.9638

> <Gold.Chemscore.Rot>
1.8465

> <Gold.Chemscore.Internal.Correction>
   9.000000E+99

> <Gold.Chemscore.Hbonds>
donor molecule, donor type, donor heavy atom, donor atom, acceptor molecule, acceptor atom, score
      P1  H  7989  7998       L1     8  0.07
      P1  H  7997  8010       L1     4  0.45

> <Gold.Chemscore.Hbond.Weighted>
-3.2093

> <Gold.Chemscore.Metal.Weighted>
-0.0000

> <Gold.Chemscore.Lipo.Weighted>
-14.2455

> <Gold.Chemscore.Internal_Hbond.Weighted>
0.0000

> <Gold.Chemscore.DEClash.Weighted>
0.7840

> <Gold.Chemscore.DEInternal.Weighted>
0.9638

> <Gold.Chemscore.Rot.Weighted>
4.7270

> <Gold.Chemscore.Internal.Correction.Weighted>
   9.000000E+99

> <Gold.Protein.RotatedTorsions>
[ 6907 6896 6895 6894 ] final  -38.65 input  -60.11 | X-H torsion
[ 7974 7965 7964 7962 ] final  -66.35 input  175.53 | X-H torsion
[ 8008 7997 7996 7995 ] final   43.38 input   59.86 | X-H torsion
[ 10167 10162 10161 10158 ] final   31.45 input  -65.29 | X-H torsion
[ 10718 10713 10712 10709 ] final   44.24 input   66.30 | X-H torsion
[ 10763 10752 10751 10750 ] final -140.04 input  -60.55 | X-H torsion
[ 11005 11000 10999 10996 ] final -150.27 input  -57.11 | X-H torsion

> <Gold.Protein.ActiveResidues>
 VAL166  LYS551  ARG553  GLY616  TRP617  ASP618  TYR619  PRO620  LYS621  CYS622 
 ASP623  PHE694  ASN695  SER759  ASP760  ASP761  ALA762  ILE779  LEU786  VAL792 
 PHE793  MET794  SER795  GLU796  ALA797  LYS798  CYS799  TRP800  GLU811  SER814 

> <Gold.Protein.RotatedAtoms>
  150.9999  134.9313  159.7947 H   0  0  0  0  0  0  0  0  0  0  0  0  # atno 6907 bound_to 6896
  152.5275  134.3168  159.9144 H   0  0  0  0  0  0  0  0  0  0  0  0  # atno 6908 bound_to 6896
  151.3174  133.4013  159.2686 H   0  0  0  0  0  0  0  0  0  0  0  0  # atno 6909 bound_to 6896
  145.7429  140.8945  143.0520 H   0  0  0  0  0  0  0  0  0  0  0  0  # atno 7974 bound_to 7965
  155.3017  140.3385  155.4247 H   0  0  0  0  0  0  0  0  0  0  0  0  # atno 8008 bound_to 7997
  156.1998  140.1728  156.7962 H   0  0  0  0  0  0  0  0  0  0  0  0  # atno 8009 bound_to 7997
  154.5544  140.0699  156.8704 H   0  0  0  0  0  0  0  0  0  0  0  0  # atno 8010 bound_to 7997
  140.4587  144.0939  150.6208 H   0  0  0  0  0  0  0  0  0  0  0  0  # atno 10167 bound_to 10162
  157.4247  130.7989  149.7547 H   0  0  0  0  0  0  0  0  0  0  0  0  # atno 10718 bound_to 10713
  154.8591  135.3565  154.5643 H   0  0  0  0  0  0  0  0  0  0  0  0  # atno 10763 bound_to 10752
  153.6258  135.7004  153.5298 H   0  0  0  0  0  0  0  0  0  0  0  0  # atno 10764 bound_to 10752
  153.3091  135.4184  155.1279 H   0  0  0  0  0  0  0  0  0  0  0  0  # atno 10765 bound_to 10752
  140.7420  134.3504  157.5145 H   0  0  0  0  0  0  0  0  0  0  0  0  # atno 11005 bound_to 11000
  144.6866  139.9485  143.7477 LP  0  0  0  0  0  0  0  0  0  0  0  0  # atno 17320 bound_to 7965
  146.0430  139.3440  143.0685 LP  0  0  0  0  0  0  0  0  0  0  0  0  # atno 17321 bound_to 7965
  140.4120  143.2652  151.9821 LP  0  0  0  0  0  0  0  0  0  0  0  0  # atno 17342 bound_to 10162
  139.4804  144.5907  151.7776 LP  0  0  0  0  0  0  0  0  0  0  0  0  # atno 17343 bound_to 10162
  155.9892  130.3953  150.3082 LP  0  0  0  0  0  0  0  0  0  0  0  0  # atno 17370 bound_to 10713
  157.1233  131.0252  151.3000 LP  0  0  0  0  0  0  0  0  0  0  0  0  # atno 17371 bound_to 10713
  139.8804  134.9087  156.2973 LP  0  0  0  0  0  0  0  0  0  0  0  0  # atno 17394 bound_to 11000
  140.9828  133.7256  156.0698 LP  0  0  0  0  0  0  0  0  0  0  0  0  # atno 17395 bound_to 11000

$$$$
