AV-unprocessed.smi:287|AV-procd|sdf|2202|dock10
  -GOLD-   2262022 23D 1   1.00000     0.00000
 Structure written by MMmdl.
 55 58  0  0  0  0  0  0  0  0  1 V2000
  142.1071  134.3228  162.8368 C   0  0  0  0  0  0  0  0  0  0  0  0
  143.5251  134.5680  162.4483 C   0  0  0  0  0  0  0  0  0  0  0  0
  144.2947  135.6897  162.3434 C   0  0  0  0  0  0  0  0  0  0  0  0
  145.5945  135.2776  161.9226 C   0  0  0  0  0  0  0  0  0  0  0  0
  146.7842  136.1929  161.6672 C   0  0  2  0  0  0  0  0  0  0  0  0
  147.2385  136.8346  162.9886 C   0  0  0  0  0  0  0  0  0  0  0  0
  146.4727  137.2753  160.8112 O   0  0  0  0  0  0  0  0  0  0  0  0
  147.9670  135.4527  161.0027 C   0  0  0  0  0  0  0  0  0  0  0  0
  147.9173  135.4924  159.5469 N   0  0  0  0  0  0  0  0  0  0  0  0
  148.8551  136.1535  158.8365 C   0  0  0  0  0  0  0  0  0  0  0  0
  149.8658  136.6868  159.5631 N   0  0  0  0  0  0  0  0  0  0  0  0
  150.8445  137.3633  158.9568 C   0  0  0  0  0  0  0  0  0  0  0  0
  150.9993  137.6187  157.6573 N   0  0  0  0  0  0  0  0  0  0  0  0
  149.9860  137.0855  156.9150 C   0  0  0  0  0  0  0  0  0  0  0  0
  148.8816  136.3409  157.4218 C   0  0  0  0  0  0  0  0  0  0  0  0
  148.0619  135.9622  156.3633 N   0  0  0  0  0  0  0  0  0  0  0  0
  148.6466  136.4540  155.3058 C   0  0  0  0  0  0  0  0  0  0  0  0
  149.8079  137.1508  155.5472 N   0  0  0  0  0  0  0  0  0  0  0  0
  150.6866  137.8315  154.5440 C   0  0  2  0  0  0  0  0  0  0  0  0
  151.9746  137.3169  154.6671 O   0  0  0  0  0  0  0  0  0  0  0  0
  152.9161  138.3538  154.4203 C   0  0  2  0  0  0  0  0  0  0  0  0
  154.3024  137.9834  154.9762 C   0  0  0  0  0  0  0  0  0  0  0  0
  154.2029  137.6559  156.3457 O   0  0  0  0  0  0  0  0  0  0  0  0
  152.2527  139.5864  155.0528 C   0  0  2  0  0  0  0  0  0  0  0  0
  152.5249  139.6563  156.4423 O   0  0  0  0  0  0  0  0  0  0  0  0
  150.7722  139.3594  154.7490 C   0  0  2  0  0  0  0  0  0  0  0  0
  149.8973  139.9005  155.7262 O   0  0  0  0  0  0  0  0  0  0  0  0
  145.5040  133.9123  161.7916 C   0  0  0  0  0  0  0  0  0  0  0  0
  146.4620  132.8437  161.3787 C   0  0  0  0  0  0  0  0  0  0  0  0
  144.2544  133.4743  162.1126 O   0  0  0  0  0  0  0  0  0  0  0  0
  150.2626  137.5601  153.5763 H   0  0  0  0  0  0  0  0  0  0  0  0
  152.9749  138.5169  153.3421 H   0  0  0  0  0  0  0  0  0  0  0  0
  152.6158  140.5090  154.5986 H   0  0  0  0  0  0  0  0  0  0  0  0
  150.5329  139.8193  153.7894 H   0  0  0  0  0  0  0  0  0  0  0  0
  141.6833  135.1955  163.3342 H   0  0  0  0  0  0  0  0  0  0  0  0
  142.0319  133.4761  163.5193 H   0  0  0  0  0  0  0  0  0  0  0  0
  141.4988  134.1057  161.9587 H   0  0  0  0  0  0  0  0  0  0  0  0
  143.9633  136.6970  162.5490 H   0  0  0  0  0  0  0  0  0  0  0  0
  147.5404  136.0765  163.7122 H   0  0  0  0  0  0  0  0  0  0  0  0
  146.4367  137.4192  163.4419 H   0  0  0  0  0  0  0  0  0  0  0  0
  148.0893  137.5005  162.8391 H   0  0  0  0  0  0  0  0  0  0  0  0
  145.5475  137.2496  160.6206 H   0  0  0  0  0  0  0  0  0  0  0  0
  148.9192  135.8468  161.3605 H   0  0  0  0  0  0  0  0  0  0  0  0
  147.9260  134.4032  161.2971 H   0  0  0  0  0  0  0  0  0  0  0  0
  147.1487  134.9934  159.1220 H   0  0  0  0  0  0  0  0  0  0  0  0
  151.6133  137.7571  159.6054 H   0  0  0  0  0  0  0  0  0  0  0  0
  148.2398  136.3253  154.3134 H   0  0  0  0  0  0  0  0  0  0  0  0
  154.6932  137.1066  154.4592 H   0  0  0  0  0  0  0  0  0  0  0  0
  155.0180  138.7939  154.8325 H   0  0  0  0  0  0  0  0  0  0  0  0
  154.9843  137.9570  156.7836 H   0  0  0  0  0  0  0  0  0  0  0  0
  151.8402  140.1635  156.8537 H   0  0  0  0  0  0  0  0  0  0  0  0
  149.0950  140.1611  155.3006 H   0  0  0  0  0  0  0  0  0  0  0  0
  146.9275  133.0896  160.4241 H   0  0  0  0  0  0  0  0  0  0  0  0
  145.9588  131.8830  161.2666 H   0  0  0  0  0  0  0  0  0  0  0  0
  147.2512  132.7255  162.1213 H   0  0  0  0  0  0  0  0  0  0  0  0
  1  2  1  0  0  0  0
  1 35  1  0  0  0  0
  1 36  1  0  0  0  0
  1 37  1  0  0  0  0
  2 30  1  0  0  0  0
  2  3  2  0  0  0  0
  3  4  1  0  0  0  0
  3 38  1  0  0  0  0
  4  5  1  0  0  0  0
  4 28  2  0  0  0  0
  5  6  1  0  0  0  0
  5  7  1  0  0  0  0
  5  8  1  0  0  0  0
  6 39  1  0  0  0  0
  6 40  1  0  0  0  0
  6 41  1  0  0  0  0
  7 42  1  0  0  0  0
  8  9  1  0  0  0  0
  8 43  1  0  0  0  0
  8 44  1  0  0  0  0
  9 10  1  0  0  0  0
  9 45  1  0  0  0  0
 10 15  1  0  0  0  0
 10 11  2  0  0  0  0
 11 12  1  0  0  0  0
 12 13  2  0  0  0  0
 12 46  1  0  0  0  0
 13 14  1  0  0  0  0
 14 18  1  0  0  0  0
 14 15  2  0  0  0  0
 15 16  1  0  0  0  0
 16 17  2  0  0  0  0
 17 18  1  0  0  0  0
 17 47  1  0  0  0  0
 18 19  1  0  0  0  0
 19 31  1  0  0  0  0
 19 26  1  0  0  0  0
 19 20  1  0  0  0  0
 20 21  1  0  0  0  0
 21 32  1  0  0  0  0
 21 22  1  0  0  0  0
 21 24  1  0  0  0  0
 22 23  1  0  0  0  0
 22 48  1  0  0  0  0
 22 49  1  0  0  0  0
 23 50  1  0  0  0  0
 24 33  1  0  0  0  0
 24 25  1  0  0  0  0
 24 26  1  0  0  0  0
 25 51  1  0  0  0  0
 26 34  1  0  0  0  0
 26 27  1  0  0  0  0
 27 52  1  0  0  0  0
 28 29  1  0  0  0  0
 28 30  1  0  0  0  0
 29 53  1  0  0  0  0
 29 54  1  0  0  0  0
 29 55  1  0  0  0  0
M  END
> <s_m_source_file>
AV-unprocessed.smi

> <i_m_source_file_index>
287

> <i_lp_mmshare_version>
43012

> <i_f3d_flags>
0

> <s_epik_input>
W0NIM11jMVtjSF1jKGMobzEpW0NIM10pW0NAQF0oW0NIM10pKFtPSF0pW0NIMl1bTkhdYyhuW2NIXW4yKWMoYzIzKW5bY0hdbjNbQ0BASF00T1tDQEhdKFtDSDJdW09IXSlbQ0BASF0oW09IXSlbQ0BIXTRbT0hd

> <s_epik_cmdline>
J2VwaWtfcHl0aG9uJywgJy1waCcsICc3LjAnLCAnLXRuJywgJzgnLCAnLW1hJywgJzIwMCcsICctbWV0YWxfYmluZGluZycsICctaW1hZScsICc8aW5maWxlLm1hZT4nLCAnLW9tYWUnLCAnPG91dGZpbGUubWFlPic=

> <r_lp_tautomer_probability>
1

> <r_epik_Ionization_Penalty>
0.000992612

> <r_epik_Ionization_Penalty_Charging>
0

> <r_epik_Ionization_Penalty_Neutral>
0.000992612

> <r_epik_State_Penalty>
-0

> <r_epik_Charging_Adjusted_Penalty>
0

> <i_epik_Tot_Q>
0

> <i_epik_Tot_abs_Q>
0

> <r_epik_Metal_State_Penalty>
-0

> <b_epik_Metal_Only>
0

> <s_epik_Chemistry_Notes>
This compound contains an acetal/aminal-like group ( X-CH(R)-Y where X, Y are N, S, or O) that may be acid/base labile, releasing an aldehyde.

> <s_lp_Force_Field>
OPLS_2005

> <r_lp_Energy>
48.118

> <b_lp_Chiralities_Consistent>
1

> <s_lp_Variant>
AV-unprocessed.smi:287-26

> <Gold.Version>
5.8.1

> <Gold.Id.Protein>
6NUR|6NUR_protein|mol2

> <Gold.PLP.Fitness>
54.1664

> <Gold.PLP.PLP>
-42.6397

> <Gold.PLP.part.hbond>
-5.4352

> <Gold.PLP.part.metal>
0.0000

> <Gold.PLP.part.buried>
-0.1095

> <Gold.PLP.part.nonpolar>
-36.5354

> <Gold.PLP.part.repulsive>
0.3232

> <Gold.PLP.ligand.clash>
0.0000

> <Gold.PLP.ligand.torsion>
0.8094

> <Gold.PLP.Chemscore.Hbond>
3.5870

> <Gold.PLP.Chemscore.CHOScore>
0.7635

> <Gold.PLP.Chemscore.Metal>
0.0000

> <Gold.Chemscore.Hbonds>
donor molecule, donor type, donor heavy atom, donor atom, acceptor molecule, acceptor atom, score
      P1  H  6896  6908       L1    11  0.59
      P1  H  6934  6947       L1     7  1.00
      P1  H  7997  8009       L1    25  0.80
      P1  H 10752 10765       L1    20  0.91
      L1  C    17    47       P1  7948  0.95

> <Gold.PLP.Chemscore.Internal.Correction>
0.0939

> <Gold.Rescore>
     Score         DG    S(hbond)    S(metal)    S(lipo)     H(rot)  DE(clash)    DE(int)     intcor
      7.57     -12.15       2.29        0.00     106.89       5.27       3.00       1.58       ----

> <Gold.Chemscore.Fitness>
7.5674

> <Gold.Chemscore.DG>
-12.1540

> <Gold.Chemscore.ZeroCoef>
-5.4800

> <Gold.Chemscore.Hbond>
2.2910

> <Gold.Chemscore.Metal>
0.0000

> <Gold.Chemscore.Lipo>
106.8893

> <Gold.Chemscore.Internal_Hbond>
0.0000

> <Gold.Chemscore.DEClash>
3.0027

> <Gold.Chemscore.DEInternal>
1.5840

> <Gold.Chemscore.Rot>
5.2672

> <Gold.Chemscore.Internal.Correction>
   9.000000E+99

> <Gold.Chemscore.Hbonds>
donor molecule, donor type, donor heavy atom, donor atom, acceptor molecule, acceptor atom, score
      P1  H  6896  6908       L1    11  0.01
      P1  H  6934  6947       L1     7  0.85
      P1  H  7997  8009       L1    25  0.12
      P1  H 10752 10765       L1    20  0.49

> <Gold.Chemscore.Hbond.Weighted>
-7.6519

> <Gold.Chemscore.Metal.Weighted>
-0.0000

> <Gold.Chemscore.Lipo.Weighted>
-12.5061

> <Gold.Chemscore.Internal_Hbond.Weighted>
0.0000

> <Gold.Chemscore.DEClash.Weighted>
3.0027

> <Gold.Chemscore.DEInternal.Weighted>
1.5840

> <Gold.Chemscore.Rot.Weighted>
13.4839

> <Gold.Chemscore.Internal.Correction.Weighted>
   9.000000E+99

> <Gold.Protein.RotatedTorsions>
[ 6907 6896 6895 6894 ] final -151.22 input  -60.11 | X-H torsion
[ 7974 7965 7964 7962 ] final   49.50 input  175.53 | X-H torsion
[ 8008 7997 7996 7995 ] final -157.96 input   59.86 | X-H torsion
[ 10167 10162 10161 10158 ] final   27.40 input  -65.29 | X-H torsion
[ 10718 10713 10712 10709 ] final  -38.17 input   66.30 | X-H torsion
[ 10763 10752 10751 10750 ] final  170.89 input  -60.55 | X-H torsion
[ 11005 11000 10999 10996 ] final  174.54 input  -57.11 | X-H torsion

> <Gold.Protein.ActiveResidues>
 VAL166  LYS551  ARG553  GLY616  TRP617  ASP618  TYR619  PRO620  LYS621  CYS622 
 ASP623  PHE694  ASN695  SER759  ASP760  ASP761  ALA762  ILE779  LEU786  VAL792 
 PHE793  MET794  SER795  GLU796  ALA797  LYS798  CYS799  TRP800  GLU811  SER814 

> <Gold.Protein.RotatedAtoms>
  151.2100  133.4561  159.2597 H   0  0  0  0  0  0  0  0  0  0  0  0  # atno 6907 bound_to 6896
  151.0986  134.9959  159.8448 H   0  0  0  0  0  0  0  0  0  0  0  0  # atno 6908 bound_to 6896
  152.5441  134.2028  159.8772 H   0  0  0  0  0  0  0  0  0  0  0  0  # atno 6909 bound_to 6896
  146.0103  139.4536  142.9960 H   0  0  0  0  0  0  0  0  0  0  0  0  # atno 7974 bound_to 7965
  155.7404  140.0813  157.2248 H   0  0  0  0  0  0  0  0  0  0  0  0  # atno 8008 bound_to 7997
  154.4022  140.1579  156.2664 H   0  0  0  0  0  0  0  0  0  0  0  0  # atno 8009 bound_to 7997
  155.9026  140.3409  155.6040 H   0  0  0  0  0  0  0  0  0  0  0  0  # atno 8010 bound_to 7997
  140.4941  144.0419  150.6308 H   0  0  0  0  0  0  0  0  0  0  0  0  # atno 10167 bound_to 10162
  156.3069  130.4247  149.8088 H   0  0  0  0  0  0  0  0  0  0  0  0  # atno 10718 bound_to 10713
  154.4041  135.2755  155.2078 H   0  0  0  0  0  0  0  0  0  0  0  0  # atno 10763 bound_to 10752
  154.4091  135.6026  153.5945 H   0  0  0  0  0  0  0  0  0  0  0  0  # atno 10764 bound_to 10752
  152.9831  135.5945  154.4314 H   0  0  0  0  0  0  0  0  0  0  0  0  # atno 10765 bound_to 10752
  140.3524  134.7184  157.4276 H   0  0  0  0  0  0  0  0  0  0  0  0  # atno 11005 bound_to 11000
  145.7352  141.0028  143.1330 LP  0  0  0  0  0  0  0  0  0  0  0  0  # atno 17320 bound_to 7965
  144.6950  139.9032  143.7459 LP  0  0  0  0  0  0  0  0  0  0  0  0  # atno 17321 bound_to 7965
  140.3697  143.2861  152.0292 LP  0  0  0  0  0  0  0  0  0  0  0  0  # atno 17342 bound_to 10162
  139.4857  144.6240  151.7201 LP  0  0  0  0  0  0  0  0  0  0  0  0  # atno 17343 bound_to 10162
  156.5446  130.8315  151.3280 LP  0  0  0  0  0  0  0  0  0  0  0  0  # atno 17370 bound_to 10713
  157.7381  130.9808  150.2235 LP  0  0  0  0  0  0  0  0  0  0  0  0  # atno 17371 bound_to 10713
  140.0692  134.5886  155.8660 LP  0  0  0  0  0  0  0  0  0  0  0  0  # atno 17394 bound_to 11000
  141.2008  133.6615  156.5917 LP  0  0  0  0  0  0  0  0  0  0  0  0  # atno 17395 bound_to 11000

$$$$
