AV-unprocessed.smi:284|AV-procd|sdf|2160|dock6
  -GOLD-   2262021513D 1   1.00000     0.00000
 Structure written by MMmdl.
 60 62  0  0  0  0  0  0  0  0  1 V2000
  149.2787  133.7600  156.1823 C   0  0  0  0  0  0  0  0  0  0  0  0
  149.0954  135.1557  155.6072 C   0  0  0  0  0  0  0  0  0  0  0  0
  147.8831  135.6250  155.2323 C   0  0  0  0  0  0  0  0  0  0  0  0
  147.6815  136.8876  154.7064 N   0  0  0  0  0  0  0  0  0  0  0  0
  146.3026  137.3598  154.3000 C   0  0  1  0  0  0  0  0  0  0  0  0
  146.2816  137.7328  152.8159 C   0  0  0  0  0  0  0  0  0  0  0  0
  145.6532  136.5034  152.1917 C   0  0  2  0  0  0  0  0  0  0  0  0
  144.9978  136.8290  150.9833 O   0  0  0  0  0  0  0  0  0  0  0  0
  144.6785  136.0544  153.2833 C   0  0  1  0  0  0  0  0  0  0  0  0
  144.3078  134.5649  153.2044 C   0  0  0  0  0  0  0  0  0  0  0  0
  143.5925  134.1811  154.3592 O   0  0  0  0  0  0  0  0  0  0  0  0
  145.3853  136.3226  154.4931 O   0  0  0  0  0  0  0  0  0  0  0  0
  148.7831  137.7449  154.5098 C   0  0  0  0  0  0  0  0  0  0  0  0
  148.6334  138.8647  154.0152 O   0  0  0  0  0  0  0  0  0  0  0  0
  150.0640  137.2852  154.8910 N   0  0  0  0  0  0  0  0  0  0  0  0
  151.2172  138.1961  154.7152 C   0  0  0  0  0  0  0  0  0  0  0  0
  150.9892  139.5862  155.3293 C   0  0  0  0  0  0  0  0  0  0  0  0
  150.4635  140.4790  154.6635 O   0  0  0  0  0  0  0  0  0  0  0  0
  151.3625  139.7119  156.6160 N   0  0  0  0  0  0  0  0  0  0  0  0
  151.3181  140.8602  157.4532 C   0  0  0  0  0  0  0  0  0  0  0  0
  151.8813  140.7416  158.7385 C   0  0  0  0  0  0  0  0  0  0  0  0
  151.8982  141.8384  159.6215 C   0  0  0  0  0  0  0  0  0  0  0  0
  151.3563  143.0890  159.2356 C   0  0  0  0  0  0  0  0  0  0  0  0
  151.3563  144.3135  160.1709 C   0  0  0  0  0  0  0  0  0  0  0  0
  152.0981  143.9676  161.4791 C   0  0  0  0  0  0  0  0  0  0  0  0
  149.9335  144.7825  160.5508 C   0  0  0  0  0  0  0  0  0  0  0  0
  152.0685  145.4935  159.4778 C   0  0  0  0  0  0  0  0  0  0  0  0
  150.8029  143.2025  157.9387 C   0  0  0  0  0  0  0  0  0  0  0  0
  150.7875  142.1083  157.0533 C   0  0  0  0  0  0  0  0  0  0  0  0
  150.2799  136.0044  155.4569 C   0  0  0  0  0  0  0  0  0  0  0  0
  151.4101  135.6499  155.7976 O   0  0  0  0  0  0  0  0  0  0  0  0
  148.3339  133.2192  156.2447 H   0  0  0  0  0  0  0  0  0  0  0  0
  149.6987  133.8137  157.1873 H   0  0  0  0  0  0  0  0  0  0  0  0
  149.9558  133.1763  155.5578 H   0  0  0  0  0  0  0  0  0  0  0  0
  147.0331  134.9702  155.3496 H   0  0  0  0  0  0  0  0  0  0  0  0
  146.0433  138.1875  154.9616 H   0  0  0  0  0  0  0  0  0  0  0  0
  145.6393  138.6067  152.6959 H   0  0  0  0  0  0  0  0  0  0  0  0
  147.2743  137.9697  152.4309 H   0  0  0  0  0  0  0  0  0  0  0  0
  146.4135  135.7421  152.0111 H   0  0  0  0  0  0  0  0  0  0  0  0
  144.2960  137.4326  151.1740 H   0  0  0  0  0  0  0  0  0  0  0  0
  143.7873  136.6847  153.2531 H   0  0  0  0  0  0  0  0  0  0  0  0
  143.6590  134.3853  152.3465 H   0  0  0  0  0  0  0  0  0  0  0  0
  145.1913  133.9389  153.0784 H   0  0  0  0  0  0  0  0  0  0  0  0
  143.1802  133.3468  154.1946 H   0  0  0  0  0  0  0  0  0  0  0  0
  152.1294  137.7814  155.1465 H   0  0  0  0  0  0  0  0  0  0  0  0
  151.4559  138.3047  153.6556 H   0  0  0  0  0  0  0  0  0  0  0  0
  151.6860  138.8663  157.0629 H   0  0  0  0  0  0  0  0  0  0  0  0
  152.3040  139.8002  159.0582 H   0  0  0  0  0  0  0  0  0  0  0  0
  152.3385  141.6876  160.5945 H   0  0  0  0  0  0  0  0  0  0  0  0
  152.0951  144.8103  162.1716 H   0  0  0  0  0  0  0  0  0  0  0  0
  153.1411  143.7041  161.3039 H   0  0  0  0  0  0  0  0  0  0  0  0
  151.6284  143.1251  161.9881 H   0  0  0  0  0  0  0  0  0  0  0  0
  149.3783  144.0038  161.0756 H   0  0  0  0  0  0  0  0  0  0  0  0
  149.3574  145.0774  159.6728 H   0  0  0  0  0  0  0  0  0  0  0  0
  149.9675  145.6484  161.2129 H   0  0  0  0  0  0  0  0  0  0  0  0
  152.0666  146.3836  160.1081 H   0  0  0  0  0  0  0  0  0  0  0  0
  151.5758  145.7554  158.5407 H   0  0  0  0  0  0  0  0  0  0  0  0
  153.1100  145.2678  159.2484 H   0  0  0  0  0  0  0  0  0  0  0  0
  150.3859  144.1405  157.6041 H   0  0  0  0  0  0  0  0  0  0  0  0
  150.3748  142.2591  156.0681 H   0  0  0  0  0  0  0  0  0  0  0  0
  1  2  1  0  0  0  0
  1 32  1  0  0  0  0
  1 33  1  0  0  0  0
  1 34  1  0  0  0  0
  2 30  1  0  0  0  0
  2  3  2  0  0  0  0
  3  4  1  0  0  0  0
  3 35  1  0  0  0  0
  4  5  1  0  0  0  0
  4 13  1  0  0  0  0
  5 12  1  0  0  0  0
  5  6  1  0  0  0  0
  5 36  1  0  0  0  0
  6  7  1  0  0  0  0
  6 37  1  0  0  0  0
  6 38  1  0  0  0  0
  7  8  1  0  0  0  0
  7  9  1  0  0  0  0
  7 39  1  0  0  0  0
  8 40  1  0  0  0  0
  9 10  1  0  0  0  0
  9 12  1  0  0  0  0
  9 41  1  0  0  0  0
 10 11  1  0  0  0  0
 10 42  1  0  0  0  0
 10 43  1  0  0  0  0
 11 44  1  0  0  0  0
 13 14  2  0  0  0  0
 13 15  1  0  0  0  0
 15 16  1  0  0  0  0
 15 30  1  0  0  0  0
 16 17  1  0  0  0  0
 16 45  1  0  0  0  0
 16 46  1  0  0  0  0
 17 18  2  0  0  0  0
 17 19  1  0  0  0  0
 19 20  1  0  0  0  0
 19 47  1  0  0  0  0
 20 29  1  0  0  0  0
 20 21  2  0  0  0  0
 21 22  1  0  0  0  0
 21 48  1  0  0  0  0
 22 23  2  0  0  0  0
 22 49  1  0  0  0  0
 23 24  1  0  0  0  0
 23 28  1  0  0  0  0
 24 25  1  0  0  0  0
 24 26  1  0  0  0  0
 24 27  1  0  0  0  0
 25 50  1  0  0  0  0
 25 51  1  0  0  0  0
 25 52  1  0  0  0  0
 26 53  1  0  0  0  0
 26 54  1  0  0  0  0
 26 55  1  0  0  0  0
 27 56  1  0  0  0  0
 27 57  1  0  0  0  0
 27 58  1  0  0  0  0
 28 29  2  0  0  0  0
 28 59  1  0  0  0  0
 29 60  1  0  0  0  0
 30 31  2  0  0  0  0
M  END
> <s_m_source_file>
AV-unprocessed.smi

> <i_m_source_file_index>
284

> <i_lp_mmshare_version>
43012

> <i_f3d_flags>
0

> <s_epik_input>
W09IXVtDSDJdW0NAQEhdKE8xKVtDQEhdKFtPSF0pW0NIMl1bQ0BIXTFuKFtjSF1jMltDSDNdKWMoPU8pbihjMj1PKVtDSDJdQyg9TylbTkhdYzNbY0hdW2NIXWMoQyhbQ0gzXSkoW0NIM10pW0NIM10pW2NIXVtjSF0z

> <s_epik_cmdline>
J2VwaWtfcHl0aG9uJywgJy1waCcsICc3LjAnLCAnLXRuJywgJzgnLCAnLW1hJywgJzIwMCcsICctbWV0YWxfYmluZGluZycsICctaW1hZScsICc8aW5maWxlLm1hZT4nLCAnLW9tYWUnLCAnPG91dGZpbGUubWFlPic=

> <r_lp_tautomer_probability>
1

> <r_epik_Ionization_Penalty>
4.92358e-06

> <r_epik_Ionization_Penalty_Charging>
1.29777e-07

> <r_epik_Ionization_Penalty_Neutral>
4.79381e-06

> <r_epik_State_Penalty>
-0

> <r_epik_Charging_Adjusted_Penalty>
1.29777e-07

> <i_epik_Tot_Q>
0

> <i_epik_Tot_abs_Q>
0

> <r_epik_Metal_State_Penalty>
-0

> <b_epik_Metal_Only>
0

> <s_epik_Chemistry_Notes>
This compound contains an acetal/aminal-like group ( X-CH(R)-Y where X, Y are N, S, or O) that may be acid/base labile, releasing an aldehyde.

> <s_lp_Force_Field>
OPLS_2005

> <r_lp_Energy>
39.3511

> <b_lp_Chiralities_Consistent>
1

> <s_lp_Variant>
AV-unprocessed.smi:284-4

> <Gold.Version>
5.8.1

> <Gold.Id.Protein>
6NUR|6NUR_protein|mol2

> <Gold.PLP.Fitness>
55.6868

> <Gold.PLP.PLP>
-46.6133

> <Gold.PLP.part.hbond>
-3.4934

> <Gold.PLP.part.metal>
0.0000

> <Gold.PLP.part.buried>
-5.4197

> <Gold.PLP.part.nonpolar>
-37.7673

> <Gold.PLP.part.repulsive>
0.4881

> <Gold.PLP.ligand.clash>
0.0000

> <Gold.PLP.ligand.torsion>
0.5366

> <Gold.PLP.Chemscore.Hbond>
3.3520

> <Gold.PLP.Chemscore.CHOScore>
0.0000

> <Gold.PLP.Chemscore.Metal>
0.0000

> <Gold.Chemscore.Hbonds>
donor molecule, donor type, donor heavy atom, donor atom, acceptor molecule, acceptor atom, score
      L1  H     8    40       P1 10171  0.30
      L1  H    11    44       P1 10957  0.99
      P1  H  7989  7998       L1    18  1.00
      P1  H 10752 10764       L1    31  1.00

> <Gold.PLP.Chemscore.Internal.Correction>
0.0908

> <Gold.Rescore>
     Score         DG    S(hbond)    S(metal)    S(lipo)     H(rot)  DE(clash)    DE(int)     intcor
     16.53     -22.92       3.40        0.00     123.74       3.27       0.21       6.18       ----

> <Gold.Chemscore.Fitness>
16.5309

> <Gold.Chemscore.DG>
-22.9232

> <Gold.Chemscore.ZeroCoef>
-5.4800

> <Gold.Chemscore.Hbond>
3.3969

> <Gold.Chemscore.Metal>
0.0000

> <Gold.Chemscore.Lipo>
123.7398

> <Gold.Chemscore.Internal_Hbond>
0.0000

> <Gold.Chemscore.DEClash>
0.2103

> <Gold.Chemscore.DEInternal>
6.1819

> <Gold.Chemscore.Rot>
3.2735

> <Gold.Chemscore.Internal.Correction>
   9.000000E+99

> <Gold.Chemscore.Hbonds>
donor molecule, donor type, donor heavy atom, donor atom, acceptor molecule, acceptor atom, score
      L1  H     8    40       P1 10171  0.30
      L1  H    11    44       P1 10957  0.94
      P1  H  7989  7998       L1    18  0.48
      P1  H 10752 10764       L1    31  0.99

> <Gold.Chemscore.Hbond.Weighted>
-11.3457

> <Gold.Chemscore.Metal.Weighted>
-0.0000

> <Gold.Chemscore.Lipo.Weighted>
-14.4776

> <Gold.Chemscore.Internal_Hbond.Weighted>
0.0000

> <Gold.Chemscore.DEClash.Weighted>
0.2103

> <Gold.Chemscore.DEInternal.Weighted>
6.1819

> <Gold.Chemscore.Rot.Weighted>
8.3801

> <Gold.Chemscore.Internal.Correction.Weighted>
   9.000000E+99

> <Gold.Protein.RotatedTorsions>
[ 6907 6896 6895 6894 ] final -171.73 input  -60.11 | X-H torsion
[ 7974 7965 7964 7962 ] final  -14.12 input  175.53 | X-H torsion
[ 8008 7997 7996 7995 ] final  129.70 input   59.86 | X-H torsion
[ 10167 10162 10161 10158 ] final  -63.05 input  -65.29 | X-H torsion
[ 10718 10713 10712 10709 ] final  123.28 input   66.30 | X-H torsion
[ 10763 10752 10751 10750 ] final  -51.74 input  -60.55 | X-H torsion
[ 11005 11000 10999 10996 ] final   45.11 input  -57.11 | X-H torsion

> <Gold.Protein.ActiveResidues>
 VAL166  LYS551  ARG553  GLY616  TRP617  ASP618  TYR619  PRO620  LYS621  CYS622 
 ASP623  PHE694  ASN695  SER759  ASP760  ASP761  ALA762  ILE779  LEU786  VAL792 
 PHE793  MET794  SER795  GLU796  ALA797  LYS798  CYS799  TRP800  GLU811  SER814 

> <Gold.Protein.RotatedAtoms>
  151.5286  133.3453  159.2913 H   0  0  0  0  0  0  0  0  0  0  0  0  # atno 6907 bound_to 6896
  150.8608  134.7961  159.7092 H   0  0  0  0  0  0  0  0  0  0  0  0  # atno 6908 bound_to 6896
  152.4628  134.5154  159.9818 H   0  0  0  0  0  0  0  0  0  0  0  0  # atno 6909 bound_to 6896
  146.2087  140.3303  142.8398 H   0  0  0  0  0  0  0  0  0  0  0  0  # atno 7974 bound_to 7965
  156.2941  140.2614  156.2641 H   0  0  0  0  0  0  0  0  0  0  0  0  # atno 8008 bound_to 7997
  154.9759  140.0390  157.2274 H   0  0  0  0  0  0  0  0  0  0  0  0  # atno 8009 bound_to 7997
  154.7816  140.2796  155.6064 H   0  0  0  0  0  0  0  0  0  0  0  0  # atno 8010 bound_to 7997
  140.5897  143.2339  151.6165 H   0  0  0  0  0  0  0  0  0  0  0  0  # atno 10167 bound_to 10162
  157.5677  131.1085  150.8424 H   0  0  0  0  0  0  0  0  0  0  0  0  # atno 10718 bound_to 10713
  154.1315  135.6519  153.4923 H   0  0  0  0  0  0  0  0  0  0  0  0  # atno 10763 bound_to 10752
  153.0194  135.5294  154.6996 H   0  0  0  0  0  0  0  0  0  0  0  0  # atno 10764 bound_to 10752
  154.6232  135.2967  155.0272 H   0  0  0  0  0  0  0  0  0  0  0  0  # atno 10765 bound_to 10752
  140.1490  134.4486  155.8395 H   0  0  0  0  0  0  0  0  0  0  0  0  # atno 11005 bound_to 11000
  144.8857  140.7459  143.5958 LP  0  0  0  0  0  0  0  0  0  0  0  0  # atno 17320 bound_to 7965
  145.3224  139.1784  143.4581 LP  0  0  0  0  0  0  0  0  0  0  0  0  # atno 17321 bound_to 7965
  139.5220  144.3176  152.0938 LP  0  0  0  0  0  0  0  0  0  0  0  0  # atno 17342 bound_to 10162
  140.2339  144.4340  150.6288 LP  0  0  0  0  0  0  0  0  0  0  0  0  # atno 17343 bound_to 10162
  156.8904  130.5211  149.5286 LP  0  0  0  0  0  0  0  0  0  0  0  0  # atno 17370 bound_to 10713
  156.0724  130.5754  150.9409 LP  0  0  0  0  0  0  0  0  0  0  0  0  # atno 17371 bound_to 10713
  141.2196  133.6864  156.7386 LP  0  0  0  0  0  0  0  0  0  0  0  0  # atno 17394 bound_to 11000
  140.2628  134.8453  157.3775 LP  0  0  0  0  0  0  0  0  0  0  0  0  # atno 17395 bound_to 11000

$$$$
