AV-unprocessed.smi:159|AV-procd|sdf|1342|dock8
  -GOLD-   2262019 43D 1   1.00000     0.00000
 Structure written by MMmdl.
 28 29  0  0  0  0  0  0  0  0  1 V2000
  147.7293  138.8181  152.7962 N   0  0  0  0  0  0  0  0  0  0  0  0
  148.5863  139.4264  153.6283 C   0  0  0  0  0  0  0  0  0  0  0  0
  148.2241  140.6709  154.2684 C   0  0  0  0  0  0  0  0  0  0  0  0
  149.1434  141.2247  155.0894 C   0  0  0  0  0  0  0  0  0  0  0  0
  150.3845  140.6436  155.3095 N   0  0  0  0  0  0  0  0  0  0  0  0
  151.3922  141.2840  156.2381 C   0  0  2  0  0  0  0  0  0  0  0  0
  151.6729  140.3702  157.4365 C   0  0  0  0  0  0  0  0  0  0  0  0
  150.8875  141.0465  158.5402 C   0  0  0  0  0  0  0  0  0  0  0  0
  150.9894  142.5183  158.1454 C   0  0  2  0  0  0  0  0  0  0  0  0
  149.8884  143.3933  158.7620 C   0  0  0  0  0  0  0  0  0  0  0  0
  150.1753  144.7580  158.5435 O   0  0  0  0  0  0  0  0  0  0  0  0
  150.8582  142.4794  156.7280 O   0  0  0  0  0  0  0  0  0  0  0  0
  150.7017  139.4127  154.6854 C   0  0  0  0  0  0  0  0  0  0  0  0
  151.7730  138.8399  154.8812 O   0  0  0  0  0  0  0  0  0  0  0  0
  149.7598  138.8683  153.8540 N   0  0  0  0  0  0  0  0  0  0  0  0
  152.2804  141.5133  155.6469 H   0  0  0  0  0  0  0  0  0  0  0  0
  151.9816  142.8898  158.4084 H   0  0  0  0  0  0  0  0  0  0  0  0
  147.9840  137.9474  152.3529 H   0  0  0  0  0  0  0  0  0  0  0  0
  146.8255  139.2321  152.6181 H   0  0  0  0  0  0  0  0  0  0  0  0
  147.2730  141.1618  154.1195 H   0  0  0  0  0  0  0  0  0  0  0  0
  148.8847  142.1505  155.5819 H   0  0  0  0  0  0  0  0  0  0  0  0
  151.3752  139.3372  157.2513 H   0  0  0  0  0  0  0  0  0  0  0  0
  152.7417  140.3971  157.6527 H   0  0  0  0  0  0  0  0  0  0  0  0
  149.8489  140.7135  158.5183 H   0  0  0  0  0  0  0  0  0  0  0  0
  151.2891  140.8444  159.5334 H   0  0  0  0  0  0  0  0  0  0  0  0
  148.9072  143.1407  158.3592 H   0  0  0  0  0  0  0  0  0  0  0  0
  149.8464  143.2375  159.8405 H   0  0  0  0  0  0  0  0  0  0  0  0
  149.3687  145.2059  158.3389 H   0  0  0  0  0  0  0  0  0  0  0  0
  1  2  1  0  0  0  0
  1 18  1  0  0  0  0
  1 19  1  0  0  0  0
  2 15  2  0  0  0  0
  2  3  1  0  0  0  0
  3  4  2  0  0  0  0
  3 20  1  0  0  0  0
  4  5  1  0  0  0  0
  4 21  1  0  0  0  0
  5  6  1  0  0  0  0
  5 13  1  0  0  0  0
  6 16  1  0  0  0  0
  6 12  1  0  0  0  0
  6  7  1  0  0  0  0
  7  8  1  0  0  0  0
  7 22  1  0  0  0  0
  7 23  1  0  0  0  0
  8  9  1  0  0  0  0
  8 24  1  0  0  0  0
  8 25  1  0  0  0  0
  9 17  1  0  0  0  0
  9 10  1  0  0  0  0
  9 12  1  0  0  0  0
 10 11  1  0  0  0  0
 10 26  1  0  0  0  0
 10 27  1  0  0  0  0
 11 28  1  0  0  0  0
 13 14  2  0  0  0  0
 13 15  1  0  0  0  0
M  END
> <s_m_source_file>
AV-unprocessed.smi

> <i_m_source_file_index>
159

> <i_lp_mmshare_version>
43012

> <i_f3d_flags>
0

> <s_epik_input>
W05IMl1jMVtjSF1bY0hdbihjKD1PKW4xKVtDQEhdMltDSDJdW0NIMl1bQ0BIXShPMilbQ0gyXVtPSF0=

> <s_epik_cmdline>
J2VwaWtfcHl0aG9uJywgJy1waCcsICc3LjAnLCAnLXRuJywgJzgnLCAnLW1hJywgJzIwMCcsICctbWV0YWxfYmluZGluZycsICctaW1hZScsICc8aW5maWxlLm1hZT4nLCAnLW9tYWUnLCAnPG91dGZpbGUubWFlPic=

> <r_lp_tautomer_probability>
0.99996

> <r_epik_Ionization_Penalty>
0.00126102

> <r_epik_Ionization_Penalty_Charging>
4.46248e-08

> <r_epik_Ionization_Penalty_Neutral>
0.00126097

> <r_epik_State_Penalty>
1.15523e-05

> <r_epik_Charging_Adjusted_Penalty>
1.1597e-05

> <i_epik_Tot_Q>
0

> <i_epik_Tot_abs_Q>
0

> <r_epik_Metal_State_Penalty>
-0

> <b_epik_Metal_Only>
0

> <s_epik_Chemistry_Notes>
This compound contains an acetal/aminal-like group ( X-CH(R)-Y where X, Y are N, S, or O) that may be acid/base labile, releasing an aldehyde.

> <s_lp_Force_Field>
OPLS_2005

> <r_lp_Energy>
25.8801

> <b_lp_Chiralities_Consistent>
1

> <s_lp_Variant>
AV-unprocessed.smi:159-4

> <Gold.Version>
5.8.1

> <Gold.Id.Protein>
6NUR|6NUR_protein|mol2

> <Gold.PLP.Fitness>
34.3088

> <Gold.PLP.PLP>
-25.4738

> <Gold.PLP.part.hbond>
-4.0000

> <Gold.PLP.part.metal>
0.0000

> <Gold.PLP.part.buried>
-1.0795

> <Gold.PLP.part.nonpolar>
-20.5057

> <Gold.PLP.part.repulsive>
1.0244

> <Gold.PLP.ligand.clash>
0.0000

> <Gold.PLP.ligand.torsion>
0.0890

> <Gold.PLP.Chemscore.Hbond>
2.0000

> <Gold.PLP.Chemscore.CHOScore>
1.0000

> <Gold.PLP.Chemscore.Metal>
0.0000

> <Gold.Chemscore.Hbonds>
donor molecule, donor type, donor heavy atom, donor atom, acceptor molecule, acceptor atom, score
      L1  H     1    18       P1  7948  1.00
      L1  H    11    28       P1  8029  1.00
      L1  C     4    21       P1  8028  0.91

> <Gold.PLP.Chemscore.Internal.Correction>
0.0130

> <Gold.Rescore>
     Score         DG    S(hbond)    S(metal)    S(lipo)     H(rot)  DE(clash)    DE(int)     intcor
      9.87     -10.77       1.92        0.00      36.21       2.09       0.03       0.86       ----

> <Gold.Chemscore.Fitness>
9.8708

> <Gold.Chemscore.DG>
-10.7655

> <Gold.Chemscore.ZeroCoef>
-5.4800

> <Gold.Chemscore.Hbond>
1.9188

> <Gold.Chemscore.Metal>
0.0000

> <Gold.Chemscore.Lipo>
36.2062

> <Gold.Chemscore.Internal_Hbond>
0.0000

> <Gold.Chemscore.DEClash>
0.0328

> <Gold.Chemscore.DEInternal>
0.8619

> <Gold.Chemscore.Rot>
2.0935

> <Gold.Chemscore.Internal.Correction>
   9.000000E+99

> <Gold.Chemscore.Hbonds>
donor molecule, donor type, donor heavy atom, donor atom, acceptor molecule, acceptor atom, score
      L1  H     1    18       P1  7948  0.95
      L1  H    11    28       P1  8029  0.64

> <Gold.Chemscore.Hbond.Weighted>
-6.4087

> <Gold.Chemscore.Metal.Weighted>
-0.0000

> <Gold.Chemscore.Lipo.Weighted>
-4.2361

> <Gold.Chemscore.Internal_Hbond.Weighted>
0.0000

> <Gold.Chemscore.DEClash.Weighted>
0.0328

> <Gold.Chemscore.DEInternal.Weighted>
0.8619

> <Gold.Chemscore.Rot.Weighted>
5.3594

> <Gold.Chemscore.Internal.Correction.Weighted>
   9.000000E+99

> <Gold.Protein.RotatedTorsions>
[ 6907 6896 6895 6894 ] final  -19.01 input  -60.11 | X-H torsion
[ 7974 7965 7964 7962 ] final  -82.04 input  175.53 | X-H torsion
[ 8008 7997 7996 7995 ] final  179.08 input   59.86 | X-H torsion
[ 10167 10162 10161 10158 ] final -134.02 input  -65.29 | X-H torsion
[ 10718 10713 10712 10709 ] final  123.22 input   66.30 | X-H torsion
[ 10763 10752 10751 10750 ] final  -27.93 input  -60.55 | X-H torsion
[ 11005 11000 10999 10996 ] final   76.53 input  -57.11 | X-H torsion

> <Gold.Protein.ActiveResidues>
 VAL166  LYS551  ARG553  GLY616  TRP617  ASP618  TYR619  PRO620  LYS621  CYS622 
 ASP623  PHE694  ASN695  SER759  ASP760  ASP761  ALA762  ILE779  LEU786  VAL792 
 PHE793  MET794  SER795  GLU796  ALA797  LYS798  CYS799  TRP800  GLU811  SER814 

> <Gold.Protein.RotatedAtoms>
  151.2695  135.0680  159.9128 H   0  0  0  0  0  0  0  0  0  0  0  0  # atno 6907 bound_to 6896
  152.5353  134.0145  159.7964 H   0  0  0  0  0  0  0  0  0  0  0  0  # atno 6908 bound_to 6896
  151.0381  133.5680  159.2685 H   0  0  0  0  0  0  0  0  0  0  0  0  # atno 6909 bound_to 6896
  145.5386  140.9512  143.1563 H   0  0  0  0  0  0  0  0  0  0  0  0  # atno 7974 bound_to 7965
  156.0475  140.1317  157.0088 H   0  0  0  0  0  0  0  0  0  0  0  0  # atno 8008 bound_to 7997
  154.4419  140.1017  156.6397 H   0  0  0  0  0  0  0  0  0  0  0  0  # atno 8009 bound_to 7997
  155.5574  140.3464  155.4485 H   0  0  0  0  0  0  0  0  0  0  0  0  # atno 8010 bound_to 7997
  139.8923  143.6707  152.2610 H   0  0  0  0  0  0  0  0  0  0  0  0  # atno 10167 bound_to 10162
  157.5682  131.1085  150.8416 H   0  0  0  0  0  0  0  0  0  0  0  0  # atno 10718 bound_to 10713
  153.7402  135.6933  153.4969 H   0  0  0  0  0  0  0  0  0  0  0  0  # atno 10763 bound_to 10752
  153.2075  135.4414  155.0339 H   0  0  0  0  0  0  0  0  0  0  0  0  # atno 10764 bound_to 10752
  154.8223  135.3428  154.6927 H   0  0  0  0  0  0  0  0  0  0  0  0  # atno 10765 bound_to 10752
  139.9294  134.7609  156.1408 H   0  0  0  0  0  0  0  0  0  0  0  0  # atno 11005 bound_to 11000
  144.7588  139.7007  143.7243 LP  0  0  0  0  0  0  0  0  0  0  0  0  # atno 17320 bound_to 7965
  146.1996  139.5283  142.9752 LP  0  0  0  0  0  0  0  0  0  0  0  0  # atno 17321 bound_to 7965
  139.7098  144.7622  151.1131 LP  0  0  0  0  0  0  0  0  0  0  0  0  # atno 17342 bound_to 10162
  140.7724  143.5346  150.9384 LP  0  0  0  0  0  0  0  0  0  0  0  0  # atno 17343 bound_to 10162
  156.8895  130.5207  149.5287 LP  0  0  0  0  0  0  0  0  0  0  0  0  # atno 17370 bound_to 10713
  156.0729  130.5758  150.9418 LP  0  0  0  0  0  0  0  0  0  0  0  0  # atno 17371 bound_to 10713
  141.0873  133.6729  156.2464 LP  0  0  0  0  0  0  0  0  0  0  0  0  # atno 17394 bound_to 11000
  140.6244  134.5328  157.5552 LP  0  0  0  0  0  0  0  0  0  0  0  0  # atno 17395 bound_to 11000

$$$$
