AV-unprocessed.smi:3112|AV-procd|sdf|11836|dock5
  -GOLD-   2272017213D 1   1.00000     0.00000
 Structure written by MMmdl.
 37 37  0  0  0  0  0  0  0  0  2 V2000
  145.9815  136.1584  152.9152 C   0  0  0  0  0  0  0  0  0  0  0  0
  145.4191  137.5208  152.4871 C   0  0  0  0  0  0  0  0  0  0  0  0
  146.5033  138.5935  152.2769 C   0  0  2  0  0  0  0  0  0  0  0  0
  147.3577  138.1807  151.2279 O   0  0  0  0  0  0  0  0  0  0  0  0
  147.3566  138.8027  153.5385 C   0  0  0  0  0  0  0  0  0  0  0  0
  148.7983  138.8064  153.2095 N   0  3  0  0  0  0  0  0  0  0  0  0
  149.7143  139.1364  154.3259 C   0  0  2  0  0  0  0  0  0  0  0  0
  149.9708  137.8568  155.1427 C   0  0  0  0  0  0  0  0  0  0  0  0
  149.1846  140.3341  155.1674 C   0  0  2  0  0  0  0  0  0  0  0  0
  148.7607  141.5344  154.2978 C   0  0  0  0  0  0  0  0  0  0  0  0
  150.1031  140.7287  156.2330 N   0  0  0  0  0  0  0  0  0  0  0  0
  150.6582  141.9740  156.4507 C   0  0  0  0  0  0  0  0  0  0  0  0
  151.4281  141.8914  157.5750 C   0  0  0  0  0  0  0  0  0  0  0  0
  151.2763  140.5394  157.9892 C   0  0  0  0  0  0  0  0  0  0  0  0
  150.4784  139.8497  157.1908 N   0  0  0  0  0  0  0  0  0  0  0  0
  145.1807  135.4269  153.0228 H   0  0  0  0  0  0  0  0  0  0  0  0
  146.4996  136.2223  153.8723 H   0  0  0  0  0  0  0  0  0  0  0  0
  146.6852  135.7724  152.1773 H   0  0  0  0  0  0  0  0  0  0  0  0
  144.8658  137.3840  151.5572 H   0  0  0  0  0  0  0  0  0  0  0  0
  144.6910  137.8640  153.2237 H   0  0  0  0  0  0  0  0  0  0  0  0
  146.0297  139.5351  151.9956 H   0  0  0  0  0  0  0  0  0  0  0  0
  148.2216  138.5304  151.3884 H   0  0  0  0  0  0  0  0  0  0  0  0
  147.1081  139.7601  153.9981 H   0  0  0  0  0  0  0  0  0  0  0  0
  147.1267  138.0293  154.2711 H   0  0  0  0  0  0  0  0  0  0  0  0
  149.0527  137.9010  152.8403 H   0  0  0  0  0  0  0  0  0  0  0  0
  150.6695  139.4266  153.8856 H   0  0  0  0  0  0  0  0  0  0  0  0
  150.6665  138.0322  155.9627 H   0  0  0  0  0  0  0  0  0  0  0  0
  150.4083  137.0797  154.5150 H   0  0  0  0  0  0  0  0  0  0  0  0
  149.0513  137.4508  155.5640 H   0  0  0  0  0  0  0  0  0  0  0  0
  148.2686  140.0163  155.6646 H   0  0  0  0  0  0  0  0  0  0  0  0
  148.0119  141.2381  153.5630 H   0  0  0  0  0  0  0  0  0  0  0  0
  149.5982  141.9728  153.7555 H   0  0  0  0  0  0  0  0  0  0  0  0
  148.3210  142.3218  154.9111 H   0  0  0  0  0  0  0  0  0  0  0  0
  150.4618  142.8088  155.7938 H   0  0  0  0  0  0  0  0  0  0  0  0
  152.0103  142.6775  158.0327 H   0  0  0  0  0  0  0  0  0  0  0  0
  151.7152  140.0434  158.8424 H   0  0  0  0  0  0  0  0  0  0  0  0
  148.9370  139.4942  152.4832 H   0  0  0  0  0  0  0  0  0  0  0  0
  1  2  1  0  0  0  0
  1 16  1  0  0  0  0
  1 17  1  0  0  0  0
  1 18  1  0  0  0  0
  2  3  1  0  0  0  0
  2 19  1  0  0  0  0
  2 20  1  0  0  0  0
  3  4  1  0  0  0  0
  3  5  1  0  0  0  0
  3 21  1  0  0  0  0
  4 22  1  0  0  0  0
  5  6  1  0  0  0  0
  5 23  1  0  0  0  0
  5 24  1  0  0  0  0
  6  7  1  0  0  0  0
  6 25  1  0  0  0  0
  6 37  1  0  0  0  0
  7  8  1  0  0  0  0
  7  9  1  0  0  0  0
  7 26  1  0  0  0  0
  8 27  1  0  0  0  0
  8 28  1  0  0  0  0
  8 29  1  0  0  0  0
  9 10  1  0  0  0  0
  9 11  1  0  0  0  0
  9 30  1  0  0  0  0
 10 31  1  0  0  0  0
 10 32  1  0  0  0  0
 10 33  1  0  0  0  0
 11 15  1  0  0  0  0
 11 12  1  0  0  0  0
 12 13  2  0  0  0  0
 12 34  1  0  0  0  0
 13 14  1  0  0  0  0
 13 35  1  0  0  0  0
 14 15  2  0  0  0  0
 14 36  1  0  0  0  0
M  CHG  1   6   1
M  END
> <s_m_source_file>
AV-unprocessed.smi

> <i_m_source_file_index>
3112

> <i_lp_mmshare_version>
43012

> <i_f3d_flags>
0

> <s_epik_input>
W0NIM11bQ0gyXVtDQEhdKFtPSF0pW0NIMl1bTkhdW0NASF0oW0NIM10pW0NASF0oW0NIM10pbjFbY0hdW2NIXVtjSF1uMQ==

> <s_epik_cmdline>
J2VwaWtfcHl0aG9uJywgJy1waCcsICc3LjAnLCAnLXRuJywgJzgnLCAnLW1hJywgJzIwMCcsICctbWV0YWxfYmluZGluZycsICctaW1hZScsICc8aW5maWxlLm1hZT4nLCAnLW9tYWUnLCAnPG91dGZpbGUubWFlPic=

> <r_lp_tautomer_probability>
1

> <r_epik_Ionization_Penalty>
0.0154842

> <r_epik_Ionization_Penalty_Charging>
0.0154724

> <r_epik_Ionization_Penalty_Neutral>
1.17979e-05

> <r_epik_State_Penalty>
0.0121607

> <r_epik_Charging_Adjusted_Penalty>
0.0276331

> <i_epik_Tot_Q>
1

> <i_epik_Tot_abs_Q>
1

> <r_epik_Metal_State_Penalty>
0.0121863

> <b_epik_Metal_Only>
0

> <s_lp_Force_Field>
OPLS_2005

> <r_lp_Energy>
12.3071

> <b_lp_Chiralities_Consistent>
1

> <s_lp_Variant>
AV-unprocessed.smi:3112-1

> <Gold.Version>
5.8.1

> <Gold.Id.Protein>
6NUR|6NUR_protein|mol2

> <Gold.PLP.Fitness>
42.4304

> <Gold.PLP.PLP>
-29.1574

> <Gold.PLP.part.hbond>
-4.8539

> <Gold.PLP.part.metal>
0.0000

> <Gold.PLP.part.buried>
-2.4147

> <Gold.PLP.part.nonpolar>
-22.9346

> <Gold.PLP.part.repulsive>
0.0881

> <Gold.PLP.ligand.clash>
0.0000

> <Gold.PLP.ligand.torsion>
0.9708

> <Gold.PLP.Chemscore.Hbond>
4.0000

> <Gold.PLP.Chemscore.CHOScore>
1.0000

> <Gold.PLP.Chemscore.Metal>
0.0000

> <Gold.Chemscore.Hbonds>
donor molecule, donor type, donor heavy atom, donor atom, acceptor molecule, acceptor atom, score
      L1  H     4    22       P1  7957  0.94
      L1  H     6    25       P1  7948  2.00
      L1  H     6    37       P1  7957  1.00
      L1  C    12    34       P1  8028  1.00

> <Gold.PLP.Chemscore.Internal.Correction>
0.2147

> <Gold.Rescore>
     Score         DG    S(hbond)    S(metal)    S(lipo)     H(rot)  DE(clash)    DE(int)     intcor
     14.12     -16.73       2.80        0.00      68.81       2.41       0.28       2.32       ----

> <Gold.Chemscore.Fitness>
14.1224

> <Gold.Chemscore.DG>
-16.7270

> <Gold.Chemscore.ZeroCoef>
-5.4800

> <Gold.Chemscore.Hbond>
2.8033

> <Gold.Chemscore.Metal>
0.0000

> <Gold.Chemscore.Lipo>
68.8093

> <Gold.Chemscore.Internal_Hbond>
0.0000

> <Gold.Chemscore.DEClash>
0.2835

> <Gold.Chemscore.DEInternal>
2.3211

> <Gold.Chemscore.Rot>
2.4089

> <Gold.Chemscore.Internal.Correction>
   9.000000E+99

> <Gold.Chemscore.Hbonds>
donor molecule, donor type, donor heavy atom, donor atom, acceptor molecule, acceptor atom, score
      L1  H     4    22       P1  7957  0.19
      L1  H     6    25       P1  7948  0.99
      L1  H     6    37       P1  7957  0.94

> <Gold.Chemscore.Hbond.Weighted>
-9.3630

> <Gold.Chemscore.Metal.Weighted>
-0.0000

> <Gold.Chemscore.Lipo.Weighted>
-8.0507

> <Gold.Chemscore.Internal_Hbond.Weighted>
0.0000

> <Gold.Chemscore.DEClash.Weighted>
0.2835

> <Gold.Chemscore.DEInternal.Weighted>
2.3211

> <Gold.Chemscore.Rot.Weighted>
6.1667

> <Gold.Chemscore.Internal.Correction.Weighted>
   9.000000E+99

> <Gold.Protein.RotatedTorsions>
[ 6907 6896 6895 6894 ] final   -2.62 input  -60.11 | X-H torsion
[ 7974 7965 7964 7962 ] final -100.40 input  175.53 | X-H torsion
[ 8008 7997 7996 7995 ] final  -20.63 input   59.86 | X-H torsion
[ 10167 10162 10161 10158 ] final  -34.96 input  -65.29 | X-H torsion
[ 10718 10713 10712 10709 ] final  -52.71 input   66.30 | X-H torsion
[ 10763 10752 10751 10750 ] final  173.51 input  -60.55 | X-H torsion
[ 11005 11000 10999 10996 ] final  169.62 input  -57.11 | X-H torsion

> <Gold.Protein.ActiveResidues>
 VAL166  LYS551  ARG553  GLY616  TRP617  ASP618  TYR619  PRO620  LYS621  CYS622 
 ASP623  PHE694  ASN695  SER759  ASP760  ASP761  ALA762  ILE779  LEU786  VAL792 
 PHE793  MET794  SER795  GLU796  ALA797  LYS798  CYS799  TRP800  GLU811  SER814 

> <Gold.Protein.RotatedAtoms>
  151.5270  135.1068  159.9892 H   0  0  0  0  0  0  0  0  0  0  0  0  # atno 6907 bound_to 6896
  152.4595  133.7789  159.6850 H   0  0  0  0  0  0  0  0  0  0  0  0  # atno 6908 bound_to 6896
  150.8552  133.7661  159.3036 H   0  0  0  0  0  0  0  0  0  0  0  0  # atno 6909 bound_to 6896
  145.2950  140.9362  143.2856 H   0  0  0  0  0  0  0  0  0  0  0  0  # atno 7974 bound_to 7965
  154.4757  140.2056  155.9884 H   0  0  0  0  0  0  0  0  0  0  0  0  # atno 8008 bound_to 7997
  156.1085  140.3233  155.8009 H   0  0  0  0  0  0  0  0  0  0  0  0  # atno 8009 bound_to 7997
  155.4676  140.0529  157.2974 H   0  0  0  0  0  0  0  0  0  0  0  0  # atno 8010 bound_to 7997
  140.7175  143.3511  151.2154 H   0  0  0  0  0  0  0  0  0  0  0  0  # atno 10167 bound_to 10162
  156.1598  130.4150  149.9812 H   0  0  0  0  0  0  0  0  0  0  0  0  # atno 10718 bound_to 10713
  154.4410  135.2762  155.1847 H   0  0  0  0  0  0  0  0  0  0  0  0  # atno 10763 bound_to 10752
  154.3714  135.6108  153.5745 H   0  0  0  0  0  0  0  0  0  0  0  0  # atno 10764 bound_to 10752
  152.9841  135.5858  154.4738 H   0  0  0  0  0  0  0  0  0  0  0  0  # atno 10765 bound_to 10752
  140.2997  134.7605  157.3906 H   0  0  0  0  0  0  0  0  0  0  0  0  # atno 11005 bound_to 11000
  144.9141  139.4492  143.6573 LP  0  0  0  0  0  0  0  0  0  0  0  0  # atno 17320 bound_to 7965
  146.3172  139.7965  142.8974 LP  0  0  0  0  0  0  0  0  0  0  0  0  # atno 17321 bound_to 7965
  139.7042  143.9483  152.2919 LP  0  0  0  0  0  0  0  0  0  0  0  0  # atno 17342 bound_to 10162
  139.9186  144.6813  150.8485 LP  0  0  0  0  0  0  0  0  0  0  0  0  # atno 17343 bound_to 10162
  156.7644  130.9163  151.3642 LP  0  0  0  0  0  0  0  0  0  0  0  0  # atno 17370 bound_to 10713
  157.6723  130.9062  150.0069 LP  0  0  0  0  0  0  0  0  0  0  0  0  # atno 17371 bound_to 10713
  140.1120  134.5332  155.8257 LP  0  0  0  0  0  0  0  0  0  0  0  0  # atno 17394 bound_to 11000
  141.2130  133.6728  156.6707 LP  0  0  0  0  0  0  0  0  0  0  0  0  # atno 17395 bound_to 11000

$$$$
