AV-unprocessed.smi:2684|AV-procd|sdf|10381|dock4
  -GOLD-   2272014413D 1   1.00000     0.00000
 Structure written by MMmdl.
 44 45  0  0  0  0  0  0  0  0  1 V2000
  143.8148  135.3096  153.6364 C   0  0  0  0  0  0  0  0  0  0  0  0
  144.9805  136.2373  153.4486 C   0  0  0  0  0  0  0  0  0  0  0  0
  146.2795  136.1338  154.0220 C   0  0  0  0  0  0  0  0  0  0  0  0
  147.0861  137.1142  153.6495 N   0  0  0  0  0  0  0  0  0  0  0  0
  146.3290  137.8849  152.8393 N   0  0  0  0  0  0  0  0  0  0  0  0
  146.8977  139.0735  152.2278 C   0  0  0  0  0  0  0  0  0  0  0  0
  147.0744  140.2606  153.2039 C   0  0  1  0  0  0  0  0  0  0  0  0
  146.2858  140.0167  154.4982 C   0  0  0  0  0  0  0  0  0  0  0  0
  148.4746  140.4307  153.5841 N   0  0  0  0  0  0  0  0  0  0  0  0
  148.7003  141.6162  154.4231 C   0  0  0  0  0  0  0  0  0  0  0  0
  149.9512  141.5037  155.3076 C   0  0  0  0  0  0  0  0  0  0  0  0
  150.7222  140.5540  155.1764 O   0  0  0  0  0  0  0  0  0  0  0  0
  150.1859  142.4564  156.2263 N   0  0  0  0  0  0  0  0  0  0  0  0
  151.3095  142.5337  157.1586 C   0  0  0  0  0  0  0  0  0  0  0  0
  151.0784  141.6081  158.3651 C   0  0  0  0  0  0  0  0  0  0  0  0
  152.1860  141.8000  159.4131 C   0  0  0  0  0  0  0  0  0  0  0  0
  152.2471  143.1653  159.8127 O   0  0  0  0  0  0  0  0  0  0  0  0
  152.5691  144.0457  158.7410 C   0  0  0  0  0  0  0  0  0  0  0  0
  151.4809  143.9761  157.6565 C   0  0  0  0  0  0  0  0  0  0  0  0
  145.0565  137.3742  152.6946 C   0  0  0  0  0  0  0  0  0  0  0  0
  144.1126  134.2653  153.5408 H   0  0  0  0  0  0  0  0  0  0  0  0
  143.0310  135.4884  152.9002 H   0  0  0  0  0  0  0  0  0  0  0  0
  143.3624  135.4260  154.6208 H   0  0  0  0  0  0  0  0  0  0  0  0
  146.6591  135.3757  154.6912 H   0  0  0  0  0  0  0  0  0  0  0  0
  147.8654  138.7928  151.8102 H   0  0  0  0  0  0  0  0  0  0  0  0
  146.2735  139.3649  151.3817 H   0  0  0  0  0  0  0  0  0  0  0  0
  146.6843  141.1769  152.7575 H   0  0  0  0  0  0  0  0  0  0  0  0
  145.2212  139.9031  154.2910 H   0  0  0  0  0  0  0  0  0  0  0  0
  146.3957  140.8519  155.1911 H   0  0  0  0  0  0  0  0  0  0  0  0
  146.6219  139.1130  155.0084 H   0  0  0  0  0  0  0  0  0  0  0  0
  149.0557  140.4351  152.7584 H   0  0  0  0  0  0  0  0  0  0  0  0
  148.7943  142.4957  153.7912 H   0  0  0  0  0  0  0  0  0  0  0  0
  147.8370  141.7701  155.0720 H   0  0  0  0  0  0  0  0  0  0  0  0
  149.5077  143.2019  156.2898 H   0  0  0  0  0  0  0  0  0  0  0  0
  152.2367  142.2472  156.6603 H   0  0  0  0  0  0  0  0  0  0  0  0
  150.1119  141.8268  158.8214 H   0  0  0  0  0  0  0  0  0  0  0  0
  151.0424  140.5659  158.0496 H   0  0  0  0  0  0  0  0  0  0  0  0
  151.9815  141.1869  160.2906 H   0  0  0  0  0  0  0  0  0  0  0  0
  153.1519  141.4797  159.0196 H   0  0  0  0  0  0  0  0  0  0  0  0
  152.6452  145.0610  159.1306 H   0  0  0  0  0  0  0  0  0  0  0  0
  153.5463  143.7901  158.3286 H   0  0  0  0  0  0  0  0  0  0  0  0
  151.7379  144.6354  156.8268 H   0  0  0  0  0  0  0  0  0  0  0  0
  150.5398  144.3434  158.0687 H   0  0  0  0  0  0  0  0  0  0  0  0
  144.3164  137.8588  152.0748 H   0  0  0  0  0  0  0  0  0  0  0  0
  1  2  1  0  0  0  0
  1 21  1  0  0  0  0
  1 22  1  0  0  0  0
  1 23  1  0  0  0  0
  2 20  2  0  0  0  0
  2  3  1  0  0  0  0
  3  4  2  0  0  0  0
  3 24  1  0  0  0  0
  4  5  1  0  0  0  0
  5  6  1  0  0  0  0
  5 20  1  0  0  0  0
  6  7  1  0  0  0  0
  6 25  1  0  0  0  0
  6 26  1  0  0  0  0
  7  8  1  0  0  0  0
  7  9  1  0  0  0  0
  7 27  1  0  0  0  0
  8 28  1  0  0  0  0
  8 29  1  0  0  0  0
  8 30  1  0  0  0  0
  9 10  1  0  0  0  0
  9 31  1  0  0  0  0
 10 11  1  0  0  0  0
 10 32  1  0  0  0  0
 10 33  1  0  0  0  0
 11 12  2  0  0  0  0
 11 13  1  0  0  0  0
 13 14  1  0  0  0  0
 13 34  1  0  0  0  0
 14 19  1  0  0  0  0
 14 15  1  0  0  0  0
 14 35  1  0  0  0  0
 15 16  1  0  0  0  0
 15 36  1  0  0  0  0
 15 37  1  0  0  0  0
 16 17  1  0  0  0  0
 16 38  1  0  0  0  0
 16 39  1  0  0  0  0
 17 18  1  0  0  0  0
 18 19  1  0  0  0  0
 18 40  1  0  0  0  0
 18 41  1  0  0  0  0
 19 42  1  0  0  0  0
 19 43  1  0  0  0  0
 20 44  1  0  0  0  0
M  END
> <s_m_source_file>
AV-unprocessed.smi

> <i_m_source_file_index>
2684

> <i_lp_mmshare_version>
43012

> <i_f3d_flags>
0

> <s_epik_input>
W0NIM11jMVtjSF1ubihbY0hdMSlbQ0gyXVtDQEhdKFtDSDNdKVtOSF1bQ0gyXUMoPU8pW05IXVtDSF0yW0NIMl1bQ0gyXU9bQ0gyXVtDSDJdMg==

> <s_epik_cmdline>
J2VwaWtfcHl0aG9uJywgJy1waCcsICc3LjAnLCAnLXRuJywgJzgnLCAnLW1hJywgJzIwMCcsICctbWV0YWxfYmluZGluZycsICctaW1hZScsICc8aW5maWxlLm1hZT4nLCAnLW9tYWUnLCAnPG91dGZpbGUubWFlPic=

> <r_lp_tautomer_probability>
1

> <r_epik_Ionization_Penalty>
0.968507

> <r_epik_Ionization_Penalty_Charging>
0

> <r_epik_Ionization_Penalty_Neutral>
0.968507

> <r_epik_State_Penalty>
1.01412

> <r_epik_Charging_Adjusted_Penalty>
1.01412

> <i_epik_Tot_Q>
0

> <i_epik_Tot_abs_Q>
0

> <r_epik_Metal_State_Penalty>
1.01401

> <b_epik_Metal_Only>
0

> <s_lp_Force_Field>
OPLS_2005

> <r_lp_Energy>
12.4601

> <b_lp_Chiralities_Consistent>
1

> <s_lp_Variant>
AV-unprocessed.smi:2684-4

> <Gold.Version>
5.8.1

> <Gold.Id.Protein>
6NUR|6NUR_protein|mol2

> <Gold.PLP.Fitness>
47.8127

> <Gold.PLP.PLP>
-35.8624

> <Gold.PLP.part.hbond>
-3.0000

> <Gold.PLP.part.metal>
0.0000

> <Gold.PLP.part.buried>
-4.0414

> <Gold.PLP.part.nonpolar>
-29.1579

> <Gold.PLP.part.repulsive>
0.9513

> <Gold.PLP.ligand.clash>
0.0000

> <Gold.PLP.ligand.torsion>
1.2918

> <Gold.PLP.Chemscore.Hbond>
2.9920

> <Gold.PLP.Chemscore.CHOScore>
1.8372

> <Gold.PLP.Chemscore.Metal>
0.0000

> <Gold.Chemscore.Hbonds>
donor molecule, donor type, donor heavy atom, donor atom, acceptor molecule, acceptor atom, score
      L1  H     9    31       P1  7957  1.00
      L1  H    13    34       P1  8028  0.98
      P1  H  7989  7998       L1    12  0.98
      L1  C    20    44       P1 10171  1.00
      L1  C    20    44       P1 10175  0.51

> <Gold.PLP.Chemscore.Internal.Correction>
0.0463

> <Gold.Rescore>
     Score         DG    S(hbond)    S(metal)    S(lipo)     H(rot)  DE(clash)    DE(int)     intcor
     17.14     -19.38       2.59        0.00      87.95       1.97       0.50       1.74       ----

> <Gold.Chemscore.Fitness>
17.1431

> <Gold.Chemscore.DG>
-19.3802

> <Gold.Chemscore.ZeroCoef>
-5.4800

> <Gold.Chemscore.Hbond>
2.5934

> <Gold.Chemscore.Metal>
0.0000

> <Gold.Chemscore.Lipo>
87.9528

> <Gold.Chemscore.Internal_Hbond>
0.0000

> <Gold.Chemscore.DEClash>
0.4996

> <Gold.Chemscore.DEInternal>
1.7376

> <Gold.Chemscore.Rot>
1.9736

> <Gold.Chemscore.Internal.Correction>
   9.000000E+99

> <Gold.Chemscore.Hbonds>
donor molecule, donor type, donor heavy atom, donor atom, acceptor molecule, acceptor atom, score
      L1  H     9    31       P1  7957  0.99
      L1  H    13    34       P1  8028  0.93
      P1  H  7989  7998       L1    12  0.46

> <Gold.Chemscore.Hbond.Weighted>
-8.6621

> <Gold.Chemscore.Metal.Weighted>
-0.0000

> <Gold.Chemscore.Lipo.Weighted>
-10.2905

> <Gold.Chemscore.Internal_Hbond.Weighted>
0.0000

> <Gold.Chemscore.DEClash.Weighted>
0.4996

> <Gold.Chemscore.DEInternal.Weighted>
1.7376

> <Gold.Chemscore.Rot.Weighted>
5.0523

> <Gold.Chemscore.Internal.Correction.Weighted>
   9.000000E+99

> <Gold.Protein.RotatedTorsions>
[ 6907 6896 6895 6894 ] final  154.13 input  -60.11 | X-H torsion
[ 7974 7965 7964 7962 ] final  111.48 input  175.53 | X-H torsion
[ 8008 7997 7996 7995 ] final -169.37 input   59.86 | X-H torsion
[ 10167 10162 10161 10158 ] final    9.52 input  -65.29 | X-H torsion
[ 10718 10713 10712 10709 ] final  -55.93 input   66.30 | X-H torsion
[ 10763 10752 10751 10750 ] final -138.07 input  -60.55 | X-H torsion
[ 11005 11000 10999 10996 ] final  147.06 input  -57.11 | X-H torsion

> <Gold.Protein.ActiveResidues>
 VAL166  LYS551  ARG553  GLY616  TRP617  ASP618  TYR619  PRO620  LYS621  CYS622 
 ASP623  PHE694  ASN695  SER759  ASP760  ASP761  ALA762  ILE779  LEU786  VAL792 
 PHE793  MET794  SER795  GLU796  ALA797  LYS798  CYS799  TRP800  GLU811  SER814 

> <Gold.Protein.RotatedAtoms>
  152.0629  133.4070  159.4425 H   0  0  0  0  0  0  0  0  0  0  0  0  # atno 6907 bound_to 6896
  150.6865  134.3179  159.4783 H   0  0  0  0  0  0  0  0  0  0  0  0  # atno 6908 bound_to 6896
  152.1003  134.9346  160.0620 H   0  0  0  0  0  0  0  0  0  0  0  0  # atno 6909 bound_to 6896
  145.2417  139.2776  143.4114 H   0  0  0  0  0  0  0  0  0  0  0  0  # atno 7974 bound_to 7965
  155.9040  140.1046  157.1329 H   0  0  0  0  0  0  0  0  0  0  0  0  # atno 8008 bound_to 7997
  154.4030  140.1287  156.4536 H   0  0  0  0  0  0  0  0  0  0  0  0  # atno 8009 bound_to 7997
  155.7389  140.3467  155.5097 H   0  0  0  0  0  0  0  0  0  0  0  0  # atno 8010 bound_to 7997
  140.6250  143.8121  150.7222 H   0  0  0  0  0  0  0  0  0  0  0  0  # atno 10167 bound_to 10162
  156.1329  130.4158  150.0237 H   0  0  0  0  0  0  0  0  0  0  0  0  # atno 10718 bound_to 10713
  154.8646  135.3623  154.5325 H   0  0  0  0  0  0  0  0  0  0  0  0  # atno 10763 bound_to 10752
  153.5950  135.7014  153.5412 H   0  0  0  0  0  0  0  0  0  0  0  0  # atno 10764 bound_to 10752
  153.3340  135.4116  155.1480 H   0  0  0  0  0  0  0  0  0  0  0  0  # atno 10765 bound_to 10752
  140.0844  134.9078  157.1553 H   0  0  0  0  0  0  0  0  0  0  0  0  # atno 11005 bound_to 11000
  146.3326  140.2783  142.8609 LP  0  0  0  0  0  0  0  0  0  0  0  0  # atno 17320 bound_to 7965
  144.9582  140.8249  143.5529 LP  0  0  0  0  0  0  0  0  0  0  0  0  # atno 17321 bound_to 7965
  140.1719  143.4187  152.1994 LP  0  0  0  0  0  0  0  0  0  0  0  0  # atno 17342 bound_to 10162
  139.5472  144.7308  151.4547 LP  0  0  0  0  0  0  0  0  0  0  0  0  # atno 17343 bound_to 10162
  156.8144  130.9336  151.3643 LP  0  0  0  0  0  0  0  0  0  0  0  0  # atno 17370 bound_to 10713
  157.6505  130.8880  149.9623 LP  0  0  0  0  0  0  0  0  0  0  0  0  # atno 17371 bound_to 10713
  140.3441  134.2671  155.7208 LP  0  0  0  0  0  0  0  0  0  0  0  0  # atno 17394 bound_to 11000
  141.2058  133.7851  157.0214 LP  0  0  0  0  0  0  0  0  0  0  0  0  # atno 17395 bound_to 11000

$$$$
