AV-unprocessed.smi:2466|AV-procd|sdf|9724|dock4
  -GOLD-   2272013363D 1   1.00000     0.00000
 Structure written by MMmdl.
 36 37  0  0  0  0  0  0  0  0  1 V2000
  154.1588  137.5141  157.2451 C   0  0  0  0  0  0  0  0  0  0  0  0
  153.5040  137.3445  155.9929 O   0  0  0  0  0  0  0  0  0  0  0  0
  152.5355  138.2594  155.6351 C   0  0  0  0  0  0  0  0  0  0  0  0
  151.4717  137.8500  154.8053 C   0  0  0  0  0  0  0  0  0  0  0  0
  150.4991  138.8169  154.4651 C   0  0  0  0  0  0  0  0  0  0  0  0
  149.4424  138.3614  153.6330 N   0  0  0  0  0  0  0  0  0  0  0  0
  148.1713  138.7977  153.5931 C   0  0  0  0  0  0  0  0  0  0  0  0
  147.7100  139.7081  154.2820 O   0  0  0  0  0  0  0  0  0  0  0  0
  147.4520  138.1107  152.6931 N   0  0  0  0  0  0  0  0  0  0  0  0
  146.0345  138.3126  152.4003 C   0  0  0  0  0  0  0  0  0  0  0  0
  145.2351  137.0006  152.4439 C   0  0  0  0  0  0  0  0  0  0  0  0
  145.5955  136.1685  151.2039 C   0  0  0  0  0  0  0  0  0  0  0  0
  145.2655  136.2329  153.7832 C   0  0  0  0  0  0  0  0  0  0  0  0
  143.7729  135.9454  153.6323 C   0  0  0  0  0  0  0  0  0  0  0  0
  143.7200  137.1540  152.6991 C   0  0  0  0  0  0  0  0  0  0  0  0
  150.6133  140.0847  154.9324 N   0  0  0  0  0  0  0  0  0  0  0  0
  151.6583  140.3727  155.7106 C   0  0  0  0  0  0  0  0  0  0  0  0
  152.6234  139.5335  156.0881 N   0  0  0  0  0  0  0  0  0  0  0  0
  154.8907  136.7178  157.3805 H   0  0  0  0  0  0  0  0  0  0  0  0
  153.4526  137.4583  158.0747 H   0  0  0  0  0  0  0  0  0  0  0  0
  154.6916  138.4650  157.2916 H   0  0  0  0  0  0  0  0  0  0  0  0
  151.4083  136.8321  154.4489 H   0  0  0  0  0  0  0  0  0  0  0  0
  149.6787  137.6083  153.0042 H   0  0  0  0  0  0  0  0  0  0  0  0
  147.9190  137.3846  152.1698 H   0  0  0  0  0  0  0  0  0  0  0  0
  145.6549  139.0083  153.1490 H   0  0  0  0  0  0  0  0  0  0  0  0
  145.8953  138.8173  151.4426 H   0  0  0  0  0  0  0  0  0  0  0  0
  144.9572  135.2902  151.1067 H   0  0  0  0  0  0  0  0  0  0  0  0
  146.6232  135.8069  151.2431 H   0  0  0  0  0  0  0  0  0  0  0  0
  145.4841  136.7467  150.2862 H   0  0  0  0  0  0  0  0  0  0  0  0
  145.8998  135.3458  153.7881 H   0  0  0  0  0  0  0  0  0  0  0  0
  145.4795  136.8752  154.6396 H   0  0  0  0  0  0  0  0  0  0  0  0
  143.5685  135.0023  153.1234 H   0  0  0  0  0  0  0  0  0  0  0  0
  143.1916  136.0486  154.5491 H   0  0  0  0  0  0  0  0  0  0  0  0
  143.4640  138.0737  153.2284 H   0  0  0  0  0  0  0  0  0  0  0  0
  143.0903  137.0194  151.8190 H   0  0  0  0  0  0  0  0  0  0  0  0
  151.7288  141.3879  156.0721 H   0  0  0  0  0  0  0  0  0  0  0  0
  1  2  1  0  0  0  0
  1 19  1  0  0  0  0
  1 20  1  0  0  0  0
  1 21  1  0  0  0  0
  2  3  1  0  0  0  0
  3 18  1  0  0  0  0
  3  4  2  0  0  0  0
  4  5  1  0  0  0  0
  4 22  1  0  0  0  0
  5  6  1  0  0  0  0
  5 16  2  0  0  0  0
  6  7  1  0  0  0  0
  6 23  1  0  0  0  0
  7  8  2  0  0  0  0
  7  9  1  0  0  0  0
  9 10  1  0  0  0  0
  9 24  1  0  0  0  0
 10 11  1  0  0  0  0
 10 25  1  0  0  0  0
 10 26  1  0  0  0  0
 11 15  1  0  0  0  0
 11 12  1  0  0  0  0
 11 13  1  0  0  0  0
 12 27  1  0  0  0  0
 12 28  1  0  0  0  0
 12 29  1  0  0  0  0
 13 14  1  0  0  0  0
 13 30  1  0  0  0  0
 13 31  1  0  0  0  0
 14 15  1  0  0  0  0
 14 32  1  0  0  0  0
 14 33  1  0  0  0  0
 15 34  1  0  0  0  0
 15 35  1  0  0  0  0
 16 17  1  0  0  0  0
 17 18  2  0  0  0  0
 17 36  1  0  0  0  0
M  END
> <s_m_source_file>
AV-unprocessed.smi

> <i_m_source_file_index>
2466

> <i_lp_mmshare_version>
43012

> <i_f3d_flags>
0

> <s_epik_input>
W0NIM11PYzFbY0hdYyhuW2NIXW4xKVtOSF1DKD1PKVtOSF1bQ0gyXUMyKFtDSDNdKVtDSDJdW0NIMl1bQ0gyXTI=

> <s_epik_cmdline>
J2VwaWtfcHl0aG9uJywgJy1waCcsICc3LjAnLCAnLXRuJywgJzgnLCAnLW1hJywgJzIwMCcsICctbWV0YWxfYmluZGluZycsICctaW1hZScsICc8aW5maWxlLm1hZT4nLCAnLW9tYWUnLCAnPG91dGZpbGUubWFlPic=

> <r_lp_tautomer_probability>
1

> <r_epik_Ionization_Penalty>
2.72078e-05

> <r_epik_Ionization_Penalty_Charging>
0

> <r_epik_Ionization_Penalty_Neutral>
2.72078e-05

> <r_epik_State_Penalty>
-0

> <r_epik_Charging_Adjusted_Penalty>
0

> <i_epik_Tot_Q>
0

> <i_epik_Tot_abs_Q>
0

> <r_epik_Metal_State_Penalty>
-0

> <b_epik_Metal_Only>
0

> <s_lp_Force_Field>
OPLS_2005

> <r_lp_Energy>
15.1515

> <b_lp_Chiralities_Consistent>
1

> <s_lp_Variant>
AV-unprocessed.smi:2466-1

> <Gold.Version>
5.8.1

> <Gold.Id.Protein>
6NUR|6NUR_protein|mol2

> <Gold.PLP.Fitness>
37.7643

> <Gold.PLP.PLP>
-28.0528

> <Gold.PLP.part.hbond>
-6.2648

> <Gold.PLP.part.metal>
0.0000

> <Gold.PLP.part.buried>
-1.2212

> <Gold.PLP.part.nonpolar>
-22.2261

> <Gold.PLP.part.repulsive>
0.3018

> <Gold.PLP.ligand.clash>
0.0000

> <Gold.PLP.ligand.torsion>
0.7660

> <Gold.PLP.Chemscore.Hbond>
3.7062

> <Gold.PLP.Chemscore.CHOScore>
0.0000

> <Gold.PLP.Chemscore.Metal>
0.0000

> <Gold.Chemscore.Hbonds>
donor molecule, donor type, donor heavy atom, donor atom, acceptor molecule, acceptor atom, score
      L1  H     6    23       P1  7948  0.93
      L1  H     9    24       P1  7948  1.00
      P1  H  7989  7998       L1    16  0.30
      P1  H  7997  8009       L1    18  1.00
      P1  H 10752 10765       L1     2  0.41

> <Gold.PLP.Chemscore.Internal.Correction>
0.1249

> <Gold.Rescore>
     Score         DG    S(hbond)    S(metal)    S(lipo)     H(rot)  DE(clash)    DE(int)     intcor
     14.76     -16.66       3.29        0.00      37.10       1.62       0.02       1.87       ----

> <Gold.Chemscore.Fitness>
14.7642

> <Gold.Chemscore.DG>
-16.6563

> <Gold.Chemscore.ZeroCoef>
-5.4800

> <Gold.Chemscore.Hbond>
3.2887

> <Gold.Chemscore.Metal>
0.0000

> <Gold.Chemscore.Lipo>
37.1047

> <Gold.Chemscore.Internal_Hbond>
0.0000

> <Gold.Chemscore.DEClash>
0.0239

> <Gold.Chemscore.DEInternal>
1.8683

> <Gold.Chemscore.Rot>
1.6207

> <Gold.Chemscore.Internal.Correction>
   9.000000E+99

> <Gold.Chemscore.Hbonds>
donor molecule, donor type, donor heavy atom, donor atom, acceptor molecule, acceptor atom, score
      L1  H     6    23       P1  7948  0.58
      L1  H     9    24       P1  7948  0.95
      P1  H  7997  8009       L1    18  0.86
      P1  H 10752 10765       L1     2  0.35

> <Gold.Chemscore.Hbond.Weighted>
-10.9842

> <Gold.Chemscore.Metal.Weighted>
-0.0000

> <Gold.Chemscore.Lipo.Weighted>
-4.3413

> <Gold.Chemscore.Internal_Hbond.Weighted>
0.0000

> <Gold.Chemscore.DEClash.Weighted>
0.0239

> <Gold.Chemscore.DEInternal.Weighted>
1.8683

> <Gold.Chemscore.Rot.Weighted>
4.1491

> <Gold.Chemscore.Internal.Correction.Weighted>
   9.000000E+99

> <Gold.Protein.RotatedTorsions>
[ 6907 6896 6895 6894 ] final   81.62 input  -60.11 | X-H torsion
[ 7974 7965 7964 7962 ] final  -63.12 input  175.53 | X-H torsion
[ 8008 7997 7996 7995 ] final -159.24 input   59.86 | X-H torsion
[ 10167 10162 10161 10158 ] final  172.62 input  -65.29 | X-H torsion
[ 10718 10713 10712 10709 ] final -109.56 input   66.30 | X-H torsion
[ 10763 10752 10751 10750 ] final -126.59 input  -60.55 | X-H torsion
[ 11005 11000 10999 10996 ] final   -6.29 input  -57.11 | X-H torsion

> <Gold.Protein.ActiveResidues>
 VAL166  LYS551  ARG553  GLY616  TRP617  ASP618  TYR619  PRO620  LYS621  CYS622 
 ASP623  PHE694  ASN695  SER759  ASP760  ASP761  ALA762  ILE779  LEU786  VAL792 
 PHE793  MET794  SER795  GLU796  ALA797  LYS798  CYS799  TRP800  GLU811  SER814 

> <Gold.Protein.RotatedAtoms>
  152.5274  134.3176  159.9136 H   0  0  0  0  0  0  0  0  0  0  0  0  # atno 6907 bound_to 6896
  151.3125  133.4068  159.2655 H   0  0  0  0  0  0  0  0  0  0  0  0  # atno 6908 bound_to 6896
  151.0026  134.9351  159.8020 H   0  0  0  0  0  0  0  0  0  0  0  0  # atno 6909 bound_to 6896
  145.7829  140.8752  143.0321 H   0  0  0  0  0  0  0  0  0  0  0  0  # atno 7974 bound_to 7965
  155.7596  140.0837  157.2162 H   0  0  0  0  0  0  0  0  0  0  0  0  # atno 8008 bound_to 7997
  154.4004  140.1545  156.2874 H   0  0  0  0  0  0  0  0  0  0  0  0  # atno 8009 bound_to 7997
  155.8852  140.3418  155.5919 H   0  0  0  0  0  0  0  0  0  0  0  0  # atno 8010 bound_to 7997
  139.5082  144.3353  152.0071 H   0  0  0  0  0  0  0  0  0  0  0  0  # atno 10167 bound_to 10162
  156.0544  130.5770  150.8117 H   0  0  0  0  0  0  0  0  0  0  0  0  # atno 10718 bound_to 10713
  154.8747  135.3990  154.3456 H   0  0  0  0  0  0  0  0  0  0  0  0  # atno 10763 bound_to 10752
  153.4249  135.7024  153.6274 H   0  0  0  0  0  0  0  0  0  0  0  0  # atno 10764 bound_to 10752
  153.4921  135.3746  155.2467 H   0  0  0  0  0  0  0  0  0  0  0  0  # atno 10765 bound_to 10752
  140.7004  133.8994  155.8679 H   0  0  0  0  0  0  0  0  0  0  0  0  # atno 11005 bound_to 11000
  144.6793  140.0015  143.7484 LP  0  0  0  0  0  0  0  0  0  0  0  0  # atno 17320 bound_to 7965
  146.0055  139.3126  143.0902 LP  0  0  0  0  0  0  0  0  0  0  0  0  # atno 17321 bound_to 7965
  140.2792  144.3879  150.6125 LP  0  0  0  0  0  0  0  0  0  0  0  0  # atno 17342 bound_to 10162
  140.6031  143.2167  151.7034 LP  0  0  0  0  0  0  0  0  0  0  0  0  # atno 17343 bound_to 10162
  157.5500  131.0943  150.9709 LP  0  0  0  0  0  0  0  0  0  0  0  0  # atno 17370 bound_to 10713
  156.9971  130.5585  149.5308 LP  0  0  0  0  0  0  0  0  0  0  0  0  # atno 17371 bound_to 10713
  141.0168  134.0944  157.4163 LP  0  0  0  0  0  0  0  0  0  0  0  0  # atno 17394 bound_to 11000
  139.8898  135.0108  156.6701 LP  0  0  0  0  0  0  0  0  0  0  0  0  # atno 17395 bound_to 11000

$$$$
