#       Name:                AV-unprocessed.smi:2943
#       Creating user name   scv26
#       Creation time:       Fri Mar 27 16:16:11 2020


#       File generated by GOLD software.
#

@<TRIPOS>MOLECULE
AV-unprocessed.smi:2943
    40    42     1
SMALL
NO_CHARGES


@<TRIPOS>ATOM
      1 ****        -3.2081   2.1109  -0.7844 C.3            1 S1                 0.0000
      2 ****        -2.0563   1.1499  -0.7569 C.2            1 S1                 0.0000
      3 ****        -0.7195   1.4786  -0.7265 C.2            1 S1                 0.0000
      4 ****        -0.1021   2.8435  -0.7032 C.3            1 S1                 0.0000
      5 ****         0.0551   0.3162  -0.7262 N.pl3          1 S1                 0.0000
      6 ****         1.5101   0.2539  -0.7133 C.3            1 S1                 0.0000
      7 ****         2.0718   0.1941   0.7163 C.3            1 S1                 0.0000
      8 ****         3.5933   0.0831   0.7795 C.3            1 S1                 0.0000
      9 ****         3.7933  -0.5309   2.1460 C.3            1 S1                 0.0000
     10 ****         2.6214  -1.5057   2.2269 C.3            1 S1                 0.0000
     11 ****         1.5895  -0.9524   1.4132 O.3            1 S1                 0.0000
     12 ****        -0.7949  -0.7779  -0.7317 C.ar           1 S1                 0.0000
     13 ****        -0.4724  -2.0999  -0.7221 N.pl3          1 S1                 1.0000
     14 ****        -1.4829  -2.9757  -0.7237 C.ar           1 S1                 0.0000
     15 ****        -2.7694  -2.5980  -0.7360 N.ar           1 S1                 0.0000
     16 ****        -3.1263  -1.2900  -0.7475 C.ar           1 S1                 0.0000
     17 ****        -4.4896  -1.0040  -0.7545 N.pl3          1 S1                 0.0000
     18 ****        -2.1228  -0.2862  -0.7468 C.ar           1 S1                 0.0000
     19 ****        -2.9563   3.0249  -1.3224 H              1 S1                 0.0000
     20 ****        -3.5090   2.3918   0.2249 H              1 S1                 0.0000
     21 ****        -4.0770   1.6821  -1.2827 H              1 S1                 0.0000
     22 ****        -0.8327   3.6076  -0.4389 H              1 S1                 0.0000
     23 ****         0.3104   3.0982  -1.6797 H              1 S1                 0.0000
     24 ****         0.7018   2.9018   0.0305 H              1 S1                 0.0000
     25 ****         1.8257  -0.6234  -1.2791 H              1 S1                 0.0000
     26 ****         1.9122   1.1163  -1.2450 H              1 S1                 0.0000
     27 ****         1.7581   1.0741   1.2797 H              1 S1                 0.0000
     28 ****         3.9651  -0.5937   0.0088 H              1 S1                 0.0000
     29 ****         4.0956   1.0439   0.6637 H              1 S1                 0.0000
     30 ****         4.7624  -1.0170   2.2623 H              1 S1                 0.0000
     31 ****         3.6998   0.2349   2.9174 H              1 S1                 0.0000
     32 ****         2.9027  -2.4753   1.8145 H              1 S1                 0.0000
     33 ****         2.2813  -1.6592   3.2514 H              1 S1                 0.0000
     34 ****        -1.2207  -4.0234  -0.7125 H              1 S1                 0.0000
     35 ****        -5.1834  -1.7380  -0.7512 H              1 S1                 0.0000
     36 ****        -4.8282  -0.0528  -0.7823 H              1 S1                 0.0000
     37 ****         0.5025  -2.3995  -0.7062 H              1 S1                 0.0000
     38 ****         1.2876  -1.6384   0.7511 LP             1 S1                 0.0000
     39 ****         0.8190  -0.6866   1.9926 LP             1 S1                 0.0000
     40 ****        -3.4833  -3.2983  -0.7367 LP             1 S1                 0.0000
@<TRIPOS>BOND
    1    1    2 1     
    2    1   19 1     
    3    1   20 1     
    4    1   21 1     
    5    2   18 1     
    6    2    3 2     
    7    3    4 1     
    8    3    5 1     
    9    4   22 1     
   10    4   23 1     
   11    4   24 1     
   12    5    6 1     
   13    5   12 1     
   14    6    7 1     
   15    6   25 1     
   16    6   26 1     
   17    7   11 1     
   18    7    8 1     
   19    7   27 1     
   20    8    9 1     
   21    8   28 1     
   22    8   29 1     
   23    9   10 1     
   24    9   30 1     
   25    9   31 1     
   26   10   11 1     
   27   10   32 1     
   28   10   33 1     
   29   12   18 ar    
   30   12   13 ar    
   31   13   14 ar    
   32   13   37 1     
   33   14   15 ar    
   34   14   34 1     
   35   15   16 ar    
   36   16   17 1     
   37   16   18 ar    
   38   17   35 1     
   39   17   36 1     
   40   11   38 1     
   41   11   39 1     
   42   15   40 1     
@<TRIPOS>SUBSTRUCTURE
      1 S1             1
@<TRIPOS>SET
LONE_PAIRS      STATIC     ATOMS    <user>   **** ""
3 38 39 40
DONOR_HYDROGENS      STATIC     ATOMS    <user>   **** ""
3 37 35 36
ATOM$BLUE        STATIC     ATOMS    COLORGROUP SYSTEM
3 38 39 40
ATOM$RED        STATIC     ATOMS    COLORGROUP SYSTEM
3 37 35 36
