AV-unprocessed.smi:287|AV-procd|sdf|2194|dock8
  -GOLD-   2262021593D 1   1.00000     0.00000
 Structure written by MMmdl.
 55 58  0  0  0  0  0  0  0  0  1 V2000
  152.4688  144.4959  159.4223 C   0  0  0  0  0  0  0  0  0  0  0  0
  152.1899  143.1744  158.7922 C   0  0  0  0  0  0  0  0  0  0  0  0
  152.5688  141.8946  159.0750 C   0  0  0  0  0  0  0  0  0  0  0  0
  151.9672  141.0460  158.0984 C   0  0  0  0  0  0  0  0  0  0  0  0
  152.1130  139.5325  158.0223 C   0  0  2  0  0  0  0  0  0  0  0  0
  151.6022  138.8943  159.3245 C   0  0  0  0  0  0  0  0  0  0  0  0
  153.4588  139.1129  157.9029 O   0  0  0  0  0  0  0  0  0  0  0  0
  151.3661  138.9355  156.8082 C   0  0  0  0  0  0  0  0  0  0  0  0
  149.9268  138.8432  157.0189 N   0  0  0  0  0  0  0  0  0  0  0  0
  149.1469  138.1126  156.1949 C   0  0  0  0  0  0  0  0  0  0  0  0
  149.4503  136.7943  156.1218 N   0  0  0  0  0  0  0  0  0  0  0  0
  148.7414  135.9831  155.3314 C   0  0  0  0  0  0  0  0  0  0  0  0
  147.7069  136.2811  154.5430 N   0  0  0  0  0  0  0  0  0  0  0  0
  147.3962  137.6073  154.6114 C   0  0  0  0  0  0  0  0  0  0  0  0
  148.0553  138.5871  155.4081 C   0  0  0  0  0  0  0  0  0  0  0  0
  147.4406  139.8207  155.2146 N   0  0  0  0  0  0  0  0  0  0  0  0
  146.4857  139.5789  154.3580 C   0  0  0  0  0  0  0  0  0  0  0  0
  146.3925  138.2697  153.9422 N   0  0  0  0  0  0  0  0  0  0  0  0
  145.4213  137.6545  152.9876 C   0  0  2  0  0  0  0  0  0  0  0  0
  145.1982  136.3422  153.3809 O   0  0  0  0  0  0  0  0  0  0  0  0
  144.7284  135.6291  152.2498 C   0  0  2  0  0  0  0  0  0  0  0  0
  144.8891  134.1205  152.4938 C   0  0  0  0  0  0  0  0  0  0  0  0
  143.6255  133.5006  152.6027 O   0  0  0  0  0  0  0  0  0  0  0  0
  145.5680  136.1878  151.0888 C   0  0  1  0  0  0  0  0  0  0  0  0
  144.7905  136.2395  149.9092 O   0  0  0  0  0  0  0  0  0  0  0  0
  145.9486  137.5999  151.5396 C   0  0  2  0  0  0  0  0  0  0  0  0
  147.3465  137.8026  151.4284 O   0  0  0  0  0  0  0  0  0  0  0  0
  151.2663  141.8975  157.2782 C   0  0  0  0  0  0  0  0  0  0  0  0
  150.4210  141.7065  156.0622 C   0  0  0  0  0  0  0  0  0  0  0  0
  151.3938  143.1884  157.6941 O   0  0  0  0  0  0  0  0  0  0  0  0
  144.5023  138.2348  153.0887 H   0  0  0  0  0  0  0  0  0  0  0  0
  143.6736  135.8844  152.1239 H   0  0  0  0  0  0  0  0  0  0  0  0
  146.4563  135.5755  150.9243 H   0  0  0  0  0  0  0  0  0  0  0  0
  145.4376  138.3751  150.9668 H   0  0  0  0  0  0  0  0  0  0  0  0
  152.8848  144.3697  160.4221 H   0  0  0  0  0  0  0  0  0  0  0  0
  151.5558  145.0852  159.5092 H   0  0  0  0  0  0  0  0  0  0  0  0
  153.1844  145.0634  158.8272 H   0  0  0  0  0  0  0  0  0  0  0  0
  153.2042  141.5969  159.8958 H   0  0  0  0  0  0  0  0  0  0  0  0
  150.5496  139.1251  159.4922 H   0  0  0  0  0  0  0  0  0  0  0  0
  152.1588  139.2583  160.1893 H   0  0  0  0  0  0  0  0  0  0  0  0
  151.6982  137.8081  159.3024 H   0  0  0  0  0  0  0  0  0  0  0  0
  153.4696  138.2377  157.5469 H   0  0  0  0  0  0  0  0  0  0  0  0
  151.5811  139.5027  155.9014 H   0  0  0  0  0  0  0  0  0  0  0  0
  151.7354  137.9223  156.6451 H   0  0  0  0  0  0  0  0  0  0  0  0
  149.5746  139.3193  157.8370 H   0  0  0  0  0  0  0  0  0  0  0  0
  149.0481  134.9476  155.3297 H   0  0  0  0  0  0  0  0  0  0  0  0
  145.8176  140.3528  154.0086 H   0  0  0  0  0  0  0  0  0  0  0  0
  145.4624  133.6521  151.6932 H   0  0  0  0  0  0  0  0  0  0  0  0
  145.4334  133.9477  153.4228 H   0  0  0  0  0  0  0  0  0  0  0  0
  143.6037  133.0015  153.4052 H   0  0  0  0  0  0  0  0  0  0  0  0
  145.3019  135.8829  149.1984 H   0  0  0  0  0  0  0  0  0  0  0  0
  147.7861  137.0844  151.8583 H   0  0  0  0  0  0  0  0  0  0  0  0
  150.9633  141.1492  155.2981 H   0  0  0  0  0  0  0  0  0  0  0  0
  150.1268  142.6640  155.6315 H   0  0  0  0  0  0  0  0  0  0  0  0
  149.5134  141.1546  156.3066 H   0  0  0  0  0  0  0  0  0  0  0  0
  1  2  1  0  0  0  0
  1 35  1  0  0  0  0
  1 36  1  0  0  0  0
  1 37  1  0  0  0  0
  2 30  1  0  0  0  0
  2  3  2  0  0  0  0
  3  4  1  0  0  0  0
  3 38  1  0  0  0  0
  4  5  1  0  0  0  0
  4 28  2  0  0  0  0
  5  6  1  0  0  0  0
  5  7  1  0  0  0  0
  5  8  1  0  0  0  0
  6 39  1  0  0  0  0
  6 40  1  0  0  0  0
  6 41  1  0  0  0  0
  7 42  1  0  0  0  0
  8  9  1  0  0  0  0
  8 43  1  0  0  0  0
  8 44  1  0  0  0  0
  9 10  1  0  0  0  0
  9 45  1  0  0  0  0
 10 15  1  0  0  0  0
 10 11  2  0  0  0  0
 11 12  1  0  0  0  0
 12 13  2  0  0  0  0
 12 46  1  0  0  0  0
 13 14  1  0  0  0  0
 14 18  1  0  0  0  0
 14 15  2  0  0  0  0
 15 16  1  0  0  0  0
 16 17  2  0  0  0  0
 17 18  1  0  0  0  0
 17 47  1  0  0  0  0
 18 19  1  0  0  0  0
 19 31  1  0  0  0  0
 19 26  1  0  0  0  0
 19 20  1  0  0  0  0
 20 21  1  0  0  0  0
 21 32  1  0  0  0  0
 21 22  1  0  0  0  0
 21 24  1  0  0  0  0
 22 23  1  0  0  0  0
 22 48  1  0  0  0  0
 22 49  1  0  0  0  0
 23 50  1  0  0  0  0
 24 33  1  0  0  0  0
 24 25  1  0  0  0  0
 24 26  1  0  0  0  0
 25 51  1  0  0  0  0
 26 34  1  0  0  0  0
 26 27  1  0  0  0  0
 27 52  1  0  0  0  0
 28 29  1  0  0  0  0
 28 30  1  0  0  0  0
 29 53  1  0  0  0  0
 29 54  1  0  0  0  0
 29 55  1  0  0  0  0
M  END
> <s_m_source_file>
AV-unprocessed.smi

> <i_m_source_file_index>
287

> <i_lp_mmshare_version>
43012

> <i_f3d_flags>
0

> <s_epik_input>
W0NIM11jMVtjSF1jKGMobzEpW0NIM10pW0NAQF0oW0NIM10pKFtPSF0pW0NIMl1bTkhdYyhuW2NIXW4yKWMoYzIzKW5bY0hdbjNbQ0BASF00T1tDQEhdKFtDSDJdW09IXSlbQ0BASF0oW09IXSlbQ0BIXTRbT0hd

> <s_epik_cmdline>
J2VwaWtfcHl0aG9uJywgJy1waCcsICc3LjAnLCAnLXRuJywgJzgnLCAnLW1hJywgJzIwMCcsICctbWV0YWxfYmluZGluZycsICctaW1hZScsICc8aW5maWxlLm1hZT4nLCAnLW9tYWUnLCAnPG91dGZpbGUubWFlPic=

> <r_lp_tautomer_probability>
1

> <r_epik_Ionization_Penalty>
0.000992612

> <r_epik_Ionization_Penalty_Charging>
0

> <r_epik_Ionization_Penalty_Neutral>
0.000992612

> <r_epik_State_Penalty>
-0

> <r_epik_Charging_Adjusted_Penalty>
0

> <i_epik_Tot_Q>
0

> <i_epik_Tot_abs_Q>
0

> <r_epik_Metal_State_Penalty>
-0

> <b_epik_Metal_Only>
0

> <s_epik_Chemistry_Notes>
This compound contains an acetal/aminal-like group ( X-CH(R)-Y where X, Y are N, S, or O) that may be acid/base labile, releasing an aldehyde.

> <s_lp_Force_Field>
OPLS_2005

> <r_lp_Energy>
43.2107

> <b_lp_Chiralities_Consistent>
1

> <s_lp_Variant>
AV-unprocessed.smi:287-18

> <Gold.Version>
5.8.1

> <Gold.Id.Protein>
6NUR|6NUR_protein|mol2

> <Gold.PLP.Fitness>
49.7173

> <Gold.PLP.PLP>
-36.9596

> <Gold.PLP.part.hbond>
-5.7676

> <Gold.PLP.part.metal>
0.0000

> <Gold.PLP.part.buried>
-4.3739

> <Gold.PLP.part.nonpolar>
-30.4256

> <Gold.PLP.part.repulsive>
1.7167

> <Gold.PLP.ligand.clash>
0.0000

> <Gold.PLP.ligand.torsion>
2.3188

> <Gold.PLP.Chemscore.Hbond>
4.7680

> <Gold.PLP.Chemscore.CHOScore>
1.0000

> <Gold.PLP.Chemscore.Metal>
0.0000

> <Gold.Chemscore.Hbonds>
donor molecule, donor type, donor heavy atom, donor atom, acceptor molecule, acceptor atom, score
      L1  H    23    50       P1 10957  0.91
      L1  H    25    51       P1  7921  0.94
      L1  H    27    52       P1  7948  0.64
      P1  H  7954  7966       L1    27  1.00
      P1  H  7997  8010       L1     7  1.00
      L1  C    17    47       P1 10175  0.75

> <Gold.PLP.Chemscore.Internal.Correction>
0.0914

> <Gold.Rescore>
     Score         DG    S(hbond)    S(metal)    S(lipo)     H(rot)  DE(clash)    DE(int)     intcor
      9.80     -16.65       3.99        0.00      96.91       5.27       2.17       4.68       ----

> <Gold.Chemscore.Fitness>
9.7957

> <Gold.Chemscore.DG>
-16.6469

> <Gold.Chemscore.ZeroCoef>
-5.4800

> <Gold.Chemscore.Hbond>
3.9858

> <Gold.Chemscore.Metal>
0.0000

> <Gold.Chemscore.Lipo>
96.9079

> <Gold.Chemscore.Internal_Hbond>
0.0000

> <Gold.Chemscore.DEClash>
2.1742

> <Gold.Chemscore.DEInternal>
4.6770

> <Gold.Chemscore.Rot>
5.2672

> <Gold.Chemscore.Internal.Correction>
   9.000000E+99

> <Gold.Chemscore.Hbonds>
donor molecule, donor type, donor heavy atom, donor atom, acceptor molecule, acceptor atom, score
      L1  H    23    50       P1 10957  0.69
      L1  H    25    51       P1  7921  0.90
      L1  H    27    52       P1  7948  0.63
      P1  H  7954  7966       L1    27  0.34
      P1  H  7997  8010       L1     7  0.46

> <Gold.Chemscore.Hbond.Weighted>
-13.3126

> <Gold.Chemscore.Metal.Weighted>
-0.0000

> <Gold.Chemscore.Lipo.Weighted>
-11.3382

> <Gold.Chemscore.Internal_Hbond.Weighted>
0.0000

> <Gold.Chemscore.DEClash.Weighted>
2.1742

> <Gold.Chemscore.DEInternal.Weighted>
4.6770

> <Gold.Chemscore.Rot.Weighted>
13.4839

> <Gold.Chemscore.Internal.Correction.Weighted>
   9.000000E+99

> <Gold.Protein.RotatedTorsions>
[ 6907 6896 6895 6894 ] final  117.98 input  -60.11 | X-H torsion
[ 7974 7965 7964 7962 ] final   88.24 input  175.53 | X-H torsion
[ 8008 7997 7996 7995 ] final   51.09 input   59.86 | X-H torsion
[ 10167 10162 10161 10158 ] final   75.45 input  -65.29 | X-H torsion
[ 10718 10713 10712 10709 ] final -129.39 input   66.30 | X-H torsion
[ 10763 10752 10751 10750 ] final   48.03 input  -60.55 | X-H torsion
[ 11005 11000 10999 10996 ] final  112.35 input  -57.11 | X-H torsion

> <Gold.Protein.ActiveResidues>
 VAL166  LYS551  ARG553  GLY616  TRP617  ASP618  TYR619  PRO620  LYS621  CYS622 
 ASP623  PHE694  ASN695  SER759  ASP760  ASP761  ALA762  ILE779  LEU786  VAL792 
 PHE793  MET794  SER795  GLU796  ALA797  LYS798  CYS799  TRP800  GLU811  SER814 

> <Gold.Protein.RotatedAtoms>
  152.4574  133.7752  159.6820 H   0  0  0  0  0  0  0  0  0  0  0  0  # atno 6907 bound_to 6896
  150.8506  133.7783  159.3033 H   0  0  0  0  0  0  0  0  0  0  0  0  # atno 6908 bound_to 6896
  151.5380  135.1071  159.9971 H   0  0  0  0  0  0  0  0  0  0  0  0  # atno 6909 bound_to 6896
  145.5482  139.2293  143.2527 H   0  0  0  0  0  0  0  0  0  0  0  0  # atno 7974 bound_to 7965
  155.4295  140.3450  155.4279 H   0  0  0  0  0  0  0  0  0  0  0  0  # atno 8008 bound_to 7997
  156.1345  140.1524  156.9046 H   0  0  0  0  0  0  0  0  0  0  0  0  # atno 8009 bound_to 7997
  154.4920  140.0838  156.7596 H   0  0  0  0  0  0  0  0  0  0  0  0  # atno 8010 bound_to 7997
  140.0029  144.5673  150.7722 H   0  0  0  0  0  0  0  0  0  0  0  0  # atno 10167 bound_to 10162
  156.2042  130.6877  151.0575 H   0  0  0  0  0  0  0  0  0  0  0  0  # atno 10718 bound_to 10713
  152.9795  135.5957  154.3859 H   0  0  0  0  0  0  0  0  0  0  0  0  # atno 10763 bound_to 10752
  154.3519  135.2767  155.2369 H   0  0  0  0  0  0  0  0  0  0  0  0  # atno 10764 bound_to 10752
  154.4404  135.6014  153.6181 H   0  0  0  0  0  0  0  0  0  0  0  0  # atno 10765 bound_to 10752
  139.8925  134.9528  156.6573 H   0  0  0  0  0  0  0  0  0  0  0  0  # atno 11005 bound_to 11000
  146.1934  140.6304  142.9135 LP  0  0  0  0  0  0  0  0  0  0  0  0  # atno 17320 bound_to 7965
  144.7542  140.5267  143.6780 LP  0  0  0  0  0  0  0  0  0  0  0  0  # atno 17321 bound_to 7965
  140.7412  143.2815  151.3586 LP  0  0  0  0  0  0  0  0  0  0  0  0  # atno 17342 bound_to 10162
  139.6259  144.0815  152.2434 LP  0  0  0  0  0  0  0  0  0  0  0  0  # atno 17343 bound_to 10162
  157.7003  131.0778  150.6841 LP  0  0  0  0  0  0  0  0  0  0  0  0  # atno 17370 bound_to 10713
  156.6899  130.4592  149.5603 LP  0  0  0  0  0  0  0  0  0  0  0  0  # atno 17371 bound_to 10713
  140.7474  133.8926  155.8322 LP  0  0  0  0  0  0  0  0  0  0  0  0  # atno 17394 bound_to 11000
  141.0028  134.1127  157.4300 LP  0  0  0  0  0  0  0  0  0  0  0  0  # atno 17395 bound_to 11000

$$$$
