AV-unprocessed.smi:1512|AV-procd|sdf|6105|dock4
  -GOLD-   22720 6233D 1   1.00000     0.00000
 Structure written by MMmdl.
 44 46  0  0  0  0  0  0  0  0  3 V2000
  147.1726  134.7286  154.2464 C   0  0  0  0  0  0  0  0  0  0  0  0
  146.3526  136.0256  154.3440 C   0  0  1  0  0  0  0  0  0  0  0  0
  147.1650  137.1622  153.9247 N   0  0  0  0  0  0  0  0  0  0  0  0
  146.9707  138.4479  154.2639 C   0  0  0  0  0  0  0  0  0  0  0  0
  146.1200  138.8046  155.0777 O   0  0  0  0  0  0  0  0  0  0  0  0
  147.8411  139.5111  153.5702 C   0  0  0  0  0  0  0  0  0  0  0  0
  149.0467  139.9050  154.3253 N   0  0  0  0  0  0  0  0  0  0  0  0
  149.0821  141.2182  154.8302 C   0  0  0  0  0  0  0  0  0  0  0  0
  150.1148  141.6711  155.5551 C   0  0  0  0  0  0  0  0  0  0  0  0
  151.2062  140.7678  155.8279 C   0  0  0  0  0  0  0  0  0  0  0  0
  151.1943  139.5010  155.3537 C   0  0  0  0  0  0  0  0  0  0  0  0
  152.3037  138.6389  155.6876 N   0  3  0  0  0  0  0  0  0  0  0  0
  153.2044  139.0814  156.3943 O   0  0  0  0  0  0  0  0  0  0  0  0
  152.3148  137.4974  155.2372 O   0  5  0  0  0  0  0  0  0  0  0  0
  150.0684  139.0152  154.5305 C   0  0  0  0  0  0  0  0  0  0  0  0
  150.0304  137.8791  154.0546 O   0  0  0  0  0  0  0  0  0  0  0  0
  145.0763  135.9839  153.4708 C   0  0  2  0  0  0  0  0  0  0  0  0
  144.1909  134.7296  153.6629 C   0  0  0  0  0  0  0  0  0  0  0  0
  143.9275  134.2687  152.2179 C   0  0  2  0  0  0  0  0  0  0  0  0
  145.2070  133.6210  151.6586 C   0  0  0  0  0  0  0  0  0  0  0  0
  146.1287  134.8338  151.4344 C   0  0  0  0  0  0  0  0  0  0  0  0
  145.2712  136.0151  151.9346 C   0  0  1  0  0  0  0  0  0  0  0  0
  143.8854  135.5904  151.4583 C   0  0  0  0  0  0  0  0  0  0  0  0
  146.5977  133.8710  154.5960 H   0  0  0  0  0  0  0  0  0  0  0  0
  148.0743  134.7841  154.8571 H   0  0  0  0  0  0  0  0  0  0  0  0
  147.4783  134.5288  153.2190 H   0  0  0  0  0  0  0  0  0  0  0  0
  146.0691  136.1836  155.3846 H   0  0  0  0  0  0  0  0  0  0  0  0
  147.8977  136.9632  153.2592 H   0  0  0  0  0  0  0  0  0  0  0  0
  148.1263  139.1376  152.5851 H   0  0  0  0  0  0  0  0  0  0  0  0
  147.2123  140.3795  153.3699 H   0  0  0  0  0  0  0  0  0  0  0  0
  148.2218  141.8278  154.5945 H   0  0  0  0  0  0  0  0  0  0  0  0
  150.1241  142.6823  155.9348 H   0  0  0  0  0  0  0  0  0  0  0  0
  152.0287  141.1140  156.4370 H   0  0  0  0  0  0  0  0  0  0  0  0
  144.4728  136.8541  153.7368 H   0  0  0  0  0  0  0  0  0  0  0  0
  144.6739  133.9480  154.2511 H   0  0  0  0  0  0  0  0  0  0  0  0
  143.2609  134.9924  154.1688 H   0  0  0  0  0  0  0  0  0  0  0  0
  143.0395  133.6449  152.1129 H   0  0  0  0  0  0  0  0  0  0  0  0
  145.6376  132.8929  152.3471 H   0  0  0  0  0  0  0  0  0  0  0  0
  145.0067  133.1115  150.7154 H   0  0  0  0  0  0  0  0  0  0  0  0
  147.0856  134.7400  151.9457 H   0  0  0  0  0  0  0  0  0  0  0  0
  146.3451  134.9480  150.3715 H   0  0  0  0  0  0  0  0  0  0  0  0
  145.5992  136.9831  151.5547 H   0  0  0  0  0  0  0  0  0  0  0  0
  143.8179  135.4661  150.3760 H   0  0  0  0  0  0  0  0  0  0  0  0
  143.0866  136.2559  151.7912 H   0  0  0  0  0  0  0  0  0  0  0  0
  1  2  1  0  0  0  0
  1 24  1  0  0  0  0
  1 25  1  0  0  0  0
  1 26  1  0  0  0  0
  2  3  1  0  0  0  0
  2 17  1  0  0  0  0
  2 27  1  0  0  0  0
  3  4  1  0  0  0  0
  3 28  1  0  0  0  0
  4  5  2  0  0  0  0
  4  6  1  0  0  0  0
  6  7  1  0  0  0  0
  6 29  1  0  0  0  0
  6 30  1  0  0  0  0
  7 15  1  0  0  0  0
  7  8  1  0  0  0  0
  8  9  2  0  0  0  0
  8 31  1  0  0  0  0
  9 10  1  0  0  0  0
  9 32  1  0  0  0  0
 10 11  2  0  0  0  0
 10 33  1  0  0  0  0
 11 12  1  0  0  0  0
 11 15  1  0  0  0  0
 12 13  2  0  0  0  0
 12 14  1  0  0  0  0
 15 16  2  0  0  0  0
 17 22  1  0  0  0  0
 17 18  1  0  0  0  0
 17 34  1  0  0  0  0
 18 19  1  0  0  0  0
 18 35  1  0  0  0  0
 18 36  1  0  0  0  0
 19 23  1  0  0  0  0
 19 20  1  0  0  0  0
 19 37  1  0  0  0  0
 20 21  1  0  0  0  0
 20 38  1  0  0  0  0
 20 39  1  0  0  0  0
 21 22  1  0  0  0  0
 21 40  1  0  0  0  0
 21 41  1  0  0  0  0
 22 23  1  0  0  0  0
 22 42  1  0  0  0  0
 23 43  1  0  0  0  0
 23 44  1  0  0  0  0
M  CHG  1  12   1
M  CHG  1  14  -1
M  END
> <s_m_source_file>
AV-unprocessed.smi

> <i_m_source_file_index>
1512

> <i_lp_mmshare_version>
43012

> <i_f3d_flags>
0

> <s_epik_input>
W0NIMl0xW0NIMl1bQ0BIXShbQ0gyXTIpW0NAQEhdKFtDSDJdW0NAQEhdMTIpW0NASF0oW0NIM10pW05IXUMoPU8pW0NIMl1uM1tjSF1bY0hdW2NIXWMoW04rXSg9TylbTy1dKWMzPU8=

> <s_epik_cmdline>
J2VwaWtfcHl0aG9uJywgJy1waCcsICc3LjAnLCAnLXRuJywgJzgnLCAnLW1hJywgJzIwMCcsICctbWV0YWxfYmluZGluZycsICctaW1hZScsICc8aW5maWxlLm1hZT4nLCAnLW9tYWUnLCAnPG91dGZpbGUubWFlPic=

> <r_lp_tautomer_probability>
1

> <r_epik_Ionization_Penalty>
2.17697e-08

> <r_epik_Ionization_Penalty_Charging>
1.42735e-10

> <r_epik_Ionization_Penalty_Neutral>
2.16269e-08

> <r_epik_State_Penalty>
-0

> <r_epik_Charging_Adjusted_Penalty>
1.42735e-10

> <i_epik_Tot_Q>
0

> <i_epik_Tot_abs_Q>
2

> <r_epik_Metal_State_Penalty>
-0

> <b_epik_Metal_Only>
0

> <s_lp_Force_Field>
OPLS_2005

> <r_lp_Energy>
64.4109

> <b_lp_Chiralities_Consistent>
1

> <s_lp_Variant>
AV-unprocessed.smi:1512-6

> <Gold.Version>
5.8.1

> <Gold.Id.Protein>
6NUR|6NUR_protein|mol2

> <Gold.PLP.Fitness>
40.6419

> <Gold.PLP.PLP>
-33.9804

> <Gold.PLP.part.hbond>
-3.0000

> <Gold.PLP.part.metal>
0.0000

> <Gold.PLP.part.buried>
-3.8797

> <Gold.PLP.part.nonpolar>
-29.5801

> <Gold.PLP.part.repulsive>
1.7498

> <Gold.PLP.ligand.clash>
0.0000

> <Gold.PLP.ligand.torsion>
0.7814

> <Gold.PLP.Chemscore.Hbond>
2.7360

> <Gold.PLP.Chemscore.CHOScore>
0.0000

> <Gold.PLP.Chemscore.Metal>
0.0000

> <Gold.Chemscore.Hbonds>
donor molecule, donor type, donor heavy atom, donor atom, acceptor molecule, acceptor atom, score
      L1  H     3    28       P1  7948  1.00
      P1  H  7997  8008       L1    13  1.00
      P1  H 10752 10765       L1    14  0.62

> <Gold.PLP.Chemscore.Internal.Correction>
0.0162

> <Gold.Rescore>
     Score         DG    S(hbond)    S(metal)    S(lipo)     H(rot)  DE(clash)    DE(int)     intcor
     12.44     -17.35       2.58        0.00      65.96       1.75       0.26       4.65       ----

> <Gold.Chemscore.Fitness>
12.4440

> <Gold.Chemscore.DG>
-17.3490

> <Gold.Chemscore.ZeroCoef>
-5.4800

> <Gold.Chemscore.Hbond>
2.5823

> <Gold.Chemscore.Metal>
0.0000

> <Gold.Chemscore.Lipo>
65.9620

> <Gold.Chemscore.Internal_Hbond>
0.0000

> <Gold.Chemscore.DEClash>
0.2552

> <Gold.Chemscore.DEInternal>
4.6497

> <Gold.Chemscore.Rot>
1.7474

> <Gold.Chemscore.Internal.Correction>
   9.000000E+99

> <Gold.Chemscore.Hbonds>
donor molecule, donor type, donor heavy atom, donor atom, acceptor molecule, acceptor atom, score
      L1  H     3    28       P1  7948  1.00
      P1  H  7997  8008       L1    13  0.93
      P1  H 10752 10765       L1    14  0.60

> <Gold.Chemscore.Hbond.Weighted>
-8.6247

> <Gold.Chemscore.Metal.Weighted>
-0.0000

> <Gold.Chemscore.Lipo.Weighted>
-7.7175

> <Gold.Chemscore.Internal_Hbond.Weighted>
0.0000

> <Gold.Chemscore.DEClash.Weighted>
0.2552

> <Gold.Chemscore.DEInternal.Weighted>
4.6497

> <Gold.Chemscore.Rot.Weighted>
4.4733

> <Gold.Chemscore.Internal.Correction.Weighted>
   9.000000E+99

> <Gold.Protein.RotatedTorsions>
[ 6907 6896 6895 6894 ] final  -67.50 input  -60.11 | X-H torsion
[ 7974 7965 7964 7962 ] final  100.02 input  175.53 | X-H torsion
[ 8008 7997 7996 7995 ] final  -63.91 input   59.86 | X-H torsion
[ 10167 10162 10161 10158 ] final   28.68 input  -65.29 | X-H torsion
[ 10718 10713 10712 10709 ] final  -74.97 input   66.30 | X-H torsion
[ 10763 10752 10751 10750 ] final -177.25 input  -60.55 | X-H torsion
[ 11005 11000 10999 10996 ] final -174.24 input  -57.11 | X-H torsion

> <Gold.Protein.ActiveResidues>
 VAL166  LYS551  ARG553  GLY616  TRP617  ASP618  TYR619  PRO620  LYS621  CYS622 
 ASP623  PHE694  ASN695  SER759  ASP760  ASP761  ALA762  ILE779  LEU786  VAL792 
 PHE793  MET794  SER795  GLU796  ALA797  LYS798  CYS799  TRP800  GLU811  SER814 

> <Gold.Protein.RotatedAtoms>
  150.7406  134.5872  159.5968 H   0  0  0  0  0  0  0  0  0  0  0  0  # atno 6907 bound_to 6896
  152.3269  134.7306  160.0308 H   0  0  0  0  0  0  0  0  0  0  0  0  # atno 6908 bound_to 6896
  151.7802  133.3313  159.3506 H   0  0  0  0  0  0  0  0  0  0  0  0  # atno 6909 bound_to 6896
  145.3911  139.2363  143.3351 H   0  0  0  0  0  0  0  0  0  0  0  0  # atno 7974 bound_to 7965
  154.4581  140.0965  156.6816 H   0  0  0  0  0  0  0  0  0  0  0  0  # atno 8008 bound_to 7997
  155.5076  140.3475  155.4364 H   0  0  0  0  0  0  0  0  0  0  0  0  # atno 8009 bound_to 7997
  156.0818  140.1375  156.9692 H   0  0  0  0  0  0  0  0  0  0  0  0  # atno 8010 bound_to 7997
  140.4831  144.0584  150.6272 H   0  0  0  0  0  0  0  0  0  0  0  0  # atno 10167 bound_to 10162
  156.0224  130.4429  150.2973 H   0  0  0  0  0  0  0  0  0  0  0  0  # atno 10718 bound_to 10713
  154.5624  135.2821  155.0906 H   0  0  0  0  0  0  0  0  0  0  0  0  # atno 10763 bound_to 10752
  154.2310  135.6374  153.5179 H   0  0  0  0  0  0  0  0  0  0  0  0  # atno 10764 bound_to 10752
  153.0033  135.5537  154.6222 H   0  0  0  0  0  0  0  0  0  0  0  0  # atno 10765 bound_to 10752
  140.4767  134.6114  157.4903 H   0  0  0  0  0  0  0  0  0  0  0  0  # atno 11005 bound_to 11000
  146.2797  140.4594  142.8781 LP  0  0  0  0  0  0  0  0  0  0  0  0  # atno 17320 bound_to 7965
  144.8440  140.6900  143.6211 LP  0  0  0  0  0  0  0  0  0  0  0  0  # atno 17321 bound_to 7965
  140.3832  143.2791  152.0146 LP  0  0  0  0  0  0  0  0  0  0  0  0  # atno 17342 bound_to 10162
  139.4837  144.6138  151.7385 LP  0  0  0  0  0  0  0  0  0  0  0  0  # atno 17343 bound_to 10162
  157.1076  131.0212  151.3061 LP  0  0  0  0  0  0  0  0  0  0  0  0  # atno 17370 bound_to 10713
  157.4730  130.7720  149.7342 LP  0  0  0  0  0  0  0  0  0  0  0  0  # atno 17371 bound_to 10713
  139.9852  134.7074  155.9788 LP  0  0  0  0  0  0  0  0  0  0  0  0  # atno 17394 bound_to 11000
  141.1551  133.6544  156.4135 LP  0  0  0  0  0  0  0  0  0  0  0  0  # atno 17395 bound_to 11000

$$$$
