AV-unprocessed.smi:244|AV-procd|sdf|1868|dock4
  -GOLD-   2262020503D 1   1.00000     0.00000
 Structure written by MMmdl.
 57 61  0  0  0  0  0  0  0  0  2 V2000
  150.8434  141.3070  158.4913 C   0  0  0  0  0  0  0  0  0  0  0  0
  149.8434  141.3087  157.4025 N   0  3  1  0  0  0  0  0  0  0  0  0
  148.7967  142.3425  157.5948 C   0  0  0  0  0  0  0  0  0  0  0  0
  147.6932  142.2026  156.5353 C   0  0  0  0  0  0  0  0  0  0  0  0
  148.2828  142.2509  155.1087 C   0  0  2  0  0  0  0  0  0  0  0  0
  147.2882  142.0867  154.0955 O   0  0  0  0  0  0  0  0  0  0  0  0
  146.7322  140.7759  154.0110 C   0  0  0  0  0  0  0  0  0  0  0  0
  147.8483  139.7414  153.8077 C   0  0  0  0  0  0  0  0  0  0  0  0
  148.8531  139.8692  154.8567 N   0  0  0  0  0  0  0  0  0  0  0  0
  149.7479  138.8578  154.8396 C   0  0  0  0  0  0  0  0  0  0  0  0
  151.0002  139.1553  154.4157 N   0  0  0  0  0  0  0  0  0  0  0  0
  151.9287  138.1955  154.3579 C   0  0  0  0  0  0  0  0  0  0  0  0
  151.8125  136.9022  154.6665 N   0  0  0  0  0  0  0  0  0  0  0  0
  150.5501  136.6012  155.0866 C   0  0  0  0  0  0  0  0  0  0  0  0
  149.4635  137.5118  155.2038 C   0  0  0  0  0  0  0  0  0  0  0  0
  148.3322  136.8465  155.6596 N   0  0  0  0  0  0  0  0  0  0  0  0
  148.7307  135.6132  155.8143 C   0  0  0  0  0  0  0  0  0  0  0  0
  150.0453  135.3747  155.4807 N   0  0  0  0  0  0  0  0  0  0  0  0
  150.7451  134.1008  155.5460 C   0  0  0  0  0  0  0  0  0  0  0  0
  149.8246  132.8657  155.3802 C   0  0  0  0  0  0  0  0  0  0  0  0
  149.0621  132.7281  156.5670 O   0  0  0  0  0  0  0  0  0  0  0  0
  148.8550  133.0767  154.1999 C   0  0  0  0  0  0  0  0  0  0  0  0
  148.0402  131.8105  153.8822 C   0  0  0  0  0  0  0  0  0  0  0  0
  148.9170  130.7169  153.6416 O   0  0  0  0  0  0  0  0  0  0  0  0
  149.7018  130.3817  154.7793 C   0  0  0  0  0  0  0  0  0  0  0  0
  150.6179  131.5592  155.1579 C   0  0  0  0  0  0  0  0  0  0  0  0
  149.4209  141.2188  154.9310 C   0  0  2  0  0  0  0  0  0  0  0  0
  150.4679  141.4023  156.0592 C   0  0  0  0  0  0  0  0  0  0  0  0
  151.3978  142.2460  158.5153 H   0  0  0  0  0  0  0  0  0  0  0  0
  151.5547  140.4910  158.3585 H   0  0  0  0  0  0  0  0  0  0  0  0
  150.3591  141.1695  159.4585 H   0  0  0  0  0  0  0  0  0  0  0  0
  148.3597  142.2418  158.5892 H   0  0  0  0  0  0  0  0  0  0  0  0
  149.2465  143.3355  157.5451 H   0  0  0  0  0  0  0  0  0  0  0  0
  147.1709  141.2629  156.7119 H   0  0  0  0  0  0  0  0  0  0  0  0
  146.9540  142.9944  156.6596 H   0  0  0  0  0  0  0  0  0  0  0  0
  148.7037  143.2464  154.9622 H   0  0  0  0  0  0  0  0  0  0  0  0
  146.1433  140.5451  154.8982 H   0  0  0  0  0  0  0  0  0  0  0  0
  146.0405  140.7448  153.1690 H   0  0  0  0  0  0  0  0  0  0  0  0
  147.4275  138.7349  153.8114 H   0  0  0  0  0  0  0  0  0  0  0  0
  148.3096  139.8929  152.8312 H   0  0  0  0  0  0  0  0  0  0  0  0
  152.9038  138.5066  154.0126 H   0  0  0  0  0  0  0  0  0  0  0  0
  148.0697  134.8354  156.1685 H   0  0  0  0  0  0  0  0  0  0  0  0
  151.5237  134.0981  154.7816 H   0  0  0  0  0  0  0  0  0  0  0  0
  151.2640  134.0532  156.5044 H   0  0  0  0  0  0  0  0  0  0  0  0
  149.5825  133.0306  157.2956 H   0  0  0  0  0  0  0  0  0  0  0  0
  148.1842  133.9136  154.3996 H   0  0  0  0  0  0  0  0  0  0  0  0
  149.4251  133.3489  153.3107 H   0  0  0  0  0  0  0  0  0  0  0  0
  147.3519  131.5695  154.6938 H   0  0  0  0  0  0  0  0  0  0  0  0
  147.4320  131.9733  152.9923 H   0  0  0  0  0  0  0  0  0  0  0  0
  149.0545  130.1033  155.6124 H   0  0  0  0  0  0  0  0  0  0  0  0
  150.3037  129.5042  154.5429 H   0  0  0  0  0  0  0  0  0  0  0  0
  151.3395  131.7101  154.3539 H   0  0  0  0  0  0  0  0  0  0  0  0
  151.1968  131.2987  156.0446 H   0  0  0  0  0  0  0  0  0  0  0  0
  149.9126  141.4175  153.9774 H   0  0  0  0  0  0  0  0  0  0  0  0
  150.9416  142.3803  155.9594 H   0  0  0  0  0  0  0  0  0  0  0  0
  151.2740  140.6731  155.9685 H   0  0  0  0  0  0  0  0  0  0  0  0
  149.3788  140.4122  157.4416 H   0  0  0  0  0  0  0  0  0  0  0  0
  1  2  1  0  0  0  0
  1 29  1  0  0  0  0
  1 30  1  0  0  0  0
  1 31  1  0  0  0  0
  2 28  1  0  0  0  0
  2  3  1  0  0  0  0
  2 57  1  0  0  0  0
  3  4  1  0  0  0  0
  3 32  1  0  0  0  0
  3 33  1  0  0  0  0
  4  5  1  0  0  0  0
  4 34  1  0  0  0  0
  4 35  1  0  0  0  0
  5 27  1  0  0  0  0
  5  6  1  0  0  0  0
  5 36  1  0  0  0  0
  6  7  1  0  0  0  0
  7  8  1  0  0  0  0
  7 37  1  0  0  0  0
  7 38  1  0  0  0  0
  8  9  1  0  0  0  0
  8 39  1  0  0  0  0
  8 40  1  0  0  0  0
  9 10  1  0  0  0  0
  9 27  1  0  0  0  0
 10 15  1  0  0  0  0
 10 11  2  0  0  0  0
 11 12  1  0  0  0  0
 12 13  2  0  0  0  0
 12 41  1  0  0  0  0
 13 14  1  0  0  0  0
 14 18  1  0  0  0  0
 14 15  2  0  0  0  0
 15 16  1  0  0  0  0
 16 17  2  0  0  0  0
 17 18  1  0  0  0  0
 17 42  1  0  0  0  0
 18 19  1  0  0  0  0
 19 20  1  0  0  0  0
 19 43  1  0  0  0  0
 19 44  1  0  0  0  0
 20 26  1  0  0  0  0
 20 21  1  0  0  0  0
 20 22  1  0  0  0  0
 21 45  1  0  0  0  0
 22 23  1  0  0  0  0
 22 46  1  0  0  0  0
 22 47  1  0  0  0  0
 23 24  1  0  0  0  0
 23 48  1  0  0  0  0
 23 49  1  0  0  0  0
 24 25  1  0  0  0  0
 25 26  1  0  0  0  0
 25 50  1  0  0  0  0
 25 51  1  0  0  0  0
 26 52  1  0  0  0  0
 26 53  1  0  0  0  0
 27 28  1  0  0  0  0
 27 54  1  0  0  0  0
 28 55  1  0  0  0  0
 28 56  1  0  0  0  0
M  CHG  1   2   1
M  END
> <s_m_source_file>
AV-unprocessed.smi

> <i_m_source_file_index>
244

> <i_lp_mmshare_version>
43012

> <i_f3d_flags>
0

> <s_epik_input>
W0NIMl0xW0NIMl1OKFtDSDNdKVtDSDJdW0NAQEhdKFtDQEhdMTIpTihbQ0gyXVtDSDJdTzIpYyhuW2NIXW4zKWMoYzM0KW5bY0hdbjRbQ0gyXUM1KFtPSF0pW0NIMl1bQ0gyXU9bQ0gyXVtDSDJdNQ==

> <s_epik_cmdline>
J2VwaWtfcHl0aG9uJywgJy1waCcsICc3LjAnLCAnLXRuJywgJzgnLCAnLW1hJywgJzIwMCcsICctbWV0YWxfYmluZGluZycsICctaW1hZScsICc8aW5maWxlLm1hZT4nLCAnLW9tYWUnLCAnPG91dGZpbGUubWFlPic=

> <r_lp_tautomer_probability>
1

> <r_epik_Ionization_Penalty>
0.0136215

> <r_epik_Ionization_Penalty_Charging>
0.0131385

> <r_epik_Ionization_Penalty_Neutral>
0.000483022

> <r_epik_State_Penalty>
0.0104001

> <r_epik_Charging_Adjusted_Penalty>
0.0235387

> <i_epik_Tot_Q>
1

> <i_epik_Tot_abs_Q>
1

> <r_epik_Metal_State_Penalty>
0.0104469

> <b_epik_Metal_Only>
0

> <s_lp_Force_Field>
OPLS_2005

> <r_lp_Energy>
48.7962

> <b_lp_Chiralities_Consistent>
1

> <s_lp_Variant>
AV-unprocessed.smi:244-5

> <Gold.Version>
5.8.1

> <Gold.Id.Protein>
6NUR|6NUR_protein|mol2

> <Gold.PLP.Fitness>
39.0872

> <Gold.PLP.PLP>
-34.8184

> <Gold.PLP.part.hbond>
-2.0000

> <Gold.PLP.part.metal>
0.0000

> <Gold.PLP.part.buried>
-0.2045

> <Gold.PLP.part.nonpolar>
-32.3107

> <Gold.PLP.part.repulsive>
0.7530

> <Gold.PLP.ligand.clash>
0.0000

> <Gold.PLP.ligand.torsion>
0.9197

> <Gold.PLP.Chemscore.Hbond>
1.9913

> <Gold.PLP.Chemscore.CHOScore>
0.0000

> <Gold.PLP.Chemscore.Metal>
0.0000

> <Gold.Chemscore.Hbonds>
donor molecule, donor type, donor heavy atom, donor atom, acceptor molecule, acceptor atom, score
      P1  H  7989  7998       L1    11  0.99
      P1  H 10752 10763       L1    13  1.00

> <Gold.PLP.Chemscore.Internal.Correction>
0.1345

> <Gold.Rescore>
     Score         DG    S(hbond)    S(metal)    S(lipo)     H(rot)  DE(clash)    DE(int)     intcor
      9.66     -15.26       1.66        0.00      81.95       2.09       2.16       3.43       ----

> <Gold.Chemscore.Fitness>
9.6571

> <Gold.Chemscore.DG>
-15.2563

> <Gold.Chemscore.ZeroCoef>
-5.4800

> <Gold.Chemscore.Hbond>
1.6590

> <Gold.Chemscore.Metal>
0.0000

> <Gold.Chemscore.Lipo>
81.9509

> <Gold.Chemscore.Internal_Hbond>
0.0000

> <Gold.Chemscore.DEClash>
2.1649

> <Gold.Chemscore.DEInternal>
3.4342

> <Gold.Chemscore.Rot>
2.0911

> <Gold.Chemscore.Internal.Correction>
   9.000000E+99

> <Gold.Chemscore.Hbonds>
donor molecule, donor type, donor heavy atom, donor atom, acceptor molecule, acceptor atom, score
      P1  H  7989  7998       L1    11  0.72
      P1  H 10752 10763       L1    13  0.94

> <Gold.Chemscore.Hbond.Weighted>
-5.5411

> <Gold.Chemscore.Metal.Weighted>
-0.0000

> <Gold.Chemscore.Lipo.Weighted>
-9.5883

> <Gold.Chemscore.Internal_Hbond.Weighted>
0.0000

> <Gold.Chemscore.DEClash.Weighted>
2.1649

> <Gold.Chemscore.DEInternal.Weighted>
3.4342

> <Gold.Chemscore.Rot.Weighted>
5.3531

> <Gold.Chemscore.Internal.Correction.Weighted>
   9.000000E+99

> <Gold.Protein.RotatedTorsions>
[ 6907 6896 6895 6894 ] final   12.76 input  -60.11 | X-H torsion
[ 7974 7965 7964 7962 ] final -102.34 input  175.53 | X-H torsion
[ 8008 7997 7996 7995 ] final  131.53 input   59.86 | X-H torsion
[ 10167 10162 10161 10158 ] final  154.44 input  -65.29 | X-H torsion
[ 10718 10713 10712 10709 ] final  160.51 input   66.30 | X-H torsion
[ 10763 10752 10751 10750 ] final   37.82 input  -60.55 | X-H torsion
[ 11005 11000 10999 10996 ] final  -27.82 input  -57.11 | X-H torsion

> <Gold.Protein.ActiveResidues>
 VAL166  LYS551  ARG553  GLY616  TRP617  ASP618  TYR619  PRO620  LYS621  CYS622 
 ASP623  PHE694  ASN695  SER759  ASP760  ASP761  ALA762  ILE779  LEU786  VAL792 
 PHE793  MET794  SER795  GLU796  ALA797  LYS798  CYS799  TRP800  GLU811  SER814 

> <Gold.Protein.RotatedAtoms>
  151.7755  135.0775  160.0365 H   0  0  0  0  0  0  0  0  0  0  0  0  # atno 6907 bound_to 6896
  152.3259  133.5900  159.5785 H   0  0  0  0  0  0  0  0  0  0  0  0  # atno 6908 bound_to 6896
  150.7395  133.9857  159.3632 H   0  0  0  0  0  0  0  0  0  0  0  0  # atno 6909 bound_to 6896
  145.2700  140.9296  143.2992 H   0  0  0  0  0  0  0  0  0  0  0  0  # atno 7974 bound_to 7965
  156.2971  140.2569  156.2940 H   0  0  0  0  0  0  0  0  0  0  0  0  # atno 8008 bound_to 7997
  154.9482  140.0395  157.2149 H   0  0  0  0  0  0  0  0  0  0  0  0  # atno 8009 bound_to 7997
  154.8061  140.2836  155.5891 H   0  0  0  0  0  0  0  0  0  0  0  0  # atno 8010 bound_to 7997
  139.4823  144.5186  151.7912 H   0  0  0  0  0  0  0  0  0  0  0  0  # atno 10167 bound_to 10162
  157.1494  131.0560  151.2288 H   0  0  0  0  0  0  0  0  0  0  0  0  # atno 10718 bound_to 10713
  153.0023  135.6267  154.2206 H   0  0  0  0  0  0  0  0  0  0  0  0  # atno 10763 bound_to 10752
  154.1949  135.2807  155.3011 H   0  0  0  0  0  0  0  0  0  0  0  0  # atno 10764 bound_to 10752
  154.5730  135.5671  153.7172 H   0  0  0  0  0  0  0  0  0  0  0  0  # atno 10765 bound_to 10752
  140.9153  133.7434  156.0726 H   0  0  0  0  0  0  0  0  0  0  0  0  # atno 11005 bound_to 11000
  144.9343  139.4262  143.6480 LP  0  0  0  0  0  0  0  0  0  0  0  0  # atno 17320 bound_to 7965
  146.3249  139.8270  142.8915 LP  0  0  0  0  0  0  0  0  0  0  0  0  # atno 17321 bound_to 7965
  140.4697  144.1604  150.5916 LP  0  0  0  0  0  0  0  0  0  0  0  0  # atno 17342 bound_to 10162
  140.4395  143.2533  151.9491 LP  0  0  0  0  0  0  0  0  0  0  0  0  # atno 17343 bound_to 10162
  157.4234  130.7450  149.6932 LP  0  0  0  0  0  0  0  0  0  0  0  0  # atno 17370 bound_to 10713
  155.9773  130.4064  150.3719 LP  0  0  0  0  0  0  0  0  0  0  0  0  # atno 17371 bound_to 10713
  140.8058  134.3457  157.5426 LP  0  0  0  0  0  0  0  0  0  0  0  0  # atno 17394 bound_to 11000
  139.8765  134.9225  156.3301 LP  0  0  0  0  0  0  0  0  0  0  0  0  # atno 17395 bound_to 11000

$$$$
