AV-unprocessed.smi:2298|AV-procd|sdf|9227|dock3
  -GOLD-   2272012443D 1   1.00000     0.00000
 Structure written by MMmdl.
 38 39  0  0  0  0  0  0  0  0  2 V2000
  145.9992  130.3444  151.8386 C   0  0  0  0  0  0  0  0  0  0  0  0
  145.4095  131.7309  151.6643 C   0  0  0  0  0  0  0  0  0  0  0  0
  144.1470  131.8213  151.1914 N   0  3  0  0  0  0  0  0  0  0  0  0
  143.5212  132.9988  150.9868 C   0  0  0  0  0  0  0  0  0  0  0  0
  144.1856  134.2069  151.2744 C   0  0  0  0  0  0  0  0  0  0  0  0
  145.5066  134.1711  151.7893 C   0  0  0  0  0  0  0  0  0  0  0  0
  146.2563  135.3432  152.0895 N   0  0  0  0  0  0  0  0  0  0  0  0
  145.8317  136.4937  152.6393 C   0  0  0  0  0  0  0  0  0  0  0  0
  144.6760  136.7291  152.9916 O   0  0  0  0  0  0  0  0  0  0  0  0
  146.8401  137.3667  152.7762 N   0  0  0  0  0  0  0  0  0  0  0  0
  146.7251  138.7068  153.3439 C   0  0  1  0  0  0  0  0  0  0  0  0
  147.7756  138.8874  154.4549 C   0  0  0  0  0  0  0  0  0  0  0  0
  147.7312  140.3055  155.0511 C   0  0  0  0  0  0  0  0  0  0  0  0
  147.8712  141.3963  153.9727 C   0  0  1  0  0  0  0  0  0  0  0  0
  149.1862  141.3993  153.4530 O   0  0  0  0  0  0  0  0  0  0  0  0
  146.8538  141.1991  152.8332 C   0  0  0  0  0  0  0  0  0  0  0  0
  146.9007  139.7769  152.2476 C   0  0  0  0  0  0  0  0  0  0  0  0
  146.1278  132.9103  151.9724 C   0  0  0  0  0  0  0  0  0  0  0  0
  147.7489  132.8065  152.5729 Cl  0  0  0  0  0  0  0  0  0  0  0  0
  145.7363  138.8202  153.7931 H   0  0  0  0  0  0  0  0  0  0  0  0
  147.7085  142.3732  154.4297 H   0  0  0  0  0  0  0  0  0  0  0  0
  146.2757  130.1774  152.8799 H   0  0  0  0  0  0  0  0  0  0  0  0
  146.8916  130.2311  151.2221 H   0  0  0  0  0  0  0  0  0  0  0  0
  145.2885  129.5696  151.5490 H   0  0  0  0  0  0  0  0  0  0  0  0
  142.5163  132.9404  150.5950 H   0  0  0  0  0  0  0  0  0  0  0  0
  143.6730  135.1369  151.0818 H   0  0  0  0  0  0  0  0  0  0  0  0
  147.2512  135.2699  151.9327 H   0  0  0  0  0  0  0  0  0  0  0  0
  147.7582  137.0874  152.4627 H   0  0  0  0  0  0  0  0  0  0  0  0
  147.6111  138.1549  155.2459 H   0  0  0  0  0  0  0  0  0  0  0  0
  148.7726  138.6913  154.0576 H   0  0  0  0  0  0  0  0  0  0  0  0
  146.7812  140.4402  155.5698 H   0  0  0  0  0  0  0  0  0  0  0  0
  148.5080  140.4187  155.8081 H   0  0  0  0  0  0  0  0  0  0  0  0
  149.3323  140.5829  153.0000 H   0  0  0  0  0  0  0  0  0  0  0  0
  145.8502  141.3886  153.2163 H   0  0  0  0  0  0  0  0  0  0  0  0
  147.0208  141.9346  152.0456 H   0  0  0  0  0  0  0  0  0  0  0  0
  147.8509  139.6267  151.7332 H   0  0  0  0  0  0  0  0  0  0  0  0
  146.1227  139.6718  151.4905 H   0  0  0  0  0  0  0  0  0  0  0  0
  143.6456  130.9597  150.9742 H   0  0  0  0  0  0  0  0  0  0  0  0
  1  2  1  0  0  0  0
  1 22  1  0  0  0  0
  1 23  1  0  0  0  0
  1 24  1  0  0  0  0
  2 18  1  0  0  0  0
  2  3  2  0  0  0  0
  3  4  1  0  0  0  0
  3 38  1  0  0  0  0
  4  5  2  0  0  0  0
  4 25  1  0  0  0  0
  5  6  1  0  0  0  0
  5 26  1  0  0  0  0
  6  7  1  0  0  0  0
  6 18  2  0  0  0  0
  7  8  1  0  0  0  0
  7 27  1  0  0  0  0
  8  9  2  0  0  0  0
  8 10  1  0  0  0  0
 10 11  1  0  0  0  0
 10 28  1  0  0  0  0
 11 20  1  0  0  0  0
 11 17  1  0  0  0  0
 11 12  1  0  0  0  0
 12 13  1  0  0  0  0
 12 29  1  0  0  0  0
 12 30  1  0  0  0  0
 13 14  1  0  0  0  0
 13 31  1  0  0  0  0
 13 32  1  0  0  0  0
 14 21  1  0  0  0  0
 14 15  1  0  0  0  0
 14 16  1  0  0  0  0
 15 33  1  0  0  0  0
 16 17  1  0  0  0  0
 16 34  1  0  0  0  0
 16 35  1  0  0  0  0
 17 36  1  0  0  0  0
 17 37  1  0  0  0  0
 18 19  1  0  0  0  0
M  CHG  1   3   1
M  END
> <s_m_source_file>
AV-unprocessed.smi

> <i_m_source_file_index>
2298

> <i_lp_mmshare_version>
43012

> <i_f3d_flags>
0

> <s_epik_input>
W0NIM11jMW5bY0hdW2NIXWMoYzFDbClbTkhdQyg9TylbTkhdW0NASF0yW0NIMl1bQ0gyXVtDQEhdKFtPSF0pW0NIMl1bQ0gyXTI=

> <s_epik_cmdline>
J2VwaWtfcHl0aG9uJywgJy1waCcsICc3LjAnLCAnLXRuJywgJzgnLCAnLW1hJywgJzIwMCcsICctbWV0YWxfYmluZGluZycsICctaW1hZScsICc8aW5maWxlLm1hZT4nLCAnLW9tYWUnLCAnPG91dGZpbGUubWFlPic=

> <r_epik_Ionization_Penalty>
2.42586

> <r_epik_Ionization_Penalty_Charging>
2.42584

> <r_epik_Ionization_Penalty_Neutral>
2.16148e-05

> <r_epik_State_Penalty>
2.58553

> <r_epik_Charging_Adjusted_Penalty>
5.01136

> <i_epik_Tot_Q>
1

> <i_epik_Tot_abs_Q>
1

> <r_epik_Metal_State_Penalty>
2.59536

> <b_epik_Metal_Only>
0

> <s_lp_Force_Field>
OPLS_2005

> <r_lp_Energy>
20.6895

> <b_lp_Chiralities_Consistent>
1

> <s_lp_Variant>
AV-unprocessed.smi:2298-4

> <Gold.Version>
5.8.1

> <Gold.Id.Protein>
6NUR|6NUR_protein|mol2

> <Gold.PLP.Fitness>
41.0680

> <Gold.PLP.PLP>
-31.1906

> <Gold.PLP.part.hbond>
-5.0000

> <Gold.PLP.part.metal>
0.0000

> <Gold.PLP.part.buried>
-2.7437

> <Gold.PLP.part.nonpolar>
-24.3249

> <Gold.PLP.part.repulsive>
0.2711

> <Gold.PLP.ligand.clash>
0.0000

> <Gold.PLP.ligand.torsion>
0.3574

> <Gold.PLP.Chemscore.Hbond>
3.5296

> <Gold.PLP.Chemscore.CHOScore>
0.0000

> <Gold.PLP.Chemscore.Metal>
0.0000

> <Gold.Chemscore.Hbonds>
donor molecule, donor type, donor heavy atom, donor atom, acceptor molecule, acceptor atom, score
      L1  H     7    27       P1  7948  0.94
      L1  H    10    28       P1  7948  1.00
      L1  H    15    33       P1  7957  0.70
      P1  H  8011  8017       L1    15  0.88

> <Gold.PLP.Chemscore.Internal.Correction>
0.0034

> <Gold.Rescore>
     Score         DG    S(hbond)    S(metal)    S(lipo)     H(rot)  DE(clash)    DE(int)     intcor
     19.95     -21.18       2.93        0.00      82.04       1.43       0.21       1.02       ----

> <Gold.Chemscore.Fitness>
19.9465

> <Gold.Chemscore.DG>
-21.1809

> <Gold.Chemscore.ZeroCoef>
-5.4800

> <Gold.Chemscore.Hbond>
2.9256

> <Gold.Chemscore.Metal>
0.0000

> <Gold.Chemscore.Lipo>
82.0391

> <Gold.Chemscore.Internal_Hbond>
0.0000

> <Gold.Chemscore.DEClash>
0.2147

> <Gold.Chemscore.DEInternal>
1.0196

> <Gold.Chemscore.Rot>
1.4333

> <Gold.Chemscore.Internal.Correction>
   9.000000E+99

> <Gold.Chemscore.Hbonds>
donor molecule, donor type, donor heavy atom, donor atom, acceptor molecule, acceptor atom, score
      L1  H     7    27       P1  7948  0.90
      L1  H    10    28       P1  7948  0.97
      L1  H    15    33       P1  7957  0.70
      P1  H  8011  8017       L1    15  0.19

> <Gold.Chemscore.Hbond.Weighted>
-9.7716

> <Gold.Chemscore.Metal.Weighted>
-0.0000

> <Gold.Chemscore.Lipo.Weighted>
-9.5986

> <Gold.Chemscore.Internal_Hbond.Weighted>
0.0000

> <Gold.Chemscore.DEClash.Weighted>
0.2147

> <Gold.Chemscore.DEInternal.Weighted>
1.0196

> <Gold.Chemscore.Rot.Weighted>
3.6693

> <Gold.Chemscore.Internal.Correction.Weighted>
   9.000000E+99

> <Gold.Protein.RotatedTorsions>
[ 6907 6896 6895 6894 ] final   68.21 input  -60.11 | X-H torsion
[ 7974 7965 7964 7962 ] final  -52.66 input  175.53 | X-H torsion
[ 8008 7997 7996 7995 ] final  -37.73 input   59.86 | X-H torsion
[ 10167 10162 10161 10158 ] final  -43.64 input  -65.29 | X-H torsion
[ 10718 10713 10712 10709 ] final  136.23 input   66.30 | X-H torsion
[ 10763 10752 10751 10750 ] final  -96.35 input  -60.55 | X-H torsion
[ 11005 11000 10999 10996 ] final   27.87 input  -57.11 | X-H torsion

> <Gold.Protein.ActiveResidues>
 VAL166  LYS551  ARG553  GLY616  TRP617  ASP618  TYR619  PRO620  LYS621  CYS622 
 ASP623  PHE694  ASN695  SER759  ASP760  ASP761  ALA762  ILE779  LEU786  VAL792 
 PHE793  MET794  SER795  GLU796  ALA797  LYS798  CYS799  TRP800  GLU811  SER814 

> <Gold.Protein.RotatedAtoms>
  152.4604  134.5196  159.9778 H   0  0  0  0  0  0  0  0  0  0  0  0  # atno 6907 bound_to 6896
  151.5246  133.3454  159.2915 H   0  0  0  0  0  0  0  0  0  0  0  0  # atno 6908 bound_to 6896
  150.8565  134.7935  159.7112 H   0  0  0  0  0  0  0  0  0  0  0  0  # atno 6909 bound_to 6896
  145.9055  140.7959  142.9721 H   0  0  0  0  0  0  0  0  0  0  0  0  # atno 7974 bound_to 7965
  154.4048  140.1596  156.2585 H   0  0  0  0  0  0  0  0  0  0  0  0  # atno 8008 bound_to 7997
  155.9057  140.3430  155.6038 H   0  0  0  0  0  0  0  0  0  0  0  0  # atno 8009 bound_to 7997
  155.7395  140.0790  157.2243 H   0  0  0  0  0  0  0  0  0  0  0  0  # atno 8010 bound_to 7997
  140.6926  143.2972  151.3381 H   0  0  0  0  0  0  0  0  0  0  0  0  # atno 10167 bound_to 10162
  157.4489  131.1064  151.0057 H   0  0  0  0  0  0  0  0  0  0  0  0  # atno 10718 bound_to 10713
  154.7231  135.5087  153.8844 H   0  0  0  0  0  0  0  0  0  0  0  0  # atno 10763 bound_to 10752
  153.0880  135.6651  153.9918 H   0  0  0  0  0  0  0  0  0  0  0  0  # atno 10764 bound_to 10752
  153.9736  135.3036  155.3405 H   0  0  0  0  0  0  0  0  0  0  0  0  # atno 10765 bound_to 10752
  140.3216  134.2537  155.7716 H   0  0  0  0  0  0  0  0  0  0  0  0  # atno 11005 bound_to 11000
  144.6739  140.1744  143.7411 LP  0  0  0  0  0  0  0  0  0  0  0  0  # atno 17320 bound_to 7965
  145.8737  139.2286  143.1646 LP  0  0  0  0  0  0  0  0  0  0  0  0  # atno 17321 bound_to 7965
  139.6346  144.0656  152.2505 LP  0  0  0  0  0  0  0  0  0  0  0  0  # atno 17342 bound_to 10162
  140.0141  144.6202  150.7622 LP  0  0  0  0  0  0  0  0  0  0  0  0  # atno 17343 bound_to 10162
  157.0894  130.5936  149.5436 LP  0  0  0  0  0  0  0  0  0  0  0  0  # atno 17370 bound_to 10713
  155.9979  130.5051  150.7550 LP  0  0  0  0  0  0  0  0  0  0  0  0  # atno 17371 bound_to 10713
  141.2085  133.7775  157.0054 LP  0  0  0  0  0  0  0  0  0  0  0  0  # atno 17394 bound_to 11000
  140.0937  134.9577  157.1816 LP  0  0  0  0  0  0  0  0  0  0  0  0  # atno 17395 bound_to 11000

$$$$
