AV-unprocessed.smi:2624|AV-procd|sdf|10233|dock8
  -GOLD-   2272014243D 1   1.00000     0.00000
 Structure written by MMmdl.
 39 40  0  0  0  0  0  0  0  0  1 V2000
  151.9717  143.9463  158.7355 C   0  0  0  0  0  0  0  0  0  0  0  0
  151.2159  142.7611  158.9140 O   0  0  0  0  0  0  0  0  0  0  0  0
  150.3045  142.5336  157.8529 C   0  0  0  0  0  0  0  0  0  0  0  0
  151.0990  142.2612  156.5670 C   0  0  0  0  0  0  0  0  0  0  0  0
  150.5323  141.1353  155.8127 N   0  0  0  0  0  0  0  0  0  0  0  0
  149.2185  141.2897  155.3295 C   0  0  0  0  0  0  0  0  0  0  0  0
  148.5980  140.3287  154.6199 C   0  0  0  0  0  0  0  0  0  0  0  0
  147.2147  140.5313  154.1266 C   0  0  0  0  0  0  0  0  0  0  0  0
  146.7446  141.6626  153.9991 O   0  0  0  0  0  0  0  0  0  0  0  0
  146.3902  139.3296  153.8055 C   0  0  0  0  0  0  0  0  0  0  0  0
  145.3568  138.9787  154.7035 C   0  0  0  0  0  0  0  0  0  0  0  0
  144.5495  137.8478  154.4688 C   0  0  0  0  0  0  0  0  0  0  0  0
  143.4563  137.4817  155.4512 C   0  0  0  0  0  0  0  0  0  0  0  0
  144.7689  137.0585  153.3235 C   0  0  0  0  0  0  0  0  0  0  0  0
  145.7837  137.4067  152.4134 C   0  0  0  0  0  0  0  0  0  0  0  0
  146.5920  138.5384  152.6423 C   0  0  0  0  0  0  0  0  0  0  0  0
  147.5377  138.8538  151.7061 O   0  0  0  0  0  0  0  0  0  0  0  0
  149.3233  139.0975  154.3748 C   0  0  0  0  0  0  0  0  0  0  0  0
  150.5775  138.9403  154.8422 C   0  0  0  0  0  0  0  0  0  0  0  0
  151.3072  137.7370  154.6149 C   0  0  0  0  0  0  0  0  0  0  0  0
  151.8819  136.7471  154.4433 N   0  0  0  0  0  0  0  0  0  0  0  0
  151.2562  139.9924  155.6120 C   0  0  0  0  0  0  0  0  0  0  0  0
  152.3989  139.8605  156.0538 O   0  0  0  0  0  0  0  0  0  0  0  0
  152.6578  144.0731  159.5728 H   0  0  0  0  0  0  0  0  0  0  0  0
  151.3252  144.8238  158.6948 H   0  0  0  0  0  0  0  0  0  0  0  0
  152.5627  143.9035  157.8200 H   0  0  0  0  0  0  0  0  0  0  0  0
  149.6629  141.6835  158.0909 H   0  0  0  0  0  0  0  0  0  0  0  0
  149.6622  143.4059  157.7200 H   0  0  0  0  0  0  0  0  0  0  0  0
  151.1102  143.1606  155.9496 H   0  0  0  0  0  0  0  0  0  0  0  0
  152.1465  142.0735  156.8095 H   0  0  0  0  0  0  0  0  0  0  0  0
  148.7582  142.2377  155.5715 H   0  0  0  0  0  0  0  0  0  0  0  0
  145.1847  139.5739  155.5895 H   0  0  0  0  0  0  0  0  0  0  0  0
  142.7243  136.8137  154.9961 H   0  0  0  0  0  0  0  0  0  0  0  0
  142.9320  138.3751  155.7920 H   0  0  0  0  0  0  0  0  0  0  0  0
  143.8841  136.9811  156.3200 H   0  0  0  0  0  0  0  0  0  0  0  0
  144.1571  136.1883  153.1352 H   0  0  0  0  0  0  0  0  0  0  0  0
  145.9352  136.8029  151.5302 H   0  0  0  0  0  0  0  0  0  0  0  0
  148.1028  138.1276  151.4909 H   0  0  0  0  0  0  0  0  0  0  0  0
  148.8631  138.2917  153.8212 H   0  0  0  0  0  0  0  0  0  0  0  0
  1  2  1  0  0  0  0
  1 24  1  0  0  0  0
  1 25  1  0  0  0  0
  1 26  1  0  0  0  0
  2  3  1  0  0  0  0
  3  4  1  0  0  0  0
  3 27  1  0  0  0  0
  3 28  1  0  0  0  0
  4  5  1  0  0  0  0
  4 29  1  0  0  0  0
  4 30  1  0  0  0  0
  5 22  1  0  0  0  0
  5  6  1  0  0  0  0
  6  7  2  0  0  0  0
  6 31  1  0  0  0  0
  7  8  1  0  0  0  0
  7 18  1  0  0  0  0
  8  9  2  0  0  0  0
  8 10  1  0  0  0  0
 10 16  1  0  0  0  0
 10 11  2  0  0  0  0
 11 12  1  0  0  0  0
 11 32  1  0  0  0  0
 12 13  1  0  0  0  0
 12 14  2  0  0  0  0
 13 33  1  0  0  0  0
 13 34  1  0  0  0  0
 13 35  1  0  0  0  0
 14 15  1  0  0  0  0
 14 36  1  0  0  0  0
 15 16  2  0  0  0  0
 15 37  1  0  0  0  0
 16 17  1  0  0  0  0
 17 38  1  0  0  0  0
 18 19  2  0  0  0  0
 18 39  1  0  0  0  0
 19 20  1  0  0  0  0
 19 22  1  0  0  0  0
 20 21  3  0  0  0  0
 22 23  2  0  0  0  0
M  END
> <s_m_source_file>
AV-unprocessed.smi

> <i_m_source_file_index>
2624

> <i_lp_mmshare_version>
43012

> <i_f3d_flags>
0

> <s_epik_input>
W0NIM11PW0NIMl1bQ0gyXW4xW2NIXWMoW2NIXWMoQyNOKWMxPU8pQyg9TyljMltjSF1jKFtDSDNdKVtjSF1bY0hdYzJbT0hd

> <s_epik_cmdline>
J2VwaWtfcHl0aG9uJywgJy1waCcsICc3LjAnLCAnLXRuJywgJzgnLCAnLW1hJywgJzIwMCcsICctbWV0YWxfYmluZGluZycsICctaW1hZScsICc8aW5maWxlLm1hZT4nLCAnLW9tYWUnLCAnPG91dGZpbGUubWFlPic=

> <r_epik_Ionization_Penalty>
0.124493

> <r_epik_Ionization_Penalty_Charging>
5.62591e-11

> <r_epik_Ionization_Penalty_Neutral>
0.124493

> <r_epik_State_Penalty>
0.113971

> <r_epik_Charging_Adjusted_Penalty>
0.113971

> <i_epik_Tot_Q>
0

> <i_epik_Tot_abs_Q>
0

> <r_epik_Metal_State_Penalty>
0.113971

> <b_epik_Metal_Only>
0

> <s_lp_Force_Field>
OPLS_2005

> <r_lp_Energy>
23.5595

> <b_lp_Chiralities_Consistent>
1

> <s_lp_Variant>
AV-unprocessed.smi:2624-1

> <Gold.Version>
5.8.1

> <Gold.Id.Protein>
6NUR|6NUR_protein|mol2

> <Gold.PLP.Fitness>
49.3114

> <Gold.PLP.PLP>
-39.5324

> <Gold.PLP.part.hbond>
-4.1257

> <Gold.PLP.part.metal>
0.0000

> <Gold.PLP.part.buried>
-4.3280

> <Gold.PLP.part.nonpolar>
-31.9517

> <Gold.PLP.part.repulsive>
0.3663

> <Gold.PLP.ligand.clash>
0.0000

> <Gold.PLP.ligand.torsion>
1.9109

> <Gold.PLP.Chemscore.Hbond>
2.9587

> <Gold.PLP.Chemscore.CHOScore>
1.0000

> <Gold.PLP.Chemscore.Metal>
0.0000

> <Gold.Chemscore.Hbonds>
donor molecule, donor type, donor heavy atom, donor atom, acceptor molecule, acceptor atom, score
      L1  H    17    38       P1  7948  0.91
      P1  H  7997  8008       L1    23  1.00
      P1  H 10752 10765       L1    21  0.99
      L1  C     6    31       P1  8028  1.00

> <Gold.PLP.Chemscore.Internal.Correction>
1.7246

> <Gold.Rescore>
     Score         DG    S(hbond)    S(metal)    S(lipo)     H(rot)  DE(clash)    DE(int)     intcor
     16.86     -19.09       2.87        0.00      76.88       1.94       0.01       2.22       ----

> <Gold.Chemscore.Fitness>
16.8563

> <Gold.Chemscore.DG>
-19.0869

> <Gold.Chemscore.ZeroCoef>
-5.4800

> <Gold.Chemscore.Hbond>
2.8684

> <Gold.Chemscore.Metal>
0.0000

> <Gold.Chemscore.Lipo>
76.8772

> <Gold.Chemscore.Internal_Hbond>
0.0000

> <Gold.Chemscore.DEClash>
0.0104

> <Gold.Chemscore.DEInternal>
2.2203

> <Gold.Chemscore.Rot>
1.9407

> <Gold.Chemscore.Internal.Correction>
   9.000000E+99

> <Gold.Chemscore.Hbonds>
donor molecule, donor type, donor heavy atom, donor atom, acceptor molecule, acceptor atom, score
      L1  H    17    38       P1  7948  0.87
      P1  H  7997  8008       L1    23  0.98
      P1  H 10752 10765       L1    21  0.91

> <Gold.Chemscore.Hbond.Weighted>
-9.5805

> <Gold.Chemscore.Metal.Weighted>
-0.0000

> <Gold.Chemscore.Lipo.Weighted>
-8.9946

> <Gold.Chemscore.Internal_Hbond.Weighted>
0.0000

> <Gold.Chemscore.DEClash.Weighted>
0.0104

> <Gold.Chemscore.DEInternal.Weighted>
2.2203

> <Gold.Chemscore.Rot.Weighted>
4.9682

> <Gold.Chemscore.Internal.Correction.Weighted>
   9.000000E+99

> <Gold.Protein.RotatedTorsions>
[ 6907 6896 6895 6894 ] final  178.46 input  -60.11 | X-H torsion
[ 7974 7965 7964 7962 ] final   26.15 input  175.53 | X-H torsion
[ 8008 7997 7996 7995 ] final  -31.73 input   59.86 | X-H torsion
[ 10167 10162 10161 10158 ] final  -50.51 input  -65.29 | X-H torsion
[ 10718 10713 10712 10709 ] final -118.24 input   66.30 | X-H torsion
[ 10763 10752 10751 10750 ] final  149.01 input  -60.55 | X-H torsion
[ 11005 11000 10999 10996 ] final  144.31 input  -57.11 | X-H torsion

> <Gold.Protein.ActiveResidues>
 VAL166  LYS551  ARG553  GLY616  TRP617  ASP618  TYR619  PRO620  LYS621  CYS622 
 ASP623  PHE694  ASN695  SER759  ASP760  ASP761  ALA762  ILE779  LEU786  VAL792 
 PHE793  MET794  SER795  GLU796  ALA797  LYS798  CYS799  TRP800  GLU811  SER814 

> <Gold.Protein.RotatedAtoms>
  151.6874  133.3311  159.3234 H   0  0  0  0  0  0  0  0  0  0  0  0  # atno 6907 bound_to 6896
  150.7794  134.6728  159.6410 H   0  0  0  0  0  0  0  0  0  0  0  0  # atno 6908 bound_to 6896
  152.3847  134.6539  160.0182 H   0  0  0  0  0  0  0  0  0  0  0  0  # atno 6909 bound_to 6896
  146.1852  139.7367  142.8872 H   0  0  0  0  0  0  0  0  0  0  0  0  # atno 7974 bound_to 7965
  154.4203  140.1756  156.1614 H   0  0  0  0  0  0  0  0  0  0  0  0  # atno 8008 bound_to 7997
  155.9835  140.3375  155.6661 H   0  0  0  0  0  0  0  0  0  0  0  0  # atno 8009 bound_to 7997
  155.6468  140.0686  157.2591 H   0  0  0  0  0  0  0  0  0  0  0  0  # atno 8010 bound_to 7997
  140.6634  143.2655  151.4370 H   0  0  0  0  0  0  0  0  0  0  0  0  # atno 10167 bound_to 10162
  156.1092  130.6235  150.9266 H   0  0  0  0  0  0  0  0  0  0  0  0  # atno 10718 bound_to 10713
  154.0641  135.2872  155.3320 H   0  0  0  0  0  0  0  0  0  0  0  0  # atno 10763 bound_to 10752
  154.6789  135.5271  153.8240 H   0  0  0  0  0  0  0  0  0  0  0  0  # atno 10764 bound_to 10752
  153.0511  135.6576  154.0827 H   0  0  0  0  0  0  0  0  0  0  0  0  # atno 10765 bound_to 10752
  140.0622  134.9198  157.1203 H   0  0  0  0  0  0  0  0  0  0  0  0  # atno 11005 bound_to 11000
  145.3959  141.0379  143.3097 LP  0  0  0  0  0  0  0  0  0  0  0  0  # atno 17320 bound_to 7965
  144.8385  139.5511  143.6911 LP  0  0  0  0  0  0  0  0  0  0  0  0  # atno 17321 bound_to 7965
  139.5874  144.1573  152.2046 LP  0  0  0  0  0  0  0  0  0  0  0  0  # atno 17342 bound_to 10162
  140.0917  144.5615  150.7050 LP  0  0  0  0  0  0  0  0  0  0  0  0  # atno 17343 bound_to 10162
  157.6271  131.0924  150.8512 LP  0  0  0  0  0  0  0  0  0  0  0  0  # atno 17370 bound_to 10713
  156.8626  130.5118  149.5302 LP  0  0  0  0  0  0  0  0  0  0  0  0  # atno 17371 bound_to 10713
  140.3753  134.2346  155.7175 LP  0  0  0  0  0  0  0  0  0  0  0  0  # atno 17394 bound_to 11000
  141.1978  133.8051  157.0612 LP  0  0  0  0  0  0  0  0  0  0  0  0  # atno 17395 bound_to 11000

$$$$
