AV-unprocessed.smi:3092|AV-procd|sdf|11785|dock3
  -GOLD-   2272017163D 1   1.00000     0.00000
 Structure written by MMmdl.
 26 27  0  0  0  0  0  0  0  0  3 V2000
  151.3777  144.9579  160.3974 C   0  0  0  0  0  0  0  0  0  0  0  0
  152.0547  143.6653  160.5214 N   0  0  0  0  0  0  0  0  0  0  0  0
  152.7951  143.2400  161.5946 C   0  0  0  0  0  0  0  0  0  0  0  0
  153.2444  141.9827  161.2896 C   0  0  0  0  0  0  0  0  0  0  0  0
  152.7595  141.6916  160.0439 N   0  3  0  0  0  0  0  0  0  0  0  0
  152.0320  142.7128  159.5718 C   0  0  0  0  0  0  0  0  0  0  0  0
  151.3477  142.7502  158.2330 C   0  0  1  0  0  0  0  0  0  0  0  0
  151.6016  141.5443  157.3317 C   0  0  0  0  0  0  0  0  0  0  0  0
  150.4553  141.6193  156.3124 C   0  0  0  0  0  0  0  0  0  0  0  0
  149.3829  142.4246  156.9369 N   0  3  0  0  0  0  0  0  0  0  0  0
  149.8211  142.7906  158.2960 C   0  0  0  0  0  0  0  0  0  0  0  0
  151.5535  145.5504  161.2958 H   0  0  0  0  0  0  0  0  0  0  0  0
  150.3061  144.7948  160.2787 H   0  0  0  0  0  0  0  0  0  0  0  0
  151.7721  145.4919  159.5323 H   0  0  0  0  0  0  0  0  0  0  0  0
  152.9455  143.8484  162.4752 H   0  0  0  0  0  0  0  0  0  0  0  0
  153.8571  141.2918  161.8506 H   0  0  0  0  0  0  0  0  0  0  0  0
  151.6922  143.6448  157.7139 H   0  0  0  0  0  0  0  0  0  0  0  0
  152.5895  141.5562  156.8700 H   0  0  0  0  0  0  0  0  0  0  0  0
  151.5116  140.6194  157.9033 H   0  0  0  0  0  0  0  0  0  0  0  0
  150.7800  142.1221  155.4008 H   0  0  0  0  0  0  0  0  0  0  0  0
  150.0929  140.6282  156.0381 H   0  0  0  0  0  0  0  0  0  0  0  0
  149.2588  143.2667  156.3925 H   0  0  0  0  0  0  0  0  0  0  0  0
  149.4420  142.0374  158.9884 H   0  0  0  0  0  0  0  0  0  0  0  0
  149.4319  143.7614  158.6041 H   0  0  0  0  0  0  0  0  0  0  0  0
  148.5132  141.9112  156.9681 H   0  0  0  0  0  0  0  0  0  0  0  0
  152.9300  140.8260  159.5475 H   0  0  0  0  0  0  0  0  0  0  0  0
  1  2  1  0  0  0  0
  1 12  1  0  0  0  0
  1 13  1  0  0  0  0
  1 14  1  0  0  0  0
  2  6  1  0  0  0  0
  2  3  1  0  0  0  0
  3  4  2  0  0  0  0
  3 15  1  0  0  0  0
  4  5  1  0  0  0  0
  4 16  1  0  0  0  0
  5  6  2  0  0  0  0
  5 26  1  0  0  0  0
  6  7  1  0  0  0  0
  7 11  1  0  0  0  0
  7  8  1  0  0  0  0
  7 17  1  0  0  0  0
  8  9  1  0  0  0  0
  8 18  1  0  0  0  0
  8 19  1  0  0  0  0
  9 10  1  0  0  0  0
  9 20  1  0  0  0  0
  9 21  1  0  0  0  0
 10 11  1  0  0  0  0
 10 22  1  0  0  0  0
 10 25  1  0  0  0  0
 11 23  1  0  0  0  0
 11 24  1  0  0  0  0
M  CHG  1   5   1
M  CHG  1  10   1
M  END
> <s_m_source_file>
AV-unprocessed.smi

> <i_m_source_file_index>
3092

> <i_lp_mmshare_version>
43012

> <i_f3d_flags>
0

> <s_epik_input>
W0NIM11uMVtjSF1bY0hdbmMxW0NAQEhdMltDSDJdW0NIMl1bTkhdW0NIMl0y

> <s_epik_cmdline>
J2VwaWtfcHl0aG9uJywgJy1waCcsICc3LjAnLCAnLXRuJywgJzgnLCAnLW1hJywgJzIwMCcsICctbWV0YWxfYmluZGluZycsICctaW1hZScsICc8aW5maWxlLm1hZT4nLCAnLW9tYWUnLCAnPG91dGZpbGUubWFlPic=

> <r_lp_tautomer_probability>
1

> <r_epik_Ionization_Penalty>
0.803493

> <r_epik_Ionization_Penalty_Charging>
0.000689375

> <r_epik_Ionization_Penalty_Neutral>
0.802804

> <r_epik_State_Penalty>
0.834355

> <r_epik_Charging_Adjusted_Penalty>
0.835044

> <i_epik_Tot_Q>
2

> <i_epik_Tot_abs_Q>
2

> <r_epik_Metal_State_Penalty>
4.76097

> <b_epik_Metal_Only>
0

> <s_lp_Force_Field>
OPLS_2005

> <r_lp_Energy>
35.9538

> <b_lp_Chiralities_Consistent>
1

> <s_lp_Variant>
AV-unprocessed.smi:3092-4

> <Gold.Version>
5.8.1

> <Gold.Id.Protein>
6NUR|6NUR_protein|mol2

> <Gold.PLP.Fitness>
33.5102

> <Gold.PLP.PLP>
-27.6127

> <Gold.PLP.part.hbond>
-1.0000

> <Gold.PLP.part.metal>
0.0000

> <Gold.PLP.part.buried>
-4.7215

> <Gold.PLP.part.nonpolar>
-21.7835

> <Gold.PLP.part.repulsive>
0.1024

> <Gold.PLP.ligand.clash>
0.0000

> <Gold.PLP.ligand.torsion>
0.0525

> <Gold.PLP.Chemscore.Hbond>
2.0000

> <Gold.PLP.Chemscore.CHOScore>
0.0000

> <Gold.PLP.Chemscore.Metal>
0.0000

> <Gold.Chemscore.Hbonds>
donor molecule, donor type, donor heavy atom, donor atom, acceptor molecule, acceptor atom, score
      L1  H    10    22       P1  8028  2.00

> <Gold.PLP.Chemscore.Internal.Correction>
0.0025

> <Gold.Rescore>
     Score         DG    S(hbond)    S(metal)    S(lipo)     H(rot)  DE(clash)    DE(int)     intcor
     13.46     -13.53       1.00        0.00      62.24       1.00       0.03       0.04       ----

> <Gold.Chemscore.Fitness>
13.4644

> <Gold.Chemscore.DG>
-13.5309

> <Gold.Chemscore.ZeroCoef>
-5.4800

> <Gold.Chemscore.Hbond>
0.9966

> <Gold.Chemscore.Metal>
0.0000

> <Gold.Chemscore.Lipo>
62.2416

> <Gold.Chemscore.Internal_Hbond>
0.0000

> <Gold.Chemscore.DEClash>
0.0270

> <Gold.Chemscore.DEInternal>
0.0395

> <Gold.Chemscore.Rot>
1.0000

> <Gold.Chemscore.Internal.Correction>
   9.000000E+99

> <Gold.Chemscore.Hbonds>
donor molecule, donor type, donor heavy atom, donor atom, acceptor molecule, acceptor atom, score
      L1  H    10    22       P1  8028  1.00

> <Gold.Chemscore.Hbond.Weighted>
-3.3287

> <Gold.Chemscore.Metal.Weighted>
-0.0000

> <Gold.Chemscore.Lipo.Weighted>
-7.2823

> <Gold.Chemscore.Internal_Hbond.Weighted>
0.0000

> <Gold.Chemscore.DEClash.Weighted>
0.0270

> <Gold.Chemscore.DEInternal.Weighted>
0.0395

> <Gold.Chemscore.Rot.Weighted>
2.5600

> <Gold.Chemscore.Internal.Correction.Weighted>
   9.000000E+99

> <Gold.Protein.RotatedTorsions>
[ 6907 6896 6895 6894 ] final   39.38 input  -60.11 | X-H torsion
[ 7974 7965 7964 7962 ] final  151.11 input  175.53 | X-H torsion
[ 8008 7997 7996 7995 ] final  -46.18 input   59.86 | X-H torsion
[ 10167 10162 10161 10158 ] final   38.41 input  -65.29 | X-H torsion
[ 10718 10713 10712 10709 ] final -106.94 input   66.30 | X-H torsion
[ 10763 10752 10751 10750 ] final   18.67 input  -60.55 | X-H torsion
[ 11005 11000 10999 10996 ] final  126.04 input  -57.11 | X-H torsion

> <Gold.Protein.ActiveResidues>
 VAL166  LYS551  ARG553  GLY616  TRP617  ASP618  TYR619  PRO620  LYS621  CYS622 
 ASP623  PHE694  ASN695  SER759  ASP760  ASP761  ALA762  ILE779  LEU786  VAL792 
 PHE793  MET794  SER795  GLU796  ALA797  LYS798  CYS799  TRP800  GLU811  SER814 

> <Gold.Protein.RotatedAtoms>
  152.1688  134.8851  160.0535 H   0  0  0  0  0  0  0  0  0  0  0  0  # atno 6907 bound_to 6896
  151.9819  133.3755  159.4119 H   0  0  0  0  0  0  0  0  0  0  0  0  # atno 6908 bound_to 6896
  150.6898  134.3952  159.5138 H   0  0  0  0  0  0  0  0  0  0  0  0  # atno 6909 bound_to 6896
  144.8316  139.6495  143.6056 H   0  0  0  0  0  0  0  0  0  0  0  0  # atno 7974 bound_to 7965
  154.4005  140.1378  156.3968 H   0  0  0  0  0  0  0  0  0  0  0  0  # atno 8008 bound_to 7997
  155.7862  140.3480  155.5304 H   0  0  0  0  0  0  0  0  0  0  0  0  # atno 8009 bound_to 7997
  155.8625  140.0959  157.1594 H   0  0  0  0  0  0  0  0  0  0  0  0  # atno 8010 bound_to 7997
  140.3939  144.1815  150.6131 H   0  0  0  0  0  0  0  0  0  0  0  0  # atno 10167 bound_to 10162
  156.0413  130.5638  150.7751 H   0  0  0  0  0  0  0  0  0  0  0  0  # atno 10718 bound_to 10713
  153.1228  135.6723  153.9306 H   0  0  0  0  0  0  0  0  0  0  0  0  # atno 10763 bound_to 10752
  153.8816  135.3057  155.3446 H   0  0  0  0  0  0  0  0  0  0  0  0  # atno 10764 bound_to 10752
  154.7638  135.4975  153.9594 H   0  0  0  0  0  0  0  0  0  0  0  0  # atno 10765 bound_to 10752
  139.9436  134.9632  156.8648 H   0  0  0  0  0  0  0  0  0  0  0  0  # atno 11005 bound_to 11000
  146.2618  139.6428  142.9356 LP  0  0  0  0  0  0  0  0  0  0  0  0  # atno 17320 bound_to 7965
  145.4884  141.0438  143.2607 LP  0  0  0  0  0  0  0  0  0  0  0  0  # atno 17321 bound_to 7965
  140.4811  143.2379  151.8954 LP  0  0  0  0  0  0  0  0  0  0  0  0  # atno 17342 bound_to 10162
  139.4787  144.5268  151.8723 LP  0  0  0  0  0  0  0  0  0  0  0  0  # atno 17343 bound_to 10162
  157.5234  131.0933  151.0049 LP  0  0  0  0  0  0  0  0  0  0  0  0  # atno 17370 bound_to 10713
  157.0373  130.5735  149.5351 LP  0  0  0  0  0  0  0  0  0  0  0  0  # atno 17371 bound_to 10713
  140.5889  134.0280  155.7492 LP  0  0  0  0  0  0  0  0  0  0  0  0  # atno 17394 bound_to 11000
  141.1079  133.9663  157.2963 LP  0  0  0  0  0  0  0  0  0  0  0  0  # atno 17395 bound_to 11000

$$$$
