AV-unprocessed.smi:2024|AV-procd|sdf|8193|dock1
  -GOLD-   2272010443D 1   1.00000     0.00000
 Structure written by MMmdl.
 43 44  0  0  0  0  0  0  0  0  1 V2000
  153.4055  140.7395  159.2275 C   0  0  0  0  0  0  0  0  0  0  0  0
  152.8096  140.2131  158.0093 N   0  0  0  0  0  0  0  0  0  0  0  0
  151.9021  141.1773  157.3953 C   0  0  0  0  0  0  0  0  0  0  0  0
  151.2881  140.6236  156.0968 C   0  0  0  0  0  0  0  0  0  0  0  0
  150.5448  139.3750  156.3329 N   0  0  0  0  0  0  0  0  0  0  0  0
  149.8089  138.8512  155.1480 C   0  0  0  0  0  0  0  0  0  0  0  0
  148.8983  139.9116  154.4829 C   0  0  0  0  0  0  0  0  0  0  0  0
  150.7931  138.3496  154.0609 C   0  0  0  0  0  0  0  0  0  0  0  0
  148.9030  137.6402  155.5212 C   0  0  0  0  0  0  0  0  0  0  0  0
  148.2372  137.0472  154.3615 N   0  0  0  0  0  0  0  0  0  0  0  0
  146.9881  136.5617  154.3371 C   0  0  0  0  0  0  0  0  0  0  0  0
  146.2420  136.5498  155.3161 O   0  0  0  0  0  0  0  0  0  0  0  0
  146.6716  136.1045  153.1150 N   0  0  0  0  0  0  0  0  0  0  0  0
  145.4496  135.5236  152.6953 C   0  0  0  0  0  0  0  0  0  0  0  0
  144.5962  135.0785  153.6193 N   0  0  0  0  0  0  0  0  0  0  0  0
  143.4413  134.5352  153.0492 C   0  0  0  0  0  0  0  0  0  0  0  0
  143.4319  134.5752  151.6770 C   0  0  0  0  0  0  0  0  0  0  0  0
  144.8824  135.3009  151.0382 S   0  0  0  0  0  0  0  0  0  0  0  0
  151.4611  138.4126  156.9666 C   0  0  0  0  0  0  0  0  0  0  0  0
  152.0773  138.9757  158.2607 C   0  0  0  0  0  0  0  0  0  0  0  0
  153.9661  141.6515  159.0196 H   0  0  0  0  0  0  0  0  0  0  0  0
  154.0968  140.0169  159.6622 H   0  0  0  0  0  0  0  0  0  0  0  0
  152.6427  140.9713  159.9720 H   0  0  0  0  0  0  0  0  0  0  0  0
  151.1056  141.4403  158.0936 H   0  0  0  0  0  0  0  0  0  0  0  0
  152.4401  142.0997  157.1740 H   0  0  0  0  0  0  0  0  0  0  0  0
  150.6350  141.3931  155.6895 H   0  0  0  0  0  0  0  0  0  0  0  0
  152.0817  140.4630  155.3667 H   0  0  0  0  0  0  0  0  0  0  0  0
  148.3835  139.4951  153.6162 H   0  0  0  0  0  0  0  0  0  0  0  0
  149.4606  140.7748  154.1278 H   0  0  0  0  0  0  0  0  0  0  0  0
  148.1265  140.2750  155.1611 H   0  0  0  0  0  0  0  0  0  0  0  0
  150.2744  137.7978  153.2760 H   0  0  0  0  0  0  0  0  0  0  0  0
  151.5507  137.6853  154.4779 H   0  0  0  0  0  0  0  0  0  0  0  0
  151.3124  139.1685  153.5632 H   0  0  0  0  0  0  0  0  0  0  0  0
  149.4828  136.8550  156.0057 H   0  0  0  0  0  0  0  0  0  0  0  0
  148.1696  137.9348  156.2741 H   0  0  0  0  0  0  0  0  0  0  0  0
  148.7694  137.0243  153.5039 H   0  0  0  0  0  0  0  0  0  0  0  0
  147.3840  136.1807  152.4040 H   0  0  0  0  0  0  0  0  0  0  0  0
  142.6727  134.1402  153.6968 H   0  0  0  0  0  0  0  0  0  0  0  0
  142.6625  134.2228  151.0060 H   0  0  0  0  0  0  0  0  0  0  0  0
  150.9397  137.4929  157.2249 H   0  0  0  0  0  0  0  0  0  0  0  0
  152.2627  138.1402  156.2795 H   0  0  0  0  0  0  0  0  0  0  0  0
  152.7487  138.2327  158.6924 H   0  0  0  0  0  0  0  0  0  0  0  0
  151.2898  139.1487  158.9961 H   0  0  0  0  0  0  0  0  0  0  0  0
  1  2  1  0  0  0  0
  1 21  1  0  0  0  0
  1 22  1  0  0  0  0
  1 23  1  0  0  0  0
  2 20  1  0  0  0  0
  2  3  1  0  0  0  0
  3  4  1  0  0  0  0
  3 24  1  0  0  0  0
  3 25  1  0  0  0  0
  4  5  1  0  0  0  0
  4 26  1  0  0  0  0
  4 27  1  0  0  0  0
  5  6  1  0  0  0  0
  5 19  1  0  0  0  0
  6  7  1  0  0  0  0
  6  8  1  0  0  0  0
  6  9  1  0  0  0  0
  7 28  1  0  0  0  0
  7 29  1  0  0  0  0
  7 30  1  0  0  0  0
  8 31  1  0  0  0  0
  8 32  1  0  0  0  0
  8 33  1  0  0  0  0
  9 10  1  0  0  0  0
  9 34  1  0  0  0  0
  9 35  1  0  0  0  0
 10 11  1  0  0  0  0
 10 36  1  0  0  0  0
 11 12  2  0  0  0  0
 11 13  1  0  0  0  0
 13 14  1  0  0  0  0
 13 37  1  0  0  0  0
 14 18  1  0  0  0  0
 14 15  2  0  0  0  0
 15 16  1  0  0  0  0
 16 17  2  0  0  0  0
 16 38  1  0  0  0  0
 17 18  1  0  0  0  0
 17 39  1  0  0  0  0
 19 20  1  0  0  0  0
 19 40  1  0  0  0  0
 19 41  1  0  0  0  0
 20 42  1  0  0  0  0
 20 43  1  0  0  0  0
M  END
> <s_m_source_file>
AV-unprocessed.smi

> <i_m_source_file_index>
2024

> <i_lp_mmshare_version>
43012

> <i_f3d_flags>
0

> <s_epik_input>
W0NIM11OMVtDSDJdW0NIMl1OKFtDSDJdW0NIMl0xKUMoW0NIM10pKFtDSDNdKVtDSDJdW05IXUMoPU8pW05IXWMybltjSF1bY0hdczI=

> <s_epik_cmdline>
J2VwaWtfcHl0aG9uJywgJy1waCcsICc3LjAnLCAnLXRuJywgJzgnLCAnLW1hJywgJzIwMCcsICctbWV0YWxfYmluZGluZycsICctaW1hZScsICc8aW5maWxlLm1hZT4nLCAnLW9tYWUnLCAnPG91dGZpbGUubWFlPic=

> <r_lp_tautomer_probability>
0.999

> <r_epik_Ionization_Penalty>
3.01774

> <r_epik_Ionization_Penalty_Charging>
0

> <r_epik_Ionization_Penalty_Neutral>
3.01774

> <r_epik_State_Penalty>
2.1369

> <r_epik_Charging_Adjusted_Penalty>
2.1369

> <i_epik_Tot_Q>
0

> <i_epik_Tot_abs_Q>
0

> <r_epik_Metal_State_Penalty>
2.1694

> <b_epik_Metal_Only>
0

> <s_lp_Force_Field>
OPLS_2005

> <r_lp_Energy>
47.9803

> <b_lp_Chiralities_Consistent>
1

> <s_lp_Variant>
AV-unprocessed.smi:2024-3

> <Gold.Version>
5.8.1

> <Gold.Id.Protein>
6NUR|6NUR_protein|mol2

> <Gold.PLP.Fitness>
38.4215

> <Gold.PLP.PLP>
-24.2817

> <Gold.PLP.part.hbond>
-2.9333

> <Gold.PLP.part.metal>
0.0000

> <Gold.PLP.part.buried>
-2.7724

> <Gold.PLP.part.nonpolar>
-18.5478

> <Gold.PLP.part.repulsive>
0.1001

> <Gold.PLP.ligand.clash>
0.0000

> <Gold.PLP.ligand.torsion>
0.2882

> <Gold.PLP.Chemscore.Hbond>
2.8880

> <Gold.PLP.Chemscore.CHOScore>
2.0000

> <Gold.PLP.Chemscore.Metal>
0.0000

> <Gold.Chemscore.Hbonds>
donor molecule, donor type, donor heavy atom, donor atom, acceptor molecule, acceptor atom, score
      L1  H    10    36       P1  7948  0.93
      L1  H    13    37       P1  7948  1.00
      P1  H  7997  8008       L1     2  0.94
      L1  C    16    38       P1 10957  0.75
      L1  C    17    39       P1 10186  1.00

> <Gold.PLP.Chemscore.Internal.Correction>
0.0522

> <Gold.Rescore>
     Score         DG    S(hbond)    S(metal)    S(lipo)     H(rot)  DE(clash)    DE(int)     intcor
     14.72     -16.43       2.08        0.00      68.26       1.56       0.07       1.63       ----

> <Gold.Chemscore.Fitness>
14.7199

> <Gold.Chemscore.DG>
-16.4287

> <Gold.Chemscore.ZeroCoef>
-5.4800

> <Gold.Chemscore.Hbond>
2.0844

> <Gold.Chemscore.Metal>
0.0000

> <Gold.Chemscore.Lipo>
68.2597

> <Gold.Chemscore.Internal_Hbond>
0.0000

> <Gold.Chemscore.DEClash>
0.0739

> <Gold.Chemscore.DEInternal>
1.6349

> <Gold.Chemscore.Rot>
1.5624

> <Gold.Chemscore.Internal.Correction>
   9.000000E+99

> <Gold.Chemscore.Hbonds>
donor molecule, donor type, donor heavy atom, donor atom, acceptor molecule, acceptor atom, score
      L1  H    10    36       P1  7948  0.91
      L1  H    13    37       P1  7948  0.98
      P1  H  7997  8008       L1     2  0.13

> <Gold.Chemscore.Hbond.Weighted>
-6.9620

> <Gold.Chemscore.Metal.Weighted>
-0.0000

> <Gold.Chemscore.Lipo.Weighted>
-7.9864

> <Gold.Chemscore.Internal_Hbond.Weighted>
0.0000

> <Gold.Chemscore.DEClash.Weighted>
0.0739

> <Gold.Chemscore.DEInternal.Weighted>
1.6349

> <Gold.Chemscore.Rot.Weighted>
3.9998

> <Gold.Chemscore.Internal.Correction.Weighted>
   9.000000E+99

> <Gold.Protein.RotatedTorsions>
[ 6907 6896 6895 6894 ] final  132.43 input  -60.11 | X-H torsion
[ 7974 7965 7964 7962 ] final -103.81 input  175.53 | X-H torsion
[ 8008 7997 7996 7995 ] final  -75.39 input   59.86 | X-H torsion
[ 10167 10162 10161 10158 ] final -101.21 input  -65.29 | X-H torsion
[ 10718 10713 10712 10709 ] final  118.54 input   66.30 | X-H torsion
[ 10763 10752 10751 10750 ] final  118.34 input  -60.55 | X-H torsion
[ 11005 11000 10999 10996 ] final  100.17 input  -57.11 | X-H torsion

> <Gold.Protein.ActiveResidues>
 VAL166  LYS551  ARG553  GLY616  TRP617  ASP618  TYR619  PRO620  LYS621  CYS622 
 ASP623  PHE694  ASN695  SER759  ASP760  ASP761  ALA762  ILE779  LEU786  VAL792 
 PHE793  MET794  SER795  GLU796  ALA797  LYS798  CYS799  TRP800  GLU811  SER814 

> <Gold.Protein.RotatedAtoms>
  152.3325  133.5974  159.5819 H   0  0  0  0  0  0  0  0  0  0  0  0  # atno 6907 bound_to 6896
  150.7431  133.9846  159.3596 H   0  0  0  0  0  0  0  0  0  0  0  0  # atno 6908 bound_to 6896
  151.7720  135.0784  160.0412 H   0  0  0  0  0  0  0  0  0  0  0  0  # atno 6909 bound_to 6896
  145.2512  140.9238  143.3094 H   0  0  0  0  0  0  0  0  0  0  0  0  # atno 7974 bound_to 7965
  154.5412  140.0745  156.8513 H   0  0  0  0  0  0  0  0  0  0  0  0  # atno 8008 bound_to 7997
  155.3177  140.3394  155.4224 H   0  0  0  0  0  0  0  0  0  0  0  0  # atno 8009 bound_to 7997
  156.1876  140.1674  156.8141 H   0  0  0  0  0  0  0  0  0  0  0  0  # atno 8010 bound_to 7997
  140.2437  143.3521  152.0778 H   0  0  0  0  0  0  0  0  0  0  0  0  # atno 10167 bound_to 10162
  157.6023  131.1049  150.7770 H   0  0  0  0  0  0  0  0  0  0  0  0  # atno 10718 bound_to 10713
  153.5661  135.3511  155.2819 H   0  0  0  0  0  0  0  0  0  0  0  0  # atno 10763 bound_to 10752
  154.8688  135.4148  154.2777 H   0  0  0  0  0  0  0  0  0  0  0  0  # atno 10764 bound_to 10752
  153.3533  135.7056  153.6841 H   0  0  0  0  0  0  0  0  0  0  0  0  # atno 10765 bound_to 10752
  139.8771  134.9128  156.4716 H   0  0  0  0  0  0  0  0  0  0  0  0  # atno 11005 bound_to 11000
  144.9501  139.4092  143.6406 LP  0  0  0  0  0  0  0  0  0  0  0  0  # atno 17320 bound_to 7965
  146.3302  139.8505  142.8874 LP  0  0  0  0  0  0  0  0  0  0  0  0  # atno 17321 bound_to 7965
  139.5069  144.6822  151.5980 LP  0  0  0  0  0  0  0  0  0  0  0  0  # atno 17342 bound_to 10162
  140.6094  143.9464  150.6442 LP  0  0  0  0  0  0  0  0  0  0  0  0  # atno 17343 bound_to 10162
  156.8167  130.4970  149.5348 LP  0  0  0  0  0  0  0  0  0  0  0  0  # atno 17370 bound_to 10713
  156.1100  130.6033  151.0031 LP  0  0  0  0  0  0  0  0  0  0  0  0  # atno 17371 bound_to 10713
  140.8792  133.7931  155.9448 LP  0  0  0  0  0  0  0  0  0  0  0  0  # atno 17394 bound_to 11000
  140.8872  134.2539  157.5113 LP  0  0  0  0  0  0  0  0  0  0  0  0  # atno 17395 bound_to 11000

$$$$
