AV-unprocessed.smi:2414|AV-procd|sdf|9540|dock5
  -GOLD-   2272013173D 1   1.00000     0.00000
 Structure written by MMmdl.
 43 44  0  0  0  0  0  0  0  0  1 V2000
  151.8660  142.7022  159.5558 C   0  0  0  0  0  0  0  0  0  0  0  0
  151.5161  141.9705  158.3045 C   0  0  0  0  0  0  0  0  0  0  0  0
  150.7696  142.4318  157.2488 C   0  0  0  0  0  0  0  0  0  0  0  0
  150.6148  141.5021  156.2185 N   0  0  0  0  0  0  0  0  0  0  0  0
  151.2345  140.3465  156.4742 C   0  0  0  0  0  0  0  0  0  0  0  0
  151.2191  139.1706  155.5448 C   0  0  2  0  0  0  0  0  0  0  0  0
  152.6083  138.8838  154.9566 C   0  0  0  0  0  0  0  0  0  0  0  0
  150.1197  139.2675  154.4692 C   0  0  0  0  0  0  0  0  0  0  0  0
  149.5805  137.9560  154.1275 N   0  0  0  0  0  0  0  0  0  0  0  0
  149.1888  137.0425  155.0240 C   0  0  0  0  0  0  0  0  0  0  0  0
  149.2291  137.2136  156.2424 O   0  0  0  0  0  0  0  0  0  0  0  0
  148.7482  135.9252  154.4310 N   0  0  0  0  0  0  0  0  0  0  0  0
  148.2300  134.7466  155.1194 C   0  0  0  0  0  0  0  0  0  0  0  0
  149.1231  133.5093  154.8851 C   0  0  2  0  0  0  0  0  0  0  0  0
  150.5147  133.6548  155.5314 C   0  0  0  0  0  0  0  0  0  0  0  0
  149.2411  133.1727  153.3874 C   0  0  0  0  0  0  0  0  0  0  0  0
  149.1436  131.6632  153.3593 C   0  0  0  0  0  0  0  0  0  0  0  0
  148.1507  131.4124  154.4837 C   0  0  0  0  0  0  0  0  0  0  0  0
  148.4967  132.3681  155.4777 O   0  0  0  0  0  0  0  0  0  0  0  0
  152.0586  140.3356  158.0295 S   0  0  0  0  0  0  0  0  0  0  0  0
  150.9905  143.2036  159.9688 H   0  0  0  0  0  0  0  0  0  0  0  0
  152.6272  143.4577  159.3607 H   0  0  0  0  0  0  0  0  0  0  0  0
  152.2521  142.0224  160.3155 H   0  0  0  0  0  0  0  0  0  0  0  0
  150.3105  143.4043  157.1487 H   0  0  0  0  0  0  0  0  0  0  0  0
  150.9689  138.3047  156.1597 H   0  0  0  0  0  0  0  0  0  0  0  0
  153.3424  138.7196  155.7461 H   0  0  0  0  0  0  0  0  0  0  0  0
  152.9586  139.7144  154.3431 H   0  0  0  0  0  0  0  0  0  0  0  0
  152.5925  137.9921  154.3295 H   0  0  0  0  0  0  0  0  0  0  0  0
  149.3061  139.8983  154.8313 H   0  0  0  0  0  0  0  0  0  0  0  0
  150.5146  139.7425  153.5699 H   0  0  0  0  0  0  0  0  0  0  0  0
  149.5116  137.7278  153.1465 H   0  0  0  0  0  0  0  0  0  0  0  0
  148.7578  135.8870  153.4221 H   0  0  0  0  0  0  0  0  0  0  0  0
  148.1761  134.9765  156.1841 H   0  0  0  0  0  0  0  0  0  0  0  0
  147.2115  134.5206  154.7992 H   0  0  0  0  0  0  0  0  0  0  0  0
  151.0452  134.5189  155.1306 H   0  0  0  0  0  0  0  0  0  0  0  0
  151.1299  132.7740  155.3464 H   0  0  0  0  0  0  0  0  0  0  0  0
  150.4486  133.7789  156.6124 H   0  0  0  0  0  0  0  0  0  0  0  0
  148.4030  133.5927  152.8294 H   0  0  0  0  0  0  0  0  0  0  0  0
  150.1577  133.5466  152.9297 H   0  0  0  0  0  0  0  0  0  0  0  0
  148.8093  131.2715  152.3983 H   0  0  0  0  0  0  0  0  0  0  0  0
  150.1088  131.2149  153.5980 H   0  0  0  0  0  0  0  0  0  0  0  0
  147.1313  131.6044  154.1458 H   0  0  0  0  0  0  0  0  0  0  0  0
  148.1982  130.3944  154.8708 H   0  0  0  0  0  0  0  0  0  0  0  0
  1  2  1  0  0  0  0
  1 21  1  0  0  0  0
  1 22  1  0  0  0  0
  1 23  1  0  0  0  0
  2 20  1  0  0  0  0
  2  3  2  0  0  0  0
  3  4  1  0  0  0  0
  3 24  1  0  0  0  0
  4  5  2  0  0  0  0
  5  6  1  0  0  0  0
  5 20  1  0  0  0  0
  6  7  1  0  0  0  0
  6  8  1  0  0  0  0
  6 25  1  0  0  0  0
  7 26  1  0  0  0  0
  7 27  1  0  0  0  0
  7 28  1  0  0  0  0
  8  9  1  0  0  0  0
  8 29  1  0  0  0  0
  8 30  1  0  0  0  0
  9 10  1  0  0  0  0
  9 31  1  0  0  0  0
 10 11  2  0  0  0  0
 10 12  1  0  0  0  0
 12 13  1  0  0  0  0
 12 32  1  0  0  0  0
 13 14  1  0  0  0  0
 13 33  1  0  0  0  0
 13 34  1  0  0  0  0
 14 19  1  0  0  0  0
 14 15  1  0  0  0  0
 14 16  1  0  0  0  0
 15 35  1  0  0  0  0
 15 36  1  0  0  0  0
 15 37  1  0  0  0  0
 16 17  1  0  0  0  0
 16 38  1  0  0  0  0
 16 39  1  0  0  0  0
 17 18  1  0  0  0  0
 17 40  1  0  0  0  0
 17 41  1  0  0  0  0
 18 19  1  0  0  0  0
 18 42  1  0  0  0  0
 18 43  1  0  0  0  0
M  END
> <s_m_source_file>
AV-unprocessed.smi

> <i_m_source_file_index>
2414

> <i_lp_mmshare_version>
43012

> <i_f3d_flags>
0

> <s_epik_input>
W0NIM11jMVtjSF1uYyhzMSlbQ0BIXShbQ0gzXSlbQ0gyXVtOSF1DKD1PKVtOSF1bQ0gyXVtDQEBdMihbQ0gzXSlbQ0gyXVtDSDJdW0NIMl1PMg==

> <s_epik_cmdline>
J2VwaWtfcHl0aG9uJywgJy1waCcsICc3LjAnLCAnLXRuJywgJzgnLCAnLW1hJywgJzIwMCcsICctbWV0YWxfYmluZGluZycsICctaW1hZScsICc8aW5maWxlLm1hZT4nLCAnLW9tYWUnLCAnPG91dGZpbGUubWFlPic=

> <r_epik_Ionization_Penalty>
0.000646956

> <r_epik_Ionization_Penalty_Charging>
0

> <r_epik_Ionization_Penalty_Neutral>
0.000646956

> <r_epik_State_Penalty>
0.000375727

> <r_epik_Charging_Adjusted_Penalty>
0.000375727

> <i_epik_Tot_Q>
0

> <i_epik_Tot_abs_Q>
0

> <r_epik_Metal_State_Penalty>
-0

> <b_epik_Metal_Only>
0

> <s_lp_Force_Field>
OPLS_2005

> <r_lp_Energy>
9.0626

> <b_lp_Chiralities_Consistent>
1

> <s_lp_Variant>
AV-unprocessed.smi:2414-3

> <Gold.Version>
5.8.1

> <Gold.Id.Protein>
6NUR|6NUR_protein|mol2

> <Gold.PLP.Fitness>
42.7770

> <Gold.PLP.PLP>
-35.4268

> <Gold.PLP.part.hbond>
-2.0000

> <Gold.PLP.part.metal>
0.0000

> <Gold.PLP.part.buried>
-4.4527

> <Gold.PLP.part.nonpolar>
-29.4915

> <Gold.PLP.part.repulsive>
0.1187

> <Gold.PLP.ligand.clash>
0.0000

> <Gold.PLP.ligand.torsion>
0.7265

> <Gold.PLP.Chemscore.Hbond>
1.8960

> <Gold.PLP.Chemscore.CHOScore>
1.0000

> <Gold.PLP.Chemscore.Metal>
0.0000

> <Gold.Chemscore.Hbonds>
donor molecule, donor type, donor heavy atom, donor atom, acceptor molecule, acceptor atom, score
      L1  H     9    31       P1  7948  0.86
      L1  H    12    32       P1  7948  1.00
      L1  C     3    24       P1  8028  1.00

> <Gold.PLP.Chemscore.Internal.Correction>
0.1152

> <Gold.Rescore>
     Score         DG    S(hbond)    S(metal)    S(lipo)     H(rot)  DE(clash)    DE(int)     intcor
     16.21     -18.61       1.83        0.00      96.14       1.65       0.16       2.23       ----

> <Gold.Chemscore.Fitness>
16.2139

> <Gold.Chemscore.DG>
-18.6066

> <Gold.Chemscore.ZeroCoef>
-5.4800

> <Gold.Chemscore.Hbond>
1.8287

> <Gold.Chemscore.Metal>
0.0000

> <Gold.Chemscore.Lipo>
96.1392

> <Gold.Chemscore.Internal_Hbond>
0.0000

> <Gold.Chemscore.DEClash>
0.1611

> <Gold.Chemscore.DEInternal>
2.2316

> <Gold.Chemscore.Rot>
1.6522

> <Gold.Chemscore.Internal.Correction>
   9.000000E+99

> <Gold.Chemscore.Hbonds>
donor molecule, donor type, donor heavy atom, donor atom, acceptor molecule, acceptor atom, score
      L1  H     9    31       P1  7948  0.73
      L1  H    12    32       P1  7948  0.97

> <Gold.Chemscore.Hbond.Weighted>
-6.1079

> <Gold.Chemscore.Metal.Weighted>
-0.0000

> <Gold.Chemscore.Lipo.Weighted>
-11.2483

> <Gold.Chemscore.Internal_Hbond.Weighted>
0.0000

> <Gold.Chemscore.DEClash.Weighted>
0.1611

> <Gold.Chemscore.DEInternal.Weighted>
2.2316

> <Gold.Chemscore.Rot.Weighted>
4.2295

> <Gold.Chemscore.Internal.Correction.Weighted>
   9.000000E+99

> <Gold.Protein.RotatedTorsions>
[ 6907 6896 6895 6894 ] final  115.67 input  -60.11 | X-H torsion
[ 7974 7965 7964 7962 ] final  -50.78 input  175.53 | X-H torsion
[ 8008 7997 7996 7995 ] final   -0.83 input   59.86 | X-H torsion
[ 10167 10162 10161 10158 ] final   72.36 input  -65.29 | X-H torsion
[ 10718 10713 10712 10709 ] final -119.20 input   66.30 | X-H torsion
[ 10763 10752 10751 10750 ] final   13.78 input  -60.55 | X-H torsion
[ 11005 11000 10999 10996 ] final  -47.29 input  -57.11 | X-H torsion

> <Gold.Protein.ActiveResidues>
 VAL166  LYS551  ARG553  GLY616  TRP617  ASP618  TYR619  PRO620  LYS621  CYS622 
 ASP623  PHE694  ASN695  SER759  ASP760  ASP761  ALA762  ILE779  LEU786  VAL792 
 PHE793  MET794  SER795  GLU796  ALA797  LYS798  CYS799  TRP800  GLU811  SER814 

> <Gold.Protein.RotatedAtoms>
  152.4727  133.8066  159.6981 H   0  0  0  0  0  0  0  0  0  0  0  0  # atno 6907 bound_to 6896
  150.8725  133.7475  159.2963 H   0  0  0  0  0  0  0  0  0  0  0  0  # atno 6908 bound_to 6896
  151.5005  135.1065  159.9880 H   0  0  0  0  0  0  0  0  0  0  0  0  # atno 6909 bound_to 6896
  145.9261  140.7791  142.9623 H   0  0  0  0  0  0  0  0  0  0  0  0  # atno 7974 bound_to 7965
  154.6536  140.2574  155.7186 H   0  0  0  0  0  0  0  0  0  0  0  0  # atno 8008 bound_to 7997
  156.2586  140.2863  156.0901 H   0  0  0  0  0  0  0  0  0  0  0  0  # atno 8009 bound_to 7997
  155.1413  140.0380  157.2789 H   0  0  0  0  0  0  0  0  0  0  0  0  # atno 8010 bound_to 7997
  140.0361  144.5426  150.7469 H   0  0  0  0  0  0  0  0  0  0  0  0  # atno 10167 bound_to 10162
  156.1163  130.6288  150.9387 H   0  0  0  0  0  0  0  0  0  0  0  0  # atno 10718 bound_to 10713
  153.1687  135.6808  153.8638 H   0  0  0  0  0  0  0  0  0  0  0  0  # atno 10763 bound_to 10752
  153.8009  135.3156  155.3391 H   0  0  0  0  0  0  0  0  0  0  0  0  # atno 10764 bound_to 10752
  154.7983  135.4793  154.0306 H   0  0  0  0  0  0  0  0  0  0  0  0  # atno 10765 bound_to 10752
  141.0631  133.6702  156.3276 H   0  0  0  0  0  0  0  0  0  0  0  0  # atno 11005 bound_to 11000
  144.6759  140.2053  143.7383 LP  0  0  0  0  0  0  0  0  0  0  0  0  # atno 17320 bound_to 7965
  145.8487  139.2164  143.1785 LP  0  0  0  0  0  0  0  0  0  0  0  0  # atno 17321 bound_to 7965
  140.7280  143.2658  151.4051 LP  0  0  0  0  0  0  0  0  0  0  0  0  # atno 17342 bound_to 10162
  139.6044  144.1228  152.2233 LP  0  0  0  0  0  0  0  0  0  0  0  0  # atno 17343 bound_to 10162
  157.6346  131.0917  150.8373 LP  0  0  0  0  0  0  0  0  0  0  0  0  # atno 17370 bound_to 10713
  156.8476  130.5069  149.5315 LP  0  0  0  0  0  0  0  0  0  0  0  0  # atno 17371 bound_to 10713
  140.5827  134.5729  157.5483 LP  0  0  0  0  0  0  0  0  0  0  0  0  # atno 17394 bound_to 11000
  139.9451  134.7716  156.0581 LP  0  0  0  0  0  0  0  0  0  0  0  0  # atno 17395 bound_to 11000

$$$$
