AV-unprocessed.smi:199|AV-procd|sdf|1561|dock4
  -GOLD-   2262019433D 1   1.00000     0.00000
 Structure written by MMmdl.
 51 55  0  0  0  0  0  0  0  0  1 V2000
  147.8898  136.0129  162.3380 C   0  0  0  0  0  0  0  0  0  0  0  0
  146.5234  135.4349  161.9348 C   0  0  1  0  0  0  0  0  0  0  0  0
  145.9033  134.7979  163.0424 O   0  0  0  0  0  0  0  0  0  0  0  0
  144.5338  134.6441  162.7172 C   0  0  0  0  0  0  0  0  0  0  0  0
  144.1775  135.9960  162.1108 C   0  0  0  0  0  0  0  0  0  0  0  0
  145.4620  136.4332  161.3994 C   0  0  1  0  0  0  0  0  0  0  0  0
  145.7507  137.7659  161.7894 O   0  0  0  0  0  0  0  0  0  0  0  0
  145.3129  136.4023  159.8583 C   0  0  0  0  0  0  0  0  0  0  0  0
  146.1356  137.3899  159.1760 N   0  0  0  0  0  0  0  0  0  0  0  0
  145.6981  138.5097  158.5063 C   0  0  0  0  0  0  0  0  0  0  0  0
  146.6384  139.2453  157.9806 N   0  0  0  0  0  0  0  0  0  0  0  0
  147.8169  138.5842  158.3077 C   0  0  0  0  0  0  0  0  0  0  0  0
  149.1990  138.8261  158.0582 C   0  0  0  0  0  0  0  0  0  0  0  0
  149.6634  139.9047  157.3702 N   0  0  0  0  0  0  0  0  0  0  0  0
  150.6141  140.8118  157.9917 C   0  0  1  0  0  0  0  0  0  0  0  0
  151.9437  140.0320  157.9728 C   0  0  0  0  0  0  0  0  0  0  0  0
  151.8215  139.2610  156.6494 C   0  0  0  0  0  0  0  0  0  0  0  0
  150.4406  139.7382  156.1486 C   0  0  2  0  0  0  0  0  0  0  0  0
  150.5782  141.1873  155.6312 C   0  0  1  0  0  0  0  0  0  0  0  0
  149.3897  141.6482  154.7677 C   0  0  0  0  0  0  0  0  0  0  0  0
  149.4150  141.0047  153.5112 O   0  0  0  0  0  0  0  0  0  0  0  0
  150.6826  141.9550  156.9654 C   0  0  0  0  0  0  0  0  0  0  0  0
  150.0842  137.9011  158.5170 N   0  0  0  0  0  0  0  0  0  0  0  0
  149.6596  136.8339  159.1983 C   0  0  0  0  0  0  0  0  0  0  0  0
  148.4111  136.4939  159.5202 N   0  0  0  0  0  0  0  0  0  0  0  0
  147.5136  137.4043  159.0463 C   0  0  0  0  0  0  0  0  0  0  0  0
  148.3697  136.5134  161.4967 H   0  0  0  0  0  0  0  0  0  0  0  0
  148.5579  135.2204  162.6750 H   0  0  0  0  0  0  0  0  0  0  0  0
  147.7973  136.7314  163.1526 H   0  0  0  0  0  0  0  0  0  0  0  0
  146.6865  134.6511  161.1943 H   0  0  0  0  0  0  0  0  0  0  0  0
  144.4153  133.8422  161.9866 H   0  0  0  0  0  0  0  0  0  0  0  0
  143.9343  134.4040  163.5953 H   0  0  0  0  0  0  0  0  0  0  0  0
  143.3124  135.9342  161.4495 H   0  0  0  0  0  0  0  0  0  0  0  0
  143.9207  136.6849  162.9176 H   0  0  0  0  0  0  0  0  0  0  0  0
  145.0241  138.0942  162.2962 H   0  0  0  0  0  0  0  0  0  0  0  0
  145.5804  135.4151  159.4793 H   0  0  0  0  0  0  0  0  0  0  0  0
  144.2732  136.5652  159.5709 H   0  0  0  0  0  0  0  0  0  0  0  0
  144.6530  138.7699  158.4247 H   0  0  0  0  0  0  0  0  0  0  0  0
  150.3456  141.1721  158.9832 H   0  0  0  0  0  0  0  0  0  0  0  0
  152.8154  140.6866  158.0046 H   0  0  0  0  0  0  0  0  0  0  0  0
  152.0052  139.3420  158.8154 H   0  0  0  0  0  0  0  0  0  0  0  0
  152.6264  139.4874  155.9493 H   0  0  0  0  0  0  0  0  0  0  0  0
  151.8287  138.1855  156.8296 H   0  0  0  0  0  0  0  0  0  0  0  0
  149.9972  139.0662  155.4128 H   0  0  0  0  0  0  0  0  0  0  0  0
  151.4964  141.3073  155.0537 H   0  0  0  0  0  0  0  0  0  0  0  0
  148.4398  141.4399  155.2612 H   0  0  0  0  0  0  0  0  0  0  0  0
  149.4387  142.7247  154.6013 H   0  0  0  0  0  0  0  0  0  0  0  0
  148.5681  140.6150  153.3563 H   0  0  0  0  0  0  0  0  0  0  0  0
  149.8410  142.6362  157.0994 H   0  0  0  0  0  0  0  0  0  0  0  0
  151.6006  142.5386  157.0469 H   0  0  0  0  0  0  0  0  0  0  0  0
  150.4310  136.1559  159.5326 H   0  0  0  0  0  0  0  0  0  0  0  0
  1  2  1  0  0  0  0
  1 27  1  0  0  0  0
  1 28  1  0  0  0  0
  1 29  1  0  0  0  0
  2  6  1  0  0  0  0
  2  3  1  0  0  0  0
  2 30  1  0  0  0  0
  3  4  1  0  0  0  0
  4  5  1  0  0  0  0
  4 31  1  0  0  0  0
  4 32  1  0  0  0  0
  5  6  1  0  0  0  0
  5 33  1  0  0  0  0
  5 34  1  0  0  0  0
  6  7  1  0  0  0  0
  6  8  1  0  0  0  0
  7 35  1  0  0  0  0
  8  9  1  0  0  0  0
  8 36  1  0  0  0  0
  8 37  1  0  0  0  0
  9 26  1  0  0  0  0
  9 10  1  0  0  0  0
 10 11  2  0  0  0  0
 10 38  1  0  0  0  0
 11 12  1  0  0  0  0
 12 26  2  0  0  0  0
 12 13  1  0  0  0  0
 13 14  1  0  0  0  0
 13 23  2  0  0  0  0
 14 18  1  0  0  0  0
 14 15  1  0  0  0  0
 15 22  1  0  0  0  0
 15 16  1  0  0  0  0
 15 39  1  0  0  0  0
 16 17  1  0  0  0  0
 16 40  1  0  0  0  0
 16 41  1  0  0  0  0
 17 18  1  0  0  0  0
 17 42  1  0  0  0  0
 17 43  1  0  0  0  0
 18 19  1  0  0  0  0
 18 44  1  0  0  0  0
 19 20  1  0  0  0  0
 19 22  1  0  0  0  0
 19 45  1  0  0  0  0
 20 21  1  0  0  0  0
 20 46  1  0  0  0  0
 20 47  1  0  0  0  0
 21 48  1  0  0  0  0
 22 49  1  0  0  0  0
 22 50  1  0  0  0  0
 23 24  1  0  0  0  0
 24 25  2  0  0  0  0
 24 51  1  0  0  0  0
 25 26  1  0  0  0  0
M  END
> <s_m_source_file>
AV-unprocessed.smi

> <i_m_source_file_index>
199

> <i_lp_mmshare_version>
43012

> <i_f3d_flags>
0

> <s_epik_input>
W0NIMl0xW0NIMl1PW0NAQEhdKFtDSDNdKVtDQEBdMShbT0hdKVtDSDJdbihbY0hdbjIpYyhjMjMpbltjSF1uYzNOKFtDQEBIXTQ1KVtDQEhdKFtDSDJdW0NIMl00KVtDQEhdKFtDSDJdNSlbQ0gyXVtPSF0=

> <s_epik_cmdline>
J2VwaWtfcHl0aG9uJywgJy1waCcsICc3LjAnLCAnLXRuJywgJzgnLCAnLW1hJywgJzIwMCcsICctbWV0YWxfYmluZGluZycsICctaW1hZScsICc8aW5maWxlLm1hZT4nLCAnLW9tYWUnLCAnPG91dGZpbGUubWFlPic=

> <r_lp_tautomer_probability>
1

> <r_epik_Ionization_Penalty>
0.00583903

> <r_epik_Ionization_Penalty_Charging>
0

> <r_epik_Ionization_Penalty_Neutral>
0.00583903

> <r_epik_State_Penalty>
-0

> <r_epik_Charging_Adjusted_Penalty>
0

> <i_epik_Tot_Q>
0

> <i_epik_Tot_abs_Q>
0

> <r_epik_Metal_State_Penalty>
-0

> <b_epik_Metal_Only>
0

> <s_lp_Force_Field>
OPLS_2005

> <r_lp_Energy>
83.4271

> <b_lp_Chiralities_Consistent>
1

> <s_lp_Variant>
AV-unprocessed.smi:199-2

> <Gold.Version>
5.8.1

> <Gold.Id.Protein>
6NUR|6NUR_protein|mol2

> <Gold.PLP.Fitness>
39.5072

> <Gold.PLP.PLP>
-35.1894

> <Gold.PLP.part.hbond>
-4.8962

> <Gold.PLP.part.metal>
0.0000

> <Gold.PLP.part.buried>
-2.7573

> <Gold.PLP.part.nonpolar>
-26.1480

> <Gold.PLP.part.repulsive>
0.0000

> <Gold.PLP.ligand.clash>
0.0000

> <Gold.PLP.ligand.torsion>
0.7268

> <Gold.PLP.Chemscore.Hbond>
1.9077

> <Gold.PLP.Chemscore.CHOScore>
0.0000

> <Gold.PLP.Chemscore.Metal>
0.0000

> <Gold.Chemscore.Hbonds>
donor molecule, donor type, donor heavy atom, donor atom, acceptor molecule, acceptor atom, score
      P1  H  6934  6947       L1     7  0.71
      P1  H  7989  7998       L1    21  0.12
      P1  H  8011  8017       L1    21  1.00

> <Gold.PLP.Chemscore.Internal.Correction>
0.0481

> <Gold.Rescore>
     Score         DG    S(hbond)    S(metal)    S(lipo)     H(rot)  DE(clash)    DE(int)     intcor
      7.38     -11.46       1.40        0.00      78.39       3.07       0.50       3.58       ----

> <Gold.Chemscore.Fitness>
7.3837

> <Gold.Chemscore.DG>
-11.4614

> <Gold.Chemscore.ZeroCoef>
-5.4800

> <Gold.Chemscore.Hbond>
1.4001

> <Gold.Chemscore.Metal>
0.0000

> <Gold.Chemscore.Lipo>
78.3920

> <Gold.Chemscore.Internal_Hbond>
0.0000

> <Gold.Chemscore.DEClash>
0.5009

> <Gold.Chemscore.DEInternal>
3.5768

> <Gold.Chemscore.Rot>
3.0729

> <Gold.Chemscore.Internal.Correction>
   9.000000E+99

> <Gold.Chemscore.Hbonds>
donor molecule, donor type, donor heavy atom, donor atom, acceptor molecule, acceptor atom, score
      P1  H  6934  6947       L1     7  0.66
      P1  H  7989  7998       L1    21  0.01
      P1  H  8011  8017       L1    21  0.33

> <Gold.Chemscore.Hbond.Weighted>
-4.6762

> <Gold.Chemscore.Metal.Weighted>
-0.0000

> <Gold.Chemscore.Lipo.Weighted>
-9.1719

> <Gold.Chemscore.Internal_Hbond.Weighted>
0.0000

> <Gold.Chemscore.DEClash.Weighted>
0.5009

> <Gold.Chemscore.DEInternal.Weighted>
3.5768

> <Gold.Chemscore.Rot.Weighted>
7.8667

> <Gold.Chemscore.Internal.Correction.Weighted>
   9.000000E+99

> <Gold.Protein.RotatedTorsions>
[ 6907 6896 6895 6894 ] final  -83.81 input  -60.11 | X-H torsion
[ 7974 7965 7964 7962 ] final   24.76 input  175.53 | X-H torsion
[ 8008 7997 7996 7995 ] final  167.80 input   59.86 | X-H torsion
[ 10167 10162 10161 10158 ] final -171.81 input  -65.29 | X-H torsion
[ 10718 10713 10712 10709 ] final  -75.27 input   66.30 | X-H torsion
[ 10763 10752 10751 10750 ] final   44.73 input  -60.55 | X-H torsion
[ 11005 11000 10999 10996 ] final -120.03 input  -57.11 | X-H torsion

> <Gold.Protein.ActiveResidues>
 VAL166  LYS551  ARG553  GLY616  TRP617  ASP618  TYR619  PRO620  LYS621  CYS622 
 ASP623  PHE694  ASN695  SER759  ASP760  ASP761  ALA762  ILE779  LEU786  VAL792 
 PHE793  MET794  SER795  GLU796  ALA797  LYS798  CYS799  TRP800  GLU811  SER814 

> <Gold.Protein.RotatedAtoms>
  150.6882  134.3454  159.4885 H   0  0  0  0  0  0  0  0  0  0  0  0  # atno 6907 bound_to 6896
  152.1302  134.9138  160.0568 H   0  0  0  0  0  0  0  0  0  0  0  0  # atno 6908 bound_to 6896
  152.0311  133.3903  159.4334 H   0  0  0  0  0  0  0  0  0  0  0  0  # atno 6909 bound_to 6896
  146.1922  139.7559  142.8824 H   0  0  0  0  0  0  0  0  0  0  0  0  # atno 7974 bound_to 7965
  156.1602  140.1607  156.8624 H   0  0  0  0  0  0  0  0  0  0  0  0  # atno 8008 bound_to 7997
  154.5154  140.0791  156.8106 H   0  0  0  0  0  0  0  0  0  0  0  0  # atno 8009 bound_to 7997
  155.3722  140.3401  155.4246 H   0  0  0  0  0  0  0  0  0  0  0  0  # atno 8010 bound_to 7997
  139.5780  144.1487  152.1477 H   0  0  0  0  0  0  0  0  0  0  0  0  # atno 10167 bound_to 10162
  156.0213  130.4437  150.3018 H   0  0  0  0  0  0  0  0  0  0  0  0  # atno 10718 bound_to 10713
  152.9836  135.6061  154.3322 H   0  0  0  0  0  0  0  0  0  0  0  0  # atno 10763 bound_to 10752
  154.3025  135.2772  155.2606 H   0  0  0  0  0  0  0  0  0  0  0  0  # atno 10764 bound_to 10752
  154.4852  135.5906  153.6475 H   0  0  0  0  0  0  0  0  0  0  0  0  # atno 10765 bound_to 10752
  141.0173  134.0176  157.3332 H   0  0  0  0  0  0  0  0  0  0  0  0  # atno 11005 bound_to 11000
  145.3758  141.0350  143.3205 LP  0  0  0  0  0  0  0  0  0  0  0  0  # atno 17320 bound_to 7965
  144.8508  139.5324  143.6857 LP  0  0  0  0  0  0  0  0  0  0  0  0  # atno 17321 bound_to 7965
  140.1034  144.5520  150.6973 LP  0  0  0  0  0  0  0  0  0  0  0  0  # atno 17342 bound_to 10162
  140.7061  143.2469  151.4721 LP  0  0  0  0  0  0  0  0  0  0  0  0  # atno 17343 bound_to 10162
  157.1120  131.0224  151.3044 LP  0  0  0  0  0  0  0  0  0  0  0  0  # atno 17370 bound_to 10713
  157.4696  130.7701  149.7311 LP  0  0  0  0  0  0  0  0  0  0  0  0  # atno 17371 bound_to 10713
  139.9124  135.0192  156.7748 LP  0  0  0  0  0  0  0  0  0  0  0  0  # atno 17394 bound_to 11000
  140.6633  133.9625  155.7816 LP  0  0  0  0  0  0  0  0  0  0  0  0  # atno 17395 bound_to 11000

$$$$
