AV-unprocessed.smi:693|AV-procd|sdf|3374|dock4
  -GOLD-   22720 0353D 1   1.00000     0.00000
 Structure written by MMmdl.
 47 48  0  0  0  0  0  0  0  0  2 V2000
  147.0051  138.9462  152.0558 C   0  0  0  0  0  0  0  0  0  0  0  0
  148.0429  139.5520  152.9766 C   0  0  0  0  0  0  0  0  0  0  0  0
  147.9602  140.8856  153.4312 C   0  0  0  0  0  0  0  0  0  0  0  0
  148.9648  141.3855  154.2856 C   0  0  0  0  0  0  0  0  0  0  0  0
  150.0322  140.5430  154.6670 C   0  0  0  0  0  0  0  0  0  0  0  0
  151.1277  141.0484  155.5847 C   0  0  0  0  0  0  0  0  0  0  0  0
  151.0452  140.4212  156.9862 C   0  0  0  0  0  0  0  0  0  0  0  0
  151.7922  141.1998  157.9666 N   0  0  0  0  0  0  0  0  0  0  0  0
  152.9287  140.8086  158.5684 C   0  0  0  0  0  0  0  0  0  0  0  0
  153.4413  139.7110  158.3430 O   0  0  0  0  0  0  0  0  0  0  0  0
  153.4429  141.7043  159.4493 N   0  0  0  0  0  0  0  0  0  0  0  0
  154.3049  141.3935  160.6011 C   0  0  0  0  0  0  0  0  0  0  0  0
  153.4568  141.4904  161.8794 C   0  0  0  0  0  0  0  0  0  0  0  0
  152.8083  142.8821  162.0062 C   0  0  0  0  0  0  0  0  0  0  0  0
  152.0712  143.3128  160.7118 C   0  0  1  0  0  0  0  0  0  0  0  0
  151.5556  144.7699  160.7564 C   0  0  0  0  0  0  0  0  0  0  0  0
  150.7917  145.1989  159.4990 C   0  0  0  0  0  0  0  0  0  0  0  0
  149.4744  145.3797  159.6210 N   0  0  0  0  0  0  0  0  0  0  0  0
  151.3748  145.3435  158.4267 O   0  0  0  0  0  0  0  0  0  0  0  0
  152.9938  143.1019  159.4893 C   0  0  0  0  0  0  0  0  0  0  0  0
  150.0622  139.2181  154.1816 C   0  0  0  0  0  0  0  0  0  0  0  0
  149.0803  138.7768  153.3651 N   0  3  0  0  0  0  0  0  0  0  0  0
  146.1252  139.5864  151.9835 H   0  0  0  0  0  0  0  0  0  0  0  0
  146.6854  137.9714  152.4253 H   0  0  0  0  0  0  0  0  0  0  0  0
  147.4174  138.8180  151.0548 H   0  0  0  0  0  0  0  0  0  0  0  0
  147.1389  141.5198  153.1301 H   0  0  0  0  0  0  0  0  0  0  0  0
  148.9143  142.4038  154.6426 H   0  0  0  0  0  0  0  0  0  0  0  0
  152.0928  140.8280  155.1268 H   0  0  0  0  0  0  0  0  0  0  0  0
  151.0637  142.1352  155.6564 H   0  0  0  0  0  0  0  0  0  0  0  0
  150.0062  140.3767  157.3134 H   0  0  0  0  0  0  0  0  0  0  0  0
  151.4112  139.3931  156.9708 H   0  0  0  0  0  0  0  0  0  0  0  0
  151.4218  142.1077  158.2073 H   0  0  0  0  0  0  0  0  0  0  0  0
  154.7856  140.4169  160.5470 H   0  0  0  0  0  0  0  0  0  0  0  0
  155.1233  142.1138  160.6427 H   0  0  0  0  0  0  0  0  0  0  0  0
  152.6800  140.7247  161.8604 H   0  0  0  0  0  0  0  0  0  0  0  0
  154.0724  141.2857  162.7555 H   0  0  0  0  0  0  0  0  0  0  0  0
  152.1283  142.8778  162.8576 H   0  0  0  0  0  0  0  0  0  0  0  0
  153.5847  143.6129  162.2367 H   0  0  0  0  0  0  0  0  0  0  0  0
  151.2085  142.6562  160.5840 H   0  0  0  0  0  0  0  0  0  0  0  0
  150.9055  144.9079  161.6213 H   0  0  0  0  0  0  0  0  0  0  0  0
  152.3951  145.4512  160.9023 H   0  0  0  0  0  0  0  0  0  0  0  0
  148.9275  145.6616  158.8205 H   0  0  0  0  0  0  0  0  0  0  0  0
  149.0293  145.2325  160.5153 H   0  0  0  0  0  0  0  0  0  0  0  0
  153.8625  143.7587  159.5552 H   0  0  0  0  0  0  0  0  0  0  0  0
  152.4790  143.3937  158.5726 H   0  0  0  0  0  0  0  0  0  0  0  0
  150.8358  138.5028  154.4210 H   0  0  0  0  0  0  0  0  0  0  0  0
  149.1240  137.8152  153.0264 H   0  0  0  0  0  0  0  0  0  0  0  0
  1  2  1  0  0  0  0
  1 23  1  0  0  0  0
  1 24  1  0  0  0  0
  1 25  1  0  0  0  0
  2 22  1  0  0  0  0
  2  3  2  0  0  0  0
  3  4  1  0  0  0  0
  3 26  1  0  0  0  0
  4  5  2  0  0  0  0
  4 27  1  0  0  0  0
  5  6  1  0  0  0  0
  5 21  1  0  0  0  0
  6  7  1  0  0  0  0
  6 28  1  0  0  0  0
  6 29  1  0  0  0  0
  7  8  1  0  0  0  0
  7 30  1  0  0  0  0
  7 31  1  0  0  0  0
  8  9  1  0  0  0  0
  8 32  1  0  0  0  0
  9 10  2  0  0  0  0
  9 11  1  0  0  0  0
 11 20  1  0  0  0  0
 11 12  1  0  0  0  0
 12 13  1  0  0  0  0
 12 33  1  0  0  0  0
 12 34  1  0  0  0  0
 13 14  1  0  0  0  0
 13 35  1  0  0  0  0
 13 36  1  0  0  0  0
 14 15  1  0  0  0  0
 14 37  1  0  0  0  0
 14 38  1  0  0  0  0
 15 16  1  0  0  0  0
 15 20  1  0  0  0  0
 15 39  1  0  0  0  0
 16 17  1  0  0  0  0
 16 40  1  0  0  0  0
 16 41  1  0  0  0  0
 17 18  1  0  0  0  0
 17 19  2  0  0  0  0
 18 42  1  0  0  0  0
 18 43  1  0  0  0  0
 20 44  1  0  0  0  0
 20 45  1  0  0  0  0
 21 22  2  0  0  0  0
 21 46  1  0  0  0  0
 22 47  1  0  0  0  0
M  CHG  1  22   1
M  END
> <s_m_source_file>
AV-unprocessed.smi

> <i_m_source_file_index>
693

> <i_lp_mmshare_version>
43012

> <i_f3d_flags>
0

> <s_epik_input>
W0NIM11jMVtjSF1bY0hdYyhbY0hdbjEpW0NIMl1bQ0gyXVtOSF1DKD1PKU4yW0NIMl1bQ0gyXVtDSDJdW0NASF0oW0NIMl0yKVtDSDJdQyg9TylbTkgyXQ==

> <s_epik_cmdline>
J2VwaWtfcHl0aG9uJywgJy1waCcsICc3LjAnLCAnLXRuJywgJzgnLCAnLW1hJywgJzIwMCcsICctbWV0YWxfYmluZGluZycsICctaW1hZScsICc8aW5maWxlLm1hZT4nLCAnLW9tYWUnLCAnPG91dGZpbGUubWFlPic=

> <r_epik_Ionization_Penalty>
1.41666

> <r_epik_Ionization_Penalty_Charging>
1.4166

> <r_epik_Ionization_Penalty_Neutral>
5.77403e-05

> <r_epik_State_Penalty>
1.50002

> <r_epik_Charging_Adjusted_Penalty>
2.91662

> <i_epik_Tot_Q>
1

> <i_epik_Tot_abs_Q>
1

> <r_epik_Metal_State_Penalty>
1.55252

> <b_epik_Metal_Only>
0

> <s_lp_Force_Field>
OPLS_2005

> <r_lp_Energy>
32.8943

> <b_lp_Chiralities_Consistent>
1

> <s_lp_Variant>
AV-unprocessed.smi:693-3

> <Gold.Version>
5.8.1

> <Gold.Id.Protein>
6NUR|6NUR_protein|mol2

> <Gold.PLP.Fitness>
61.2894

> <Gold.PLP.PLP>
-51.4420

> <Gold.PLP.part.hbond>
-4.3593

> <Gold.PLP.part.metal>
0.0000

> <Gold.PLP.part.buried>
-1.2855

> <Gold.PLP.part.nonpolar>
-46.6654

> <Gold.PLP.part.repulsive>
0.8203

> <Gold.PLP.ligand.clash>
1.2047

> <Gold.PLP.ligand.torsion>
0.5091

> <Gold.PLP.Chemscore.Hbond>
4.0000

> <Gold.PLP.Chemscore.CHOScore>
0.0000

> <Gold.PLP.Chemscore.Metal>
0.0000

> <Gold.Chemscore.Hbonds>
donor molecule, donor type, donor heavy atom, donor atom, acceptor molecule, acceptor atom, score
      L1  H    18    42       P1  8029  1.00
      L1  H    22    47       P1  7948  2.00
      P1  H  7997  8009       L1    10  1.00

> <Gold.PLP.Chemscore.Internal.Correction>
0.0704

> <Gold.Rescore>
     Score         DG    S(hbond)    S(metal)    S(lipo)     H(rot)  DE(clash)    DE(int)     intcor
     21.43     -23.28       2.81        0.00     122.91       2.34       0.25       1.60       ----

> <Gold.Chemscore.Fitness>
21.4274

> <Gold.Chemscore.DG>
-23.2759

> <Gold.Chemscore.ZeroCoef>
-5.4800

> <Gold.Chemscore.Hbond>
2.8124

> <Gold.Chemscore.Metal>
0.0000

> <Gold.Chemscore.Lipo>
122.9148

> <Gold.Chemscore.Internal_Hbond>
0.0000

> <Gold.Chemscore.DEClash>
0.2477

> <Gold.Chemscore.DEInternal>
1.6008

> <Gold.Chemscore.Rot>
2.3354

> <Gold.Chemscore.Internal.Correction>
   9.000000E+99

> <Gold.Chemscore.Hbonds>
donor molecule, donor type, donor heavy atom, donor atom, acceptor molecule, acceptor atom, score
      L1  H    18    42       P1  8029  1.00
      L1  H    22    47       P1  7948  0.98
      P1  H  7997  8009       L1    10  0.50

> <Gold.Chemscore.Hbond.Weighted>
-9.3934

> <Gold.Chemscore.Metal.Weighted>
-0.0000

> <Gold.Chemscore.Lipo.Weighted>
-14.3810

> <Gold.Chemscore.Internal_Hbond.Weighted>
0.0000

> <Gold.Chemscore.DEClash.Weighted>
0.2477

> <Gold.Chemscore.DEInternal.Weighted>
1.6008

> <Gold.Chemscore.Rot.Weighted>
5.9785

> <Gold.Chemscore.Internal.Correction.Weighted>
   9.000000E+99

> <Gold.Protein.RotatedTorsions>
[ 6907 6896 6895 6894 ] final  -80.20 input  -60.11 | X-H torsion
[ 7974 7965 7964 7962 ] final  -58.58 input  175.53 | X-H torsion
[ 8008 7997 7996 7995 ] final  147.97 input   59.86 | X-H torsion
[ 10167 10162 10161 10158 ] final   79.10 input  -65.29 | X-H torsion
[ 10718 10713 10712 10709 ] final   27.46 input   66.30 | X-H torsion
[ 10763 10752 10751 10750 ] final  -89.47 input  -60.55 | X-H torsion
[ 11005 11000 10999 10996 ] final  162.85 input  -57.11 | X-H torsion

> <Gold.Protein.ActiveResidues>
 VAL166  LYS551  ARG553  GLY616  TRP617  ASP618  TYR619  PRO620  LYS621  CYS622 
 ASP623  PHE694  ASN695  SER759  ASP760  ASP761  ALA762  ILE779  LEU786  VAL792 
 PHE793  MET794  SER795  GLU796  ALA797  LYS798  CYS799  TRP800  GLU811  SER814 

> <Gold.Protein.RotatedAtoms>
  150.6934  134.4005  159.5116 H   0  0  0  0  0  0  0  0  0  0  0  0  # atno 6907 bound_to 6896
  152.1780  134.8776  160.0538 H   0  0  0  0  0  0  0  0  0  0  0  0  # atno 6908 bound_to 6896
  151.9777  133.3712  159.4132 H   0  0  0  0  0  0  0  0  0  0  0  0  # atno 6909 bound_to 6896
  145.8376  140.8438  143.0051 H   0  0  0  0  0  0  0  0  0  0  0  0  # atno 7974 bound_to 7965
  156.2807  140.2141  156.5623 H   0  0  0  0  0  0  0  0  0  0  0  0  # atno 8008 bound_to 7997
  154.7203  140.0504  157.0656 H   0  0  0  0  0  0  0  0  0  0  0  0  # atno 8009 bound_to 7997
  155.0487  140.3154  155.4702 H   0  0  0  0  0  0  0  0  0  0  0  0  # atno 8010 bound_to 7997
  139.9639  144.5942  150.8047 H   0  0  0  0  0  0  0  0  0  0  0  0  # atno 10167 bound_to 10162
  157.2205  130.6976  149.6268 H   0  0  0  0  0  0  0  0  0  0  0  0  # atno 10718 bound_to 10713
  154.6556  135.5339  153.7955 H   0  0  0  0  0  0  0  0  0  0  0  0  # atno 10763 bound_to 10752
  153.0411  135.6493  154.0950 H   0  0  0  0  0  0  0  0  0  0  0  0  # atno 10764 bound_to 10752
  154.0863  135.2943  155.3260 H   0  0  0  0  0  0  0  0  0  0  0  0  # atno 10765 bound_to 10752
  140.2299  134.8132  157.3306 H   0  0  0  0  0  0  0  0  0  0  0  0  # atno 11005 bound_to 11000
  144.6735  140.0765  143.7471 LP  0  0  0  0  0  0  0  0  0  0  0  0  # atno 17320 bound_to 7965
  145.9501  139.2727  143.1217 LP  0  0  0  0  0  0  0  0  0  0  0  0  # atno 17321 bound_to 7965
  140.7544  143.3027  151.3040 LP  0  0  0  0  0  0  0  0  0  0  0  0  # atno 17342 bound_to 10162
  139.6533  144.0323  152.2642 LP  0  0  0  0  0  0  0  0  0  0  0  0  # atno 17343 bound_to 10162
  155.9682  130.4521  150.5762 LP  0  0  0  0  0  0  0  0  0  0  0  0  # atno 17370 bound_to 10713
  157.3580  131.0745  151.1659 LP  0  0  0  0  0  0  0  0  0  0  0  0  # atno 17371 bound_to 10713
  140.1761  134.4547  155.7801 LP  0  0  0  0  0  0  0  0  0  0  0  0  # atno 17394 bound_to 11000
  141.2218  133.6963  156.7790 LP  0  0  0  0  0  0  0  0  0  0  0  0  # atno 17395 bound_to 11000

$$$$
