#       Name:                AV-unprocessed.smi:2849
#       Creating user name   scv26
#       Creation time:       Fri Mar 27 15:41:43 2020


#       File generated by GOLD software.
#

@<TRIPOS>MOLECULE
AV-unprocessed.smi:2849
    59    62     1
SMALL
NO_CHARGES


@<TRIPOS>ATOM
      1 ****        -6.0481  -2.5762  -1.0965 C.3            1 S1                 0.0000
      2 ****        -4.6370  -3.0299  -1.0843 N.4            1 S1                 1.0000
      3 ****        -3.8799  -2.6765   0.1401 C.3            1 S1                 0.0000
      4 ****        -2.6101  -3.5544   0.2191 C.3            1 S1                 0.0000
      5 ****        -1.7398  -3.5090  -1.0513 C.3            1 S1                 0.0000
      6 ****        -2.5777  -3.5375  -2.3449 C.3            1 S1                 0.0000
      7 ****        -3.8543  -2.6656  -2.2892 C.3            1 S1                 0.0000
      8 ****        -3.6152  -1.1364  -2.3685 C.3            1 S1                 0.0000
      9 ****        -3.1297  -0.4597  -1.0629 C.3            1 S1                 0.0000
     10 ****        -1.6842  -0.2454  -1.0794 N.am           1 S1                 0.0000
     11 ****        -1.0111   0.6420  -0.3324 C.2            1 S1                 0.0000
     12 ****        -1.5535   1.4109   0.4601 O.2            1 S1                 0.0000
     13 ****         0.3088   0.5745  -0.5773 N.am           1 S1                 0.0000
     14 ****         1.3767   1.2620   0.0621 C.ar           1 S1                 0.0000
     15 ****         2.6598   1.1493  -0.5155 C.ar           1 S1                 0.0000
     16 ****         3.7610   1.7877   0.0903 C.ar           1 S1                 0.0000
     17 ****         3.5644   2.5316   1.2767 C.ar           1 S1                 0.0000
     18 ****         4.5922   3.1956   1.9610 N.3            1 S1                 0.0000
     19 ****         5.2433   4.2520   1.2045 C.3            1 S1                 0.0000
     20 ****         6.5624   4.5285   1.9314 C.3            1 S1                 0.0000
     21 ****         6.8272   3.2690   2.7645 C.3            1 S1                 0.0000
     22 ****         5.6583   2.3343   2.4453 C.3            1 S1                 0.0000
     23 ****         2.3224   2.6151   1.8004 N.pl3          1 S1                 1.0000
     24 ****         1.2406   2.0204   1.2513 C.ar           1 S1                 0.0000
     25 ****        -3.6319  -1.1501   0.2347 C.3            1 S1                 0.0000
     26 ****        -6.1332  -1.4898  -1.0855 H              1 S1                 0.0000
     27 ****        -6.5790  -2.9648  -0.2271 H              1 S1                 0.0000
     28 ****        -6.5584  -2.9459  -1.9862 H              1 S1                 0.0000
     29 ****        -4.4926  -2.9546   0.9991 H              1 S1                 0.0000
     30 ****        -2.0139  -3.2855   1.0917 H              1 S1                 0.0000
     31 ****        -2.9216  -4.5875   0.3793 H              1 S1                 0.0000
     32 ****        -1.0955  -2.6366  -1.0354 H              1 S1                 0.0000
     33 ****        -1.0501  -4.3537  -1.0474 H              1 S1                 0.0000
     34 ****        -1.9594  -3.2560  -3.1980 H              1 S1                 0.0000
     35 ****        -2.8811  -4.5695  -2.5267 H              1 S1                 0.0000
     36 ****        -4.4461  -2.9417  -3.1633 H              1 S1                 0.0000
     37 ****        -2.9465  -0.9017  -3.1977 H              1 S1                 0.0000
     38 ****        -4.5627  -0.6714  -2.6434 H              1 S1                 0.0000
     39 ****        -3.5561   0.5455  -1.0704 H              1 S1                 0.0000
     40 ****        -1.1517  -0.8277  -1.7091 H              1 S1                 0.0000
     41 ****         0.5867  -0.0611  -1.3105 H              1 S1                 0.0000
     42 ****         2.8048   0.5754  -1.4193 H              1 S1                 0.0000
     43 ****         4.7419   1.7004  -0.3536 H              1 S1                 0.0000
     44 ****         5.4398   3.9283   0.1816 H              1 S1                 0.0000
     45 ****         4.6169   5.1434   1.1601 H              1 S1                 0.0000
     46 ****         7.3691   4.7373   1.2279 H              1 S1                 0.0000
     47 ****         6.4619   5.3940   2.5875 H              1 S1                 0.0000
     48 ****         7.7869   2.8081   2.5289 H              1 S1                 0.0000
     49 ****         6.8315   3.5209   3.8258 H              1 S1                 0.0000
     50 ****         5.3415   1.7747   3.3260 H              1 S1                 0.0000
     51 ****         5.9527   1.6159   1.6790 H              1 S1                 0.0000
     52 ****         0.3225   2.1702   1.7978 H              1 S1                 0.0000
     53 ****        -4.5803  -0.6825   0.5012 H              1 S1                 0.0000
     54 ****        -2.9775  -0.9316   1.0791 H              1 S1                 0.0000
     55 ****        -4.6918  -4.0387  -1.0892 H              1 S1                 0.0000
     56 ****         2.1940   3.1520   2.6585 H              1 S1                 0.0000
     57 ****        -2.5470   1.3942   0.5726 LP             1 S1                 0.0000
     58 ****        -1.0008   2.0527   0.9918 LP             1 S1                 0.0000
     59 ****         4.0821   3.5817   2.7296 LP             1 S1                 0.0000
@<TRIPOS>BOND
    1    1    2 1     
    2    1   26 1     
    3    1   27 1     
    4    1   28 1     
    5    2    7 1     
    6    2    3 1     
    7    2   55 1     
    8    3   25 1     
    9    3    4 1     
   10    3   29 1     
   11    4    5 1     
   12    4   30 1     
   13    4   31 1     
   14    5    6 1     
   15    5   32 1     
   16    5   33 1     
   17    6    7 1     
   18    6   34 1     
   19    6   35 1     
   20    7    8 1     
   21    7   36 1     
   22    8    9 1     
   23    8   37 1     
   24    8   38 1     
   25    9   10 1     
   26    9   25 1     
   27    9   39 1     
   28   10   11 am    
   29   10   40 1     
   30   11   12 2     
   31   11   13 am    
   32   13   14 1     
   33   13   41 1     
   34   14   24 ar    
   35   14   15 ar    
   36   15   16 ar    
   37   15   42 1     
   38   16   17 ar    
   39   16   43 1     
   40   17   18 1     
   41   17   23 ar    
   42   18   22 1     
   43   18   19 1     
   44   19   20 1     
   45   19   44 1     
   46   19   45 1     
   47   20   21 1     
   48   20   46 1     
   49   20   47 1     
   50   21   22 1     
   51   21   48 1     
   52   21   49 1     
   53   22   50 1     
   54   22   51 1     
   55   23   24 ar    
   56   23   56 1     
   57   24   52 1     
   58   25   53 1     
   59   25   54 1     
   60   12   57 1     
   61   12   58 1     
   62   18   59 1     
@<TRIPOS>SUBSTRUCTURE
      1 S1             1
@<TRIPOS>SET
LONE_PAIRS      STATIC     ATOMS    <user>   **** ""
3 57 58 59
DONOR_HYDROGENS      STATIC     ATOMS    <user>   **** ""
4 55 40 41 56
ATOM$BLUE        STATIC     ATOMS    COLORGROUP SYSTEM
3 57 58 59
ATOM$RED        STATIC     ATOMS    COLORGROUP SYSTEM
4 55 40 41 56
