AV-unprocessed.smi:2450|AV-procd|sdf|9667|dock3
  -GOLD-   2272013303D 1   1.00000     0.00000
 Structure written by MMmdl.
 42 43  0  0  0  0  0  0  0  0  2 V2000
  152.0594  143.9704  159.9522 C   0  0  0  0  0  0  0  0  0  0  0  0
  151.1570  143.9430  158.7102 C   0  0  0  0  0  0  0  0  0  0  0  0
  150.5140  142.5691  158.4430 C   0  0  2  0  0  0  0  0  0  0  0  0
  151.5374  141.4309  158.5611 C   0  0  0  0  0  0  0  0  0  0  0  0
  149.9107  142.5432  157.1112 N   0  0  0  0  0  0  0  0  0  0  0  0
  149.4041  141.4648  156.4958 C   0  0  0  0  0  0  0  0  0  0  0  0
  149.4027  140.3344  156.9826 O   0  0  0  0  0  0  0  0  0  0  0  0
  148.9192  141.7841  155.2842 N   0  0  0  0  0  0  0  0  0  0  0  0
  148.3063  140.9285  154.3247 C   0  0  0  0  0  0  0  0  0  0  0  0
  147.1946  141.3292  153.5401 C   0  0  0  0  0  0  0  0  0  0  0  0
  146.6511  140.4390  152.5927 C   0  0  0  0  0  0  0  0  0  0  0  0
  147.2306  139.1664  152.4366 C   0  0  0  0  0  0  0  0  0  0  0  0
  148.2970  138.8206  153.1876 N   0  3  0  0  0  0  0  0  0  0  0  0
  148.8574  139.6388  154.1122 C   0  0  0  0  0  0  0  0  0  0  0  0
  149.9721  139.1829  154.8373 N   0  0  0  0  0  0  0  0  0  0  0  0
  150.3174  137.7836  154.6501 C   0  0  0  0  0  0  0  0  0  0  0  0
  151.7304  137.6373  155.2185 C   0  0  0  0  0  0  0  0  0  0  0  0
  152.3257  139.0495  155.1577 C   0  0  0  0  0  0  0  0  0  0  0  0
  151.1973  139.9332  154.6171 C   0  0  0  0  0  0  0  0  0  0  0  0
  152.5293  144.9471  160.0678 H   0  0  0  0  0  0  0  0  0  0  0  0
  152.8533  143.2268  159.8762 H   0  0  0  0  0  0  0  0  0  0  0  0
  151.4958  143.7674  160.8630 H   0  0  0  0  0  0  0  0  0  0  0  0
  150.3801  144.7019  158.8124 H   0  0  0  0  0  0  0  0  0  0  0  0
  151.7519  144.2342  157.8437 H   0  0  0  0  0  0  0  0  0  0  0  0
  149.7518  142.4048  159.2068 H   0  0  0  0  0  0  0  0  0  0  0  0
  151.9901  141.4123  159.5529 H   0  0  0  0  0  0  0  0  0  0  0  0
  152.3407  141.5395  157.8314 H   0  0  0  0  0  0  0  0  0  0  0  0
  151.0668  140.4609  158.3979 H   0  0  0  0  0  0  0  0  0  0  0  0
  149.8676  143.4264  156.6244 H   0  0  0  0  0  0  0  0  0  0  0  0
  149.0755  142.7344  154.9812 H   0  0  0  0  0  0  0  0  0  0  0  0
  146.7565  142.3109  153.6362 H   0  0  0  0  0  0  0  0  0  0  0  0
  145.8037  140.7321  151.9900 H   0  0  0  0  0  0  0  0  0  0  0  0
  146.8814  138.4230  151.7346 H   0  0  0  0  0  0  0  0  0  0  0  0
  149.6092  137.1322  155.1628 H   0  0  0  0  0  0  0  0  0  0  0  0
  150.3115  137.5224  153.5911 H   0  0  0  0  0  0  0  0  0  0  0  0
  151.6862  137.2993  156.2546 H   0  0  0  0  0  0  0  0  0  0  0  0
  152.3189  136.9110  154.6571 H   0  0  0  0  0  0  0  0  0  0  0  0
  152.6204  139.3731  156.1569 H   0  0  0  0  0  0  0  0  0  0  0  0
  153.2088  139.0982  154.5200 H   0  0  0  0  0  0  0  0  0  0  0  0
  151.3443  140.1215  153.5526 H   0  0  0  0  0  0  0  0  0  0  0  0
  151.1638  140.8963  155.1273 H   0  0  0  0  0  0  0  0  0  0  0  0
  148.7027  137.8947  153.0508 H   0  0  0  0  0  0  0  0  0  0  0  0
  1  2  1  0  0  0  0
  1 20  1  0  0  0  0
  1 21  1  0  0  0  0
  1 22  1  0  0  0  0
  2  3  1  0  0  0  0
  2 23  1  0  0  0  0
  2 24  1  0  0  0  0
  3  4  1  0  0  0  0
  3  5  1  0  0  0  0
  3 25  1  0  0  0  0
  4 26  1  0  0  0  0
  4 27  1  0  0  0  0
  4 28  1  0  0  0  0
  5  6  1  0  0  0  0
  5 29  1  0  0  0  0
  6  7  2  0  0  0  0
  6  8  1  0  0  0  0
  8  9  1  0  0  0  0
  8 30  1  0  0  0  0
  9 14  1  0  0  0  0
  9 10  2  0  0  0  0
 10 11  1  0  0  0  0
 10 31  1  0  0  0  0
 11 12  2  0  0  0  0
 11 32  1  0  0  0  0
 12 13  1  0  0  0  0
 12 33  1  0  0  0  0
 13 14  2  0  0  0  0
 13 42  1  0  0  0  0
 14 15  1  0  0  0  0
 15 19  1  0  0  0  0
 15 16  1  0  0  0  0
 16 17  1  0  0  0  0
 16 34  1  0  0  0  0
 16 35  1  0  0  0  0
 17 18  1  0  0  0  0
 17 36  1  0  0  0  0
 17 37  1  0  0  0  0
 18 19  1  0  0  0  0
 18 38  1  0  0  0  0
 18 39  1  0  0  0  0
 19 40  1  0  0  0  0
 19 41  1  0  0  0  0
M  CHG  1  13   1
M  END
> <s_m_source_file>
AV-unprocessed.smi

> <i_m_source_file_index>
2450

> <i_lp_mmshare_version>
43012

> <i_f3d_flags>
0

> <s_epik_input>
W0NIM11bQ0gyXVtDQEhdKFtDSDNdKVtOSF1DKD1PKVtOSF1jMVtjSF1bY0hdW2NIXW5jMU4yW0NIMl1bQ0gyXVtDSDJdW0NIMl0y

> <s_epik_cmdline>
J2VwaWtfcHl0aG9uJywgJy1waCcsICc3LjAnLCAnLXRuJywgJzgnLCAnLW1hJywgJzIwMCcsICctbWV0YWxfYmluZGluZycsICctaW1hZScsICc8aW5maWxlLm1hZT4nLCAnLW9tYWUnLCAnPG91dGZpbGUubWFlPic=

> <r_lp_tautomer_probability>
0.999994

> <r_epik_Ionization_Penalty>
1.08838

> <r_epik_Ionization_Penalty_Charging>
1.08836

> <r_epik_Ionization_Penalty_Neutral>
2.1796e-05

> <r_epik_State_Penalty>
1.14442

> <r_epik_Charging_Adjusted_Penalty>
2.23278

> <i_epik_Tot_Q>
1

> <i_epik_Tot_abs_Q>
1

> <r_epik_Metal_State_Penalty>
1.23344

> <b_epik_Metal_Only>
0

> <s_lp_Force_Field>
OPLS_2005

> <r_lp_Energy>
40.8961

> <b_lp_Chiralities_Consistent>
1

> <s_lp_Variant>
AV-unprocessed.smi:2450-3

> <Gold.Version>
5.8.1

> <Gold.Id.Protein>
6NUR|6NUR_protein|mol2

> <Gold.PLP.Fitness>
41.6243

> <Gold.PLP.PLP>
-33.5099

> <Gold.PLP.part.hbond>
-4.0000

> <Gold.PLP.part.metal>
0.0000

> <Gold.PLP.part.buried>
3.5883

> <Gold.PLP.part.nonpolar>
-34.3451

> <Gold.PLP.part.repulsive>
0.3496

> <Gold.PLP.ligand.clash>
1.7589

> <Gold.PLP.ligand.torsion>
0.5597

> <Gold.PLP.Chemscore.Hbond>
3.6545

> <Gold.PLP.Chemscore.CHOScore>
0.0000

> <Gold.PLP.Chemscore.Metal>
0.0000

> <Gold.Chemscore.Hbonds>
donor molecule, donor type, donor heavy atom, donor atom, acceptor molecule, acceptor atom, score
      L1  H     5    29       P1  8028  1.00
      L1  H     8    30       P1  8028  0.70
      L1  H    13    42       P1  7948  1.90

> <Gold.PLP.Chemscore.Internal.Correction>
0.0293

> <Gold.Rescore>
     Score         DG    S(hbond)    S(metal)    S(lipo)     H(rot)  DE(clash)    DE(int)     intcor
     13.99     -21.82       2.52        0.00      96.98       1.34       2.96       4.87       ----

> <Gold.Chemscore.Fitness>
13.9888

> <Gold.Chemscore.DG>
-21.8214

> <Gold.Chemscore.ZeroCoef>
-5.4800

> <Gold.Chemscore.Hbond>
2.5221

> <Gold.Chemscore.Metal>
0.0000

> <Gold.Chemscore.Lipo>
96.9757

> <Gold.Chemscore.Internal_Hbond>
0.0000

> <Gold.Chemscore.DEClash>
2.9607

> <Gold.Chemscore.DEInternal>
4.8719

> <Gold.Chemscore.Rot>
1.3393

> <Gold.Chemscore.Internal.Correction>
   9.000000E+99

> <Gold.Chemscore.Hbonds>
donor molecule, donor type, donor heavy atom, donor atom, acceptor molecule, acceptor atom, score
      L1  H     5    29       P1  8028  0.95
      L1  H     8    30       P1  8028  0.68
      L1  H    13    42       P1  7948  0.86

> <Gold.Chemscore.Hbond.Weighted>
-8.4238

> <Gold.Chemscore.Metal.Weighted>
-0.0000

> <Gold.Chemscore.Lipo.Weighted>
-11.3462

> <Gold.Chemscore.Internal_Hbond.Weighted>
0.0000

> <Gold.Chemscore.DEClash.Weighted>
2.9607

> <Gold.Chemscore.DEInternal.Weighted>
4.8719

> <Gold.Chemscore.Rot.Weighted>
3.4285

> <Gold.Chemscore.Internal.Correction.Weighted>
   9.000000E+99

> <Gold.Protein.RotatedTorsions>
[ 6907 6896 6895 6894 ] final  121.18 input  -60.11 | X-H torsion
[ 7974 7965 7964 7962 ] final  120.16 input  175.53 | X-H torsion
[ 8008 7997 7996 7995 ] final   98.92 input   59.86 | X-H torsion
[ 10167 10162 10161 10158 ] final   83.72 input  -65.29 | X-H torsion
[ 10718 10713 10712 10709 ] final -163.27 input   66.30 | X-H torsion
[ 10763 10752 10751 10750 ] final  -44.21 input  -60.55 | X-H torsion
[ 11005 11000 10999 10996 ] final  102.51 input  -57.11 | X-H torsion

> <Gold.Protein.ActiveResidues>
 VAL166  LYS551  ARG553  GLY616  TRP617  ASP618  TYR619  PRO620  LYS621  CYS622 
 ASP623  PHE694  ASN695  SER759  ASP760  ASP761  ALA762  ILE779  LEU786  VAL792 
 PHE793  MET794  SER795  GLU796  ALA797  LYS798  CYS799  TRP800  GLU811  SER814 

> <Gold.Protein.RotatedAtoms>
  152.4342  133.7330  159.6597 H   0  0  0  0  0  0  0  0  0  0  0  0  # atno 6907 bound_to 6896
  150.8223  133.8220  159.3139 H   0  0  0  0  0  0  0  0  0  0  0  0  # atno 6908 bound_to 6896
  151.5899  135.1056  160.0088 H   0  0  0  0  0  0  0  0  0  0  0  0  # atno 6909 bound_to 6896
  145.1345  139.3307  143.4648 H   0  0  0  0  0  0  0  0  0  0  0  0  # atno 7974 bound_to 7965
  156.1053  140.3236  155.7997 H   0  0  0  0  0  0  0  0  0  0  0  0  # atno 8008 bound_to 7997
  155.4767  140.0551  157.2990 H   0  0  0  0  0  0  0  0  0  0  0  0  # atno 8009 bound_to 7997
  154.4723  140.2017  155.9978 H   0  0  0  0  0  0  0  0  0  0  0  0  # atno 8010 bound_to 7997
  139.9154  144.6246  150.8494 H   0  0  0  0  0  0  0  0  0  0  0  0  # atno 10167 bound_to 10162
  156.6222  130.8895  151.2960 H   0  0  0  0  0  0  0  0  0  0  0  0  # atno 10718 bound_to 10713
  154.0084  135.6684  153.4763 H   0  0  0  0  0  0  0  0  0  0  0  0  # atno 10763 bound_to 10752
  153.0632  135.5016  154.8136 H   0  0  0  0  0  0  0  0  0  0  0  0  # atno 10764 bound_to 10752
  154.7011  135.3079  154.9304 H   0  0  0  0  0  0  0  0  0  0  0  0  # atno 10765 bound_to 10752
  139.8778  134.9227  156.5069 H   0  0  0  0  0  0  0  0  0  0  0  0  # atno 11005 bound_to 11000
  146.3511  140.1357  142.8596 LP  0  0  0  0  0  0  0  0  0  0  0  0  # atno 17320 bound_to 7965
  145.0599  140.9080  143.4944 LP  0  0  0  0  0  0  0  0  0  0  0  0  # atno 17321 bound_to 7965
  140.7675  143.3335  151.2359 LP  0  0  0  0  0  0  0  0  0  0  0  0  # atno 17342 bound_to 10162
  139.6907  143.9698  152.2857 LP  0  0  0  0  0  0  0  0  0  0  0  0  # atno 17343 bound_to 10162
  157.7224  130.9576  150.1493 LP  0  0  0  0  0  0  0  0  0  0  0  0  # atno 17370 bound_to 10713
  156.2302  130.3681  149.8454 LP  0  0  0  0  0  0  0  0  0  0  0  0  # atno 17371 bound_to 10713
  140.8549  133.8104  155.9205 LP  0  0  0  0  0  0  0  0  0  0  0  0  # atno 17394 bound_to 11000
  140.9108  134.2263  157.4987 LP  0  0  0  0  0  0  0  0  0  0  0  0  # atno 17395 bound_to 11000

$$$$
