AV-unprocessed.smi:2001|AV-procd|sdf|8105|dock8
  -GOLD-   2272010333D 1   1.00000     0.00000
 Structure written by MMmdl.
 51 52  0  0  0  0  0  0  0  0  2 V2000
  151.6841  143.8766  158.4344 C   0  0  0  0  0  0  0  0  0  0  0  0
  150.6688  142.9163  158.6681 O   0  0  0  0  0  0  0  0  0  0  0  0
  150.8572  141.7318  157.9128 C   0  0  0  0  0  0  0  0  0  0  0  0
  150.6393  142.0517  156.4262 C   0  0  0  0  0  0  0  0  0  0  0  0
  150.4517  140.8324  155.6335 N   0  0  0  0  0  0  0  0  0  0  0  0
  149.2765  140.8104  154.9006 N   0  0  0  0  0  0  0  0  0  0  0  0
  148.9903  139.7874  154.1616 C   0  0  0  0  0  0  0  0  0  0  0  0
  147.7334  139.7215  153.3648 C   0  0  0  0  0  0  0  0  0  0  0  0
  146.9171  140.6444  153.3565 O   0  0  0  0  0  0  0  0  0  0  0  0
  147.5574  138.5920  152.6572 N   0  0  0  0  0  0  0  0  0  0  0  0
  146.4146  138.3264  151.7942 C   0  0  0  0  0  0  0  0  0  0  0  0
  145.5751  137.1674  152.3561 C   0  0  0  0  0  0  0  0  0  0  0  0
  146.1282  135.8346  152.0066 N   0  3  1  0  0  0  0  0  0  0  0  0
  146.3751  135.0003  153.2067 C   0  0  0  0  0  0  0  0  0  0  0  0
  147.0053  133.6512  152.8124 C   0  0  1  0  0  0  0  0  0  0  0  0
  147.1962  132.7284  154.0210 C   0  0  0  0  0  0  0  0  0  0  0  0
  146.1507  132.9935  151.8839 O   0  0  0  0  0  0  0  0  0  0  0  0
  145.9723  133.7361  150.6829 C   0  0  1  0  0  0  0  0  0  0  0  0
  145.1208  132.8961  149.7243 C   0  0  0  0  0  0  0  0  0  0  0  0
  145.3106  135.0862  151.0197 C   0  0  0  0  0  0  0  0  0  0  0  0
  149.8924  138.6509  154.0824 C   0  0  0  0  0  0  0  0  0  0  0  0
  151.0379  138.6899  154.7977 C   0  0  0  0  0  0  0  0  0  0  0  0
  151.3863  139.8345  155.6409 C   0  0  0  0  0  0  0  0  0  0  0  0
  152.4264  139.8965  156.2954 O   0  0  0  0  0  0  0  0  0  0  0  0
  151.4918  144.7660  159.0344 H   0  0  0  0  0  0  0  0  0  0  0  0
  151.7101  144.1769  157.3863 H   0  0  0  0  0  0  0  0  0  0  0  0
  152.6651  143.4891  158.7119 H   0  0  0  0  0  0  0  0  0  0  0  0
  151.8669  141.3483  158.0700 H   0  0  0  0  0  0  0  0  0  0  0  0
  150.1563  140.9638  158.2442 H   0  0  0  0  0  0  0  0  0  0  0  0
  149.7832  142.7185  156.3084 H   0  0  0  0  0  0  0  0  0  0  0  0
  151.4961  142.6123  156.0477 H   0  0  0  0  0  0  0  0  0  0  0  0
  148.2710  137.8793  152.7156 H   0  0  0  0  0  0  0  0  0  0  0  0
  145.8163  139.2342  151.7128 H   0  0  0  0  0  0  0  0  0  0  0  0
  146.7741  138.0832  150.7934 H   0  0  0  0  0  0  0  0  0  0  0  0
  145.5482  137.2637  153.4427 H   0  0  0  0  0  0  0  0  0  0  0  0
  144.5414  137.2383  152.0137 H   0  0  0  0  0  0  0  0  0  0  0  0
  147.0400  135.5285  153.8916 H   0  0  0  0  0  0  0  0  0  0  0  0
  145.4343  134.8374  153.7353 H   0  0  0  0  0  0  0  0  0  0  0  0
  147.9784  133.8203  152.3479 H   0  0  0  0  0  0  0  0  0  0  0  0
  147.8480  133.1861  154.7655 H   0  0  0  0  0  0  0  0  0  0  0  0
  147.6473  131.7821  153.7212 H   0  0  0  0  0  0  0  0  0  0  0  0
  146.2434  132.5050  154.5020 H   0  0  0  0  0  0  0  0  0  0  0  0
  146.9454  133.9091  150.2197 H   0  0  0  0  0  0  0  0  0  0  0  0
  144.9598  133.4182  148.7809 H   0  0  0  0  0  0  0  0  0  0  0  0
  144.1440  132.6732  150.1547 H   0  0  0  0  0  0  0  0  0  0  0  0
  145.6088  131.9477  149.4990 H   0  0  0  0  0  0  0  0  0  0  0  0
  144.3096  134.9248  151.4233 H   0  0  0  0  0  0  0  0  0  0  0  0
  145.1966  135.6645  150.1036 H   0  0  0  0  0  0  0  0  0  0  0  0
  149.6613  137.7929  153.4679 H   0  0  0  0  0  0  0  0  0  0  0  0
  151.7182  137.8524  154.7473 H   0  0  0  0  0  0  0  0  0  0  0  0
  147.0306  135.9959  151.5822 H   0  0  0  0  0  0  0  0  0  0  0  0
  1  2  1  0  0  0  0
  1 25  1  0  0  0  0
  1 26  1  0  0  0  0
  1 27  1  0  0  0  0
  2  3  1  0  0  0  0
  3  4  1  0  0  0  0
  3 28  1  0  0  0  0
  3 29  1  0  0  0  0
  4  5  1  0  0  0  0
  4 30  1  0  0  0  0
  4 31  1  0  0  0  0
  5 23  1  0  0  0  0
  5  6  1  0  0  0  0
  6  7  2  0  0  0  0
  7  8  1  0  0  0  0
  7 21  1  0  0  0  0
  8  9  2  0  0  0  0
  8 10  1  0  0  0  0
 10 11  1  0  0  0  0
 10 32  1  0  0  0  0
 11 12  1  0  0  0  0
 11 33  1  0  0  0  0
 11 34  1  0  0  0  0
 12 13  1  0  0  0  0
 12 35  1  0  0  0  0
 12 36  1  0  0  0  0
 13 20  1  0  0  0  0
 13 14  1  0  0  0  0
 13 51  1  0  0  0  0
 14 15  1  0  0  0  0
 14 37  1  0  0  0  0
 14 38  1  0  0  0  0
 15 16  1  0  0  0  0
 15 17  1  0  0  0  0
 15 39  1  0  0  0  0
 16 40  1  0  0  0  0
 16 41  1  0  0  0  0
 16 42  1  0  0  0  0
 17 18  1  0  0  0  0
 18 19  1  0  0  0  0
 18 20  1  0  0  0  0
 18 43  1  0  0  0  0
 19 44  1  0  0  0  0
 19 45  1  0  0  0  0
 19 46  1  0  0  0  0
 20 47  1  0  0  0  0
 20 48  1  0  0  0  0
 21 22  2  0  0  0  0
 21 49  1  0  0  0  0
 22 23  1  0  0  0  0
 22 50  1  0  0  0  0
 23 24  2  0  0  0  0
M  CHG  1  13   1
M  END
> <s_m_source_file>
AV-unprocessed.smi

> <i_m_source_file_index>
2001

> <i_lp_mmshare_version>
43012

> <i_f3d_flags>
0

> <s_epik_input>
W0NIM11PW0NIMl1bQ0gyXW4xbmMoW2NIXVtjSF1jMT1PKUMoPU8pW05IXVtDSDJdW0NIMl1OMltDSDJdW0NAQEhdKFtDSDNdKU9bQ0BASF0oW0NIM10pW0NIMl0y

> <s_epik_cmdline>
J2VwaWtfcHl0aG9uJywgJy1waCcsICc3LjAnLCAnLXRuJywgJzgnLCAnLW1hJywgJzIwMCcsICctbWV0YWxfYmluZGluZycsICctaW1hZScsICc8aW5maWxlLm1hZT4nLCAnLW9tYWUnLCAnPG91dGZpbGUubWFlPic=

> <r_lp_tautomer_probability>
1

> <r_epik_Ionization_Penalty>
0.724354

> <r_epik_Ionization_Penalty_Charging>
0.724348

> <r_epik_Ionization_Penalty_Neutral>
6.1656e-06

> <r_epik_State_Penalty>
0.749058

> <r_epik_Charging_Adjusted_Penalty>
1.47341

> <i_epik_Tot_Q>
1

> <i_epik_Tot_abs_Q>
1

> <r_epik_Metal_State_Penalty>
0.750779

> <b_epik_Metal_Only>
0

> <s_lp_Force_Field>
OPLS_2005

> <r_lp_Energy>
35.6345

> <b_lp_Chiralities_Consistent>
1

> <s_lp_Variant>
AV-unprocessed.smi:2001-4

> <Gold.Version>
5.8.1

> <Gold.Id.Protein>
6NUR|6NUR_protein|mol2

> <Gold.PLP.Fitness>
54.1785

> <Gold.PLP.PLP>
-44.5966

> <Gold.PLP.part.hbond>
-4.1842

> <Gold.PLP.part.metal>
0.0000

> <Gold.PLP.part.buried>
-0.9348

> <Gold.PLP.part.nonpolar>
-39.3628

> <Gold.PLP.part.repulsive>
0.5488

> <Gold.PLP.ligand.clash>
0.5000

> <Gold.PLP.ligand.torsion>
0.9399

> <Gold.PLP.Chemscore.Hbond>
3.8800

> <Gold.PLP.Chemscore.CHOScore>
0.0000

> <Gold.PLP.Chemscore.Metal>
0.0000

> <Gold.Chemscore.Hbonds>
donor molecule, donor type, donor heavy atom, donor atom, acceptor molecule, acceptor atom, score
      L1  H    10    32       P1  7948  0.88
      L1  H    13    51       P1  7948  1.95
      P1  H  7997  8009       L1    24  1.00

> <Gold.PLP.Chemscore.Internal.Correction>
0.3217

> <Gold.Rescore>
     Score         DG    S(hbond)    S(metal)    S(lipo)     H(rot)  DE(clash)    DE(int)     intcor
     17.43     -19.69       2.69        0.00      90.09       2.07       1.07       1.19       ----

> <Gold.Chemscore.Fitness>
17.4318

> <Gold.Chemscore.DG>
-19.6920

> <Gold.Chemscore.ZeroCoef>
-5.4800

> <Gold.Chemscore.Hbond>
2.6875

> <Gold.Chemscore.Metal>
0.0000

> <Gold.Chemscore.Lipo>
90.0900

> <Gold.Chemscore.Internal_Hbond>
0.0000

> <Gold.Chemscore.DEClash>
1.0736

> <Gold.Chemscore.DEInternal>
1.1866

> <Gold.Chemscore.Rot>
2.0721

> <Gold.Chemscore.Internal.Correction>
   9.000000E+99

> <Gold.Chemscore.Hbonds>
donor molecule, donor type, donor heavy atom, donor atom, acceptor molecule, acceptor atom, score
      L1  H    10    32       P1  7948  0.85
      L1  H    13    51       P1  7948  0.92
      P1  H  7997  8009       L1    24  0.97

> <Gold.Chemscore.Hbond.Weighted>
-8.9762

> <Gold.Chemscore.Metal.Weighted>
-0.0000

> <Gold.Chemscore.Lipo.Weighted>
-10.5405

> <Gold.Chemscore.Internal_Hbond.Weighted>
0.0000

> <Gold.Chemscore.DEClash.Weighted>
1.0736

> <Gold.Chemscore.DEInternal.Weighted>
1.1866

> <Gold.Chemscore.Rot.Weighted>
5.3047

> <Gold.Chemscore.Internal.Correction.Weighted>
   9.000000E+99

> <Gold.Protein.RotatedTorsions>
[ 6907 6896 6895 6894 ] final  114.59 input  -60.11 | X-H torsion
[ 7974 7965 7964 7962 ] final  108.14 input  175.53 | X-H torsion
[ 8008 7997 7996 7995 ] final -175.83 input   59.86 | X-H torsion
[ 10167 10162 10161 10158 ] final  -48.08 input  -65.29 | X-H torsion
[ 10718 10713 10712 10709 ] final -154.29 input   66.30 | X-H torsion
[ 10763 10752 10751 10750 ] final   98.89 input  -60.55 | X-H torsion
[ 11005 11000 10999 10996 ] final  105.22 input  -57.11 | X-H torsion

> <Gold.Protein.ActiveResidues>
 VAL166  LYS551  ARG553  GLY616  TRP617  ASP618  TYR619  PRO620  LYS621  CYS622 
 ASP623  PHE694  ASN695  SER759  ASP760  ASP761  ALA762  ILE779  LEU786  VAL792 
 PHE793  MET794  SER795  GLU796  ALA797  LYS798  CYS799  TRP800  GLU811  SER814 

> <Gold.Protein.RotatedAtoms>
  152.4793  133.8215  159.7055 H   0  0  0  0  0  0  0  0  0  0  0  0  # atno 6907 bound_to 6896
  150.8832  133.7334  159.2932 H   0  0  0  0  0  0  0  0  0  0  0  0  # atno 6908 bound_to 6896
  151.4832  135.1057  159.9835 H   0  0  0  0  0  0  0  0  0  0  0  0  # atno 6909 bound_to 6896
  145.2846  139.2621  143.3897 H   0  0  0  0  0  0  0  0  0  0  0  0  # atno 7974 bound_to 7965
  155.9873  140.1194  157.0671 H   0  0  0  0  0  0  0  0  0  0  0  0  # atno 8008 bound_to 7997
  154.4201  140.1132  156.5586 H   0  0  0  0  0  0  0  0  0  0  0  0  # atno 8009 bound_to 7997
  155.6390  140.3473  155.4710 H   0  0  0  0  0  0  0  0  0  0  0  0  # atno 8010 bound_to 7997
  140.6747  143.2756  151.4019 H   0  0  0  0  0  0  0  0  0  0  0  0  # atno 10167 bound_to 10162
  156.4973  130.8375  151.2595 H   0  0  0  0  0  0  0  0  0  0  0  0  # atno 10718 bound_to 10713
  153.2947  135.4132  155.1198 H   0  0  0  0  0  0  0  0  0  0  0  0  # atno 10763 bound_to 10752
  154.8531  135.3527  154.5934 H   0  0  0  0  0  0  0  0  0  0  0  0  # atno 10764 bound_to 10752
  153.6357  135.7059  153.5317 H   0  0  0  0  0  0  0  0  0  0  0  0  # atno 10765 bound_to 10752
  139.8800  134.9328  156.5481 H   0  0  0  0  0  0  0  0  0  0  0  0  # atno 11005 bound_to 11000
  146.3205  140.3321  142.8641 LP  0  0  0  0  0  0  0  0  0  0  0  0  # atno 17320 bound_to 7965
  144.9224  140.7883  143.5740 LP  0  0  0  0  0  0  0  0  0  0  0  0  # atno 17321 bound_to 7965
  139.6033  144.1251  152.2221 LP  0  0  0  0  0  0  0  0  0  0  0  0  # atno 17342 bound_to 10162
  140.0641  144.5832  150.7240 LP  0  0  0  0  0  0  0  0  0  0  0  0  # atno 17343 bound_to 10162
  157.7467  130.9993  150.2886 LP  0  0  0  0  0  0  0  0  0  0  0  0  # atno 17370 bound_to 10713
  156.3367  130.3809  149.7443 LP  0  0  0  0  0  0  0  0  0  0  0  0  # atno 17371 bound_to 10713
  140.8260  133.8316  155.8940 LP  0  0  0  0  0  0  0  0  0  0  0  0  # atno 17394 bound_to 11000
  140.9373  134.1945  157.4822 LP  0  0  0  0  0  0  0  0  0  0  0  0  # atno 17395 bound_to 11000

$$$$
