#       Name:                AV-unprocessed.smi:1569
#       Creating user name   scv26
#       Creation time:       Fri Mar 27 06:51:23 2020


#       File generated by GOLD software.
#

@<TRIPOS>MOLECULE
AV-unprocessed.smi:1569
    38    39     1
SMALL
NO_CHARGES


@<TRIPOS>ATOM
      1 ****        -2.2930   1.7185   2.7865 C.3            1 S1                 0.0000
      2 ****        -2.3159   0.6358   1.7633 C.2            1 S1                 0.0000
      3 ****        -1.8712  -0.6031   1.9885 N.2            1 S1                 0.0000
      4 ****        -1.9761  -1.4253   0.8624 C.2            1 S1                 0.0000
      5 ****        -1.4810  -2.8421   0.9183 C.3            1 S1                 0.0000
      6 ****         0.0562  -2.9641   0.9011 C.3            1 S1                 0.0000
      7 ****         0.6542  -2.2701  -0.2382 N.am           1 S1                 0.0000
      8 ****         1.1959  -1.0423  -0.2026 C.2            1 S1                 0.0000
      9 ****         1.3025  -0.3816   0.8316 O.2            1 S1                 0.0000
     10 ****         1.6764  -0.4811  -1.5467 C.3            1 S1                 0.0000
     11 ****         1.7503   0.9823  -1.5521 N.am           1 S1                 0.0000
     12 ****         0.5532   1.7375  -1.9065 C.3            1 S1                 0.0000
     13 ****         0.8531   3.4532  -1.4136 S.3            1 S1                 0.0000
     14 ****         2.6304   3.1951  -1.2788 C.3            1 S1                 0.0000
     15 ****         2.8469   1.6921  -1.2338 C.2            1 S1                 0.0000
     16 ****         3.9366   1.2105  -0.9261 O.2            1 S1                 0.0000
     17 ****        -2.5332  -0.7909  -0.2205 C.2            1 S1                 0.0000
     18 ****        -2.9245   0.8698   0.1297 S.3            1 S1                 0.0000
     19 ****        -2.1600   1.3006   3.7849 H              1 S1                 0.0000
     20 ****        -3.2297   2.2755   2.7634 H              1 S1                 0.0000
     21 ****        -1.4712   2.4047   2.5810 H              1 S1                 0.0000
     22 ****        -1.8674  -3.3348   1.8111 H              1 S1                 0.0000
     23 ****        -1.8876  -3.4033   0.0763 H              1 S1                 0.0000
     24 ****         0.4673  -2.5866   1.8388 H              1 S1                 0.0000
     25 ****         0.3396  -4.0156   0.8510 H              1 S1                 0.0000
     26 ****         0.6170  -2.7439  -1.1290 H              1 S1                 0.0000
     27 ****         2.6465  -0.9190  -1.7870 H              1 S1                 0.0000
     28 ****         0.9934  -0.8016  -2.3350 H              1 S1                 0.0000
     29 ****         0.3869   1.6845  -2.9827 H              1 S1                 0.0000
     30 ****        -0.3297   1.3487  -1.3993 H              1 S1                 0.0000
     31 ****         3.1352   3.6129  -2.1499 H              1 S1                 0.0000
     32 ****         3.0209   3.6779  -0.3826 H              1 S1                 0.0000
     33 ****        -2.7228  -1.1946  -1.2037 H              1 S1                 0.0000
     34 ****        -1.5034  -0.9093   2.8665 LP             1 S1                 0.0000
     35 ****         0.9772  -0.7560   1.6999 LP             1 S1                 0.0000
     36 ****         1.7144   0.5292   0.8029 LP             1 S1                 0.0000
     37 ****         4.0550   0.2179  -0.8995 LP             1 S1                 0.0000
     38 ****         4.7038   1.8117  -0.7026 LP             1 S1                 0.0000
@<TRIPOS>BOND
    1    1    2 1     
    2    1   19 1     
    3    1   20 1     
    4    1   21 1     
    5    2   18 1     
    6    2    3 2     
    7    3    4 1     
    8    4    5 1     
    9    4   17 2     
   10    5    6 1     
   11    5   22 1     
   12    5   23 1     
   13    6    7 1     
   14    6   24 1     
   15    6   25 1     
   16    7    8 am    
   17    7   26 1     
   18    8    9 2     
   19    8   10 1     
   20   10   11 1     
   21   10   27 1     
   22   10   28 1     
   23   11   15 am    
   24   11   12 1     
   25   12   13 1     
   26   12   29 1     
   27   12   30 1     
   28   13   14 1     
   29   14   15 1     
   30   14   31 1     
   31   14   32 1     
   32   15   16 2     
   33   17   18 1     
   34   17   33 1     
   35    3   34 1     
   36    9   35 1     
   37    9   36 1     
   38   16   37 1     
   39   16   38 1     
@<TRIPOS>SUBSTRUCTURE
      1 S1             1
@<TRIPOS>SET
LONE_PAIRS      STATIC     ATOMS    <user>   **** ""
5 34 35 36 37 38
DONOR_HYDROGENS      STATIC     ATOMS    <user>   **** ""
1 26
ATOM$BLUE        STATIC     ATOMS    COLORGROUP SYSTEM
5 34 35 36 37 38
ATOM$RED        STATIC     ATOMS    COLORGROUP SYSTEM
1 26
