#       Name:                AV-unprocessed.smi:1508
#       Creating user name   scv26
#       Creation time:       Fri Mar 27 06:21:29 2020


#       File generated by GOLD software.
#

@<TRIPOS>MOLECULE
AV-unprocessed.smi:1508
    42    43     1
SMALL
NO_CHARGES


@<TRIPOS>ATOM
      1 ****        -0.5892   1.6246   1.3692 C.3            1 S1                 0.0000
      2 ****        -1.1676   0.9487   0.1157 C.3            1 S1                 0.0000
      3 ****        -0.7521  -0.5358  -0.0738 C.3            1 S1                 0.0000
      4 ****         0.7678  -0.7060  -0.3352 C.3            1 S1                 0.0000
      5 ****         1.2187   0.0728  -1.4858 N.am           1 S1                 0.0000
      6 ****         2.0440   1.1291  -1.4635 C.2            1 S1                 0.0000
      7 ****         2.5300   1.5139  -0.3980 O.2            1 S1                 0.0000
      8 ****         2.2485   1.6792  -2.6809 N.pl3          1 S1                -1.0000
      9 ****         3.0205   2.7719  -2.8017 C.2            1 S1                 0.0000
     10 ****         2.5048   4.0098  -2.8686 N.2            1 S1                 0.0000
     11 ****         3.4719   4.9981  -2.9925 N.2            1 S1                 0.0000
     12 ****         4.6980   4.4767  -3.0234 C.2            1 S1                 0.0000
     13 ****         4.7826   2.7314  -2.9086 S.3            1 S1                 0.0000
     14 ****        -1.2156  -1.3717   1.0730 N.4            1 S1                 1.0000
     15 ****        -2.6802  -1.3555   1.3194 C.3            1 S1                 0.0000
     16 ****        -3.0799  -2.7621   1.7873 C.3            1 S1                 0.0000
     17 ****        -1.7602  -3.4913   2.0121 C.3            1 S1                 0.0000
     18 ****        -0.8104  -2.7936   1.0457 C.3            1 S1                 0.0000
     19 ****        -0.9189   2.6619   1.4303 H              1 S1                 0.0000
     20 ****         0.4997   1.6312   1.3607 H              1 S1                 0.0000
     21 ****        -0.9131   1.1241   2.2815 H              1 S1                 0.0000
     22 ****        -2.2538   1.0320   0.1470 H              1 S1                 0.0000
     23 ****        -0.8767   1.5288  -0.7603 H              1 S1                 0.0000
     24 ****        -1.2684  -0.9041  -0.9620 H              1 S1                 0.0000
     25 ****         1.3388  -0.4689   0.5635 H              1 S1                 0.0000
     26 ****         1.0018  -1.7436  -0.5716 H              1 S1                 0.0000
     27 ****         0.8559  -0.2007  -2.3876 H              1 S1                 0.0000
     28 ****         5.5573   5.1233  -3.1187 H              1 S1                 0.0000
     29 ****        -2.9120  -0.6031   2.0739 H              1 S1                 0.0000
     30 ****        -3.2362  -1.1023   0.4154 H              1 S1                 0.0000
     31 ****        -3.7015  -2.7447   2.6831 H              1 S1                 0.0000
     32 ****        -3.6474  -3.2621   1.0012 H              1 S1                 0.0000
     33 ****        -1.4218  -3.3388   3.0381 H              1 S1                 0.0000
     34 ****        -1.8321  -4.5652   1.8367 H              1 S1                 0.0000
     35 ****        -0.9451  -3.1967   0.0403 H              1 S1                 0.0000
     36 ****         0.2327  -2.9280   1.3335 H              1 S1                 0.0000
     37 ****        -0.7905  -0.9846   1.9035 H              1 S1                 0.0000
     38 ****         2.3090   1.0379   0.4532 LP             1 S1                 0.0000
     39 ****         3.1452   2.3022  -0.3848 LP             1 S1                 0.0000
     40 ****         1.8255   1.2732  -3.4910 LP             1 S1                 0.0000
     41 ****         1.5238   4.2005  -2.8328 LP             1 S1                 0.0000
     42 ****         3.2738   5.9766  -3.0511 LP             1 S1                 0.0000
@<TRIPOS>BOND
    1    1    2 1     
    2    1   19 1     
    3    1   20 1     
    4    1   21 1     
    5    2    3 1     
    6    2   22 1     
    7    2   23 1     
    8    3    4 1     
    9    3   14 1     
   10    3   24 1     
   11    4    5 1     
   12    4   25 1     
   13    4   26 1     
   14    5    6 am    
   15    5   27 1     
   16    6    7 2     
   17    6    8 1     
   18    8    9 1     
   19    9   13 1     
   20    9   10 2     
   21   10   11 1     
   22   11   12 2     
   23   12   13 1     
   24   12   28 1     
   25   14   18 1     
   26   14   15 1     
   27   14   37 1     
   28   15   16 1     
   29   15   29 1     
   30   15   30 1     
   31   16   17 1     
   32   16   31 1     
   33   16   32 1     
   34   17   18 1     
   35   17   33 1     
   36   17   34 1     
   37   18   35 1     
   38   18   36 1     
   39    7   38 1     
   40    7   39 1     
   41    8   40 1     
   42   10   41 1     
   43   11   42 1     
@<TRIPOS>SUBSTRUCTURE
      1 S1             1
@<TRIPOS>SET
LONE_PAIRS      STATIC     ATOMS    <user>   **** ""
5 38 39 40 41 42
DONOR_HYDROGENS      STATIC     ATOMS    <user>   **** ""
2 27 37
ATOM$BLUE        STATIC     ATOMS    COLORGROUP SYSTEM
5 38 39 40 41 42
ATOM$RED        STATIC     ATOMS    COLORGROUP SYSTEM
2 27 37
