AV-unprocessed.smi:1672|AV-procd|sdf|6704|dock4
  -GOLD-   22720 7443D 1   1.00000     0.00000
 Structure written by MMmdl.
 48 50  0  0  0  0  0  0  0  0  2 V2000
  143.2108  142.9719  155.4364 C   0  0  0  0  0  0  0  0  0  0  0  0
  144.3889  143.9613  155.4709 C   0  0  2  0  0  0  0  0  0  0  0  0
  145.1212  144.0628  154.1207 C   0  0  0  0  0  0  0  0  0  0  0  0
  145.9885  142.8241  153.8342 C   0  0  0  0  0  0  0  0  0  0  0  0
  146.9601  142.5844  154.9340 N   0  3  2  0  0  0  0  0  0  0  0  0
  147.9126  141.4799  154.6499 C   0  0  0  0  0  0  0  0  0  0  0  0
  148.8912  141.2223  155.8130 C   0  0  1  0  0  0  0  0  0  0  0  0
  148.3929  140.1566  156.5982 O   0  0  0  0  0  0  0  0  0  0  0  0
  150.3013  140.8677  155.3011 C   0  0  0  0  0  0  0  0  0  0  0  0
  151.2416  140.6122  156.3847 N   0  0  0  0  0  0  0  0  0  0  0  0
  152.0288  139.5247  156.5871 C   0  0  0  0  0  0  0  0  0  0  0  0
  152.0406  138.3561  155.6497 C   0  0  0  0  0  0  0  0  0  0  0  0
  152.8439  137.2942  156.1172 O   0  0  0  0  0  0  0  0  0  0  0  0
  152.7986  139.5612  157.6750 N   0  0  0  0  0  0  0  0  0  0  0  0
  152.4895  140.7888  158.2270 C   0  0  0  0  0  0  0  0  0  0  0  0
  152.9753  141.4208  159.3938 C   0  0  0  0  0  0  0  0  0  0  0  0
  152.5047  142.6983  159.7623 C   0  0  0  0  0  0  0  0  0  0  0  0
  151.5439  143.3608  158.9712 C   0  0  0  0  0  0  0  0  0  0  0  0
  151.0461  142.7487  157.8047 C   0  0  0  0  0  0  0  0  0  0  0  0
  151.5189  141.4731  157.4421 C   0  0  0  0  0  0  0  0  0  0  0  0
  146.2742  142.4139  156.2408 C   0  0  0  0  0  0  0  0  0  0  0  0
  145.4058  143.6389  156.5810 C   0  0  0  0  0  0  0  0  0  0  0  0
  143.5349  141.9517  155.2326 H   0  0  0  0  0  0  0  0  0  0  0  0
  142.4916  143.2491  154.6652 H   0  0  0  0  0  0  0  0  0  0  0  0
  142.6803  142.9644  156.3890 H   0  0  0  0  0  0  0  0  0  0  0  0
  143.9619  144.9413  155.6892 H   0  0  0  0  0  0  0  0  0  0  0  0
  144.4047  144.2147  153.3126 H   0  0  0  0  0  0  0  0  0  0  0  0
  145.7604  144.9469  154.1265 H   0  0  0  0  0  0  0  0  0  0  0  0
  145.3609  141.9421  153.6996 H   0  0  0  0  0  0  0  0  0  0  0  0
  146.5116  142.9776  152.8914 H   0  0  0  0  0  0  0  0  0  0  0  0
  147.3605  140.5583  154.4572 H   0  0  0  0  0  0  0  0  0  0  0  0
  148.4580  141.7036  153.7318 H   0  0  0  0  0  0  0  0  0  0  0  0
  148.9662  142.1029  156.4498 H   0  0  0  0  0  0  0  0  0  0  0  0
  148.8769  140.1301  157.4104 H   0  0  0  0  0  0  0  0  0  0  0  0
  150.2635  140.0066  154.6341 H   0  0  0  0  0  0  0  0  0  0  0  0
  150.6962  141.6910  154.7044 H   0  0  0  0  0  0  0  0  0  0  0  0
  151.0219  137.9890  155.5198 H   0  0  0  0  0  0  0  0  0  0  0  0
  152.3864  138.6701  154.6652 H   0  0  0  0  0  0  0  0  0  0  0  0
  153.0058  137.4225  157.0390 H   0  0  0  0  0  0  0  0  0  0  0  0
  153.7122  140.9225  160.0062 H   0  0  0  0  0  0  0  0  0  0  0  0
  152.8842  143.1724  160.6556 H   0  0  0  0  0  0  0  0  0  0  0  0
  151.1903  144.3398  159.2604 H   0  0  0  0  0  0  0  0  0  0  0  0
  150.3113  143.2547  157.1964 H   0  0  0  0  0  0  0  0  0  0  0  0
  145.6697  141.5061  156.2230 H   0  0  0  0  0  0  0  0  0  0  0  0
  147.0161  142.2804  157.0291 H   0  0  0  0  0  0  0  0  0  0  0  0
  146.0564  144.5017  156.7299 H   0  0  0  0  0  0  0  0  0  0  0  0
  144.8919  143.4819  157.5300 H   0  0  0  0  0  0  0  0  0  0  0  0
  147.5212  143.4202  155.0203 H   0  0  0  0  0  0  0  0  0  0  0  0
  1  2  1  0  0  0  0
  1 23  1  0  0  0  0
  1 24  1  0  0  0  0
  1 25  1  0  0  0  0
  2 22  1  0  0  0  0
  2  3  1  0  0  0  0
  2 26  1  0  0  0  0
  3  4  1  0  0  0  0
  3 27  1  0  0  0  0
  3 28  1  0  0  0  0
  4  5  1  0  0  0  0
  4 29  1  0  0  0  0
  4 30  1  0  0  0  0
  5  6  1  0  0  0  0
  5 21  1  0  0  0  0
  5 48  1  0  0  0  0
  6  7  1  0  0  0  0
  6 31  1  0  0  0  0
  6 32  1  0  0  0  0
  7  8  1  0  0  0  0
  7  9  1  0  0  0  0
  7 33  1  0  0  0  0
  8 34  1  0  0  0  0
  9 10  1  0  0  0  0
  9 35  1  0  0  0  0
  9 36  1  0  0  0  0
 10 20  1  0  0  0  0
 10 11  1  0  0  0  0
 11 12  1  0  0  0  0
 11 14  2  0  0  0  0
 12 13  1  0  0  0  0
 12 37  1  0  0  0  0
 12 38  1  0  0  0  0
 13 39  1  0  0  0  0
 14 15  1  0  0  0  0
 15 20  2  0  0  0  0
 15 16  1  0  0  0  0
 16 17  2  0  0  0  0
 16 40  1  0  0  0  0
 17 18  1  0  0  0  0
 17 41  1  0  0  0  0
 18 19  2  0  0  0  0
 18 42  1  0  0  0  0
 19 20  1  0  0  0  0
 19 43  1  0  0  0  0
 21 22  1  0  0  0  0
 21 44  1  0  0  0  0
 21 45  1  0  0  0  0
 22 46  1  0  0  0  0
 22 47  1  0  0  0  0
M  CHG  1   5   1
M  END
> <s_m_source_file>
AV-unprocessed.smi

> <i_m_source_file_index>
1672

> <i_lp_mmshare_version>
43012

> <i_f3d_flags>
0

> <s_epik_input>
W0NIM11bQ0hdMVtDSDJdW0NIMl1OKFtDSDJdW0NIMl0xKVtDSDJdW0NASF0oW09IXSlbQ0gyXW4oYyhuMilbQ0gyXVtPSF0pYyhjMjMpW2NIXVtjSF1bY0hdW2NIXTM=

> <s_epik_cmdline>
J2VwaWtfcHl0aG9uJywgJy1waCcsICc3LjAnLCAnLXRuJywgJzgnLCAnLW1hJywgJzIwMCcsICctbWV0YWxfYmluZGluZycsICctaW1hZScsICc8aW5maWxlLm1hZT4nLCAnLW9tYWUnLCAnPG91dGZpbGUubWFlPic=

> <r_epik_Ionization_Penalty>
0.0498263

> <r_epik_Ionization_Penalty_Charging>
0.00181365

> <r_epik_Ionization_Penalty_Neutral>
0.0480127

> <r_epik_State_Penalty>
0.0408546

> <r_epik_Charging_Adjusted_Penalty>
0.0426682

> <i_epik_Tot_Q>
1

> <i_epik_Tot_abs_Q>
1

> <r_epik_Metal_State_Penalty>
4.22946e-05

> <b_epik_Metal_Only>
0

> <s_lp_Force_Field>
OPLS_2005

> <r_lp_Energy>
24.4653

> <b_lp_Chiralities_Consistent>
1

> <s_lp_Variant>
AV-unprocessed.smi:1672-4

> <Gold.Version>
5.8.1

> <Gold.Id.Protein>
6NUR|6NUR_protein|mol2

> <Gold.PLP.Fitness>
50.4788

> <Gold.PLP.PLP>
-41.1654

> <Gold.PLP.part.hbond>
-3.0000

> <Gold.PLP.part.metal>
0.0000

> <Gold.PLP.part.buried>
-5.0988

> <Gold.PLP.part.nonpolar>
-34.1008

> <Gold.PLP.part.repulsive>
0.1030

> <Gold.PLP.ligand.clash>
0.0000

> <Gold.PLP.ligand.torsion>
0.5978

> <Gold.PLP.Chemscore.Hbond>
3.4784

> <Gold.PLP.Chemscore.CHOScore>
0.0000

> <Gold.PLP.Chemscore.Metal>
0.0000

> <Gold.Chemscore.Hbonds>
donor molecule, donor type, donor heavy atom, donor atom, acceptor molecule, acceptor atom, score
      L1  H     5    48       P1  8028  1.80
      P1  H  7997  8010       L1    14  0.85
      P1  H 10752 10765       L1    13  0.57

> <Gold.PLP.Chemscore.Internal.Correction>
0.0738

> <Gold.Rescore>
     Score         DG    S(hbond)    S(metal)    S(lipo)     H(rot)  DE(clash)    DE(int)     intcor
     13.98     -14.72       1.22        0.00     107.05       2.88       0.16       0.58       ----

> <Gold.Chemscore.Fitness>
13.9823

> <Gold.Chemscore.DG>
-14.7205

> <Gold.Chemscore.ZeroCoef>
-5.4800

> <Gold.Chemscore.Hbond>
1.2222

> <Gold.Chemscore.Metal>
0.0000

> <Gold.Chemscore.Lipo>
107.0546

> <Gold.Chemscore.Internal_Hbond>
0.0000

> <Gold.Chemscore.DEClash>
0.1614

> <Gold.Chemscore.DEInternal>
0.5767

> <Gold.Chemscore.Rot>
2.8778

> <Gold.Chemscore.Internal.Correction>
   9.000000E+99

> <Gold.Chemscore.Hbonds>
donor molecule, donor type, donor heavy atom, donor atom, acceptor molecule, acceptor atom, score
      L1  H     5    48       P1  8028  0.18
      P1  H  7997  8010       L1    14  0.06
      P1  H 10752 10765       L1    13  0.54

> <Gold.Chemscore.Hbond.Weighted>
-4.0822

> <Gold.Chemscore.Metal.Weighted>
-0.0000

> <Gold.Chemscore.Lipo.Weighted>
-12.5254

> <Gold.Chemscore.Internal_Hbond.Weighted>
0.0000

> <Gold.Chemscore.DEClash.Weighted>
0.1614

> <Gold.Chemscore.DEInternal.Weighted>
0.5767

> <Gold.Chemscore.Rot.Weighted>
7.3671

> <Gold.Chemscore.Internal.Correction.Weighted>
   9.000000E+99

> <Gold.Protein.RotatedTorsions>
[ 6907 6896 6895 6894 ] final  -80.59 input  -60.11 | X-H torsion
[ 7974 7965 7964 7962 ] final  -39.67 input  175.53 | X-H torsion
[ 8008 7997 7996 7995 ] final   35.38 input   59.86 | X-H torsion
[ 10167 10162 10161 10158 ] final -139.75 input  -65.29 | X-H torsion
[ 10718 10713 10712 10709 ] final  155.83 input   66.30 | X-H torsion
[ 10763 10752 10751 10750 ] final -145.88 input  -60.55 | X-H torsion
[ 11005 11000 10999 10996 ] final  -24.22 input  -57.11 | X-H torsion

> <Gold.Protein.ActiveResidues>
 VAL166  LYS551  ARG553  GLY616  TRP617  ASP618  TYR619  PRO620  LYS621  CYS622 
 ASP623  PHE694  ASN695  SER759  ASP760  ASP761  ALA762  ILE779  LEU786  VAL792 
 PHE793  MET794  SER795  GLU796  ALA797  LYS798  CYS799  TRP800  GLU811  SER814 

> <Gold.Protein.RotatedAtoms>
  150.6927  134.3947  159.5091 H   0  0  0  0  0  0  0  0  0  0  0  0  # atno 6907 bound_to 6896
  152.1730  134.8816  160.0542 H   0  0  0  0  0  0  0  0  0  0  0  0  # atno 6908 bound_to 6896
  151.9835  133.3731  159.4153 H   0  0  0  0  0  0  0  0  0  0  0  0  # atno 6909 bound_to 6896
  146.0375  140.6651  142.9103 H   0  0  0  0  0  0  0  0  0  0  0  0  # atno 7974 bound_to 7965
  155.1701  140.3291  155.4394 H   0  0  0  0  0  0  0  0  0  0  0  0  # atno 8008 bound_to 7997
  156.2513  140.1945  156.6755 H   0  0  0  0  0  0  0  0  0  0  0  0  # atno 8009 bound_to 7997
  154.6344  140.0578  156.9757 H   0  0  0  0  0  0  0  0  0  0  0  0  # atno 8010 bound_to 7997
  139.8349  143.7398  152.2665 H   0  0  0  0  0  0  0  0  0  0  0  0  # atno 10167 bound_to 10162
  157.2131  131.0702  151.1958 H   0  0  0  0  0  0  0  0  0  0  0  0  # atno 10718 bound_to 10713
  154.8363  135.3401  154.6573 H   0  0  0  0  0  0  0  0  0  0  0  0  # atno 10763 bound_to 10752
  153.7188  135.6959  153.5023 H   0  0  0  0  0  0  0  0  0  0  0  0  # atno 10764 bound_to 10752
  153.2397  135.4389  155.0637 H   0  0  0  0  0  0  0  0  0  0  0  0  # atno 10765 bound_to 10752
  140.8825  133.7644  156.0320 H   0  0  0  0  0  0  0  0  0  0  0  0  # atno 11005 bound_to 11000
  144.7059  140.3848  143.7119 LP  0  0  0  0  0  0  0  0  0  0  0  0  # atno 17320 bound_to 7965
  145.6939  139.1645  143.2631 LP  0  0  0  0  0  0  0  0  0  0  0  0  # atno 17321 bound_to 7965
  139.7617  144.7504  151.0354 LP  0  0  0  0  0  0  0  0  0  0  0  0  # atno 17342 bound_to 10162
  140.7803  143.4744  151.0103 LP  0  0  0  0  0  0  0  0  0  0  0  0  # atno 17343 bound_to 10162
  157.3652  130.7152  149.6528 LP  0  0  0  0  0  0  0  0  0  0  0  0  # atno 17370 bound_to 10713
  155.9689  130.4214  150.4468 LP  0  0  0  0  0  0  0  0  0  0  0  0  # atno 17371 bound_to 10713
  140.8444  134.3028  157.5301 LP  0  0  0  0  0  0  0  0  0  0  0  0  # atno 17394 bound_to 11000
  139.8721  134.9434  156.3851 LP  0  0  0  0  0  0  0  0  0  0  0  0  # atno 17395 bound_to 11000

$$$$
