AV-unprocessed.smi:2710|AV-procd|sdf|10465|dock8
  -GOLD-   2272014503D 1   1.00000     0.00000
 Structure written by MMmdl.
 53 54  0  0  0  0  0  0  0  0  2 V2000
  145.3198  135.9092  151.2493 C   0  0  0  0  0  0  0  0  0  0  0  0
  144.6606  134.5846  150.8361 C   0  0  0  0  0  0  0  0  0  0  0  0
  145.5812  133.6883  150.0767 N   0  3  1  0  0  0  0  0  0  0  0  0
  146.8403  133.3563  150.8017 C   0  0  0  0  0  0  0  0  0  0  0  0
  146.6008  132.3580  151.9520 C   0  0  0  0  0  0  0  0  0  0  0  0
  145.8973  131.0826  151.4538 C   0  0  1  0  0  0  0  0  0  0  0  0
  145.5430  130.2317  152.5871 N   0  0  0  0  0  0  0  0  0  0  0  0
  146.1171  129.0602  152.8974 C   0  0  0  0  0  0  0  0  0  0  0  0
  147.0302  128.5535  152.2462 O   0  0  0  0  0  0  0  0  0  0  0  0
  145.5795  128.5375  154.0123 N   0  0  0  0  0  0  0  0  0  0  0  0
  145.9084  127.3117  154.6496 C   0  0  0  0  0  0  0  0  0  0  0  0
  144.9591  126.6959  155.4897 C   0  0  0  0  0  0  0  0  0  0  0  0
  145.2097  125.5262  156.1145 N   0  0  0  0  0  0  0  0  0  0  0  0
  146.4033  124.9557  155.9060 C   0  0  0  0  0  0  0  0  0  0  0  0
  146.6502  123.6089  156.6100 C   0  0  0  0  0  0  0  0  0  0  0  0
  145.4293  123.1556  157.4480 C   0  0  0  0  0  0  0  0  0  0  0  0
  147.8533  123.7344  157.5659 C   0  0  0  0  0  0  0  0  0  0  0  0
  146.9077  122.5071  155.5605 C   0  0  0  0  0  0  0  0  0  0  0  0
  147.3622  125.4386  155.1049 N   0  0  0  0  0  0  0  0  0  0  0  0
  147.1263  126.6115  154.4793 C   0  0  0  0  0  0  0  0  0  0  0  0
  144.6329  131.4393  150.6518 C   0  0  0  0  0  0  0  0  0  0  0  0
  144.9547  132.4468  149.5287 C   0  0  1  0  0  0  0  0  0  0  0  0
  143.7486  132.7158  148.6110 C   0  0  0  0  0  0  0  0  0  0  0  0
  144.5795  136.5843  151.6788 H   0  0  0  0  0  0  0  0  0  0  0  0
  145.7644  136.4137  150.3911 H   0  0  0  0  0  0  0  0  0  0  0  0
  146.0949  135.7691  152.0021 H   0  0  0  0  0  0  0  0  0  0  0  0
  144.2538  134.0779  151.7107 H   0  0  0  0  0  0  0  0  0  0  0  0
  143.8062  134.8500  150.2171 H   0  0  0  0  0  0  0  0  0  0  0  0
  147.5397  132.9178  150.0887 H   0  0  0  0  0  0  0  0  0  0  0  0
  147.3330  134.2535  151.1730 H   0  0  0  0  0  0  0  0  0  0  0  0
  147.5548  132.0961  152.4116 H   0  0  0  0  0  0  0  0  0  0  0  0
  146.0096  132.8305  152.7369 H   0  0  0  0  0  0  0  0  0  0  0  0
  146.5811  130.5597  150.7826 H   0  0  0  0  0  0  0  0  0  0  0  0
  144.8028  130.5641  153.1878 H   0  0  0  0  0  0  0  0  0  0  0  0
  144.8971  129.1068  154.4913 H   0  0  0  0  0  0  0  0  0  0  0  0
  143.9924  127.1444  155.6676 H   0  0  0  0  0  0  0  0  0  0  0  0
  145.6131  122.1940  157.9285 H   0  0  0  0  0  0  0  0  0  0  0  0
  144.5372  123.0414  156.8304 H   0  0  0  0  0  0  0  0  0  0  0  0
  145.1961  123.8676  158.2409 H   0  0  0  0  0  0  0  0  0  0  0  0
  147.6829  124.5063  158.3172 H   0  0  0  0  0  0  0  0  0  0  0  0
  148.7669  123.9934  157.0297 H   0  0  0  0  0  0  0  0  0  0  0  0
  148.0425  122.7980  158.0918 H   0  0  0  0  0  0  0  0  0  0  0  0
  147.0575  121.5355  156.0326 H   0  0  0  0  0  0  0  0  0  0  0  0
  147.7974  122.7141  154.9653 H   0  0  0  0  0  0  0  0  0  0  0  0
  146.0667  122.4126  154.8726 H   0  0  0  0  0  0  0  0  0  0  0  0
  147.9138  126.9623  153.8305 H   0  0  0  0  0  0  0  0  0  0  0  0
  144.2094  130.5306  150.2214 H   0  0  0  0  0  0  0  0  0  0  0  0
  143.8677  131.8479  151.3134 H   0  0  0  0  0  0  0  0  0  0  0  0
  145.7111  131.9887  148.8891 H   0  0  0  0  0  0  0  0  0  0  0  0
  143.4747  131.8117  148.0663 H   0  0  0  0  0  0  0  0  0  0  0  0
  143.9758  133.4850  147.8723 H   0  0  0  0  0  0  0  0  0  0  0  0
  142.8650  133.0264  149.1686 H   0  0  0  0  0  0  0  0  0  0  0  0
  145.8616  134.2255  149.2687 H   0  0  0  0  0  0  0  0  0  0  0  0
  1  2  1  0  0  0  0
  1 24  1  0  0  0  0
  1 25  1  0  0  0  0
  1 26  1  0  0  0  0
  2  3  1  0  0  0  0
  2 27  1  0  0  0  0
  2 28  1  0  0  0  0
  3 22  1  0  0  0  0
  3  4  1  0  0  0  0
  3 53  1  0  0  0  0
  4  5  1  0  0  0  0
  4 29  1  0  0  0  0
  4 30  1  0  0  0  0
  5  6  1  0  0  0  0
  5 31  1  0  0  0  0
  5 32  1  0  0  0  0
  6  7  1  0  0  0  0
  6 21  1  0  0  0  0
  6 33  1  0  0  0  0
  7  8  1  0  0  0  0
  7 34  1  0  0  0  0
  8  9  2  0  0  0  0
  8 10  1  0  0  0  0
 10 11  1  0  0  0  0
 10 35  1  0  0  0  0
 11 20  1  0  0  0  0
 11 12  2  0  0  0  0
 12 13  1  0  0  0  0
 12 36  1  0  0  0  0
 13 14  2  0  0  0  0
 14 15  1  0  0  0  0
 14 19  1  0  0  0  0
 15 16  1  0  0  0  0
 15 17  1  0  0  0  0
 15 18  1  0  0  0  0
 16 37  1  0  0  0  0
 16 38  1  0  0  0  0
 16 39  1  0  0  0  0
 17 40  1  0  0  0  0
 17 41  1  0  0  0  0
 17 42  1  0  0  0  0
 18 43  1  0  0  0  0
 18 44  1  0  0  0  0
 18 45  1  0  0  0  0
 19 20  2  0  0  0  0
 20 46  1  0  0  0  0
 21 22  1  0  0  0  0
 21 47  1  0  0  0  0
 21 48  1  0  0  0  0
 22 23  1  0  0  0  0
 22 49  1  0  0  0  0
 23 50  1  0  0  0  0
 23 51  1  0  0  0  0
 23 52  1  0  0  0  0
M  CHG  1   3   1
M  END
> <s_m_source_file>
AV-unprocessed.smi

> <i_m_source_file_index>
2710

> <i_lp_mmshare_version>
43012

> <i_f3d_flags>
0

> <s_epik_input>
W0NIM11bQ0gyXU4xW0NIMl1bQ0gyXVtDQEhdKFtDSDJdW0NASF0xW0NIM10pW05IXUMoPU8pW05IXWMyW2NIXW5jKEMoW0NIM10pKFtDSDNdKVtDSDNdKW5bY0hdMg==

> <s_epik_cmdline>
J2VwaWtfcHl0aG9uJywgJy1waCcsICc3LjAnLCAnLXRuJywgJzgnLCAnLW1hJywgJzIwMCcsICctbWV0YWxfYmluZGluZycsICctaW1hZScsICc8aW5maWxlLm1hZT4nLCAnLW9tYWUnLCAnPG91dGZpbGUubWFlPic=

> <r_lp_tautomer_probability>
1

> <r_epik_Ionization_Penalty>
0.00396003

> <r_epik_Ionization_Penalty_Charging>
0.0039379

> <r_epik_Ionization_Penalty_Neutral>
2.21316e-05

> <r_epik_State_Penalty>
0.00281651

> <r_epik_Charging_Adjusted_Penalty>
0.00675441

> <i_epik_Tot_Q>
1

> <i_epik_Tot_abs_Q>
1

> <r_epik_Metal_State_Penalty>
-0

> <b_epik_Metal_Only>
0

> <s_lp_Force_Field>
OPLS_2005

> <r_lp_Energy>
21.9784

> <b_lp_Chiralities_Consistent>
1

> <s_lp_Variant>
AV-unprocessed.smi:2710-2

> <Gold.Version>
5.8.1

> <Gold.Id.Protein>
6NUR|6NUR_protein|mol2

> <Gold.PLP.Fitness>
43.6415

> <Gold.PLP.PLP>
-35.8911

> <Gold.PLP.part.hbond>
-2.4147

> <Gold.PLP.part.metal>
0.0000

> <Gold.PLP.part.buried>
-5.7459

> <Gold.PLP.part.nonpolar>
-28.0161

> <Gold.PLP.part.repulsive>
0.3029

> <Gold.PLP.ligand.clash>
0.0000

> <Gold.PLP.ligand.torsion>
0.2130

> <Gold.PLP.Chemscore.Hbond>
2.0000

> <Gold.PLP.Chemscore.CHOScore>
0.7125

> <Gold.PLP.Chemscore.Metal>
0.0000

> <Gold.Chemscore.Hbonds>
donor molecule, donor type, donor heavy atom, donor atom, acceptor molecule, acceptor atom, score
      L1  H     3    53       P1  7921  1.00
      L1  H    10    35       P1 10956  1.00
      L1  C    12    36       P1 10956  0.71

> <Gold.PLP.Chemscore.Internal.Correction>
0.0390

> <Gold.Rescore>
     Score         DG    S(hbond)    S(metal)    S(lipo)     H(rot)  DE(clash)    DE(int)     intcor
     17.56     -19.24       1.94        0.00      90.92       1.31       0.35       1.33       ----

> <Gold.Chemscore.Fitness>
17.5618

> <Gold.Chemscore.DG>
-19.2408

> <Gold.Chemscore.ZeroCoef>
-5.4800

> <Gold.Chemscore.Hbond>
1.9378

> <Gold.Chemscore.Metal>
0.0000

> <Gold.Chemscore.Lipo>
90.9170

> <Gold.Chemscore.Internal_Hbond>
0.0000

> <Gold.Chemscore.DEClash>
0.3456

> <Gold.Chemscore.DEInternal>
1.3334

> <Gold.Chemscore.Rot>
1.3081

> <Gold.Chemscore.Internal.Correction>
   9.000000E+99

> <Gold.Chemscore.Hbonds>
donor molecule, donor type, donor heavy atom, donor atom, acceptor molecule, acceptor atom, score
      L1  H     3    53       P1  7921  0.50
      L1  H    10    35       P1 10956  0.94

> <Gold.Chemscore.Hbond.Weighted>
-6.4723

> <Gold.Chemscore.Metal.Weighted>
-0.0000

> <Gold.Chemscore.Lipo.Weighted>
-10.6373

> <Gold.Chemscore.Internal_Hbond.Weighted>
0.0000

> <Gold.Chemscore.DEClash.Weighted>
0.3456

> <Gold.Chemscore.DEInternal.Weighted>
1.3334

> <Gold.Chemscore.Rot.Weighted>
3.3488

> <Gold.Chemscore.Internal.Correction.Weighted>
   9.000000E+99

> <Gold.Protein.RotatedTorsions>
[ 6907 6896 6895 6894 ] final -131.26 input  -60.11 | X-H torsion
[ 7974 7965 7964 7962 ] final   54.47 input  175.53 | X-H torsion
[ 8008 7997 7996 7995 ] final  173.08 input   59.86 | X-H torsion
[ 10167 10162 10161 10158 ] final  152.19 input  -65.29 | X-H torsion
[ 10718 10713 10712 10709 ] final   24.72 input   66.30 | X-H torsion
[ 10763 10752 10751 10750 ] final  148.08 input  -60.55 | X-H torsion
[ 11005 11000 10999 10996 ] final    9.42 input  -57.11 | X-H torsion

> <Gold.Protein.ActiveResidues>
 VAL166  LYS551  ARG553  GLY616  TRP617  ASP618  TYR619  PRO620  LYS621  CYS622 
 ASP623  PHE694  ASN695  SER759  ASP760  ASP761  ALA762  ILE779  LEU786  VAL792 
 PHE793  MET794  SER795  GLU796  ALA797  LYS798  CYS799  TRP800  GLU811  SER814 

> <Gold.Protein.RotatedAtoms>
  150.9490  133.6570  159.2775 H   0  0  0  0  0  0  0  0  0  0  0  0  # atno 6907 bound_to 6896
  151.3933  135.0958  159.9542 H   0  0  0  0  0  0  0  0  0  0  0  0  # atno 6908 bound_to 6896
  152.5102  133.9000  159.7491 H   0  0  0  0  0  0  0  0  0  0  0  0  # atno 6909 bound_to 6896
  145.9605  139.4054  143.0251 H   0  0  0  0  0  0  0  0  0  0  0  0  # atno 7974 bound_to 7965
  156.1111  140.1469  156.9337 H   0  0  0  0  0  0  0  0  0  0  0  0  # atno 8008 bound_to 7997
  154.4768  140.0892  156.7324 H   0  0  0  0  0  0  0  0  0  0  0  0  # atno 8009 bound_to 7997
  155.4594  140.3438  155.4313 H   0  0  0  0  0  0  0  0  0  0  0  0  # atno 8010 bound_to 7997
  139.4834  144.5378  151.7615 H   0  0  0  0  0  0  0  0  0  0  0  0  # atno 10167 bound_to 10162
  157.1836  130.6814  149.6122 H   0  0  0  0  0  0  0  0  0  0  0  0  # atno 10718 bound_to 10713
  154.0490  135.2883  155.3343 H   0  0  0  0  0  0  0  0  0  0  0  0  # atno 10763 bound_to 10752
  154.6881  135.5237  153.8358 H   0  0  0  0  0  0  0  0  0  0  0  0  # atno 10764 bound_to 10752
  153.0569  135.6598  154.0687 H   0  0  0  0  0  0  0  0  0  0  0  0  # atno 10765 bound_to 10752
  140.5260  134.0513  155.7859 H   0  0  0  0  0  0  0  0  0  0  0  0  # atno 11005 bound_to 11000
  145.8046  140.9754  143.0980 LP  0  0  0  0  0  0  0  0  0  0  0  0  # atno 17320 bound_to 7965
  144.6814  139.9845  143.7484 LP  0  0  0  0  0  0  0  0  0  0  0  0  # atno 17321 bound_to 7965
  140.4913  144.1305  150.5951 LP  0  0  0  0  0  0  0  0  0  0  0  0  # atno 17342 bound_to 10162
  140.4167  143.2631  151.9766 LP  0  0  0  0  0  0  0  0  0  0  0  0  # atno 17343 bound_to 10162
  155.9721  130.4638  150.6195 LP  0  0  0  0  0  0  0  0  0  0  0  0  # atno 17370 bound_to 10713
  157.3928  131.0798  151.1378 LP  0  0  0  0  0  0  0  0  0  0  0  0  # atno 17371 bound_to 10713
  141.1308  133.9305  157.2539 LP  0  0  0  0  0  0  0  0  0  0  0  0  # atno 17394 bound_to 11000
  139.9580  135.0161  156.9182 LP  0  0  0  0  0  0  0  0  0  0  0  0  # atno 17395 bound_to 11000

$$$$
