AV-unprocessed.smi:198|AV-procd|sdf|1552|dock2
  -GOLD-   2262019423D 1   1.00000     0.00000
 Structure written by MMmdl.
 59 63  0  0  0  0  0  0  0  0  2 V2000
  146.6977  129.8377  152.1409 C   0  0  0  0  0  0  0  0  0  0  0  0
  147.7896  130.6291  152.7472 N   0  3  1  0  0  0  0  0  0  0  0  0
  147.2854  131.7933  153.5153 C   0  0  0  0  0  0  0  0  0  0  0  0
  148.4445  132.6576  154.0378 C   0  0  0  0  0  0  0  0  0  0  0  0
  149.4156  131.8228  154.9063 C   0  0  1  0  0  0  0  0  0  0  0  0
  149.9088  130.6270  154.0554 C   0  0  1  0  0  0  0  0  0  0  0  0
  150.9145  129.7718  154.8431 C   0  0  0  0  0  0  0  0  0  0  0  0
  152.0807  130.6466  155.3188 C   0  0  0  0  0  0  0  0  0  0  0  0
  151.5642  131.8336  156.1441 C   0  0  0  0  0  0  0  0  0  0  0  0
  150.5587  132.6016  155.4091 N   0  0  0  0  0  0  0  0  0  0  0  0
  150.2811  133.7505  156.0707 C   0  0  0  0  0  0  0  0  0  0  0  0
  149.7251  133.7112  157.3108 N   0  0  0  0  0  0  0  0  0  0  0  0
  149.4632  134.8492  157.9607 C   0  0  0  0  0  0  0  0  0  0  0  0
  149.6794  136.1052  157.5642 N   0  0  0  0  0  0  0  0  0  0  0  0
  150.2514  136.1475  156.3258 C   0  0  0  0  0  0  0  0  0  0  0  0
  150.5852  135.0233  155.5200 C   0  0  0  0  0  0  0  0  0  0  0  0
  151.1509  135.4419  154.3235 N   0  0  0  0  0  0  0  0  0  0  0  0
  151.1501  136.7439  154.4139 C   0  0  0  0  0  0  0  0  0  0  0  0
  150.6276  137.2551  155.5821 N   0  0  0  0  0  0  0  0  0  0  0  0
  150.5041  138.6454  155.9214 C   0  0  0  0  0  0  0  0  0  0  0  0
  149.1406  139.3345  156.0094 C   0  0  0  0  0  0  0  0  0  0  0  0
  149.7864  140.6526  155.5213 C   0  0  0  0  0  0  0  0  0  0  0  0
  148.9376  141.4376  154.5060 C   0  0  0  0  0  0  0  0  0  0  0  0
  148.4344  140.6067  153.4801 O   0  0  0  0  0  0  0  0  0  0  0  0
  150.2141  141.5946  156.6669 C   0  0  0  0  0  0  0  0  0  0  0  0
  150.9526  142.7057  156.2017 O   0  0  0  0  0  0  0  0  0  0  0  0
  150.8877  139.7425  154.9282 C   0  0  0  0  0  0  0  0  0  0  0  0
  148.7171  129.7936  153.5485 C   0  0  0  0  0  0  0  0  0  0  0  0
  146.0601  129.3973  152.9085 H   0  0  0  0  0  0  0  0  0  0  0  0
  147.1009  129.0316  151.5269 H   0  0  0  0  0  0  0  0  0  0  0  0
  146.0784  130.4650  151.4991 H   0  0  0  0  0  0  0  0  0  0  0  0
  146.6398  132.3985  152.8776 H   0  0  0  0  0  0  0  0  0  0  0  0
  146.6725  131.4451  154.3484 H   0  0  0  0  0  0  0  0  0  0  0  0
  148.9831  133.0968  153.1968 H   0  0  0  0  0  0  0  0  0  0  0  0
  148.0256  133.4913  154.6007 H   0  0  0  0  0  0  0  0  0  0  0  0
  148.8707  131.4321  155.7677 H   0  0  0  0  0  0  0  0  0  0  0  0
  150.4315  131.0222  153.1823 H   0  0  0  0  0  0  0  0  0  0  0  0
  150.4240  129.3105  155.7012 H   0  0  0  0  0  0  0  0  0  0  0  0
  151.2910  128.9590  154.2213 H   0  0  0  0  0  0  0  0  0  0  0  0
  152.7776  130.0541  155.9118 H   0  0  0  0  0  0  0  0  0  0  0  0
  152.6401  131.0154  154.4579 H   0  0  0  0  0  0  0  0  0  0  0  0
  151.1275  131.4720  157.0765 H   0  0  0  0  0  0  0  0  0  0  0  0
  152.4041  132.4748  156.4165 H   0  0  0  0  0  0  0  0  0  0  0  0
  149.0163  134.7385  158.9379 H   0  0  0  0  0  0  0  0  0  0  0  0
  151.5326  137.3711  153.6216 H   0  0  0  0  0  0  0  0  0  0  0  0
  151.0515  138.7856  156.8552 H   0  0  0  0  0  0  0  0  0  0  0  0
  148.4117  138.9280  155.3069 H   0  0  0  0  0  0  0  0  0  0  0  0
  148.7226  139.3735  157.0158 H   0  0  0  0  0  0  0  0  0  0  0  0
  148.0801  141.9002  154.9959 H   0  0  0  0  0  0  0  0  0  0  0  0
  149.5083  142.2506  154.0565 H   0  0  0  0  0  0  0  0  0  0  0  0
  149.1062  140.4955  152.8251 H   0  0  0  0  0  0  0  0  0  0  0  0
  149.3480  141.9583  157.2205 H   0  0  0  0  0  0  0  0  0  0  0  0
  150.8369  141.0719  157.3933 H   0  0  0  0  0  0  0  0  0  0  0  0
  150.3964  143.4690  156.2264 H   0  0  0  0  0  0  0  0  0  0  0  0
  151.9060  140.1148  155.0417 H   0  0  0  0  0  0  0  0  0  0  0  0
  150.6918  139.4653  153.8913 H   0  0  0  0  0  0  0  0  0  0  0  0
  148.1796  129.3474  154.3871 H   0  0  0  0  0  0  0  0  0  0  0  0
  149.0820  128.9714  152.9313 H   0  0  0  0  0  0  0  0  0  0  0  0
  148.3312  131.0041  151.9813 H   0  0  0  0  0  0  0  0  0  0  0  0
  1  2  1  0  0  0  0
  1 29  1  0  0  0  0
  1 30  1  0  0  0  0
  1 31  1  0  0  0  0
  2 28  1  0  0  0  0
  2  3  1  0  0  0  0
  2 59  1  0  0  0  0
  3  4  1  0  0  0  0
  3 32  1  0  0  0  0
  3 33  1  0  0  0  0
  4  5  1  0  0  0  0
  4 34  1  0  0  0  0
  4 35  1  0  0  0  0
  5 10  1  0  0  0  0
  5  6  1  0  0  0  0
  5 36  1  0  0  0  0
  6  7  1  0  0  0  0
  6 28  1  0  0  0  0
  6 37  1  0  0  0  0
  7  8  1  0  0  0  0
  7 38  1  0  0  0  0
  7 39  1  0  0  0  0
  8  9  1  0  0  0  0
  8 40  1  0  0  0  0
  8 41  1  0  0  0  0
  9 10  1  0  0  0  0
  9 42  1  0  0  0  0
  9 43  1  0  0  0  0
 10 11  1  0  0  0  0
 11 16  1  0  0  0  0
 11 12  2  0  0  0  0
 12 13  1  0  0  0  0
 13 14  2  0  0  0  0
 13 44  1  0  0  0  0
 14 15  1  0  0  0  0
 15 19  1  0  0  0  0
 15 16  2  0  0  0  0
 16 17  1  0  0  0  0
 17 18  2  0  0  0  0
 18 19  1  0  0  0  0
 18 45  1  0  0  0  0
 19 20  1  0  0  0  0
 20 27  1  0  0  0  0
 20 21  1  0  0  0  0
 20 46  1  0  0  0  0
 21 22  1  0  0  0  0
 21 47  1  0  0  0  0
 21 48  1  0  0  0  0
 22 23  1  0  0  0  0
 22 25  1  0  0  0  0
 22 27  1  0  0  0  0
 23 24  1  0  0  0  0
 23 49  1  0  0  0  0
 23 50  1  0  0  0  0
 24 51  1  0  0  0  0
 25 26  1  0  0  0  0
 25 52  1  0  0  0  0
 25 53  1  0  0  0  0
 26 54  1  0  0  0  0
 27 55  1  0  0  0  0
 27 56  1  0  0  0  0
 28 57  1  0  0  0  0
 28 58  1  0  0  0  0
M  CHG  1   2   1
M  END
> <s_m_source_file>
AV-unprocessed.smi

> <i_m_source_file_index>
198

> <i_lp_mmshare_version>
43012

> <i_f3d_flags>
0

> <s_epik_input>
W0NIMl0xW0NIMl1OKFtDSDNdKVtDSDJdW0NAQEhdKFtDQEhdMTIpW0NIMl1bQ0gyXVtDSDJdTjJjKG5bY0hdbjMpYyhjMzQpbltjSF1uNFtDSF0oW0NIMl01KVtDSDJdQzUoW0NIMl1bT0hdKVtDSDJdW09IXQ==

> <s_epik_cmdline>
J2VwaWtfcHl0aG9uJywgJy1waCcsICc3LjAnLCAnLXRuJywgJzgnLCAnLW1hJywgJzIwMCcsICctbWV0YWxfYmluZGluZycsICctaW1hZScsICc8aW5maWxlLm1hZT4nLCAnLW9tYWUnLCAnPG91dGZpbGUubWFlPic=

> <r_lp_tautomer_probability>
1

> <r_epik_Ionization_Penalty>
0.00239938

> <r_epik_Ionization_Penalty_Charging>
0.00138697

> <r_epik_Ionization_Penalty_Neutral>
0.00101241

> <r_epik_State_Penalty>
-0

> <r_epik_Charging_Adjusted_Penalty>
0.00138697

> <i_epik_Tot_Q>
1

> <i_epik_Tot_abs_Q>
1

> <r_epik_Metal_State_Penalty>
-0

> <b_epik_Metal_Only>
0

> <s_lp_Force_Field>
OPLS_2005

> <r_lp_Energy>
56.2866

> <b_lp_Chiralities_Consistent>
1

> <s_lp_Variant>
AV-unprocessed.smi:198-1

> <Gold.Version>
5.8.1

> <Gold.Id.Protein>
6NUR|6NUR_protein|mol2

> <Gold.PLP.Fitness>
48.2352

> <Gold.PLP.PLP>
-36.8326

> <Gold.PLP.part.hbond>
-4.2329

> <Gold.PLP.part.metal>
0.0000

> <Gold.PLP.part.buried>
-0.4293

> <Gold.PLP.part.nonpolar>
-32.4505

> <Gold.PLP.part.repulsive>
1.0114

> <Gold.PLP.ligand.clash>
0.0000

> <Gold.PLP.ligand.torsion>
0.3549

> <Gold.PLP.Chemscore.Hbond>
3.6094

> <Gold.PLP.Chemscore.CHOScore>
0.2122

> <Gold.PLP.Chemscore.Metal>
0.0000

> <Gold.Chemscore.Hbonds>
donor molecule, donor type, donor heavy atom, donor atom, acceptor molecule, acceptor atom, score
      L1  H     2    59       P1 10747  0.99
      L1  H    24    51       P1  7957  1.00
      L1  H    26    54       P1  8028  0.99
      P1  H 10752 10765       L1    17  0.26
      L1  C    18    45       P1  7949  0.45

> <Gold.PLP.Chemscore.Internal.Correction>
0.6473

> <Gold.Rescore>
     Score         DG    S(hbond)    S(metal)    S(lipo)     H(rot)  DE(clash)    DE(int)     intcor
     16.97     -17.43       2.95        0.00      85.41       3.08       0.09       0.36       ----

> <Gold.Chemscore.Fitness>
16.9734

> <Gold.Chemscore.DG>
-17.4312

> <Gold.Chemscore.ZeroCoef>
-5.4800

> <Gold.Chemscore.Hbond>
2.9457

> <Gold.Chemscore.Metal>
0.0000

> <Gold.Chemscore.Lipo>
85.4068

> <Gold.Chemscore.Internal_Hbond>
0.0000

> <Gold.Chemscore.DEClash>
0.0932

> <Gold.Chemscore.DEInternal>
0.3646

> <Gold.Chemscore.Rot>
3.0781

> <Gold.Chemscore.Internal.Correction>
   9.000000E+99

> <Gold.Chemscore.Hbonds>
donor molecule, donor type, donor heavy atom, donor atom, acceptor molecule, acceptor atom, score
      L1  H     2    59       P1 10747  0.94
      L1  H    24    51       P1  7957  0.94
      L1  H    26    54       P1  8028  0.92

> <Gold.Chemscore.Hbond.Weighted>
-9.8387

> <Gold.Chemscore.Metal.Weighted>
-0.0000

> <Gold.Chemscore.Lipo.Weighted>
-9.9926

> <Gold.Chemscore.Internal_Hbond.Weighted>
0.0000

> <Gold.Chemscore.DEClash.Weighted>
0.0932

> <Gold.Chemscore.DEInternal.Weighted>
0.3646

> <Gold.Chemscore.Rot.Weighted>
7.8800

> <Gold.Chemscore.Internal.Correction.Weighted>
   9.000000E+99

> <Gold.Protein.RotatedTorsions>
[ 6907 6896 6895 6894 ] final  110.90 input  -60.11 | X-H torsion
[ 7974 7965 7964 7962 ] final   27.85 input  175.53 | X-H torsion
[ 8008 7997 7996 7995 ] final   88.39 input   59.86 | X-H torsion
[ 10167 10162 10161 10158 ] final  105.47 input  -65.29 | X-H torsion
[ 10718 10713 10712 10709 ] final  -92.55 input   66.30 | X-H torsion
[ 10763 10752 10751 10750 ] final -177.31 input  -60.55 | X-H torsion
[ 11005 11000 10999 10996 ] final  -91.67 input  -57.11 | X-H torsion

> <Gold.Protein.ActiveResidues>
 VAL166  LYS551  ARG553  GLY616  TRP617  ASP618  TYR619  PRO620  LYS621  CYS622 
 ASP623  PHE694  ASN695  SER759  ASP760  ASP761  ALA762  ILE779  LEU786  VAL792 
 PHE793  MET794  SER795  GLU796  ALA797  LYS798  CYS799  TRP800  GLU811  SER814 

> <Gold.Protein.RotatedAtoms>
  152.4997  133.8735  159.7309 H   0  0  0  0  0  0  0  0  0  0  0  0  # atno 6907 bound_to 6896
  150.9215  133.6865  159.2837 H   0  0  0  0  0  0  0  0  0  0  0  0  # atno 6908 bound_to 6896
  151.4241  135.1006  159.9675 H   0  0  0  0  0  0  0  0  0  0  0  0  # atno 6909 bound_to 6896
  146.1762  139.7136  142.8933 H   0  0  0  0  0  0  0  0  0  0  0  0  # atno 7974 bound_to 7965
  155.9872  140.3372  155.6719 H   0  0  0  0  0  0  0  0  0  0  0  0  # atno 8008 bound_to 7997
  155.6469  140.0701  157.2618 H   0  0  0  0  0  0  0  0  0  0  0  0  # atno 8009 bound_to 7997
  154.4209  140.1732  156.1620 H   0  0  0  0  0  0  0  0  0  0  0  0  # atno 8010 bound_to 7997
  139.7089  144.7081  151.1059 H   0  0  0  0  0  0  0  0  0  0  0  0  # atno 10167 bound_to 10162
  156.0003  130.4991  150.5642 H   0  0  0  0  0  0  0  0  0  0  0  0  # atno 10718 bound_to 10713
  154.5617  135.2820  155.0913 H   0  0  0  0  0  0  0  0  0  0  0  0  # atno 10763 bound_to 10752
  154.2320  135.6372  153.5182 H   0  0  0  0  0  0  0  0  0  0  0  0  # atno 10764 bound_to 10752
  153.0031  135.5539  154.6213 H   0  0  0  0  0  0  0  0  0  0  0  0  # atno 10765 bound_to 10752
  141.1539  133.7770  156.9912 H   0  0  0  0  0  0  0  0  0  0  0  0  # atno 11005 bound_to 11000
  145.4206  141.0406  143.2966 LP  0  0  0  0  0  0  0  0  0  0  0  0  # atno 17320 bound_to 7965
  144.8239  139.5743  143.6974 LP  0  0  0  0  0  0  0  0  0  0  0  0  # atno 17321 bound_to 7965
  140.7728  143.5319  150.9413 LP  0  0  0  0  0  0  0  0  0  0  0  0  # atno 17342 bound_to 10162
  139.9004  143.6843  152.3132 LP  0  0  0  0  0  0  0  0  0  0  0  0  # atno 17343 bound_to 10162
  157.3547  131.0739  151.1685 LP  0  0  0  0  0  0  0  0  0  0  0  0  # atno 17370 bound_to 10713
  157.2490  130.6605  149.5923 LP  0  0  0  0  0  0  0  0  0  0  0  0  # atno 17371 bound_to 10713
  140.1002  134.9540  157.1911 LP  0  0  0  0  0  0  0  0  0  0  0  0  # atno 17394 bound_to 11000
  140.3329  134.2790  155.7225 LP  0  0  0  0  0  0  0  0  0  0  0  0  # atno 17395 bound_to 11000

$$$$
