AV-unprocessed.smi:3195|AV-procd|sdf|12220|dock1
  -GOLD-   2272018 53D 1   1.00000     0.00000
 Structure written by MMmdl.
 29 30  0  0  0  0  0  0  0  0  2 V2000
  152.6871  144.7200  158.4770 C   0  0  0  0  0  0  0  0  0  0  0  0
  152.1962  143.4874  159.2557 C   0  0  2  0  0  0  0  0  0  0  0  0
  151.1843  142.6843  158.4093 C   0  0  0  0  0  0  0  0  0  0  0  0
  150.0631  142.4634  158.8700 O   0  0  0  0  0  0  0  0  0  0  0  0
  151.5975  142.2753  157.1941 N   0  0  0  0  0  0  0  0  0  0  0  0
  150.8926  141.5177  156.2182 C   0  0  0  0  0  0  0  0  0  0  0  0
  149.7507  141.9554  155.6299 N   0  0  0  0  0  0  0  0  0  0  0  0
  149.1397  141.1790  154.7118 C   0  0  0  0  0  0  0  0  0  0  0  0
  149.6258  139.9191  154.3212 C   0  0  0  0  0  0  0  0  0  0  0  0
  150.8073  139.4512  154.9219 C   0  0  0  0  0  0  0  0  0  0  0  0
  151.4517  140.2559  155.8832 C   0  0  0  0  0  0  0  0  0  0  0  0
  152.6009  139.7978  156.4689 O   0  5  0  0  0  0  0  0  0  0  0  0
  151.6127  143.8669  160.6378 C   0  0  0  0  0  0  0  0  0  0  0  0
  152.5647  143.2387  161.6406 C   0  0  0  0  0  0  0  0  0  0  0  0
  153.1889  142.1046  160.8442 C   0  0  0  0  0  0  0  0  0  0  0  0
  153.3407  142.6814  159.5560 O   0  0  0  0  0  0  0  0  0  0  0  0
  151.8693  145.4066  158.2554 H   0  0  0  0  0  0  0  0  0  0  0  0
  153.1472  144.4331  157.5305 H   0  0  0  0  0  0  0  0  0  0  0  0
  153.4339  145.2710  159.0495 H   0  0  0  0  0  0  0  0  0  0  0  0
  152.5394  142.5306  156.9329 H   0  0  0  0  0  0  0  0  0  0  0  0
  148.2353  141.5757  154.2755 H   0  0  0  0  0  0  0  0  0  0  0  0
  149.1068  139.3281  153.5816 H   0  0  0  0  0  0  0  0  0  0  0  0
  151.2121  138.4878  154.6479 H   0  0  0  0  0  0  0  0  0  0  0  0
  151.5378  144.9451  160.7843 H   0  0  0  0  0  0  0  0  0  0  0  0
  150.6119  143.4566  160.7844 H   0  0  0  0  0  0  0  0  0  0  0  0
  153.3344  143.9583  161.9224 H   0  0  0  0  0  0  0  0  0  0  0  0
  152.0672  142.8985  162.5492 H   0  0  0  0  0  0  0  0  0  0  0  0
  154.1436  141.7750  161.2540 H   0  0  0  0  0  0  0  0  0  0  0  0
  152.5186  141.2450  160.7921 H   0  0  0  0  0  0  0  0  0  0  0  0
  1  2  1  0  0  0  0
  1 17  1  0  0  0  0
  1 18  1  0  0  0  0
  1 19  1  0  0  0  0
  2 16  1  0  0  0  0
  2  3  1  0  0  0  0
  2 13  1  0  0  0  0
  3  4  2  0  0  0  0
  3  5  1  0  0  0  0
  5 20  1  0  0  0  0
  5  6  1  0  0  0  0
  6 11  2  0  0  0  0
  6  7  1  0  0  0  0
  7  8  2  0  0  0  0
  8 21  1  0  0  0  0
  8  9  1  0  0  0  0
  9 22  1  0  0  0  0
  9 10  2  0  0  0  0
 10 11  1  0  0  0  0
 10 23  1  0  0  0  0
 11 12  1  0  0  0  0
 13 14  1  0  0  0  0
 13 24  1  0  0  0  0
 13 25  1  0  0  0  0
 14 15  1  0  0  0  0
 14 26  1  0  0  0  0
 14 27  1  0  0  0  0
 15 16  1  0  0  0  0
 15 28  1  0  0  0  0
 15 29  1  0  0  0  0
M  CHG  1  12  -1
M  END
> <s_m_source_file>
AV-unprocessed.smi

> <i_m_source_file_index>
3195

> <i_lp_mmshare_version>
43012

> <i_f3d_flags>
0

> <s_epik_input>
TzFbQ0gyXVtDSDJdW0NIMl1bQ0BAXTEoW0NIM10pQyg9TylbTkhdYzJuW2NIXVtjSF1bY0hdYzJbT0hd

> <s_epik_cmdline>
J2VwaWtfcHl0aG9uJywgJy1waCcsICc3LjAnLCAnLXRuJywgJzgnLCAnLW1hJywgJzIwMCcsICctbWV0YWxfYmluZGluZycsICctaW1hZScsICc8aW5maWxlLm1hZT4nLCAnLW9tYWUnLCAnPG91dGZpbGUubWFlPic=

> <r_epik_Ionization_Penalty>
4.16712

> <r_epik_Ionization_Penalty_Charging>
2.09898

> <r_epik_Ionization_Penalty_Neutral>
2.06814

> <r_epik_State_Penalty>
2.6848

> <r_epik_Charging_Adjusted_Penalty>
4.78378

> <i_epik_Tot_Q>
-1

> <i_epik_Tot_abs_Q>
1

> <r_epik_Metal_State_Penalty>
0.595229

> <b_epik_Metal_Only>
0

> <s_lp_Force_Field>
OPLS_2005

> <r_lp_Energy>
19.5699

> <b_lp_Chiralities_Consistent>
1

> <s_lp_Variant>
AV-unprocessed.smi:3195-8

> <Gold.Version>
5.8.1

> <Gold.Id.Protein>
6NUR|6NUR_protein|mol2

> <Gold.PLP.Fitness>
43.2640

> <Gold.PLP.PLP>
-38.4532

> <Gold.PLP.part.hbond>
-1.7369

> <Gold.PLP.part.metal>
0.0000

> <Gold.PLP.part.buried>
-3.3931

> <Gold.PLP.part.nonpolar>
-33.8976

> <Gold.PLP.part.repulsive>
0.2502

> <Gold.PLP.ligand.clash>
0.0000

> <Gold.PLP.ligand.torsion>
0.6112

> <Gold.PLP.Chemscore.Hbond>
2.0000

> <Gold.PLP.Chemscore.CHOScore>
0.0000

> <Gold.PLP.Chemscore.Metal>
0.0000

> <Gold.Chemscore.Hbonds>
donor molecule, donor type, donor heavy atom, donor atom, acceptor molecule, acceptor atom, score
      P1  H  7997  8010       L1    12  2.00

> <Gold.PLP.Chemscore.Internal.Correction>
0.0332

> <Gold.Rescore>
     Score         DG    S(hbond)    S(metal)    S(lipo)     H(rot)  DE(clash)    DE(int)     intcor
     15.27     -16.69       1.00        0.00      89.13       1.00       0.14       1.28       ----

> <Gold.Chemscore.Fitness>
15.2654

> <Gold.Chemscore.DG>
-16.6869

> <Gold.Chemscore.ZeroCoef>
-5.4800

> <Gold.Chemscore.Hbond>
0.9997

> <Gold.Chemscore.Metal>
0.0000

> <Gold.Chemscore.Lipo>
89.1271

> <Gold.Chemscore.Internal_Hbond>
0.0000

> <Gold.Chemscore.DEClash>
0.1388

> <Gold.Chemscore.DEInternal>
1.2827

> <Gold.Chemscore.Rot>
1.0000

> <Gold.Chemscore.Internal.Correction>
   9.000000E+99

> <Gold.Chemscore.Hbonds>
donor molecule, donor type, donor heavy atom, donor atom, acceptor molecule, acceptor atom, score
      P1  H  7997  8010       L1    12  1.00

> <Gold.Chemscore.Hbond.Weighted>
-3.3390

> <Gold.Chemscore.Metal.Weighted>
-0.0000

> <Gold.Chemscore.Lipo.Weighted>
-10.4279

> <Gold.Chemscore.Internal_Hbond.Weighted>
0.0000

> <Gold.Chemscore.DEClash.Weighted>
0.1388

> <Gold.Chemscore.DEInternal.Weighted>
1.2827

> <Gold.Chemscore.Rot.Weighted>
2.5600

> <Gold.Chemscore.Internal.Correction.Weighted>
   9.000000E+99

> <Gold.Protein.RotatedTorsions>
[ 6907 6896 6895 6894 ] final   64.10 input  -60.11 | X-H torsion
[ 7974 7965 7964 7962 ] final  -91.93 input  175.53 | X-H torsion
[ 8008 7997 7996 7995 ] final   71.65 input   59.86 | X-H torsion
[ 10167 10162 10161 10158 ] final  123.70 input  -65.29 | X-H torsion
[ 10718 10713 10712 10709 ] final   18.39 input   66.30 | X-H torsion
[ 10763 10752 10751 10750 ] final   62.64 input  -60.55 | X-H torsion
[ 11005 11000 10999 10996 ] final   54.57 input  -57.11 | X-H torsion

> <Gold.Protein.ActiveResidues>
 VAL166  LYS551  ARG553  GLY616  TRP617  ASP618  TYR619  PRO620  LYS621  CYS622 
 ASP623  PHE694  ASN695  SER759  ASP760  ASP761  ALA762  ILE779  LEU786  VAL792 
 PHE793  MET794  SER795  GLU796  ALA797  LYS798  CYS799  TRP800  GLU811  SER814 

> <Gold.Protein.RotatedAtoms>
  152.4305  134.5786  159.9941 H   0  0  0  0  0  0  0  0  0  0  0  0  # atno 6907 bound_to 6896
  151.5910  133.3361  159.3036 H   0  0  0  0  0  0  0  0  0  0  0  0  # atno 6908 bound_to 6896
  150.8198  134.7435  159.6827 H   0  0  0  0  0  0  0  0  0  0  0  0  # atno 6909 bound_to 6896
  145.4066  140.9542  143.2257 H   0  0  0  0  0  0  0  0  0  0  0  0  # atno 7974 bound_to 7965
  155.7570  140.3487  155.5179 H   0  0  0  0  0  0  0  0  0  0  0  0  # atno 8008 bound_to 7997
  155.8950  140.1024  157.1412 H   0  0  0  0  0  0  0  0  0  0  0  0  # atno 8009 bound_to 7997
  154.4037  140.1297  156.4350 H   0  0  0  0  0  0  0  0  0  0  0  0  # atno 8010 bound_to 7997
  139.5784  144.6974  151.3593 H   0  0  0  0  0  0  0  0  0  0  0  0  # atno 10167 bound_to 10162
  157.0956  130.6446  149.5859 H   0  0  0  0  0  0  0  0  0  0  0  0  # atno 10718 bound_to 10713
  152.9990  135.5458  154.6225 H   0  0  0  0  0  0  0  0  0  0  0  0  # atno 10763 bound_to 10752
  154.5521  135.2827  155.1001 H   0  0  0  0  0  0  0  0  0  0  0  0  # atno 10764 bound_to 10752
  154.2236  135.6446  153.5205 H   0  0  0  0  0  0  0  0  0  0  0  0  # atno 10765 bound_to 10752
  140.0676  134.5515  155.9082 H   0  0  0  0  0  0  0  0  0  0  0  0  # atno 11005 bound_to 11000
  144.8337  139.5585  143.6932 LP  0  0  0  0  0  0  0  0  0  0  0  0  # atno 17320 bound_to 7965
  146.2725  139.6671  142.9286 LP  0  0  0  0  0  0  0  0  0  0  0  0  # atno 17321 bound_to 7965
  140.7065  143.7501  150.7490 LP  0  0  0  0  0  0  0  0  0  0  0  0  # atno 17342 bound_to 10162
  140.1027  143.4772  152.2416 LP  0  0  0  0  0  0  0  0  0  0  0  0  # atno 17343 bound_to 10162
  155.9887  130.4931  150.7180 LP  0  0  0  0  0  0  0  0  0  0  0  0  # atno 17370 bound_to 10713
  157.4684  131.0890  151.0669 LP  0  0  0  0  0  0  0  0  0  0  0  0  # atno 17371 bound_to 10713
  141.1999  133.6609  156.5868 LP  0  0  0  0  0  0  0  0  0  0  0  0  # atno 17394 bound_to 11000
  140.3675  134.7634  157.4576 LP  0  0  0  0  0  0  0  0  0  0  0  0  # atno 17395 bound_to 11000

$$$$
