AV-unprocessed.smi:1079|AV-procd|sdf|4704|dock1
  -GOLD-   22720 3223D 1   1.00000     0.00000
 Structure written by MMmdl.
 44 45  0  0  0  0  0  0  0  0  1 V2000
  145.4601  131.9248  151.0476 C   0  0  0  0  0  0  0  0  0  0  0  0
  146.6617  132.6166  151.3359 O   0  0  0  0  0  0  0  0  0  0  0  0
  147.2392  132.2171  152.5681 C   0  0  0  0  0  0  0  0  0  0  0  0
  148.5360  133.0086  152.8063 C   0  0  0  0  0  0  0  0  0  0  0  0
  148.9367  133.0343  154.2003 N   0  0  0  0  0  0  0  0  0  0  0  0
  149.1139  134.2086  154.9389 C   0  0  0  0  0  0  0  0  0  0  0  0
  148.8995  135.4210  154.2999 N   0  0  0  0  0  0  0  0  0  0  0  0
  149.5182  134.1815  156.2440 C   0  0  0  0  0  0  0  0  0  0  0  0
  149.6614  135.3625  156.9969 N   0  0  0  0  0  0  0  0  0  0  0  0
  148.4386  135.9321  157.5845 C   0  0  0  0  0  0  0  0  0  0  0  0
  148.2095  135.4819  159.0173 C   0  0  0  0  0  0  0  0  0  0  0  0
  148.2257  136.4269  160.0649 C   0  0  0  0  0  0  0  0  0  0  0  0
  148.0010  136.0168  161.3931 C   0  0  0  0  0  0  0  0  0  0  0  0
  147.7605  134.6593  161.6796 C   0  0  0  0  0  0  0  0  0  0  0  0
  147.7439  133.7126  160.6372 C   0  0  0  0  0  0  0  0  0  0  0  0
  147.9681  134.1227  159.3085 C   0  0  0  0  0  0  0  0  0  0  0  0
  150.8635  135.9758  157.1539 C   0  0  0  0  0  0  0  0  0  0  0  0
  150.9689  137.2027  158.0676 C   0  0  0  0  0  0  0  0  0  0  0  0
  151.8919  135.5704  156.6122 O   0  0  0  0  0  0  0  0  0  0  0  0
  149.7551  132.9014  156.9263 C   0  0  0  0  0  0  0  0  0  0  0  0
  150.0851  132.7648  158.1037 O   0  0  0  0  0  0  0  0  0  0  0  0
  149.5782  131.7724  156.1314 N   0  0  0  0  0  0  0  0  0  0  0  0
  149.1927  131.7758  154.7959 C   0  0  0  0  0  0  0  0  0  0  0  0
  149.0908  130.7057  154.1949 O   0  0  0  0  0  0  0  0  0  0  0  0
  149.7468  130.8743  156.5609 H   0  0  0  0  0  0  0  0  0  0  0  0
  145.0586  132.2706  150.0950 H   0  0  0  0  0  0  0  0  0  0  0  0
  144.7070  132.1043  151.8161 H   0  0  0  0  0  0  0  0  0  0  0  0
  145.6330  130.8508  150.9698 H   0  0  0  0  0  0  0  0  0  0  0  0
  146.5377  132.4160  153.3794 H   0  0  0  0  0  0  0  0  0  0  0  0
  147.4365  131.1441  152.5672 H   0  0  0  0  0  0  0  0  0  0  0  0
  149.3661  132.6012  152.2306 H   0  0  0  0  0  0  0  0  0  0  0  0
  148.4437  134.0433  152.4711 H   0  0  0  0  0  0  0  0  0  0  0  0
  148.6231  135.4641  153.3293 H   0  0  0  0  0  0  0  0  0  0  0  0
  148.8295  136.2841  154.8201 H   0  0  0  0  0  0  0  0  0  0  0  0
  148.4531  137.0225  157.5398 H   0  0  0  0  0  0  0  0  0  0  0  0
  147.5681  135.6387  156.9963 H   0  0  0  0  0  0  0  0  0  0  0  0
  148.4054  137.4703  159.8506 H   0  0  0  0  0  0  0  0  0  0  0  0
  148.0120  136.7436  162.1918 H   0  0  0  0  0  0  0  0  0  0  0  0
  147.5880  134.3450  162.6984 H   0  0  0  0  0  0  0  0  0  0  0  0
  147.5582  132.6714  160.8562 H   0  0  0  0  0  0  0  0  0  0  0  0
  147.9504  133.3915  158.5137 H   0  0  0  0  0  0  0  0  0  0  0  0
  150.5025  137.0159  159.0355 H   0  0  0  0  0  0  0  0  0  0  0  0
  150.4932  138.0695  157.6090 H   0  0  0  0  0  0  0  0  0  0  0  0
  152.0145  137.4547  158.2484 H   0  0  0  0  0  0  0  0  0  0  0  0
  1  2  1  0  0  0  0
  1 26  1  0  0  0  0
  1 27  1  0  0  0  0
  1 28  1  0  0  0  0
  2  3  1  0  0  0  0
  3  4  1  0  0  0  0
  3 29  1  0  0  0  0
  3 30  1  0  0  0  0
  4  5  1  0  0  0  0
  4 31  1  0  0  0  0
  4 32  1  0  0  0  0
  5 23  1  0  0  0  0
  5  6  1  0  0  0  0
  6  7  1  0  0  0  0
  6  8  2  0  0  0  0
  7 33  1  0  0  0  0
  7 34  1  0  0  0  0
  8  9  1  0  0  0  0
  8 20  1  0  0  0  0
  9 10  1  0  0  0  0
  9 17  1  0  0  0  0
 10 11  1  0  0  0  0
 10 35  1  0  0  0  0
 10 36  1  0  0  0  0
 11 16  1  0  0  0  0
 11 12  2  0  0  0  0
 12 13  1  0  0  0  0
 12 37  1  0  0  0  0
 13 14  2  0  0  0  0
 13 38  1  0  0  0  0
 14 15  1  0  0  0  0
 14 39  1  0  0  0  0
 15 16  2  0  0  0  0
 15 40  1  0  0  0  0
 16 41  1  0  0  0  0
 17 18  1  0  0  0  0
 17 19  2  0  0  0  0
 18 42  1  0  0  0  0
 18 43  1  0  0  0  0
 18 44  1  0  0  0  0
 20 21  2  0  0  0  0
 20 22  1  0  0  0  0
 22 25  1  0  0  0  0
 22 23  1  0  0  0  0
 23 24  2  0  0  0  0
M  END
> <s_m_source_file>
AV-unprocessed.smi

> <i_m_source_file_index>
1079

> <i_lp_mmshare_version>
43012

> <i_f3d_flags>
0

> <s_epik_input>
W0NIM11PW0NIMl1bQ0gyXW4xYyhbTkgyXSljKGMoPU8pW25IXWMxPU8pTihDKD1PKVtDSDNdKVtDSDJdYzJbY0hdW2NIXVtjSF1bY0hdW2NIXTI=

> <s_epik_cmdline>
J2VwaWtfcHl0aG9uJywgJy1waCcsICc3LjAnLCAnLXRuJywgJzgnLCAnLW1hJywgJzIwMCcsICctbWV0YWxfYmluZGluZycsICctaW1hZScsICc8aW5maWxlLm1hZT4nLCAnLW9tYWUnLCAnPG91dGZpbGUubWFlPic=

> <r_lp_tautomer_probability>
1

> <r_epik_Ionization_Penalty>
1.40243e-05

> <r_epik_Ionization_Penalty_Charging>
7.95939e-06

> <r_epik_Ionization_Penalty_Neutral>
6.06489e-06

> <r_epik_State_Penalty>
-0

> <r_epik_Charging_Adjusted_Penalty>
7.95939e-06

> <i_epik_Tot_Q>
0

> <i_epik_Tot_abs_Q>
0

> <r_epik_Metal_State_Penalty>
0.00752988

> <b_epik_Metal_Only>
0

> <s_epik_Chemistry_Notes>
This compound has an imine and may undergo hydrolysis.

> <s_lp_Force_Field>
OPLS_2005

> <r_lp_Energy>
29.3793

> <b_lp_Chiralities_Consistent>
1

> <s_lp_Variant>
AV-unprocessed.smi:1079-1

> <Gold.Version>
5.8.1

> <Gold.Id.Protein>
6NUR|6NUR_protein|mol2

> <Gold.PLP.Fitness>
39.8101

> <Gold.PLP.PLP>
-32.1918

> <Gold.PLP.part.hbond>
-2.9975

> <Gold.PLP.part.metal>
0.0000

> <Gold.PLP.part.buried>
-4.0654

> <Gold.PLP.part.nonpolar>
-25.9155

> <Gold.PLP.part.repulsive>
0.2536

> <Gold.PLP.ligand.clash>
0.0000

> <Gold.PLP.ligand.torsion>
1.9686

> <Gold.PLP.Chemscore.Hbond>
2.9920

> <Gold.PLP.Chemscore.CHOScore>
0.0000

> <Gold.PLP.Chemscore.Metal>
0.0000

> <Gold.Chemscore.Hbonds>
donor molecule, donor type, donor heavy atom, donor atom, acceptor molecule, acceptor atom, score
      L1  H     7    33       P1  7948  0.86
      P1  H  6896  6908       L1    21  1.00
      P1  H 10752 10764       L1    19  1.00

> <Gold.PLP.Chemscore.Internal.Correction>
2.5794

> <Gold.Rescore>
     Score         DG    S(hbond)    S(metal)    S(lipo)     H(rot)  DE(clash)    DE(int)     intcor
     13.01     -17.48       2.91        0.00      63.58       2.02       0.03       4.44       ----

> <Gold.Chemscore.Fitness>
13.0064

> <Gold.Chemscore.DG>
-17.4805

> <Gold.Chemscore.ZeroCoef>
-5.4800

> <Gold.Chemscore.Hbond>
2.9119

> <Gold.Chemscore.Metal>
0.0000

> <Gold.Chemscore.Lipo>
63.5768

> <Gold.Chemscore.Internal_Hbond>
0.0000

> <Gold.Chemscore.DEClash>
0.0314

> <Gold.Chemscore.DEInternal>
4.4427

> <Gold.Chemscore.Rot>
2.0170

> <Gold.Chemscore.Internal.Correction>
   9.000000E+99

> <Gold.Chemscore.Hbonds>
donor molecule, donor type, donor heavy atom, donor atom, acceptor molecule, acceptor atom, score
      L1  H     7    33       P1  7948  0.81
      P1  H  6896  6908       L1    21  1.00
      P1  H 10752 10764       L1    19  0.97

> <Gold.Chemscore.Hbond.Weighted>
-9.7256

> <Gold.Chemscore.Metal.Weighted>
-0.0000

> <Gold.Chemscore.Lipo.Weighted>
-7.4385

> <Gold.Chemscore.Internal_Hbond.Weighted>
0.0000

> <Gold.Chemscore.DEClash.Weighted>
0.0314

> <Gold.Chemscore.DEInternal.Weighted>
4.4427

> <Gold.Chemscore.Rot.Weighted>
5.1636

> <Gold.Chemscore.Internal.Correction.Weighted>
   9.000000E+99

> <Gold.Protein.RotatedTorsions>
[ 6907 6896 6895 6894 ] final  100.71 input  -60.11 | X-H torsion
[ 7974 7965 7964 7962 ] final -139.50 input  175.53 | X-H torsion
[ 8008 7997 7996 7995 ] final  171.31 input   59.86 | X-H torsion
[ 10167 10162 10161 10158 ] final -164.20 input  -65.29 | X-H torsion
[ 10718 10713 10712 10709 ] final  106.17 input   66.30 | X-H torsion
[ 10763 10752 10751 10750 ] final  -27.58 input  -60.55 | X-H torsion
[ 11005 11000 10999 10996 ] final  -84.16 input  -57.11 | X-H torsion

> <Gold.Protein.ActiveResidues>
 VAL166  LYS551  ARG553  GLY616  TRP617  ASP618  TYR619  PRO620  LYS621  CYS622 
 ASP623  PHE694  ASN695  SER759  ASP760  ASP761  ALA762  ILE779  LEU786  VAL792 
 PHE793  MET794  SER795  GLU796  ALA797  LYS798  CYS799  TRP800  GLU811  SER814 

> <Gold.Protein.RotatedAtoms>
  152.5366  134.0235  159.7992 H   0  0  0  0  0  0  0  0  0  0  0  0  # atno 6907 bound_to 6896
  151.0417  133.5692  159.2657 H   0  0  0  0  0  0  0  0  0  0  0  0  # atno 6908 bound_to 6896
  151.2659  135.0676  159.9169 H   0  0  0  0  0  0  0  0  0  0  0  0  # atno 6909 bound_to 6896
  144.8672  140.6311  143.5290 H   0  0  0  0  0  0  0  0  0  0  0  0  # atno 7974 bound_to 7965
  156.1283  140.1515  156.9103 H   0  0  0  0  0  0  0  0  0  0  0  0  # atno 8008 bound_to 7997
  154.4889  140.0857  156.7590 H   0  0  0  0  0  0  0  0  0  0  0  0  # atno 8009 bound_to 7997
  155.4302  140.3427  155.4281 H   0  0  0  0  0  0  0  0  0  0  0  0  # atno 8010 bound_to 7997
  139.6267  144.0518  152.1981 H   0  0  0  0  0  0  0  0  0  0  0  0  # atno 10167 bound_to 10162
  157.6678  131.0844  150.5966 H   0  0  0  0  0  0  0  0  0  0  0  0  # atno 10718 bound_to 10713
  153.7344  135.6936  153.4981 H   0  0  0  0  0  0  0  0  0  0  0  0  # atno 10763 bound_to 10752
  153.2113  135.4402  155.0381 H   0  0  0  0  0  0  0  0  0  0  0  0  # atno 10764 bound_to 10752
  154.8242  135.3437  154.6873 H   0  0  0  0  0  0  0  0  0  0  0  0  # atno 10765 bound_to 10752
  141.1652  133.7332  156.8827 H   0  0  0  0  0  0  0  0  0  0  0  0  # atno 11005 bound_to 11000
  145.4199  139.1565  143.4079 LP  0  0  0  0  0  0  0  0  0  0  0  0  # atno 17320 bound_to 7965
  146.2904  140.4309  142.8741 LP  0  0  0  0  0  0  0  0  0  0  0  0  # atno 17321 bound_to 7965
  140.0173  144.6179  150.7596 LP  0  0  0  0  0  0  0  0  0  0  0  0  # atno 17342 bound_to 10162
  140.7415  143.2819  151.3573 LP  0  0  0  0  0  0  0  0  0  0  0  0  # atno 17343 bound_to 10162
  156.6267  130.4420  149.5802 LP  0  0  0  0  0  0  0  0  0  0  0  0  # atno 17370 bound_to 10713
  156.2314  130.6796  151.1467 LP  0  0  0  0  0  0  0  0  0  0  0  0  # atno 17371 bound_to 10713
  140.1703  134.9104  157.2825 LP  0  0  0  0  0  0  0  0  0  0  0  0  # atno 17394 bound_to 11000
  140.2509  134.3684  155.7442 LP  0  0  0  0  0  0  0  0  0  0  0  0  # atno 17395 bound_to 11000

$$$$
