AV-unprocessed.smi:3116|AV-procd|sdf|11862|dock1
  -GOLD-   2272017243D 1   1.00000     0.00000
 Structure written by MMmdl.
 34 34  0  0  0  0  0  0  0  0  2 V2000
  148.4531  141.4430  157.7072 C   0  0  0  0  0  0  0  0  0  0  0  0
  149.9073  140.9810  157.5012 C   0  0  2  0  0  0  0  0  0  0  0  0
  150.7465  141.3196  158.6742 N   0  3  0  0  0  0  0  0  0  0  0  0
  152.2111  141.2457  158.4652 C   0  0  2  0  0  0  0  0  0  0  0  0
  152.6710  139.7900  158.6667 C   0  0  0  0  0  0  0  0  0  0  0  0
  152.9355  142.2505  159.3997 C   0  0  2  0  0  0  0  0  0  0  0  0
  153.3029  141.6334  160.7632 C   0  0  0  0  0  0  0  0  0  0  0  0
  152.1639  143.4711  159.5965 N   0  0  0  0  0  0  0  0  0  0  0  0
  152.4540  144.7454  159.1541 C   0  0  0  0  0  0  0  0  0  0  0  0
  151.4470  145.5642  159.5780 C   0  0  0  0  0  0  0  0  0  0  0  0
  150.5752  144.6903  160.2851 C   0  0  0  0  0  0  0  0  0  0  0  0
  151.0066  143.4395  160.2955 N   0  0  0  0  0  0  0  0  0  0  0  0
  150.4861  141.6098  156.2280 C   0  0  0  0  0  0  0  0  0  0  0  0
  150.6755  142.9319  156.2357 N   0  0  0  0  0  0  0  0  0  0  0  0
  150.7702  140.9158  155.2532 O   0  0  0  0  0  0  0  0  0  0  0  0
  147.8352  141.2069  156.8399 H   0  0  0  0  0  0  0  0  0  0  0  0
  148.3966  142.5200  157.8709 H   0  0  0  0  0  0  0  0  0  0  0  0
  147.9953  140.9546  158.5676 H   0  0  0  0  0  0  0  0  0  0  0  0
  149.9284  139.8977  157.3696 H   0  0  0  0  0  0  0  0  0  0  0  0
  150.5273  142.2692  158.9389 H   0  0  0  0  0  0  0  0  0  0  0  0
  152.4430  141.5165  157.4339 H   0  0  0  0  0  0  0  0  0  0  0  0
  153.7265  139.6607  158.4271 H   0  0  0  0  0  0  0  0  0  0  0  0
  152.1134  139.1107  158.0210 H   0  0  0  0  0  0  0  0  0  0  0  0
  152.5209  139.4660  159.6972 H   0  0  0  0  0  0  0  0  0  0  0  0
  153.8662  142.5480  158.9134 H   0  0  0  0  0  0  0  0  0  0  0  0
  153.9949  140.7985  160.6521 H   0  0  0  0  0  0  0  0  0  0  0  0
  152.4202  141.2639  161.2864 H   0  0  0  0  0  0  0  0  0  0  0  0
  153.7859  142.3686  161.4078 H   0  0  0  0  0  0  0  0  0  0  0  0
  153.3426  144.9620  158.5796 H   0  0  0  0  0  0  0  0  0  0  0  0
  151.3488  146.6265  159.4098 H   0  0  0  0  0  0  0  0  0  0  0  0
  149.6488  144.9260  160.7878 H   0  0  0  0  0  0  0  0  0  0  0  0
  151.0471  143.3977  155.4204 H   0  0  0  0  0  0  0  0  0  0  0  0
  150.4380  143.4662  157.0595 H   0  0  0  0  0  0  0  0  0  0  0  0
  150.4883  140.7136  159.4398 H   0  0  0  0  0  0  0  0  0  0  0  0
  1  2  1  0  0  0  0
  1 16  1  0  0  0  0
  1 17  1  0  0  0  0
  1 18  1  0  0  0  0
  2  3  1  0  0  0  0
  2 13  1  0  0  0  0
  2 19  1  0  0  0  0
  3  4  1  0  0  0  0
  3 20  1  0  0  0  0
  3 34  1  0  0  0  0
  4  5  1  0  0  0  0
  4  6  1  0  0  0  0
  4 21  1  0  0  0  0
  5 22  1  0  0  0  0
  5 23  1  0  0  0  0
  5 24  1  0  0  0  0
  6  7  1  0  0  0  0
  6  8  1  0  0  0  0
  6 25  1  0  0  0  0
  7 26  1  0  0  0  0
  7 27  1  0  0  0  0
  7 28  1  0  0  0  0
  8 12  1  0  0  0  0
  8  9  1  0  0  0  0
  9 10  2  0  0  0  0
  9 29  1  0  0  0  0
 10 11  1  0  0  0  0
 10 30  1  0  0  0  0
 11 12  2  0  0  0  0
 11 31  1  0  0  0  0
 13 14  1  0  0  0  0
 13 15  2  0  0  0  0
 14 32  1  0  0  0  0
 14 33  1  0  0  0  0
M  CHG  1   3   1
M  END
> <s_m_source_file>
AV-unprocessed.smi

> <i_m_source_file_index>
3116

> <i_lp_mmshare_version>
43012

> <i_f3d_flags>
0

> <s_epik_input>
W05IMl1DKD1PKVtDQEhdKFtDSDNdKVtOSF1bQ0BIXShbQ0gzXSlbQ0BIXShbQ0gzXSluMVtjSF1bY0hdW2NIXW4x

> <s_epik_cmdline>
J2VwaWtfcHl0aG9uJywgJy1waCcsICc3LjAnLCAnLXRuJywgJzgnLCAnLW1hJywgJzIwMCcsICctbWV0YWxfYmluZGluZycsICctaW1hZScsICc8aW5maWxlLm1hZT4nLCAnLW9tYWUnLCAnPG91dGZpbGUubWFlPic=

> <r_lp_tautomer_probability>
1

> <r_epik_Ionization_Penalty>
0.15658

> <r_epik_Ionization_Penalty_Charging>
0.156568

> <r_epik_Ionization_Penalty_Neutral>
1.19778e-05

> <r_epik_State_Penalty>
0.145866

> <r_epik_Charging_Adjusted_Penalty>
0.302434

> <i_epik_Tot_Q>
1

> <i_epik_Tot_abs_Q>
1

> <r_epik_Metal_State_Penalty>
0.146064

> <b_epik_Metal_Only>
0

> <s_lp_Force_Field>
OPLS_2005

> <r_lp_Energy>
9.5332

> <b_lp_Chiralities_Consistent>
1

> <s_lp_Variant>
AV-unprocessed.smi:3116-1

> <Gold.Version>
5.8.1

> <Gold.Id.Protein>
6NUR|6NUR_protein|mol2

> <Gold.PLP.Fitness>
35.6835

> <Gold.PLP.PLP>
-35.4020

> <Gold.PLP.part.hbond>
-2.8073

> <Gold.PLP.part.metal>
0.0000

> <Gold.PLP.part.buried>
-3.5712

> <Gold.PLP.part.nonpolar>
-28.1452

> <Gold.PLP.part.repulsive>
0.4265

> <Gold.PLP.ligand.clash>
0.0000

> <Gold.PLP.ligand.torsion>
1.1844

> <Gold.PLP.Chemscore.Hbond>
0.8320

> <Gold.PLP.Chemscore.CHOScore>
0.0000

> <Gold.PLP.Chemscore.Metal>
0.0000

> <Gold.Chemscore.Hbonds>
donor molecule, donor type, donor heavy atom, donor atom, acceptor molecule, acceptor atom, score
      P1  H  7989  7998       L1    15  0.77

> <Gold.PLP.Chemscore.Internal.Correction>
0.1543

> <Gold.Rescore>
     Score         DG    S(hbond)    S(metal)    S(lipo)     H(rot)  DE(clash)    DE(int)     intcor
      9.02     -11.52       0.96        0.00      77.80       2.45       0.02       2.48       ----

> <Gold.Chemscore.Fitness>
9.0207

> <Gold.Chemscore.DG>
-11.5201

> <Gold.Chemscore.ZeroCoef>
-5.4800

> <Gold.Chemscore.Hbond>
0.9582

> <Gold.Chemscore.Metal>
0.0000

> <Gold.Chemscore.Lipo>
77.8015

> <Gold.Chemscore.Internal_Hbond>
0.0000

> <Gold.Chemscore.DEClash>
0.0244

> <Gold.Chemscore.DEInternal>
2.4750

> <Gold.Chemscore.Rot>
2.4465

> <Gold.Chemscore.Internal.Correction>
   9.000000E+99

> <Gold.Chemscore.Hbonds>
donor molecule, donor type, donor heavy atom, donor atom, acceptor molecule, acceptor atom, score
      P1  H  7989  7998       L1    15  0.75

> <Gold.Chemscore.Hbond.Weighted>
-3.2004

> <Gold.Chemscore.Metal.Weighted>
-0.0000

> <Gold.Chemscore.Lipo.Weighted>
-9.1028

> <Gold.Chemscore.Internal_Hbond.Weighted>
0.0000

> <Gold.Chemscore.DEClash.Weighted>
0.0244

> <Gold.Chemscore.DEInternal.Weighted>
2.4750

> <Gold.Chemscore.Rot.Weighted>
6.2631

> <Gold.Chemscore.Internal.Correction.Weighted>
   9.000000E+99

> <Gold.Protein.RotatedTorsions>
[ 6907 6896 6895 6894 ] final   33.01 input  -60.11 | X-H torsion
[ 7974 7965 7964 7962 ] final -116.79 input  175.53 | X-H torsion
[ 8008 7997 7996 7995 ] final   43.01 input   59.86 | X-H torsion
[ 10167 10162 10161 10158 ] final  -51.01 input  -65.29 | X-H torsion
[ 10718 10713 10712 10709 ] final -108.54 input   66.30 | X-H torsion
[ 10763 10752 10751 10750 ] final   55.42 input  -60.55 | X-H torsion
[ 11005 11000 10999 10996 ] final  175.44 input  -57.11 | X-H torsion

> <Gold.Protein.ActiveResidues>
 VAL166  LYS551  ARG553  GLY616  TRP617  ASP618  TYR619  PRO620  LYS621  CYS622 
 ASP623  PHE694  ASN695  SER759  ASP760  ASP761  ALA762  ILE779  LEU786  VAL792 
 PHE793  MET794  SER795  GLU796  ALA797  LYS798  CYS799  TRP800  GLU811  SER814 

> <Gold.Protein.RotatedAtoms>
  152.0825  134.9461  160.0573 H   0  0  0  0  0  0  0  0  0  0  0  0  # atno 6907 bound_to 6896
  152.0744  133.4117  159.4482 H   0  0  0  0  0  0  0  0  0  0  0  0  # atno 6908 bound_to 6896
  150.6836  134.2974  159.4735 H   0  0  0  0  0  0  0  0  0  0  0  0  # atno 6909 bound_to 6896
  145.0927  140.8500  143.3973 H   0  0  0  0  0  0  0  0  0  0  0  0  # atno 7974 bound_to 7965
  155.2956  140.3381  155.4250 H   0  0  0  0  0  0  0  0  0  0  0  0  # atno 8008 bound_to 7997
  156.2026  140.1738  156.7908 H   0  0  0  0  0  0  0  0  0  0  0  0  # atno 8009 bound_to 7997
  154.5578  140.0693  156.8755 H   0  0  0  0  0  0  0  0  0  0  0  0  # atno 8010 bound_to 7997
  140.6610  143.2636  151.4441 H   0  0  0  0  0  0  0  0  0  0  0  0  # atno 10167 bound_to 10162
  156.0491  130.5718  150.7976 H   0  0  0  0  0  0  0  0  0  0  0  0  # atno 10718 bound_to 10713
  152.9817  135.5711  154.5063 H   0  0  0  0  0  0  0  0  0  0  0  0  # atno 10763 bound_to 10752
  154.4575  135.2780  155.1739 H   0  0  0  0  0  0  0  0  0  0  0  0  # atno 10764 bound_to 10752
  154.3341  135.6243  153.5618 H   0  0  0  0  0  0  0  0  0  0  0  0  # atno 10765 bound_to 10752
  140.3622  134.7103  157.4338 H   0  0  0  0  0  0  0  0  0  0  0  0  # atno 11005 bound_to 11000
  145.1047  139.2798  143.5668 LP  0  0  0  0  0  0  0  0  0  0  0  0  # atno 17320 bound_to 7965
  146.3531  140.0625  142.8628 LP  0  0  0  0  0  0  0  0  0  0  0  0  # atno 17321 bound_to 7965
  139.5844  144.1638  152.2009 LP  0  0  0  0  0  0  0  0  0  0  0  0  # atno 17342 bound_to 10162
  140.0973  144.5569  150.7013 LP  0  0  0  0  0  0  0  0  0  0  0  0  # atno 17343 bound_to 10162
  157.5398  131.0940  150.9843 LP  0  0  0  0  0  0  0  0  0  0  0  0  # atno 17370 bound_to 10713
  157.0128  130.5643  149.5322 LP  0  0  0  0  0  0  0  0  0  0  0  0  # atno 17371 bound_to 10713
  140.0618  134.5985  155.8740 LP  0  0  0  0  0  0  0  0  0  0  0  0  # atno 17394 bound_to 11000
  141.1981  133.6599  156.5773 LP  0  0  0  0  0  0  0  0  0  0  0  0  # atno 17395 bound_to 11000

$$$$
