AV-unprocessed.smi:2335|AV-procd|sdf|9324|dock10
  -GOLD-   2272012543D 1   1.00000     0.00000
 Structure written by MMmdl.
 42 43  0  0  0  0  0  0  0  0  1 V2000
  150.6977  141.6788  155.9946 C   0  0  0  0  0  0  0  0  0  0  0  0
  149.3073  141.4492  156.5964 C   0  0  0  0  0  0  0  0  0  0  0  0
  148.6015  140.2875  155.9810 C   0  0  0  0  0  0  0  0  0  0  0  0
  147.3789  139.8981  156.3632 N   0  0  0  0  0  0  0  0  0  0  0  0
  146.9176  138.8149  155.6280 N   0  0  0  0  0  0  0  0  0  0  0  0
  147.8027  138.4284  154.6991 C   0  0  0  0  0  0  0  0  0  0  0  0
  147.5880  137.3468  153.8049 N   0  0  0  0  0  0  0  0  0  0  0  0
  146.5835  136.4533  153.8023 C   0  0  0  0  0  0  0  0  0  0  0  0
  145.6449  136.4335  154.5987 O   0  0  0  0  0  0  0  0  0  0  0  0
  146.7310  135.5650  152.8097 N   0  0  0  0  0  0  0  0  0  0  0  0
  145.8328  134.4433  152.5420 C   0  0  1  0  0  0  0  0  0  0  0  0
  145.5029  134.3331  151.0665 C   0  0  0  0  0  0  0  0  0  0  0  0
  145.1071  132.8601  150.9074 C   0  0  0  0  0  0  0  0  0  0  0  0
  143.6018  132.6399  151.1365 C   0  0  0  0  0  0  0  0  0  0  0  0
  145.5481  132.2820  149.5542 C   0  0  0  0  0  0  0  0  0  0  0  0
  145.7998  132.1666  151.9442 O   0  0  0  0  0  0  0  0  0  0  0  0
  146.4473  133.0599  152.8497 C   0  0  0  0  0  0  0  0  0  0  0  0
  147.9592  132.9565  152.5583 C   0  0  0  0  0  0  0  0  0  0  0  0
  146.1360  132.5897  154.2793 C   0  0  0  0  0  0  0  0  0  0  0  0
  149.2866  139.3644  154.6488 S   0  0  0  0  0  0  0  0  0  0  0  0
  151.1879  142.5323  156.4632 H   0  0  0  0  0  0  0  0  0  0  0  0
  150.6350  141.8764  154.9242 H   0  0  0  0  0  0  0  0  0  0  0  0
  151.3367  140.8069  156.1376 H   0  0  0  0  0  0  0  0  0  0  0  0
  149.3912  141.2779  157.6699 H   0  0  0  0  0  0  0  0  0  0  0  0
  148.6948  142.3428  156.4704 H   0  0  0  0  0  0  0  0  0  0  0  0
  148.2858  137.2370  153.0843 H   0  0  0  0  0  0  0  0  0  0  0  0
  147.5322  135.6578  152.2030 H   0  0  0  0  0  0  0  0  0  0  0  0
  144.8958  134.5685  153.0883 H   0  0  0  0  0  0  0  0  0  0  0  0
  144.7192  135.0246  150.7543 H   0  0  0  0  0  0  0  0  0  0  0  0
  146.3892  134.5534  150.4689 H   0  0  0  0  0  0  0  0  0  0  0  0
  143.0080  133.1622  150.3858 H   0  0  0  0  0  0  0  0  0  0  0  0
  143.2887  133.0007  152.1166 H   0  0  0  0  0  0  0  0  0  0  0  0
  143.3473  131.5810  151.0825 H   0  0  0  0  0  0  0  0  0  0  0  0
  145.0634  132.8012  148.7269 H   0  0  0  0  0  0  0  0  0  0  0  0
  145.2956  131.2240  149.4769 H   0  0  0  0  0  0  0  0  0  0  0  0
  146.6264  132.3712  149.4180 H   0  0  0  0  0  0  0  0  0  0  0  0
  148.5432  133.5772  153.2383 H   0  0  0  0  0  0  0  0  0  0  0  0
  148.1945  133.2645  151.5395 H   0  0  0  0  0  0  0  0  0  0  0  0
  148.3092  131.9308  152.6764 H   0  0  0  0  0  0  0  0  0  0  0  0
  146.6147  133.2306  155.0198 H   0  0  0  0  0  0  0  0  0  0  0  0
  146.4897  131.5719  154.4459 H   0  0  0  0  0  0  0  0  0  0  0  0
  145.0632  132.5999  154.4741 H   0  0  0  0  0  0  0  0  0  0  0  0
  1  2  1  0  0  0  0
  1 21  1  0  0  0  0
  1 22  1  0  0  0  0
  1 23  1  0  0  0  0
  2  3  1  0  0  0  0
  2 24  1  0  0  0  0
  2 25  1  0  0  0  0
  3 20  1  0  0  0  0
  3  4  2  0  0  0  0
  4  5  1  0  0  0  0
  5  6  2  0  0  0  0
  6  7  1  0  0  0  0
  6 20  1  0  0  0  0
  7  8  1  0  0  0  0
  7 26  1  0  0  0  0
  8  9  2  0  0  0  0
  8 10  1  0  0  0  0
 10 11  1  0  0  0  0
 10 27  1  0  0  0  0
 11 17  1  0  0  0  0
 11 12  1  0  0  0  0
 11 28  1  0  0  0  0
 12 13  1  0  0  0  0
 12 29  1  0  0  0  0
 12 30  1  0  0  0  0
 13 14  1  0  0  0  0
 13 15  1  0  0  0  0
 13 16  1  0  0  0  0
 14 31  1  0  0  0  0
 14 32  1  0  0  0  0
 14 33  1  0  0  0  0
 15 34  1  0  0  0  0
 15 35  1  0  0  0  0
 15 36  1  0  0  0  0
 16 17  1  0  0  0  0
 17 18  1  0  0  0  0
 17 19  1  0  0  0  0
 18 37  1  0  0  0  0
 18 38  1  0  0  0  0
 18 39  1  0  0  0  0
 19 40  1  0  0  0  0
 19 41  1  0  0  0  0
 19 42  1  0  0  0  0
M  END
> <s_m_source_file>
AV-unprocessed.smi

> <i_m_source_file_index>
2335

> <i_lp_mmshare_version>
43012

> <i_f3d_flags>
0

> <s_epik_input>
W0NIM11bQ0gyXWMxbm5jKHMxKVtOSF1DKD1PKVtOSF1bQ0BASF0oQyhPMikoW0NIM10pW0NIM10pW0NIMl1DMihbQ0gzXSlbQ0gzXQ==

> <s_epik_cmdline>
J2VwaWtfcHl0aG9uJywgJy1waCcsICc3LjAnLCAnLXRuJywgJzgnLCAnLW1hJywgJzIwMCcsICctbWV0YWxfYmluZGluZycsICctaW1hZScsICc8aW5maWxlLm1hZT4nLCAnLW9tYWUnLCAnPG91dGZpbGUubWFlPic=

> <r_lp_tautomer_probability>
1

> <r_epik_Ionization_Penalty>
0.000542824

> <r_epik_Ionization_Penalty_Charging>
0

> <r_epik_Ionization_Penalty_Neutral>
0.000542824

> <r_epik_State_Penalty>
-0

> <r_epik_Charging_Adjusted_Penalty>
0

> <i_epik_Tot_Q>
0

> <i_epik_Tot_abs_Q>
0

> <r_epik_Metal_State_Penalty>
0.227439

> <b_epik_Metal_Only>
0

> <s_lp_Force_Field>
OPLS_2005

> <r_lp_Energy>
12.5908

> <b_lp_Chiralities_Consistent>
1

> <s_lp_Variant>
AV-unprocessed.smi:2335-2

> <Gold.Version>
5.8.1

> <Gold.Id.Protein>
6NUR|6NUR_protein|mol2

> <Gold.PLP.Fitness>
32.4186

> <Gold.PLP.PLP>
-26.7855

> <Gold.PLP.part.hbond>
-1.8866

> <Gold.PLP.part.metal>
0.0000

> <Gold.PLP.part.buried>
-3.6537

> <Gold.PLP.part.nonpolar>
-21.1648

> <Gold.PLP.part.repulsive>
0.1733

> <Gold.PLP.ligand.clash>
0.0000

> <Gold.PLP.ligand.torsion>
0.1548

> <Gold.PLP.Chemscore.Hbond>
1.9760

> <Gold.PLP.Chemscore.CHOScore>
0.0000

> <Gold.PLP.Chemscore.Metal>
0.0000

> <Gold.Chemscore.Hbonds>
donor molecule, donor type, donor heavy atom, donor atom, acceptor molecule, acceptor atom, score
      L1  H     7    26       P1  7948  0.96
      L1  H    10    27       P1  7948  1.00

> <Gold.PLP.Chemscore.Internal.Correction>
0.0147

> <Gold.Rescore>
     Score         DG    S(hbond)    S(metal)    S(lipo)     H(rot)  DE(clash)    DE(int)     intcor
     15.36     -16.82       1.92        0.00      68.57       1.21       0.01       1.45       ----

> <Gold.Chemscore.Fitness>
15.3553

> <Gold.Chemscore.DG>
-16.8157

> <Gold.Chemscore.ZeroCoef>
-5.4800

> <Gold.Chemscore.Hbond>
1.9170

> <Gold.Chemscore.Metal>
0.0000

> <Gold.Chemscore.Lipo>
68.5683

> <Gold.Chemscore.Internal_Hbond>
0.0000

> <Gold.Chemscore.DEClash>
0.0126

> <Gold.Chemscore.DEInternal>
1.4478

> <Gold.Chemscore.Rot>
1.2068

> <Gold.Chemscore.Internal.Correction>
   9.000000E+99

> <Gold.Chemscore.Hbonds>
donor molecule, donor type, donor heavy atom, donor atom, acceptor molecule, acceptor atom, score
      L1  H     7    26       P1  7948  0.92
      L1  H    10    27       P1  7948  0.92

> <Gold.Chemscore.Hbond.Weighted>
-6.4027

> <Gold.Chemscore.Metal.Weighted>
-0.0000

> <Gold.Chemscore.Lipo.Weighted>
-8.0225

> <Gold.Chemscore.Internal_Hbond.Weighted>
0.0000

> <Gold.Chemscore.DEClash.Weighted>
0.0126

> <Gold.Chemscore.DEInternal.Weighted>
1.4478

> <Gold.Chemscore.Rot.Weighted>
3.0895

> <Gold.Chemscore.Internal.Correction.Weighted>
   9.000000E+99

> <Gold.Protein.RotatedTorsions>
[ 6907 6896 6895 6894 ] final  -32.86 input  -60.11 | X-H torsion
[ 7974 7965 7964 7962 ] final  123.60 input  175.53 | X-H torsion
[ 8008 7997 7996 7995 ] final -161.04 input   59.86 | X-H torsion
[ 10167 10162 10161 10158 ] final  154.48 input  -65.29 | X-H torsion
[ 10718 10713 10712 10709 ] final  -82.75 input   66.30 | X-H torsion
[ 10763 10752 10751 10750 ] final -163.19 input  -60.55 | X-H torsion
[ 11005 11000 10999 10996 ] final  -52.84 input  -57.11 | X-H torsion

> <Gold.Protein.ActiveResidues>
 VAL166  LYS551  ARG553  GLY616  TRP617  ASP618  TYR619  PRO620  LYS621  CYS622 
 ASP623  PHE694  ASN695  SER759  ASP760  ASP761  ALA762  ILE779  LEU786  VAL792 
 PHE793  MET794  SER795  GLU796  ALA797  LYS798  CYS799  TRP800  GLU811  SER814 

> <Gold.Protein.RotatedAtoms>
  151.0732  134.9812  159.8318 H   0  0  0  0  0  0  0  0  0  0  0  0  # atno 6907 bound_to 6896
  152.5411  134.2273  159.8821 H   0  0  0  0  0  0  0  0  0  0  0  0  # atno 6908 bound_to 6896
  151.2298  133.4413  159.2637 H   0  0  0  0  0  0  0  0  0  0  0  0  # atno 6909 bound_to 6896
  145.0940  139.3566  143.4846 H   0  0  0  0  0  0  0  0  0  0  0  0  # atno 7974 bound_to 7965
  155.7863  140.0872  157.2032 H   0  0  0  0  0  0  0  0  0  0  0  0  # atno 8008 bound_to 7997
  154.3987  140.1498  156.3169 H   0  0  0  0  0  0  0  0  0  0  0  0  # atno 8009 bound_to 7997
  155.8603  140.3430  155.5754 H   0  0  0  0  0  0  0  0  0  0  0  0  # atno 8010 bound_to 7997
  139.4823  144.5182  151.7917 H   0  0  0  0  0  0  0  0  0  0  0  0  # atno 10167 bound_to 10162
  156.0028  130.4644  150.4153 H   0  0  0  0  0  0  0  0  0  0  0  0  # atno 10718 bound_to 10713
  154.7145  135.3013  154.9145 H   0  0  0  0  0  0  0  0  0  0  0  0  # atno 10763 bound_to 10752
  154.0036  135.6703  153.4765 H   0  0  0  0  0  0  0  0  0  0  0  0  # atno 10764 bound_to 10752
  153.0782  135.5023  154.8363 H   0  0  0  0  0  0  0  0  0  0  0  0  # atno 10765 bound_to 10752
  141.0945  133.6627  156.4084 H   0  0  0  0  0  0  0  0  0  0  0  0  # atno 11005 bound_to 11000
  146.3531  140.0788  142.8619 LP  0  0  0  0  0  0  0  0  0  0  0  0  # atno 17320 bound_to 7965
  145.1032  140.9359  143.4700 LP  0  0  0  0  0  0  0  0  0  0  0  0  # atno 17321 bound_to 7965
  140.4693  144.1609  150.5916 LP  0  0  0  0  0  0  0  0  0  0  0  0  # atno 17342 bound_to 10162
  140.4399  143.2531  151.9486 LP  0  0  0  0  0  0  0  0  0  0  0  0  # atno 17343 bound_to 10162
  157.2213  131.0483  151.2545 LP  0  0  0  0  0  0  0  0  0  0  0  0  # atno 17370 bound_to 10713
  157.3798  130.7225  149.6622 LP  0  0  0  0  0  0  0  0  0  0  0  0  # atno 17371 bound_to 10713
  140.5173  134.6338  157.5305 LP  0  0  0  0  0  0  0  0  0  0  0  0  # atno 17394 bound_to 11000
  139.9778  134.7186  155.9916 LP  0  0  0  0  0  0  0  0  0  0  0  0  # atno 17395 bound_to 11000

$$$$
