AV-unprocessed.smi:221|AV-procd|sdf|1696|dock3
  -GOLD-   2262020143D 1   1.00000     0.00000
 Structure written by MMmdl.
 50 53  0  0  0  0  0  0  0  0  1 V2000
  151.9901  145.1278  158.5925 N   0  0  0  0  0  0  0  0  0  0  0  0
  151.4620  144.9369  159.8061 C   0  0  0  0  0  0  0  0  0  0  0  0
  150.8773  145.8391  160.4016 O   0  0  0  0  0  0  0  0  0  0  0  0
  151.5893  143.5480  160.4627 C   0  0  2  0  0  0  0  0  0  0  0  0
  152.3281  143.6417  161.8083 C   0  0  0  0  0  0  0  0  0  0  0  0
  152.9101  142.2453  161.9869 C   0  0  2  0  0  0  0  0  0  0  0  0
  153.9415  142.2222  162.8307 F   0  0  0  0  0  0  0  0  0  0  0  0
  153.3018  141.8485  160.5662 C   0  0  0  0  0  0  0  0  0  0  0  0
  152.3774  142.5699  159.6978 N   0  0  0  0  0  0  0  0  0  0  0  0
  151.8920  141.9463  158.5898 C   0  0  0  0  0  0  0  0  0  0  0  0
  151.2112  142.6675  157.6600 N   0  0  0  0  0  0  0  0  0  0  0  0
  150.7256  142.0784  156.5638 C   0  0  0  0  0  0  0  0  0  0  0  0
  150.8091  140.7980  156.1995 N   0  0  0  0  0  0  0  0  0  0  0  0
  151.5006  140.0677  157.1198 C   0  0  0  0  0  0  0  0  0  0  0  0
  152.0724  140.5564  158.3295 C   0  0  0  0  0  0  0  0  0  0  0  0
  152.7141  139.5183  158.9966 N   0  0  0  0  0  0  0  0  0  0  0  0
  152.5242  138.4776  158.2329 C   0  0  0  0  0  0  0  0  0  0  0  0
  151.8087  138.7190  157.0831 N   0  0  0  0  0  0  0  0  0  0  0  0
  151.4588  137.7460  156.0629 C   0  0  0  0  0  0  0  0  0  0  0  0
  150.1129  137.0336  156.3528 C   0  0  2  0  0  0  0  0  0  0  0  0
  150.1389  136.3165  157.7228 C   0  0  0  0  0  0  0  0  0  0  0  0
  150.8942  135.1245  157.6636 O   0  0  0  0  0  0  0  0  0  0  0  0
  149.6652  136.0802  155.2105 C   0  0  1  0  0  0  0  0  0  0  0  0
  150.7466  135.1497  154.6589 C   0  0  0  0  0  0  0  0  0  0  0  0
  150.0472  133.7942  154.5310 C   0  0  0  0  0  0  0  0  0  0  0  0
  148.6621  134.1012  154.5696 O   0  0  0  0  0  0  0  0  0  0  0  0
  148.5014  135.1339  155.5270 C   0  0  0  0  0  0  0  0  0  0  0  0
  150.5902  143.1469  160.6426 H   0  0  0  0  0  0  0  0  0  0  0  0
  152.1478  141.5676  162.3739 H   0  0  0  0  0  0  0  0  0  0  0  0
  151.9141  146.0315  158.1485 H   0  0  0  0  0  0  0  0  0  0  0  0
  152.4617  144.3672  158.1251 H   0  0  0  0  0  0  0  0  0  0  0  0
  153.1391  144.3711  161.7579 H   0  0  0  0  0  0  0  0  0  0  0  0
  151.6714  143.9283  162.6304 H   0  0  0  0  0  0  0  0  0  0  0  0
  154.3168  142.1755  160.3372 H   0  0  0  0  0  0  0  0  0  0  0  0
  153.2553  140.7655  160.4423 H   0  0  0  0  0  0  0  0  0  0  0  0
  150.1950  142.7257  155.8813 H   0  0  0  0  0  0  0  0  0  0  0  0
  152.9078  137.4995  158.4854 H   0  0  0  0  0  0  0  0  0  0  0  0
  151.4322  138.2714  155.1092 H   0  0  0  0  0  0  0  0  0  0  0  0
  152.2702  137.0220  155.9894 H   0  0  0  0  0  0  0  0  0  0  0  0
  149.3511  137.8123  156.4182 H   0  0  0  0  0  0  0  0  0  0  0  0
  150.5488  136.9677  158.4952 H   0  0  0  0  0  0  0  0  0  0  0  0
  149.1345  136.0403  158.0420 H   0  0  0  0  0  0  0  0  0  0  0  0
  150.9688  134.8603  156.7592 H   0  0  0  0  0  0  0  0  0  0  0  0
  149.3460  136.6893  154.3636 H   0  0  0  0  0  0  0  0  0  0  0  0
  151.0801  135.5051  153.6829 H   0  0  0  0  0  0  0  0  0  0  0  0
  151.6309  135.0757  155.2912 H   0  0  0  0  0  0  0  0  0  0  0  0
  150.3151  133.2668  153.6151 H   0  0  0  0  0  0  0  0  0  0  0  0
  150.2951  133.1531  155.3788 H   0  0  0  0  0  0  0  0  0  0  0  0
  148.5729  134.6992  156.5238 H   0  0  0  0  0  0  0  0  0  0  0  0
  147.5289  135.6178  155.4335 H   0  0  0  0  0  0  0  0  0  0  0  0
  1  2  1  0  0  0  0
  1 30  1  0  0  0  0
  1 31  1  0  0  0  0
  2  3  2  0  0  0  0
  2  4  1  0  0  0  0
  4 28  1  0  0  0  0
  4  9  1  0  0  0  0
  4  5  1  0  0  0  0
  5  6  1  0  0  0  0
  5 32  1  0  0  0  0
  5 33  1  0  0  0  0
  6 29  1  0  0  0  0
  6  7  1  0  0  0  0
  6  8  1  0  0  0  0
  8  9  1  0  0  0  0
  8 34  1  0  0  0  0
  8 35  1  0  0  0  0
  9 10  1  0  0  0  0
 10 15  1  0  0  0  0
 10 11  2  0  0  0  0
 11 12  1  0  0  0  0
 12 13  2  0  0  0  0
 12 36  1  0  0  0  0
 13 14  1  0  0  0  0
 14 18  1  0  0  0  0
 14 15  2  0  0  0  0
 15 16  1  0  0  0  0
 16 17  2  0  0  0  0
 17 18  1  0  0  0  0
 17 37  1  0  0  0  0
 18 19  1  0  0  0  0
 19 20  1  0  0  0  0
 19 38  1  0  0  0  0
 19 39  1  0  0  0  0
 20 21  1  0  0  0  0
 20 23  1  0  0  0  0
 20 40  1  0  0  0  0
 21 22  1  0  0  0  0
 21 41  1  0  0  0  0
 21 42  1  0  0  0  0
 22 43  1  0  0  0  0
 23 27  1  0  0  0  0
 23 24  1  0  0  0  0
 23 44  1  0  0  0  0
 24 25  1  0  0  0  0
 24 45  1  0  0  0  0
 24 46  1  0  0  0  0
 25 26  1  0  0  0  0
 25 47  1  0  0  0  0
 25 48  1  0  0  0  0
 26 27  1  0  0  0  0
 27 49  1  0  0  0  0
 27 50  1  0  0  0  0
M  END
> <s_m_source_file>
AV-unprocessed.smi

> <i_m_source_file_index>
221

> <i_lp_mmshare_version>
43012

> <i_f3d_flags>
0

> <s_epik_input>
W05IMl1DKD1PKVtDQEBIXTFbQ0gyXVtDQEBIXShGKVtDSDJdTjFjKG5bY0hdbjIpYyhjMjMpbltjSF1uM1tDSDJdW0NASF0oW0NIMl1bT0hdKVtDQEBIXTRbQ0gyXVtDSDJdT1tDSDJdNA==

> <s_epik_cmdline>
J2VwaWtfcHl0aG9uJywgJy1waCcsICc3LjAnLCAnLXRuJywgJzgnLCAnLW1hJywgJzIwMCcsICctbWV0YWxfYmluZGluZycsICctaW1hZScsICc8aW5maWxlLm1hZT4nLCAnLW9tYWUnLCAnPG91dGZpbGUubWFlPic=

> <r_lp_tautomer_probability>
1

> <r_epik_Ionization_Penalty>
0.000818822

> <r_epik_Ionization_Penalty_Charging>
0

> <r_epik_Ionization_Penalty_Neutral>
0.000818822

> <r_epik_State_Penalty>
0.000440551

> <r_epik_Charging_Adjusted_Penalty>
0.000440551

> <i_epik_Tot_Q>
0

> <i_epik_Tot_abs_Q>
0

> <r_epik_Metal_State_Penalty>
-0

> <b_epik_Metal_Only>
0

> <s_lp_Force_Field>
OPLS_2005

> <r_lp_Energy>
49.7935

> <b_lp_Chiralities_Consistent>
1

> <s_lp_Variant>
AV-unprocessed.smi:221-11

> <Gold.Version>
5.8.1

> <Gold.Id.Protein>
6NUR|6NUR_protein|mol2

> <Gold.PLP.Fitness>
52.0673

> <Gold.PLP.PLP>
-48.5589

> <Gold.PLP.part.hbond>
-3.0000

> <Gold.PLP.part.metal>
0.0000

> <Gold.PLP.part.buried>
-4.9807

> <Gold.PLP.part.nonpolar>
-38.8742

> <Gold.PLP.part.repulsive>
0.5401

> <Gold.PLP.ligand.clash>
0.0000

> <Gold.PLP.ligand.torsion>
1.1145

> <Gold.PLP.Chemscore.Hbond>
0.8000

> <Gold.PLP.Chemscore.CHOScore>
1.0000

> <Gold.PLP.Chemscore.Metal>
0.0000

> <Gold.Chemscore.Hbonds>
donor molecule, donor type, donor heavy atom, donor atom, acceptor molecule, acceptor atom, score
      P1  H  6896  6907       L1    22  0.32
      L1  C    12    36       P1  8028  1.00

> <Gold.PLP.Chemscore.Internal.Correction>
0.3373

> <Gold.Rescore>
     Score         DG    S(hbond)    S(metal)    S(lipo)     H(rot)  DE(clash)    DE(int)     intcor
      2.06      -7.73       0.92        0.00      65.37       3.31       2.38       3.29       ----

> <Gold.Chemscore.Fitness>
2.0622

> <Gold.Chemscore.DG>
-7.7343

> <Gold.Chemscore.ZeroCoef>
-5.4800

> <Gold.Chemscore.Hbond>
0.9213

> <Gold.Chemscore.Metal>
0.0000

> <Gold.Chemscore.Lipo>
65.3681

> <Gold.Chemscore.Internal_Hbond>
0.0000

> <Gold.Chemscore.DEClash>
2.3773

> <Gold.Chemscore.DEInternal>
3.2948

> <Gold.Chemscore.Rot>
3.3089

> <Gold.Chemscore.Internal.Correction>
   9.000000E+99

> <Gold.Chemscore.Hbonds>
donor molecule, donor type, donor heavy atom, donor atom, acceptor molecule, acceptor atom, score
      P1  H  6896  6907       L1    22  0.08

> <Gold.Chemscore.Hbond.Weighted>
-3.0771

> <Gold.Chemscore.Metal.Weighted>
-0.0000

> <Gold.Chemscore.Lipo.Weighted>
-7.6481

> <Gold.Chemscore.Internal_Hbond.Weighted>
0.0000

> <Gold.Chemscore.DEClash.Weighted>
2.3773

> <Gold.Chemscore.DEInternal.Weighted>
3.2948

> <Gold.Chemscore.Rot.Weighted>
8.4709

> <Gold.Chemscore.Internal.Correction.Weighted>
   9.000000E+99

> <Gold.Protein.RotatedTorsions>
[ 6907 6896 6895 6894 ] final  -74.36 input  -60.11 | X-H torsion
[ 7974 7965 7964 7962 ] final  -14.72 input  175.53 | X-H torsion
[ 8008 7997 7996 7995 ] final  -84.71 input   59.86 | X-H torsion
[ 10167 10162 10161 10158 ] final -164.98 input  -65.29 | X-H torsion
[ 10718 10713 10712 10709 ] final  -54.81 input   66.30 | X-H torsion
[ 10763 10752 10751 10750 ] final   36.02 input  -60.55 | X-H torsion
[ 11005 11000 10999 10996 ] final   64.10 input  -57.11 | X-H torsion

> <Gold.Protein.ActiveResidues>
 VAL166  LYS551  ARG553  GLY616  TRP617  ASP618  TYR619  PRO620  LYS621  CYS622 
 ASP623  PHE694  ASN695  SER759  ASP760  ASP761  ALA762  ILE779  LEU786  VAL792 
 PHE793  MET794  SER795  GLU796  ALA797  LYS798  CYS799  TRP800  GLU811  SER814 

> <Gold.Protein.RotatedAtoms>
  150.7096  134.4880  159.5501 H   0  0  0  0  0  0  0  0  0  0  0  0  # atno 6907 bound_to 6896
  152.2504  134.8136  160.0456 H   0  0  0  0  0  0  0  0  0  0  0  0  # atno 6908 bound_to 6896
  151.8886  133.3476  159.3827 H   0  0  0  0  0  0  0  0  0  0  0  0  # atno 6909 bound_to 6896
  146.2062  140.3389  142.8406 H   0  0  0  0  0  0  0  0  0  0  0  0  # atno 7974 bound_to 7965
  154.6327  140.0601  156.9752 H   0  0  0  0  0  0  0  0  0  0  0  0  # atno 8008 bound_to 7997
  155.1640  140.3285  155.4387 H   0  0  0  0  0  0  0  0  0  0  0  0  # atno 8009 bound_to 7997
  156.2491  140.1926  156.6745 H   0  0  0  0  0  0  0  0  0  0  0  0  # atno 8010 bound_to 7997
  139.6213  144.0618  152.1935 H   0  0  0  0  0  0  0  0  0  0  0  0  # atno 10167 bound_to 10162
  156.1420  130.4154  150.0087 H   0  0  0  0  0  0  0  0  0  0  0  0  # atno 10718 bound_to 10713
  153.0094  135.6317  154.1919 H   0  0  0  0  0  0  0  0  0  0  0  0  # atno 10763 bound_to 10752
  154.1662  135.2821  155.3096 H   0  0  0  0  0  0  0  0  0  0  0  0  # atno 10764 bound_to 10752
  154.5944  135.5607  153.7371 H   0  0  0  0  0  0  0  0  0  0  0  0  # atno 10765 bound_to 10752
  139.9981  134.6485  155.9976 H   0  0  0  0  0  0  0  0  0  0  0  0  # atno 11005 bound_to 11000
  144.8799  140.7387  143.5993 LP  0  0  0  0  0  0  0  0  0  0  0  0  # atno 17320 bound_to 7965
  145.3309  139.1760  143.4537 LP  0  0  0  0  0  0  0  0  0  0  0  0  # atno 17321 bound_to 7965
  140.0261  144.6116  150.7526 LP  0  0  0  0  0  0  0  0  0  0  0  0  # atno 17342 bound_to 10162
  140.7384  143.2777  151.3691 LP  0  0  0  0  0  0  0  0  0  0  0  0  # atno 17343 bound_to 10162
  156.7969  130.9276  151.3646 LP  0  0  0  0  0  0  0  0  0  0  0  0  # atno 17370 bound_to 10713
  157.6584  130.8944  149.9777 LP  0  0  0  0  0  0  0  0  0  0  0  0  # atno 17371 bound_to 10713
  141.1620  133.6538  156.4351 LP  0  0  0  0  0  0  0  0  0  0  0  0  # atno 17394 bound_to 11000
  140.4780  134.6691  157.5158 LP  0  0  0  0  0  0  0  0  0  0  0  0  # atno 17395 bound_to 11000

$$$$
