#       Name:                AV-unprocessed.smi:1335
#       Creating user name   scv26
#       Creation time:       Fri Mar 27 05:07:18 2020


#       File generated by GOLD software.
#

@<TRIPOS>MOLECULE
AV-unprocessed.smi:1335
    55    57     1
SMALL
NO_CHARGES


@<TRIPOS>ATOM
      1 ****        -3.2721   4.9641   2.9229 C.3            1 S1                 0.0000
      2 ****        -2.4021   4.2118   2.0894 O.3            1 S1                 0.0000
      3 ****        -2.9274   3.1534   1.3756 C.ar           1 S1                 0.0000
      4 ****        -4.2981   2.7891   1.4186 C.ar           1 S1                 0.0000
      5 ****        -4.7781   1.7060   0.6585 C.ar           1 S1                 0.0000
      6 ****        -3.8994   0.9752  -0.1591 C.ar           1 S1                 0.0000
      7 ****        -2.5389   1.3256  -0.2106 C.ar           1 S1                 0.0000
      8 ****        -2.0452   2.4008   0.5605 C.ar           1 S1                 0.0000
      9 ****        -0.5692   2.7613   0.4743 C.3            1 S1                 0.0000
     10 ****         0.2451   1.6206   0.2565 O.3            1 S1                 0.0000
     11 ****         1.6209   1.9335   0.1144 C.3            1 S1                 0.0000
     12 ****         2.4022   0.6253  -0.0790 C.3            1 S1                 0.0000
     13 ****         3.7783   0.9408  -0.0216 O.3            1 S1                 0.0000
     14 ****         2.1011  -0.0426  -1.4370 C.3            1 S1                 0.0000
     15 ****         2.2443  -1.4940  -1.3600 N.am           1 S1                 0.0000
     16 ****         3.3357  -2.2177  -1.7029 C.2            1 S1                 0.0000
     17 ****         4.3875  -1.7674  -2.1568 O.2            1 S1                 0.0000
     18 ****         3.0694  -3.5209  -1.4498 N.am           1 S1                 0.0000
     19 ****         3.9614  -4.6553  -1.6559 C.3            1 S1                 0.0000
     20 ****         1.7794  -3.6316  -0.9150 C.ar           1 S1                 0.0000
     21 ****         1.0523  -4.7535  -0.4816 C.ar           1 S1                 0.0000
     22 ****        -0.2488  -4.5235   0.0244 C.ar           1 S1                 0.0000
     23 ****        -0.7830  -3.2100   0.0878 C.ar           1 S1                 0.0000
     24 ****        -0.0279  -2.0986  -0.3548 C.ar           1 S1                 0.0000
     25 ****         1.2599  -2.3561  -0.8562 C.ar           1 S1                 0.0000
     26 ****        -2.7030   5.7506   3.4187 H              1 S1                 0.0000
     27 ****        -3.7183   4.3418   3.6998 H              1 S1                 0.0000
     28 ****        -4.0623   5.4447   2.3446 H              1 S1                 0.0000
     29 ****        -5.0078   3.3280   2.0273 H              1 S1                 0.0000
     30 ****        -5.8240   1.4395   0.6995 H              1 S1                 0.0000
     31 ****        -4.2684   0.1484  -0.7481 H              1 S1                 0.0000
     32 ****        -1.8747   0.7621  -0.8491 H              1 S1                 0.0000
     33 ****        -0.4385   3.4753  -0.3403 H              1 S1                 0.0000
     34 ****        -0.2452   3.2506   1.3937 H              1 S1                 0.0000
     35 ****         1.7763   2.6057  -0.7313 H              1 S1                 0.0000
     36 ****         1.9676   2.4475   1.0127 H              1 S1                 0.0000
     37 ****         2.1667  -0.0471   0.7472 H              1 S1                 0.0000
     38 ****         3.9842   1.5205  -0.7389 H              1 S1                 0.0000
     39 ****         1.0730   0.1628  -1.7369 H              1 S1                 0.0000
     40 ****         2.7212   0.3751  -2.2323 H              1 S1                 0.0000
     41 ****         3.4553  -5.4378  -2.2218 H              1 S1                 0.0000
     42 ****         4.2670  -5.0708  -0.6954 H              1 S1                 0.0000
     43 ****         4.8609  -4.3741  -2.2049 H              1 S1                 0.0000
     44 ****         1.4673  -5.7494  -0.5300 H              1 S1                 0.0000
     45 ****        -0.8421  -5.3578   0.3684 H              1 S1                 0.0000
     46 ****        -1.7777  -3.0561   0.4792 H              1 S1                 0.0000
     47 ****        -0.4266  -1.0965  -0.3056 H              1 S1                 0.0000
     48 ****        -1.6783   3.8441   2.6733 LP             1 S1                 0.0000
     49 ****        -2.0053   4.8470   1.4268 LP             1 S1                 0.0000
     50 ****        -0.0645   1.1640  -0.5775 LP             1 S1                 0.0000
     51 ****         0.1390   1.0014   1.0346 LP             1 S1                 0.0000
     52 ****         4.3196   0.1035  -0.0988 LP             1 S1                 0.0000
     53 ****         3.9847   1.3922   0.8465 LP             1 S1                 0.0000
     54 ****         4.4888  -0.7831  -2.3017 LP             1 S1                 0.0000
     55 ****         5.1408  -2.3858  -2.3807 LP             1 S1                 0.0000
@<TRIPOS>BOND
    1    1    2 1     
    2    1   26 1     
    3    1   27 1     
    4    1   28 1     
    5    2    3 1     
    6    3    8 ar    
    7    3    4 ar    
    8    4    5 ar    
    9    4   29 1     
   10    5    6 ar    
   11    5   30 1     
   12    6    7 ar    
   13    6   31 1     
   14    7    8 ar    
   15    7   32 1     
   16    8    9 1     
   17    9   10 1     
   18    9   33 1     
   19    9   34 1     
   20   10   11 1     
   21   11   12 1     
   22   11   35 1     
   23   11   36 1     
   24   12   13 1     
   25   12   14 1     
   26   12   37 1     
   27   13   38 1     
   28   14   15 1     
   29   14   39 1     
   30   14   40 1     
   31   15   25 1     
   32   15   16 am    
   33   16   17 2     
   34   16   18 am    
   35   18   19 1     
   36   18   20 1     
   37   19   41 1     
   38   19   42 1     
   39   19   43 1     
   40   20   25 ar    
   41   20   21 ar    
   42   21   22 ar    
   43   21   44 1     
   44   22   23 ar    
   45   22   45 1     
   46   23   24 ar    
   47   23   46 1     
   48   24   25 ar    
   49   24   47 1     
   50    2   48 1     
   51    2   49 1     
   52   10   50 1     
   53   10   51 1     
   54   13   52 1     
   55   13   53 1     
   56   17   54 1     
   57   17   55 1     
@<TRIPOS>SUBSTRUCTURE
      1 S1             1
@<TRIPOS>SET
LONE_PAIRS      STATIC     ATOMS    <user>   **** ""
8 48 49 50 51 52 53 54 55
DONOR_HYDROGENS      STATIC     ATOMS    <user>   **** ""
1 38
ATOM$BLUE        STATIC     ATOMS    COLORGROUP SYSTEM
8 48 49 50 51 52 53 54 55
ATOM$RED        STATIC     ATOMS    COLORGROUP SYSTEM
1 38
