AV-unprocessed.smi:2775|AV-procd|sdf|10700|dock2
  -GOLD-   2272015133D 1   1.00000     0.00000
 Structure written by MMmdl.
 43 46  0  0  0  0  0  0  0  0  2 V2000
  145.8048  135.3041  152.6175 C   0  0  0  0  0  0  0  0  0  0  0  0
  146.7430  134.7277  153.6606 C   0  0  0  0  0  0  0  0  0  0  0  0
  147.9058  134.1885  153.2314 N   0  3  0  0  0  0  0  0  0  0  0  0
  148.8152  133.6411  154.0648 C   0  0  0  0  0  0  0  0  0  0  0  0
  148.5731  133.6191  155.4521 C   0  0  0  0  0  0  0  0  0  0  0  0
  147.3762  134.1857  155.9574 C   0  0  0  0  0  0  0  0  0  0  0  0
  147.0456  134.1898  157.3390 N   0  0  0  0  0  0  0  0  0  0  0  0
  147.8743  134.1504  158.3999 C   0  0  0  0  0  0  0  0  0  0  0  0
  149.0955  134.0310  158.3301 O   0  0  0  0  0  0  0  0  0  0  0  0
  147.2498  134.3077  159.5798 N   0  0  0  0  0  0  0  0  0  0  0  0
  147.8599  134.3143  160.9141 C   0  0  2  0  0  0  0  0  0  0  0  0
  147.3770  133.1666  161.8406 C   0  0  2  0  0  0  0  0  0  0  0  0
  146.5538  131.9932  161.3626 C   0  0  0  0  0  0  0  0  0  0  0  0
  145.1295  132.3906  161.7585 C   0  0  0  0  0  0  0  0  0  0  0  0
  145.1727  133.8088  161.8933 O   0  0  0  0  0  0  0  0  0  0  0  0
  146.4160  134.1499  162.4979 C   0  0  2  0  0  0  0  0  0  0  0  0
  147.1651  135.3203  161.8473 C   0  0  0  0  0  0  0  0  0  0  0  0
  146.4169  136.5688  161.3499 C   0  0  0  0  0  0  0  0  0  0  0  0
  146.8693  137.2854  162.6250 C   0  0  0  0  0  0  0  0  0  0  0  0
  147.9977  136.2562  162.7367 C   0  0  0  0  0  0  0  0  0  0  0  0
  146.4437  134.7351  155.0434 C   0  0  0  0  0  0  0  0  0  0  0  0
  144.9568  135.4202  155.6100 Cl  0  0  0  0  0  0  0  0  0  0  0  0
  145.6028  136.3549  152.8271 H   0  0  0  0  0  0  0  0  0  0  0  0
  144.8576  134.7637  152.6198 H   0  0  0  0  0  0  0  0  0  0  0  0
  146.2313  135.2354  151.6159 H   0  0  0  0  0  0  0  0  0  0  0  0
  149.7009  133.2337  153.5990 H   0  0  0  0  0  0  0  0  0  0  0  0
  149.3020  133.1594  156.1024 H   0  0  0  0  0  0  0  0  0  0  0  0
  146.0757  134.3757  157.5505 H   0  0  0  0  0  0  0  0  0  0  0  0
  146.2607  134.5104  159.5488 H   0  0  0  0  0  0  0  0  0  0  0  0
  148.9443  134.4382  160.9105 H   0  0  0  0  0  0  0  0  0  0  0  0
  148.1694  132.8835  162.5351 H   0  0  0  0  0  0  0  0  0  0  0  0
  146.6302  131.8374  160.2882 H   0  0  0  0  0  0  0  0  0  0  0  0
  146.8486  131.0604  161.8439 H   0  0  0  0  0  0  0  0  0  0  0  0
  144.3867  132.0811  161.0232 H   0  0  0  0  0  0  0  0  0  0  0  0
  144.8629  131.9511  162.7209 H   0  0  0  0  0  0  0  0  0  0  0  0
  146.4118  134.1150  163.5882 H   0  0  0  0  0  0  0  0  0  0  0  0
  146.8594  137.0003  160.4507 H   0  0  0  0  0  0  0  0  0  0  0  0
  145.3372  136.4525  161.2516 H   0  0  0  0  0  0  0  0  0  0  0  0
  147.2002  138.3138  162.4783 H   0  0  0  0  0  0  0  0  0  0  0  0
  146.1426  137.2041  163.4350 H   0  0  0  0  0  0  0  0  0  0  0  0
  148.1834  135.8906  163.7471 H   0  0  0  0  0  0  0  0  0  0  0  0
  148.9178  136.5901  162.2544 H   0  0  0  0  0  0  0  0  0  0  0  0
  148.1029  134.1910  152.2302 H   0  0  0  0  0  0  0  0  0  0  0  0
  1  2  1  0  0  0  0
  1 23  1  0  0  0  0
  1 24  1  0  0  0  0
  1 25  1  0  0  0  0
  2 21  1  0  0  0  0
  2  3  2  0  0  0  0
  3  4  1  0  0  0  0
  3 43  1  0  0  0  0
  4  5  2  0  0  0  0
  4 26  1  0  0  0  0
  5  6  1  0  0  0  0
  5 27  1  0  0  0  0
  6  7  1  0  0  0  0
  6 21  2  0  0  0  0
  7  8  1  0  0  0  0
  7 28  1  0  0  0  0
  8  9  2  0  0  0  0
  8 10  1  0  0  0  0
 10 11  1  0  0  0  0
 10 29  1  0  0  0  0
 11 17  1  0  0  0  0
 11 12  1  0  0  0  0
 11 30  1  0  0  0  0
 12 16  1  0  0  0  0
 12 13  1  0  0  0  0
 12 31  1  0  0  0  0
 13 14  1  0  0  0  0
 13 32  1  0  0  0  0
 13 33  1  0  0  0  0
 14 15  1  0  0  0  0
 14 34  1  0  0  0  0
 14 35  1  0  0  0  0
 15 16  1  0  0  0  0
 16 17  1  0  0  0  0
 16 36  1  0  0  0  0
 17 20  1  0  0  0  0
 17 18  1  0  0  0  0
 18 19  1  0  0  0  0
 18 37  1  0  0  0  0
 18 38  1  0  0  0  0
 19 20  1  0  0  0  0
 19 39  1  0  0  0  0
 19 40  1  0  0  0  0
 20 41  1  0  0  0  0
 20 42  1  0  0  0  0
 21 22  1  0  0  0  0
M  CHG  1   3   1
M  END
> <s_m_source_file>
AV-unprocessed.smi

> <i_m_source_file_index>
2775

> <i_lp_mmshare_version>
43012

> <i_f3d_flags>
0

> <s_epik_input>
W0NIM11jMW5bY0hdW2NIXWMoYzFDbClbTkhdQyg9TylbTkhdW0NAQEhdMltDQEhdKFtDSDJdW0NIMl1PMylbQ0BASF0zQzI0W0NIMl1bQ0gyXVtDSDJdNA==

> <s_epik_cmdline>
J2VwaWtfcHl0aG9uJywgJy1waCcsICc3LjAnLCAnLXRuJywgJzgnLCAnLW1hJywgJzIwMCcsICctbWV0YWxfYmluZGluZycsICctaW1hZScsICc8aW5maWxlLm1hZT4nLCAnLW9tYWUnLCAnPG91dGZpbGUubWFlPic=

> <r_epik_Ionization_Penalty>
2.4104

> <r_epik_Ionization_Penalty_Charging>
2.41038

> <r_epik_Ionization_Penalty_Neutral>
1.9872e-05

> <r_epik_State_Penalty>
2.56896

> <r_epik_Charging_Adjusted_Penalty>
4.97934

> <i_epik_Tot_Q>
1

> <i_epik_Tot_abs_Q>
1

> <r_epik_Metal_State_Penalty>
2.57906

> <b_epik_Metal_Only>
0

> <s_lp_Force_Field>
OPLS_2005

> <r_lp_Energy>
62.9708

> <b_lp_Chiralities_Consistent>
1

> <s_lp_Variant>
AV-unprocessed.smi:2775-13

> <Gold.Version>
5.8.1

> <Gold.Id.Protein>
6NUR|6NUR_protein|mol2

> <Gold.PLP.Fitness>
35.7229

> <Gold.PLP.PLP>
-32.3444

> <Gold.PLP.part.hbond>
-2.0000

> <Gold.PLP.part.metal>
0.0000

> <Gold.PLP.part.buried>
-1.9226

> <Gold.PLP.part.nonpolar>
-27.4608

> <Gold.PLP.part.repulsive>
0.0859

> <Gold.PLP.ligand.clash>
0.0000

> <Gold.PLP.ligand.torsion>
0.3067

> <Gold.PLP.Chemscore.Hbond>
1.2617

> <Gold.PLP.Chemscore.CHOScore>
0.0000

> <Gold.PLP.Chemscore.Metal>
0.0000

> <Gold.Chemscore.Hbonds>
donor molecule, donor type, donor heavy atom, donor atom, acceptor molecule, acceptor atom, score
      L1  H     3    43       P1  7948  0.08
      P1  H  6896  6907       L1     9  1.00

> <Gold.PLP.Chemscore.Internal.Correction>
0.2069

> <Gold.Rescore>
     Score         DG    S(hbond)    S(metal)    S(lipo)     H(rot)  DE(clash)    DE(int)     intcor
     16.69     -18.00       1.44        0.00      87.63       1.00       0.15       1.16       ----

> <Gold.Chemscore.Fitness>
16.6870

> <Gold.Chemscore.DG>
-17.9983

> <Gold.Chemscore.ZeroCoef>
-5.4800

> <Gold.Chemscore.Hbond>
1.4448

> <Gold.Chemscore.Metal>
0.0000

> <Gold.Chemscore.Lipo>
87.6302

> <Gold.Chemscore.Internal_Hbond>
0.0000

> <Gold.Chemscore.DEClash>
0.1506

> <Gold.Chemscore.DEInternal>
1.1608

> <Gold.Chemscore.Rot>
1.0000

> <Gold.Chemscore.Internal.Correction>
   9.000000E+99

> <Gold.Chemscore.Hbonds>
donor molecule, donor type, donor heavy atom, donor atom, acceptor molecule, acceptor atom, score
      L1  H     3    43       P1  7948  0.01
      P1  H  6896  6907       L1     9  1.00

> <Gold.Chemscore.Hbond.Weighted>
-4.8256

> <Gold.Chemscore.Metal.Weighted>
-0.0000

> <Gold.Chemscore.Lipo.Weighted>
-10.2527

> <Gold.Chemscore.Internal_Hbond.Weighted>
0.0000

> <Gold.Chemscore.DEClash.Weighted>
0.1506

> <Gold.Chemscore.DEInternal.Weighted>
1.1608

> <Gold.Chemscore.Rot.Weighted>
2.5600

> <Gold.Chemscore.Internal.Correction.Weighted>
   9.000000E+99

> <Gold.Protein.RotatedTorsions>
[ 6907 6896 6895 6894 ] final -108.14 input  -60.11 | X-H torsion
[ 7974 7965 7964 7962 ] final   -8.31 input  175.53 | X-H torsion
[ 8008 7997 7996 7995 ] final   66.54 input   59.86 | X-H torsion
[ 10167 10162 10161 10158 ] final    7.16 input  -65.29 | X-H torsion
[ 10718 10713 10712 10709 ] final -152.23 input   66.30 | X-H torsion
[ 10763 10752 10751 10750 ] final -165.88 input  -60.55 | X-H torsion
[ 11005 11000 10999 10996 ] final -153.88 input  -57.11 | X-H torsion

> <Gold.Protein.ActiveResidues>
 VAL166  LYS551  ARG553  GLY616  TRP617  ASP618  TYR619  PRO620  LYS621  CYS622 
 ASP623  PHE694  ASN695  SER759  ASP760  ASP761  ALA762  ILE779  LEU786  VAL792 
 PHE793  MET794  SER795  GLU796  ALA797  LYS798  CYS799  TRP800  GLU811  SER814 

> <Gold.Protein.RotatedAtoms>
  150.7484  133.9722  159.3549 H   0  0  0  0  0  0  0  0  0  0  0  0  # atno 6907 bound_to 6896
  151.7657  135.0797  160.0361 H   0  0  0  0  0  0  0  0  0  0  0  0  # atno 6908 bound_to 6896
  152.3373  133.5989  159.5888 H   0  0  0  0  0  0  0  0  0  0  0  0  # atno 6909 bound_to 6896
  146.2284  140.2449  142.8345 H   0  0  0  0  0  0  0  0  0  0  0  0  # atno 7974 bound_to 7965
  155.6790  140.3496  155.4848 H   0  0  0  0  0  0  0  0  0  0  0  0  # atno 8008 bound_to 7997
  155.9623  140.1139  157.0907 H   0  0  0  0  0  0  0  0  0  0  0  0  # atno 8009 bound_to 7997
  154.4146  140.1173  156.5182 H   0  0  0  0  0  0  0  0  0  0  0  0  # atno 8010 bound_to 7997
  140.6387  143.7825  150.7397 H   0  0  0  0  0  0  0  0  0  0  0  0  # atno 10167 bound_to 10162
  156.4698  130.8253  151.2482 H   0  0  0  0  0  0  0  0  0  0  0  0  # atno 10718 bound_to 10713
  154.6888  135.2967  154.9509 H   0  0  0  0  0  0  0  0  0  0  0  0  # atno 10763 bound_to 10752
  154.0479  135.6648  153.4801 H   0  0  0  0  0  0  0  0  0  0  0  0  # atno 10764 bound_to 10752
  153.0598  135.5123  154.7970 H   0  0  0  0  0  0  0  0  0  0  0  0  # atno 10765 bound_to 10752
  140.7033  134.3913  157.5207 H   0  0  0  0  0  0  0  0  0  0  0  0  # atno 11005 bound_to 11000
  144.9456  140.8125  143.5603 LP  0  0  0  0  0  0  0  0  0  0  0  0  # atno 17320 bound_to 7965
  145.2404  139.2075  143.4995 LP  0  0  0  0  0  0  0  0  0  0  0  0  # atno 17321 bound_to 7965
  140.1452  143.4406  152.2168 LP  0  0  0  0  0  0  0  0  0  0  0  0  # atno 17342 bound_to 10162
  139.5597  144.7397  151.4191 LP  0  0  0  0  0  0  0  0  0  0  0  0  # atno 17343 bound_to 10162
  157.7492  131.0080  150.3211 LP  0  0  0  0  0  0  0  0  0  0  0  0  # atno 17370 bound_to 10713
  156.3630  130.3850  149.7236 LP  0  0  0  0  0  0  0  0  0  0  0  0  # atno 17371 bound_to 10713
  139.8891  134.8840  156.2440 LP  0  0  0  0  0  0  0  0  0  0  0  0  # atno 17394 bound_to 11000
  141.0145  133.7076  156.1166 LP  0  0  0  0  0  0  0  0  0  0  0  0  # atno 17395 bound_to 11000

$$$$
