AV-unprocessed.smi:2945|AV-procd|sdf|11279|dock2
  -GOLD-   2272016173D 1   1.00000     0.00000
 Structure written by MMmdl.
 36 37  0  0  0  0  0  0  0  0  1 V2000
  152.3393  136.2856  157.3386 C   0  0  0  0  0  0  0  0  0  0  0  0
  151.1940  135.6719  156.6089 C   0  0  0  0  0  0  0  0  0  0  0  0
  150.6959  135.8424  155.3478 C   0  0  0  0  0  0  0  0  0  0  0  0
  149.5959  134.9446  155.3145 C   0  0  0  0  0  0  0  0  0  0  0  0
  148.7961  134.8181  154.1503 N   0  0  0  0  0  0  0  0  0  0  0  0
  147.7352  134.0136  153.9676 C   0  0  0  0  0  0  0  0  0  0  0  0
  147.2772  133.2434  154.8121 O   0  0  0  0  0  0  0  0  0  0  0  0
  147.2284  134.1545  152.7336 N   0  0  0  0  0  0  0  0  0  0  0  0
  146.0614  133.4540  152.1976 C   0  0  1  0  0  0  0  0  0  0  0  0
  145.5305  134.2407  150.9828 C   0  0  0  0  0  0  0  0  0  0  0  0
  144.3426  133.5307  150.3183 C   0  0  0  0  0  0  0  0  0  0  0  0
  144.7167  132.0983  149.9159 C   0  0  0  0  0  0  0  0  0  0  0  0
  145.2255  131.3025  151.1268 C   0  0  0  0  0  0  0  0  0  0  0  0
  146.4211  131.9954  151.8126 C   0  0  2  0  0  0  0  0  0  0  0  0
  146.9041  131.1652  153.0153 C   0  0  0  0  0  0  0  0  0  0  0  0
  149.4376  134.2846  156.4517 N   0  0  0  0  0  0  0  0  0  0  0  0
  150.4612  134.7473  157.2871 O   0  0  0  0  0  0  0  0  0  0  0  0
  152.7877  137.0893  156.7544 H   0  0  0  0  0  0  0  0  0  0  0  0
  153.1111  135.5427  157.5403 H   0  0  0  0  0  0  0  0  0  0  0  0
  152.0124  136.7021  158.2915 H   0  0  0  0  0  0  0  0  0  0  0  0
  151.0611  136.5039  154.5765 H   0  0  0  0  0  0  0  0  0  0  0  0
  149.0599  135.4048  153.3727 H   0  0  0  0  0  0  0  0  0  0  0  0
  147.6805  134.8093  152.1125 H   0  0  0  0  0  0  0  0  0  0  0  0
  145.2655  133.4236  152.9443 H   0  0  0  0  0  0  0  0  0  0  0  0
  145.2301  135.2432  151.2899 H   0  0  0  0  0  0  0  0  0  0  0  0
  146.3275  134.3692  150.2487 H   0  0  0  0  0  0  0  0  0  0  0  0
  143.4956  133.5105  151.0055 H   0  0  0  0  0  0  0  0  0  0  0  0
  144.0176  134.0905  149.4409 H   0  0  0  0  0  0  0  0  0  0  0  0
  143.8528  131.5976  149.4778 H   0  0  0  0  0  0  0  0  0  0  0  0
  145.4857  132.1229  149.1427 H   0  0  0  0  0  0  0  0  0  0  0  0
  144.4130  131.1768  151.8438 H   0  0  0  0  0  0  0  0  0  0  0  0
  145.5096  130.2993  150.8067 H   0  0  0  0  0  0  0  0  0  0  0  0
  147.2383  132.0290  151.0903 H   0  0  0  0  0  0  0  0  0  0  0  0
  146.1440  131.1230  153.7960 H   0  0  0  0  0  0  0  0  0  0  0  0
  147.8102  131.5809  153.4556 H   0  0  0  0  0  0  0  0  0  0  0  0
  147.1322  130.1413  152.7183 H   0  0  0  0  0  0  0  0  0  0  0  0
  1  2  1  0  0  0  0
  1 18  1  0  0  0  0
  1 19  1  0  0  0  0
  1 20  1  0  0  0  0
  2 17  1  0  0  0  0
  2  3  2  0  0  0  0
  3  4  1  0  0  0  0
  3 21  1  0  0  0  0
  4  5  1  0  0  0  0
  4 16  2  0  0  0  0
  5  6  1  0  0  0  0
  5 22  1  0  0  0  0
  6  7  2  0  0  0  0
  6  8  1  0  0  0  0
  8  9  1  0  0  0  0
  8 23  1  0  0  0  0
  9 14  1  0  0  0  0
  9 10  1  0  0  0  0
  9 24  1  0  0  0  0
 10 11  1  0  0  0  0
 10 25  1  0  0  0  0
 10 26  1  0  0  0  0
 11 12  1  0  0  0  0
 11 27  1  0  0  0  0
 11 28  1  0  0  0  0
 12 13  1  0  0  0  0
 12 29  1  0  0  0  0
 12 30  1  0  0  0  0
 13 14  1  0  0  0  0
 13 31  1  0  0  0  0
 13 32  1  0  0  0  0
 14 15  1  0  0  0  0
 14 33  1  0  0  0  0
 15 34  1  0  0  0  0
 15 35  1  0  0  0  0
 15 36  1  0  0  0  0
 16 17  1  0  0  0  0
M  END
> <s_m_source_file>
AV-unprocessed.smi

> <i_m_source_file_index>
2945

> <i_lp_mmshare_version>
43012

> <i_f3d_flags>
0

> <s_epik_input>
W0NIM11jMVtjSF1jKG5vMSlbTkhdQyg9TylbTkhdW0NAQEhdMltDSDJdW0NIMl1bQ0gyXVtDSDJdW0NASF0yW0NIM10=

> <s_epik_cmdline>
J2VwaWtfcHl0aG9uJywgJy1waCcsICc3LjAnLCAnLXRuJywgJzgnLCAnLW1hJywgJzIwMCcsICctbWV0YWxfYmluZGluZycsICctaW1hZScsICc8aW5maWxlLm1hZT4nLCAnLW9tYWUnLCAnPG91dGZpbGUubWFlPic=

> <r_lp_tautomer_probability>
1

> <r_epik_Ionization_Penalty>
2.357e-05

> <r_epik_Ionization_Penalty_Charging>
0

> <r_epik_Ionization_Penalty_Neutral>
2.357e-05

> <r_epik_State_Penalty>
-0

> <r_epik_Charging_Adjusted_Penalty>
0

> <i_epik_Tot_Q>
0

> <i_epik_Tot_abs_Q>
0

> <r_epik_Metal_State_Penalty>
-0

> <b_epik_Metal_Only>
0

> <s_lp_Force_Field>
OPLS_2005

> <r_lp_Energy>
8.52615

> <b_lp_Chiralities_Consistent>
1

> <s_lp_Variant>
AV-unprocessed.smi:2945-4

> <Gold.Version>
5.8.1

> <Gold.Id.Protein>
6NUR|6NUR_protein|mol2

> <Gold.PLP.Fitness>
32.6793

> <Gold.PLP.PLP>
-25.9791

> <Gold.PLP.part.hbond>
-3.0000

> <Gold.PLP.part.metal>
0.0000

> <Gold.PLP.part.buried>
-3.7540

> <Gold.PLP.part.nonpolar>
-19.5059

> <Gold.PLP.part.repulsive>
0.0303

> <Gold.PLP.ligand.clash>
0.0000

> <Gold.PLP.ligand.torsion>
0.2559

> <Gold.PLP.Chemscore.Hbond>
2.4025

> <Gold.PLP.Chemscore.CHOScore>
0.0000

> <Gold.PLP.Chemscore.Metal>
0.0000

> <Gold.Chemscore.Hbonds>
donor molecule, donor type, donor heavy atom, donor atom, acceptor molecule, acceptor atom, score
      L1  H     5    22       P1  7948  1.00
      L1  H     8    23       P1  7948  0.99
      P1  H  6896  6908       L1    17  0.40

> <Gold.PLP.Chemscore.Internal.Correction>
0.0046

> <Gold.Rescore>
     Score         DG    S(hbond)    S(metal)    S(lipo)     H(rot)  DE(clash)    DE(int)     intcor
     15.86     -18.93       2.59        0.00      62.79       1.00       0.15       2.91       ----

> <Gold.Chemscore.Fitness>
15.8643

> <Gold.Chemscore.DG>
-18.9295

> <Gold.Chemscore.ZeroCoef>
-5.4800

> <Gold.Chemscore.Hbond>
2.5938

> <Gold.Chemscore.Metal>
0.0000

> <Gold.Chemscore.Lipo>
62.7866

> <Gold.Chemscore.Internal_Hbond>
0.0000

> <Gold.Chemscore.DEClash>
0.1549

> <Gold.Chemscore.DEInternal>
2.9103

> <Gold.Chemscore.Rot>
1.0000

> <Gold.Chemscore.Internal.Correction>
   9.000000E+99

> <Gold.Chemscore.Hbonds>
donor molecule, donor type, donor heavy atom, donor atom, acceptor molecule, acceptor atom, score
      L1  H     5    22       P1  7948  0.50
      L1  H     8    23       P1  7948  0.70
      P1  H  6896  6908       L1    17  0.40

> <Gold.Chemscore.Hbond.Weighted>
-8.6634

> <Gold.Chemscore.Metal.Weighted>
-0.0000

> <Gold.Chemscore.Lipo.Weighted>
-7.3460

> <Gold.Chemscore.Internal_Hbond.Weighted>
0.0000

> <Gold.Chemscore.DEClash.Weighted>
0.1549

> <Gold.Chemscore.DEInternal.Weighted>
2.9103

> <Gold.Chemscore.Rot.Weighted>
2.5600

> <Gold.Chemscore.Internal.Correction.Weighted>
   9.000000E+99

> <Gold.Protein.RotatedTorsions>
[ 6907 6896 6895 6894 ] final  139.32 input  -60.11 | X-H torsion
[ 7974 7965 7964 7962 ] final   32.43 input  175.53 | X-H torsion
[ 8008 7997 7996 7995 ] final  105.27 input   59.86 | X-H torsion
[ 10167 10162 10161 10158 ] final   27.29 input  -65.29 | X-H torsion
[ 10718 10713 10712 10709 ] final -159.01 input   66.30 | X-H torsion
[ 10763 10752 10751 10750 ] final   36.95 input  -60.55 | X-H torsion
[ 11005 11000 10999 10996 ] final  142.65 input  -57.11 | X-H torsion

> <Gold.Protein.ActiveResidues>
 VAL166  LYS551  ARG553  GLY616  TRP617  ASP618  TYR619  PRO620  LYS621  CYS622 
 ASP623  PHE694  ASN695  SER759  ASP760  ASP761  ALA762  ILE779  LEU786  VAL792 
 PHE793  MET794  SER795  GLU796  ALA797  LYS798  CYS799  TRP800  GLU811  SER814 

> <Gold.Protein.RotatedAtoms>
  152.2563  133.5258  159.5354 H   0  0  0  0  0  0  0  0  0  0  0  0  # atno 6907 bound_to 6896
  150.7110  134.0891  159.3934 H   0  0  0  0  0  0  0  0  0  0  0  0  # atno 6908 bound_to 6896
  151.8809  135.0454  160.0539 H   0  0  0  0  0  0  0  0  0  0  0  0  # atno 6909 bound_to 6896
  146.1487  139.6527  142.9114 H   0  0  0  0  0  0  0  0  0  0  0  0  # atno 7974 bound_to 7965
  156.1645  140.3133  155.8864 H   0  0  0  0  0  0  0  0  0  0  0  0  # atno 8008 bound_to 7997
  155.3715  140.0482  157.3062 H   0  0  0  0  0  0  0  0  0  0  0  0  # atno 8009 bound_to 7997
  154.5179  140.2188  155.9043 H   0  0  0  0  0  0  0  0  0  0  0  0  # atno 8010 bound_to 7997
  140.4951  144.0405  150.6311 H   0  0  0  0  0  0  0  0  0  0  0  0  # atno 10167 bound_to 10162
  156.5622  130.8652  151.2813 H   0  0  0  0  0  0  0  0  0  0  0  0  # atno 10718 bound_to 10713
  153.0057  135.6291  154.2066 H   0  0  0  0  0  0  0  0  0  0  0  0  # atno 10763 bound_to 10752
  154.1810  135.2813  155.3054 H   0  0  0  0  0  0  0  0  0  0  0  0  # atno 10764 bound_to 10752
  154.5835  135.5640  153.7268 H   0  0  0  0  0  0  0  0  0  0  0  0  # atno 10765 bound_to 10752
  140.0493  134.9264  157.0987 H   0  0  0  0  0  0  0  0  0  0  0  0  # atno 11005 bound_to 11000
  145.4876  141.0438  143.2611 LP  0  0  0  0  0  0  0  0  0  0  0  0  # atno 17320 bound_to 7965
  144.7877  139.6393  143.7127 LP  0  0  0  0  0  0  0  0  0  0  0  0  # atno 17321 bound_to 7965
  140.3685  143.2868  152.0304 LP  0  0  0  0  0  0  0  0  0  0  0  0  # atno 17342 bound_to 10162
  139.4859  144.6248  151.7185 LP  0  0  0  0  0  0  0  0  0  0  0  0  # atno 17343 bound_to 10162
  157.7366  130.9782  150.2146 LP  0  0  0  0  0  0  0  0  0  0  0  0  # atno 17370 bound_to 10713
  156.2789  130.3731  149.7955 LP  0  0  0  0  0  0  0  0  0  0  0  0  # atno 17371 bound_to 10713
  140.3943  134.2150  155.7165 LP  0  0  0  0  0  0  0  0  0  0  0  0  # atno 17394 bound_to 11000
  141.1922  133.8178  157.0848 LP  0  0  0  0  0  0  0  0  0  0  0  0  # atno 17395 bound_to 11000

$$$$
