AV-unprocessed.smi:3232|AV-procd|sdf|12346|dock4
  -GOLD-   2272018213D 1   1.00000     0.00000
 Structure written by MMmdl.
 40 41  0  0  0  0  0  0  0  0  2 V2000
  146.5431  133.2086  150.6916 C   0  0  0  0  0  0  0  0  0  0  0  0
  146.0522  133.8461  151.9983 C   0  0  0  0  0  0  0  0  0  0  0  0
  146.3190  135.3038  152.0445 N   0  3  1  0  0  0  0  0  0  0  0  0
  145.9196  136.0455  150.8293 C   0  0  0  0  0  0  0  0  0  0  0  0
  145.7193  137.4829  151.2914 C   0  0  0  0  0  0  0  0  0  0  0  0
  145.1149  137.3084  152.6791 C   0  0  0  0  0  0  0  0  0  0  0  0
  145.7255  135.9983  153.2158 C   0  0  2  0  0  0  0  0  0  0  0  0
  146.7983  136.2149  154.3037 C   0  0  0  0  0  0  0  0  0  0  0  0
  147.7715  137.2370  153.9347 N   0  0  0  0  0  0  0  0  0  0  0  0
  148.0604  138.3273  154.6618 C   0  0  0  0  0  0  0  0  0  0  0  0
  147.5196  138.5781  155.7396 O   0  0  0  0  0  0  0  0  0  0  0  0
  149.1229  139.2696  154.0773 C   0  0  1  0  0  0  0  0  0  0  0  0
  148.8989  140.7391  154.4791 C   0  0  0  0  0  0  0  0  0  0  0  0
  150.4548  138.8177  154.4527 N   0  0  0  0  0  0  0  0  0  0  0  0
  151.0512  137.6308  154.3078 C   0  0  0  0  0  0  0  0  0  0  0  0
  152.2956  137.5962  154.7629 N   0  0  0  0  0  0  0  0  0  0  0  0
  152.4129  138.8837  155.2039 C   0  0  0  0  0  0  0  0  0  0  0  0
  151.3409  139.6585  155.0381 N   0  0  0  0  0  0  0  0  0  0  0  0
  146.3794  132.1309  150.7038 H   0  0  0  0  0  0  0  0  0  0  0  0
  147.6100  133.3794  150.5459 H   0  0  0  0  0  0  0  0  0  0  0  0
  146.0166  133.6084  149.8250 H   0  0  0  0  0  0  0  0  0  0  0  0
  144.9872  133.6559  152.1386 H   0  0  0  0  0  0  0  0  0  0  0  0
  146.5677  133.3692  152.8329 H   0  0  0  0  0  0  0  0  0  0  0  0
  146.6679  135.9640  150.0404 H   0  0  0  0  0  0  0  0  0  0  0  0
  144.9772  135.6510  150.4454 H   0  0  0  0  0  0  0  0  0  0  0  0
  146.6832  137.9884  151.3662 H   0  0  0  0  0  0  0  0  0  0  0  0
  145.0841  138.0614  150.6199 H   0  0  0  0  0  0  0  0  0  0  0  0
  145.2942  138.1739  153.3175 H   0  0  0  0  0  0  0  0  0  0  0  0
  144.0338  137.1929  152.5889 H   0  0  0  0  0  0  0  0  0  0  0  0
  144.9158  135.3913  153.6252 H   0  0  0  0  0  0  0  0  0  0  0  0
  146.3298  136.4871  155.2512 H   0  0  0  0  0  0  0  0  0  0  0  0
  147.3391  135.2853  154.4848 H   0  0  0  0  0  0  0  0  0  0  0  0
  148.2688  137.1035  153.0656 H   0  0  0  0  0  0  0  0  0  0  0  0
  149.0431  139.2167  152.9894 H   0  0  0  0  0  0  0  0  0  0  0  0
  147.9002  141.0770  154.2000 H   0  0  0  0  0  0  0  0  0  0  0  0
  149.6153  141.3903  153.9776 H   0  0  0  0  0  0  0  0  0  0  0  0
  149.0136  140.8895  155.5534 H   0  0  0  0  0  0  0  0  0  0  0  0
  150.5664  136.7766  153.8579 H   0  0  0  0  0  0  0  0  0  0  0  0
  153.3166  139.2623  155.6582 H   0  0  0  0  0  0  0  0  0  0  0  0
  147.3178  135.4240  152.1340 H   0  0  0  0  0  0  0  0  0  0  0  0
  1  2  1  0  0  0  0
  1 19  1  0  0  0  0
  1 20  1  0  0  0  0
  1 21  1  0  0  0  0
  2  3  1  0  0  0  0
  2 22  1  0  0  0  0
  2 23  1  0  0  0  0
  3  7  1  0  0  0  0
  3  4  1  0  0  0  0
  3 40  1  0  0  0  0
  4  5  1  0  0  0  0
  4 24  1  0  0  0  0
  4 25  1  0  0  0  0
  5  6  1  0  0  0  0
  5 26  1  0  0  0  0
  5 27  1  0  0  0  0
  6  7  1  0  0  0  0
  6 28  1  0  0  0  0
  6 29  1  0  0  0  0
  7  8  1  0  0  0  0
  7 30  1  0  0  0  0
  8  9  1  0  0  0  0
  8 31  1  0  0  0  0
  8 32  1  0  0  0  0
  9 10  1  0  0  0  0
  9 33  1  0  0  0  0
 10 11  2  0  0  0  0
 10 12  1  0  0  0  0
 12 13  1  0  0  0  0
 12 14  1  0  0  0  0
 12 34  1  0  0  0  0
 13 35  1  0  0  0  0
 13 36  1  0  0  0  0
 13 37  1  0  0  0  0
 14 18  1  0  0  0  0
 14 15  1  0  0  0  0
 15 16  2  0  0  0  0
 15 38  1  0  0  0  0
 16 17  1  0  0  0  0
 17 18  2  0  0  0  0
 17 39  1  0  0  0  0
M  CHG  1   3   1
M  END
> <s_m_source_file>
AV-unprocessed.smi

> <i_m_source_file_index>
3232

> <i_lp_mmshare_version>
43012

> <i_f3d_flags>
0

> <s_epik_input>
W0NIM11bQ0gyXU4xW0NIMl1bQ0gyXVtDSDJdW0NASF0xW0NIMl1bTkhdQyg9TylbQ0BIXShbQ0gzXSluMltjSF1uW2NIXW4y

> <s_epik_cmdline>
J2VwaWtfcHl0aG9uJywgJy1waCcsICc3LjAnLCAnLXRuJywgJzgnLCAnLW1hJywgJzIwMCcsICctbWV0YWxfYmluZGluZycsICctaW1hZScsICc8aW5maWxlLm1hZT4nLCAnLW9tYWUnLCAnPG91dGZpbGUubWFlPic=

> <r_lp_tautomer_probability>
1

> <r_epik_Ionization_Penalty>
0.00177695

> <r_epik_Ionization_Penalty_Charging>
0.00176881

> <r_epik_Ionization_Penalty_Neutral>
8.13528e-06

> <r_epik_State_Penalty>
0.00119827

> <r_epik_Charging_Adjusted_Penalty>
0.00296709

> <i_epik_Tot_Q>
1

> <i_epik_Tot_abs_Q>
1

> <r_epik_Metal_State_Penalty>
-0

> <b_epik_Metal_Only>
0

> <s_lp_Force_Field>
OPLS_2005

> <r_lp_Energy>
32.5075

> <b_lp_Chiralities_Consistent>
1

> <s_lp_Variant>
AV-unprocessed.smi:3232-8

> <Gold.Version>
5.8.1

> <Gold.Id.Protein>
6NUR|6NUR_protein|mol2

> <Gold.PLP.Fitness>
44.3814

> <Gold.PLP.PLP>
-29.1474

> <Gold.PLP.part.hbond>
-4.0000

> <Gold.PLP.part.metal>
0.0000

> <Gold.PLP.part.buried>
1.4679

> <Gold.PLP.part.nonpolar>
-27.6433

> <Gold.PLP.part.repulsive>
0.1671

> <Gold.PLP.ligand.clash>
0.0000

> <Gold.PLP.ligand.torsion>
0.9133

> <Gold.PLP.Chemscore.Hbond>
4.6661

> <Gold.PLP.Chemscore.CHOScore>
0.9670

> <Gold.PLP.Chemscore.Metal>
0.0000

> <Gold.Chemscore.Hbonds>
donor molecule, donor type, donor heavy atom, donor atom, acceptor molecule, acceptor atom, score
      L1  H     3    40       P1  7948  2.00
      L1  H     9    33       P1  7948  1.00
      P1  H  7989  7998       L1    18  0.90
      P1  H 10752 10763       L1    16  0.59
      L1  C    15    38       P1  7948  0.50
      L1  C    15    38       P1  7949  0.44

> <Gold.PLP.Chemscore.Internal.Correction>
0.1611

> <Gold.Rescore>
     Score         DG    S(hbond)    S(metal)    S(lipo)     H(rot)  DE(clash)    DE(int)     intcor
     14.88     -17.85       3.80        0.00      51.60       2.49       1.49       1.49       ----

> <Gold.Chemscore.Fitness>
14.8774

> <Gold.Chemscore.DG>
-17.8520

> <Gold.Chemscore.ZeroCoef>
-5.4800

> <Gold.Chemscore.Hbond>
3.8036

> <Gold.Chemscore.Metal>
0.0000

> <Gold.Chemscore.Lipo>
51.6046

> <Gold.Chemscore.Internal_Hbond>
0.0000

> <Gold.Chemscore.DEClash>
1.4866

> <Gold.Chemscore.DEInternal>
1.4880

> <Gold.Chemscore.Rot>
2.4882

> <Gold.Chemscore.Internal.Correction>
   9.000000E+99

> <Gold.Chemscore.Hbonds>
donor molecule, donor type, donor heavy atom, donor atom, acceptor molecule, acceptor atom, score
      L1  H     3    40       P1  7948  0.98
      L1  H     9    33       P1  7948  0.98
      P1  H  7989  7998       L1    18  0.12
      P1  H 10752 10763       L1    16  0.29

> <Gold.Chemscore.Hbond.Weighted>
-12.7040

> <Gold.Chemscore.Metal.Weighted>
-0.0000

> <Gold.Chemscore.Lipo.Weighted>
-6.0377

> <Gold.Chemscore.Internal_Hbond.Weighted>
0.0000

> <Gold.Chemscore.DEClash.Weighted>
1.4866

> <Gold.Chemscore.DEInternal.Weighted>
1.4880

> <Gold.Chemscore.Rot.Weighted>
6.3697

> <Gold.Chemscore.Internal.Correction.Weighted>
   9.000000E+99

> <Gold.Protein.RotatedTorsions>
[ 6907 6896 6895 6894 ] final -148.56 input  -60.11 | X-H torsion
[ 7974 7965 7964 7962 ] final  112.46 input  175.53 | X-H torsion
[ 8008 7997 7996 7995 ] final   88.35 input   59.86 | X-H torsion
[ 10167 10162 10161 10158 ] final -160.32 input  -65.29 | X-H torsion
[ 10718 10713 10712 10709 ] final   36.62 input   66.30 | X-H torsion
[ 10763 10752 10751 10750 ] final   47.05 input  -60.55 | X-H torsion
[ 11005 11000 10999 10996 ] final  -20.65 input  -57.11 | X-H torsion

> <Gold.Protein.ActiveResidues>
 VAL166  LYS551  ARG553  GLY616  TRP617  ASP618  TYR619  PRO620  LYS621  CYS622 
 ASP623  PHE694  ASN695  SER759  ASP760  ASP761  ALA762  ILE779  LEU786  VAL792 
 PHE793  MET794  SER795  GLU796  ALA797  LYS798  CYS799  TRP800  GLU811  SER814 

> <Gold.Protein.RotatedAtoms>
  151.1716  133.4781  159.2593 H   0  0  0  0  0  0  0  0  0  0  0  0  # atno 6907 bound_to 6896
  151.1350  135.0150  159.8610 H   0  0  0  0  0  0  0  0  0  0  0  0  # atno 6908 bound_to 6896
  152.5461  134.1615  159.8612 H   0  0  0  0  0  0  0  0  0  0  0  0  # atno 6909 bound_to 6896
  145.2293  139.2827  143.4177 H   0  0  0  0  0  0  0  0  0  0  0  0  # atno 7974 bound_to 7965
  155.9867  140.3372  155.6714 H   0  0  0  0  0  0  0  0  0  0  0  0  # atno 8008 bound_to 7997
  155.6476  140.0702  157.2616 H   0  0  0  0  0  0  0  0  0  0  0  0  # atno 8009 bound_to 7997
  154.4207  140.1731  156.1627 H   0  0  0  0  0  0  0  0  0  0  0  0  # atno 8010 bound_to 7997
  139.6548  144.0018  152.2186 H   0  0  0  0  0  0  0  0  0  0  0  0  # atno 10167 bound_to 10162
  157.3371  130.7528  149.6887 H   0  0  0  0  0  0  0  0  0  0  0  0  # atno 10718 bound_to 10713
  152.9804  135.5988  154.3700 H   0  0  0  0  0  0  0  0  0  0  0  0  # atno 10763 bound_to 10752
  154.3374  135.2768  155.2442 H   0  0  0  0  0  0  0  0  0  0  0  0  # atno 10764 bound_to 10752
  154.4539  135.5983  153.6265 H   0  0  0  0  0  0  0  0  0  0  0  0  # atno 10765 bound_to 10752
  140.8485  133.7874  155.9939 H   0  0  0  0  0  0  0  0  0  0  0  0  # atno 11005 bound_to 11000
  146.3357  140.2622  142.8602 LP  0  0  0  0  0  0  0  0  0  0  0  0  # atno 17320 bound_to 7965
  144.9692  140.8352  143.5466 LP  0  0  0  0  0  0  0  0  0  0  0  0  # atno 17321 bound_to 7965
  139.9742  144.6473  150.7961 LP  0  0  0  0  0  0  0  0  0  0  0  0  # atno 17342 bound_to 10162
  140.7554  143.3046  151.2994 LP  0  0  0  0  0  0  0  0  0  0  0  0  # atno 17343 bound_to 10162
  155.9703  130.4178  150.4298 LP  0  0  0  0  0  0  0  0  0  0  0  0  # atno 17370 bound_to 10713
  157.2339  131.0510  151.2476 LP  0  0  0  0  0  0  0  0  0  0  0  0  # atno 17371 bound_to 10713
  140.8816  134.2604  157.5141 LP  0  0  0  0  0  0  0  0  0  0  0  0  # atno 17394 bound_to 11000
  139.8704  134.9618  156.4408 LP  0  0  0  0  0  0  0  0  0  0  0  0  # atno 17395 bound_to 11000

$$$$
