AV-unprocessed.smi:882|AV-procd|sdf|4037|dock4
  -GOLD-   22720 1533D 1   1.00000     0.00000
 Structure written by MMmdl.
 33 34  0  0  0  0  0  0  0  0  1 V2000
  155.3608  135.0453  164.4410 C   0  0  0  0  0  0  0  0  0  0  0  0
  155.2350  135.2490  163.2436 C   0  0  0  0  0  0  0  0  0  0  0  0
  155.0801  135.4785  161.7971 C   0  0  0  0  0  0  0  0  0  0  0  0
  154.6923  136.8489  161.4831 N   0  0  0  0  0  0  0  0  0  0  0  0
  153.8158  137.2110  160.5308 C   0  0  0  0  0  0  0  0  0  0  0  0
  153.2520  136.4102  159.7846 O   0  0  0  0  0  0  0  0  0  0  0  0
  153.5994  138.6887  160.3769 C   0  0  0  0  0  0  0  0  0  0  0  0
  154.4707  139.6331  160.9624 C   0  0  0  0  0  0  0  0  0  0  0  0
  154.2016  141.0059  160.8029 C   0  0  0  0  0  0  0  0  0  0  0  0
  153.0595  141.4064  160.0698 C   0  0  0  0  0  0  0  0  0  0  0  0
  152.7684  142.7775  159.8992 N   0  0  0  0  0  0  0  0  0  0  0  0
  152.5503  143.5363  161.1284 C   0  0  0  0  0  0  0  0  0  0  0  0
  152.5488  145.0463  160.8338 C   0  0  0  0  0  0  0  0  0  0  0  0
  151.5887  145.3402  159.8247 O   0  0  0  0  0  0  0  0  0  0  0  0
  151.8878  144.6778  158.6009 C   0  0  0  0  0  0  0  0  0  0  0  0
  151.8612  143.1554  158.8170 C   0  0  0  0  0  0  0  0  0  0  0  0
  152.2220  140.4972  159.5126 N   0  0  0  0  0  0  0  0  0  0  0  0
  152.4827  139.1822  159.6693 C   0  0  0  0  0  0  0  0  0  0  0  0
  155.4680  134.8658  165.4871 H   0  0  0  0  0  0  0  0  0  0  0  0
  156.0362  135.2651  161.3194 H   0  0  0  0  0  0  0  0  0  0  0  0
  154.3578  134.7615  161.4040 H   0  0  0  0  0  0  0  0  0  0  0  0
  155.1237  137.5791  162.0309 H   0  0  0  0  0  0  0  0  0  0  0  0
  155.3369  139.3220  161.5284 H   0  0  0  0  0  0  0  0  0  0  0  0
  154.8770  141.7302  161.2329 H   0  0  0  0  0  0  0  0  0  0  0  0
  151.5926  143.2398  161.5581 H   0  0  0  0  0  0  0  0  0  0  0  0
  153.3120  143.3235  161.8768 H   0  0  0  0  0  0  0  0  0  0  0  0
  152.2966  145.6040  161.7357 H   0  0  0  0  0  0  0  0  0  0  0  0
  153.5383  145.3817  160.5186 H   0  0  0  0  0  0  0  0  0  0  0  0
  151.1485  144.9633  157.8526 H   0  0  0  0  0  0  0  0  0  0  0  0
  152.8607  145.0011  158.2274 H   0  0  0  0  0  0  0  0  0  0  0  0
  152.1477  142.6550  157.8911 H   0  0  0  0  0  0  0  0  0  0  0  0
  150.8491  142.8316  159.0640 H   0  0  0  0  0  0  0  0  0  0  0  0
  151.7757  138.5083  159.2073 H   0  0  0  0  0  0  0  0  0  0  0  0
  1  2  3  0  0  0  0
  1 19  1  0  0  0  0
  2  3  1  0  0  0  0
  3  4  1  0  0  0  0
  3 20  1  0  0  0  0
  3 21  1  0  0  0  0
  4  5  1  0  0  0  0
  4 22  1  0  0  0  0
  5  6  2  0  0  0  0
  5  7  1  0  0  0  0
  7 18  1  0  0  0  0
  7  8  2  0  0  0  0
  8  9  1  0  0  0  0
  8 23  1  0  0  0  0
  9 10  2  0  0  0  0
  9 24  1  0  0  0  0
 10 11  1  0  0  0  0
 10 17  1  0  0  0  0
 11 16  1  0  0  0  0
 11 12  1  0  0  0  0
 12 13  1  0  0  0  0
 12 25  1  0  0  0  0
 12 26  1  0  0  0  0
 13 14  1  0  0  0  0
 13 27  1  0  0  0  0
 13 28  1  0  0  0  0
 14 15  1  0  0  0  0
 15 16  1  0  0  0  0
 15 29  1  0  0  0  0
 15 30  1  0  0  0  0
 16 31  1  0  0  0  0
 16 32  1  0  0  0  0
 17 18  2  0  0  0  0
 18 33  1  0  0  0  0
M  END
> <s_m_source_file>
AV-unprocessed.smi

> <i_m_source_file_index>
882

> <i_lp_mmshare_version>
43012

> <i_f3d_flags>
0

> <s_epik_input>
W0NIXSNDW0NIMl1bTkhdQyg9TyljMVtjSF1bY0hdYyhuW2NIXTEpTjJbQ0gyXVtDSDJdT1tDSDJdW0NIMl0y

> <s_epik_cmdline>
J2VwaWtfcHl0aG9uJywgJy1waCcsICc3LjAnLCAnLXRuJywgJzgnLCAnLW1hJywgJzIwMCcsICctbWV0YWxfYmluZGluZycsICctaW1hZScsICc8aW5maWxlLm1hZT4nLCAnLW9tYWUnLCAnPG91dGZpbGUubWFlPic=

> <r_lp_tautomer_probability>
1

> <r_epik_Ionization_Penalty>
1.53095e-05

> <r_epik_Ionization_Penalty_Charging>
0

> <r_epik_Ionization_Penalty_Neutral>
1.53095e-05

> <r_epik_State_Penalty>
-0

> <r_epik_Charging_Adjusted_Penalty>
0

> <i_epik_Tot_Q>
0

> <i_epik_Tot_abs_Q>
0

> <r_epik_Metal_State_Penalty>
-0

> <b_epik_Metal_Only>
0

> <s_lp_Force_Field>
OPLS_2005

> <r_lp_Energy>
17.8132

> <b_lp_Chiralities_Consistent>
1

> <s_lp_Variant>
AV-unprocessed.smi:882-1

> <Gold.Version>
5.8.1

> <Gold.Id.Protein>
6NUR|6NUR_protein|mol2

> <Gold.PLP.Fitness>
39.1939

> <Gold.PLP.PLP>
-36.9169

> <Gold.PLP.part.hbond>
-1.0000

> <Gold.PLP.part.metal>
0.0000

> <Gold.PLP.part.buried>
-6.3065

> <Gold.PLP.part.nonpolar>
-29.6453

> <Gold.PLP.part.repulsive>
0.1408

> <Gold.PLP.ligand.clash>
0.0000

> <Gold.PLP.ligand.torsion>
0.5307

> <Gold.PLP.Chemscore.Hbond>
1.0000

> <Gold.PLP.Chemscore.CHOScore>
0.0000

> <Gold.PLP.Chemscore.Metal>
0.0000

> <Gold.Chemscore.Hbonds>
donor molecule, donor type, donor heavy atom, donor atom, acceptor molecule, acceptor atom, score
      P1  H  6896  6909       L1     6  1.00

> <Gold.PLP.Chemscore.Internal.Correction>
0.3384

> <Gold.Rescore>
     Score         DG    S(hbond)    S(metal)    S(lipo)     H(rot)  DE(clash)    DE(int)     intcor
     16.67     -17.08       1.00        0.00      96.73       1.19       0.00       0.41       ----

> <Gold.Chemscore.Fitness>
16.6723

> <Gold.Chemscore.DG>
-17.0779

> <Gold.Chemscore.ZeroCoef>
-5.4800

> <Gold.Chemscore.Hbond>
0.9951

> <Gold.Chemscore.Metal>
0.0000

> <Gold.Chemscore.Lipo>
96.7310

> <Gold.Chemscore.Internal_Hbond>
0.0000

> <Gold.Chemscore.DEClash>
0.0004

> <Gold.Chemscore.DEInternal>
0.4052

> <Gold.Chemscore.Rot>
1.1887

> <Gold.Chemscore.Internal.Correction>
   9.000000E+99

> <Gold.Chemscore.Hbonds>
donor molecule, donor type, donor heavy atom, donor atom, acceptor molecule, acceptor atom, score
      P1  H  6896  6909       L1     6  1.00

> <Gold.Chemscore.Hbond.Weighted>
-3.3235

> <Gold.Chemscore.Metal.Weighted>
-0.0000

> <Gold.Chemscore.Lipo.Weighted>
-11.3175

> <Gold.Chemscore.Internal_Hbond.Weighted>
0.0000

> <Gold.Chemscore.DEClash.Weighted>
0.0004

> <Gold.Chemscore.DEInternal.Weighted>
0.4052

> <Gold.Chemscore.Rot.Weighted>
3.0432

> <Gold.Chemscore.Internal.Correction.Weighted>
   9.000000E+99

> <Gold.Protein.RotatedTorsions>
[ 6907 6896 6895 6894 ] final  160.98 input  -60.11 | X-H torsion
[ 7974 7965 7964 7962 ] final   34.67 input  175.53 | X-H torsion
[ 8008 7997 7996 7995 ] final  -69.97 input   59.86 | X-H torsion
[ 10167 10162 10161 10158 ] final  -29.31 input  -65.29 | X-H torsion
[ 10718 10713 10712 10709 ] final  -43.29 input   66.30 | X-H torsion
[ 10763 10752 10751 10750 ] final   -4.21 input  -60.55 | X-H torsion
[ 11005 11000 10999 10996 ] final -116.07 input  -57.11 | X-H torsion

> <Gold.Protein.ActiveResidues>
 VAL166  LYS551  ARG553  GLY616  TRP617  ASP618  TYR619  PRO620  LYS621  CYS622 
 ASP623  PHE694  ASN695  SER759  ASP760  ASP761  ALA762  ILE779  LEU786  VAL792 
 PHE793  MET794  SER795  GLU796  ALA797  LYS798  CYS799  TRP800  GLU811  SER814 

> <Gold.Protein.RotatedAtoms>
  151.9624  133.3699  159.4040 H   0  0  0  0  0  0  0  0  0  0  0  0  # atno 6907 bound_to 6896
  150.6962  134.4226  159.5221 H   0  0  0  0  0  0  0  0  0  0  0  0  # atno 6908 bound_to 6896
  152.1917  134.8666  160.0567 H   0  0  0  0  0  0  0  0  0  0  0  0  # atno 6909 bound_to 6896
  146.1337  139.6240  142.9209 H   0  0  0  0  0  0  0  0  0  0  0  0  # atno 7974 bound_to 7965
  154.4977  140.0843  156.7732 H   0  0  0  0  0  0  0  0  0  0  0  0  # atno 8008 bound_to 7997
  155.4076  140.3440  155.4243 H   0  0  0  0  0  0  0  0  0  0  0  0  # atno 8009 bound_to 7997
  156.1416  140.1531  156.8899 H   0  0  0  0  0  0  0  0  0  0  0  0  # atno 8010 bound_to 7997
  140.7262  143.3939  151.1382 H   0  0  0  0  0  0  0  0  0  0  0  0  # atno 10167 bound_to 10162
  156.2506  130.4187  149.8654 H   0  0  0  0  0  0  0  0  0  0  0  0  # atno 10718 bound_to 10713
  153.3818  135.6998  153.6560 H   0  0  0  0  0  0  0  0  0  0  0  0  # atno 10763 bound_to 10752
  153.5168  135.3620  155.2613 H   0  0  0  0  0  0  0  0  0  0  0  0  # atno 10764 bound_to 10752
  154.8693  135.4148  154.3117 H   0  0  0  0  0  0  0  0  0  0  0  0  # atno 10765 bound_to 10752
  141.0446  133.9782  157.2938 H   0  0  0  0  0  0  0  0  0  0  0  0  # atno 11005 bound_to 11000
  145.5204  141.0432  143.2438 LP  0  0  0  0  0  0  0  0  0  0  0  0  # atno 17320 bound_to 7965
  144.7717  139.6720  143.7192 LP  0  0  0  0  0  0  0  0  0  0  0  0  # atno 17321 bound_to 7965
  139.7548  143.8723  152.3086 LP  0  0  0  0  0  0  0  0  0  0  0  0  # atno 17342 bound_to 10162
  139.8589  144.7127  150.9123 LP  0  0  0  0  0  0  0  0  0  0  0  0  # atno 17343 bound_to 10162
  156.6204  130.8624  151.3474 LP  0  0  0  0  0  0  0  0  0  0  0  0  # atno 17370 bound_to 10713
  157.7213  130.9562  150.1449 LP  0  0  0  0  0  0  0  0  0  0  0  0  # atno 17371 bound_to 10713
  139.9302  135.0200  156.8374 LP  0  0  0  0  0  0  0  0  0  0  0  0  # atno 17394 bound_to 11000
  140.6170  134.0029  155.7601 LP  0  0  0  0  0  0  0  0  0  0  0  0  # atno 17395 bound_to 11000

$$$$
