AV-unprocessed.smi:1550|AV-procd|sdf|6230|dock5
  -GOLD-   22720 6413D 1   1.00000     0.00000
 Structure written by MMmdl.
 42 43  0  0  0  0  0  0  0  0  2 V2000
  148.6146  138.6962  157.1111 C   0  0  0  0  0  0  0  0  0  0  0  0
  149.4564  138.4761  158.3768 C   0  0  2  0  0  0  0  0  0  0  0  0
  150.8239  138.6501  158.0184 O   0  0  0  0  0  0  0  0  0  0  0  0
  151.1171  139.8379  157.2897 C   0  0  0  0  0  0  0  0  0  0  0  0
  151.9657  140.7794  158.1551 C   0  0  1  0  0  0  0  0  0  0  0  0
  151.1777  141.9998  158.6725 C   0  0  0  0  0  0  0  0  0  0  0  0
  152.0673  142.8692  159.5679 C   0  0  0  0  0  0  0  0  0  0  0  0
  152.6964  142.0037  160.6656 C   0  0  0  0  0  0  0  0  0  0  0  0
  153.4112  140.7900  160.0489 C   0  0  0  0  0  0  0  0  0  0  0  0
  152.5033  140.0385  159.2487 O   0  0  0  0  0  0  0  0  0  0  0  0
  149.2363  137.0715  158.9622 C   0  0  0  0  0  0  0  0  0  0  0  0
  149.8905  136.1263  158.5228 O   0  0  0  0  0  0  0  0  0  0  0  0
  148.3184  136.9987  159.9463 N   0  0  0  0  0  0  0  0  0  0  0  0
  147.8882  135.8989  160.7096 C   0  0  0  0  0  0  0  0  0  0  0  0
  148.1171  134.5908  160.4050 C   0  0  0  0  0  0  0  0  0  0  0  0
  147.6407  133.4987  161.2451 C   0  0  0  0  0  0  0  0  0  0  0  0
  147.9416  132.0347  160.9757 C   0  0  0  0  0  0  0  0  0  0  0  0
  148.6835  131.5098  161.9512 F   0  0  0  0  0  0  0  0  0  0  0  0
  146.8046  131.3443  160.9013 F   0  0  0  0  0  0  0  0  0  0  0  0
  148.5950  131.8847  159.8234 F   0  0  0  0  0  0  0  0  0  0  0  0
  146.9755  133.9520  162.3676 C   0  0  0  0  0  0  0  0  0  0  0  0
  146.6989  135.2215  162.7374 N   0  5  0  0  0  0  0  0  0  0  0  0
  147.1402  136.2345  161.9396 C   0  0  0  0  0  0  0  0  0  0  0  0
  146.9286  137.4144  162.2226 O   0  0  0  0  0  0  0  0  0  0  0  0
  147.5520  138.5552  157.3127 H   0  0  0  0  0  0  0  0  0  0  0  0
  148.8993  138.0090  156.3133 H   0  0  0  0  0  0  0  0  0  0  0  0
  148.7460  139.7101  156.7328 H   0  0  0  0  0  0  0  0  0  0  0  0
  149.1729  139.2346  159.1093 H   0  0  0  0  0  0  0  0  0  0  0  0
  151.6519  139.5915  156.3714 H   0  0  0  0  0  0  0  0  0  0  0  0
  150.1996  140.3518  157.0017 H   0  0  0  0  0  0  0  0  0  0  0  0
  152.7982  141.1298  157.5424 H   0  0  0  0  0  0  0  0  0  0  0  0
  150.7975  142.5876  157.8364 H   0  0  0  0  0  0  0  0  0  0  0  0
  150.3083  141.6694  159.2424 H   0  0  0  0  0  0  0  0  0  0  0  0
  152.8527  143.3313  158.9685 H   0  0  0  0  0  0  0  0  0  0  0  0
  151.4879  143.6815  160.0075 H   0  0  0  0  0  0  0  0  0  0  0  0
  153.3972  142.5944  161.2563 H   0  0  0  0  0  0  0  0  0  0  0  0
  151.9209  141.6597  161.3511 H   0  0  0  0  0  0  0  0  0  0  0  0
  154.2642  141.1067  159.4469 H   0  0  0  0  0  0  0  0  0  0  0  0
  153.8010  140.1457  160.8369 H   0  0  0  0  0  0  0  0  0  0  0  0
  147.8495  137.8632  160.1755 H   0  0  0  0  0  0  0  0  0  0  0  0
  148.6690  134.3103  159.5243 H   0  0  0  0  0  0  0  0  0  0  0  0
  146.6138  133.1776  163.0774 H   0  0  0  0  0  0  0  0  0  0  0  0
  1  2  1  0  0  0  0
  1 25  1  0  0  0  0
  1 26  1  0  0  0  0
  1 27  1  0  0  0  0
  2  3  1  0  0  0  0
  2 11  1  0  0  0  0
  2 28  1  0  0  0  0
  3  4  1  0  0  0  0
  4  5  1  0  0  0  0
  4 29  1  0  0  0  0
  4 30  1  0  0  0  0
  5 10  1  0  0  0  0
  5  6  1  0  0  0  0
  5 31  1  0  0  0  0
  6  7  1  0  0  0  0
  6 32  1  0  0  0  0
  6 33  1  0  0  0  0
  7  8  1  0  0  0  0
  7 34  1  0  0  0  0
  7 35  1  0  0  0  0
  8  9  1  0  0  0  0
  8 36  1  0  0  0  0
  8 37  1  0  0  0  0
  9 10  1  0  0  0  0
  9 38  1  0  0  0  0
  9 39  1  0  0  0  0
 11 12  2  0  0  0  0
 11 13  1  0  0  0  0
 13 14  1  0  0  0  0
 13 40  1  0  0  0  0
 14 23  1  0  0  0  0
 14 15  2  0  0  0  0
 15 16  1  0  0  0  0
 15 41  1  0  0  0  0
 16 17  1  0  0  0  0
 16 21  2  0  0  0  0
 17 18  1  0  0  0  0
 17 19  1  0  0  0  0
 17 20  1  0  0  0  0
 21 22  1  0  0  0  0
 21 42  1  0  0  0  0
 22 23  1  0  0  0  0
 23 24  2  0  0  0  0
M  CHG  1  22  -1
M  END
> <s_m_source_file>
AV-unprocessed.smi

> <i_m_source_file_index>
1550

> <i_lp_mmshare_version>
43012

> <i_f3d_flags>
0

> <s_epik_input>
TzFbQ0gyXVtDSDJdW0NIMl1bQ0gyXVtDQEhdMVtDSDJdT1tDQEBIXShbQ0gzXSlDKD1PKVtOSF1jMltjSF1jKEMoRikoRilGKVtjSF1bbkhdYzI9Tw==

> <s_epik_cmdline>
J2VwaWtfcHl0aG9uJywgJy1waCcsICc3LjAnLCAnLXRuJywgJzgnLCAnLW1hJywgJzIwMCcsICctbWV0YWxfYmluZGluZycsICctaW1hZScsICc8aW5maWxlLm1hZT4nLCAnLW9tYWUnLCAnPG91dGZpbGUubWFlPic=

> <r_epik_Ionization_Penalty>
2.54933

> <r_epik_Ionization_Penalty_Charging>
0.0583423

> <r_epik_Ionization_Penalty_Neutral>
2.49099

> <r_epik_State_Penalty>
2.65532

> <r_epik_Charging_Adjusted_Penalty>
2.71366

> <i_epik_Tot_Q>
-1

> <i_epik_Tot_abs_Q>
1

> <r_epik_Metal_State_Penalty>
0.516364

> <b_epik_Metal_Only>
0

> <s_lp_Force_Field>
OPLS_2005

> <r_lp_Energy>
26.7738

> <b_lp_Chiralities_Consistent>
1

> <s_lp_Variant>
AV-unprocessed.smi:1550-7

> <Gold.Version>
5.8.1

> <Gold.Id.Protein>
6NUR|6NUR_protein|mol2

> <Gold.PLP.Fitness>
45.7875

> <Gold.PLP.PLP>
-42.6223

> <Gold.PLP.part.hbond>
-3.0000

> <Gold.PLP.part.metal>
0.0000

> <Gold.PLP.part.buried>
-6.1961

> <Gold.PLP.part.nonpolar>
-33.6401

> <Gold.PLP.part.repulsive>
0.4576

> <Gold.PLP.ligand.clash>
0.0000

> <Gold.PLP.ligand.torsion>
1.8401

> <Gold.PLP.Chemscore.Hbond>
2.2320

> <Gold.PLP.Chemscore.CHOScore>
0.0000

> <Gold.PLP.Chemscore.Metal>
0.0000

> <Gold.Chemscore.Hbonds>
donor molecule, donor type, donor heavy atom, donor atom, acceptor molecule, acceptor atom, score
      P1  H  6896  6909       L1    12  1.00
      P1  H  6931  6943       L1    24  0.27
      P1  H  6934  6947       L1    24  0.62

> <Gold.PLP.Chemscore.Internal.Correction>
0.1494

> <Gold.Rescore>
     Score         DG    S(hbond)    S(metal)    S(lipo)     H(rot)  DE(clash)    DE(int)     intcor
     14.22     -17.02       1.94        0.00      83.07       1.82       0.00       2.81       ----

> <Gold.Chemscore.Fitness>
14.2190

> <Gold.Chemscore.DG>
-17.0242

> <Gold.Chemscore.ZeroCoef>
-5.4800

> <Gold.Chemscore.Hbond>
1.9442

> <Gold.Chemscore.Metal>
0.0000

> <Gold.Chemscore.Lipo>
83.0674

> <Gold.Chemscore.Internal_Hbond>
0.0000

> <Gold.Chemscore.DEClash>
0.0000

> <Gold.Chemscore.DEInternal>
2.8052

> <Gold.Chemscore.Rot>
1.8236

> <Gold.Chemscore.Internal.Correction>
   9.000000E+99

> <Gold.Chemscore.Hbonds>
donor molecule, donor type, donor heavy atom, donor atom, acceptor molecule, acceptor atom, score
      P1  H  6896  6909       L1    12  0.97
      P1  H  6931  6943       L1    24  0.07
      P1  H  6934  6947       L1    24  0.60

> <Gold.Chemscore.Hbond.Weighted>
-6.4937

> <Gold.Chemscore.Metal.Weighted>
-0.0000

> <Gold.Chemscore.Lipo.Weighted>
-9.7189

> <Gold.Chemscore.Internal_Hbond.Weighted>
0.0000

> <Gold.Chemscore.DEClash.Weighted>
0.0000

> <Gold.Chemscore.DEInternal.Weighted>
2.8052

> <Gold.Chemscore.Rot.Weighted>
4.6684

> <Gold.Chemscore.Internal.Correction.Weighted>
   9.000000E+99

> <Gold.Protein.RotatedTorsions>
[ 6907 6896 6895 6894 ] final   61.29 input  -60.11 | X-H torsion
[ 7974 7965 7964 7962 ] final -106.05 input  175.53 | X-H torsion
[ 8008 7997 7996 7995 ] final   95.50 input   59.86 | X-H torsion
[ 10167 10162 10161 10158 ] final  -17.55 input  -65.29 | X-H torsion
[ 10718 10713 10712 10709 ] final  100.34 input   66.30 | X-H torsion
[ 10763 10752 10751 10750 ] final  -59.99 input  -60.55 | X-H torsion
[ 11005 11000 10999 10996 ] final   14.56 input  -57.11 | X-H torsion

> <Gold.Protein.ActiveResidues>
 VAL166  LYS551  ARG553  GLY616  TRP617  ASP618  TYR619  PRO620  LYS621  CYS622 
 ASP623  PHE694  ASN695  SER759  ASP760  ASP761  ALA762  ILE779  LEU786  VAL792 
 PHE793  MET794  SER795  GLU796  ALA797  LYS798  CYS799  TRP800  GLU811  SER814 

> <Gold.Protein.RotatedAtoms>
  152.4076  134.6180  160.0043 H   0  0  0  0  0  0  0  0  0  0  0  0  # atno 6907 bound_to 6896
  151.6367  133.3323  159.3129 H   0  0  0  0  0  0  0  0  0  0  0  0  # atno 6908 bound_to 6896
  150.7970  134.7077  159.6631 H   0  0  0  0  0  0  0  0  0  0  0  0  # atno 6909 bound_to 6896
  145.2228  140.9141  143.3250 H   0  0  0  0  0  0  0  0  0  0  0  0  # atno 7974 bound_to 7965
  156.0695  140.3285  155.7558 H   0  0  0  0  0  0  0  0  0  0  0  0  # atno 8008 bound_to 7997
  155.5328  140.0595  157.2903 H   0  0  0  0  0  0  0  0  0  0  0  0  # atno 8009 bound_to 7997
  154.4522  140.1924  156.0501 H   0  0  0  0  0  0  0  0  0  0  0  0  # atno 8010 bound_to 7997
  140.7248  143.5004  150.9876 H   0  0  0  0  0  0  0  0  0  0  0  0  # atno 10167 bound_to 10162
  157.6856  131.0695  150.5086 H   0  0  0  0  0  0  0  0  0  0  0  0  # atno 10718 bound_to 10713
  154.2622  135.6306  153.5279 H   0  0  0  0  0  0  0  0  0  0  0  0  # atno 10763 bound_to 10752
  152.9894  135.5590  154.5691 H   0  0  0  0  0  0  0  0  0  0  0  0  # atno 10764 bound_to 10752
  154.5243  135.2884  155.1211 H   0  0  0  0  0  0  0  0  0  0  0  0  # atno 10765 bound_to 10752
  140.4682  134.1058  155.7728 H   0  0  0  0  0  0  0  0  0  0  0  0  # atno 11005 bound_to 11000
  144.9750  139.3841  143.6290 LP  0  0  0  0  0  0  0  0  0  0  0  0  # atno 17320 bound_to 7965
  146.3372  139.8864  142.8816 LP  0  0  0  0  0  0  0  0  0  0  0  0  # atno 17321 bound_to 7965
  139.8713  143.7189  152.3166 LP  0  0  0  0  0  0  0  0  0  0  0  0  # atno 17342 bound_to 10162
  139.7438  144.7552  151.0611 LP  0  0  0  0  0  0  0  0  0  0  0  0  # atno 17343 bound_to 10162
  156.5404  130.4207  149.6157 LP  0  0  0  0  0  0  0  0  0  0  0  0  # atno 17370 bound_to 10713
  156.2990  130.7166  151.2033 LP  0  0  0  0  0  0  0  0  0  0  0  0  # atno 17371 bound_to 10713
  141.1589  133.8829  157.1901 LP  0  0  0  0  0  0  0  0  0  0  0  0  # atno 17394 bound_to 11000
  139.9902  135.0067  156.9957 LP  0  0  0  0  0  0  0  0  0  0  0  0  # atno 17395 bound_to 11000

$$$$
