AV-unprocessed.smi:777|AV-procd|sdf|3701|dock2
  -GOLD-   22720 1123D 1   1.00000     0.00000
 Structure written by MMmdl.
 37 38  0  0  0  0  0  0  0  0  2 V2000
  152.1478  144.9035  158.9057 C   0  0  0  0  0  0  0  0  0  0  0  0
  152.3772  143.3924  159.1209 C   0  0  2  0  0  0  0  0  0  0  0  0
  151.1837  142.5404  158.6625 C   0  0  0  0  0  0  0  0  0  0  0  0
  150.0728  142.7174  159.1619 O   0  0  0  0  0  0  0  0  0  0  0  0
  151.4687  141.6228  157.7186 N   0  0  0  0  0  0  0  0  0  0  0  0
  150.6595  140.5770  157.0735 C   0  0  0  0  0  0  0  0  0  0  0  0
  151.5676  140.0249  155.9442 C   0  0  0  0  0  0  0  0  0  0  0  0
  152.6891  139.5692  156.2612 O   0  0  0  0  0  0  0  0  0  0  0  0
  151.1524  140.1118  154.7666 O   0  5  0  0  0  0  0  0  0  0  0  0
  150.1831  139.4329  158.0253 C   0  0  0  0  0  0  0  0  0  0  0  0
  149.2162  138.4426  157.3469 C   0  0  0  0  0  0  0  0  0  0  0  0
  147.9932  139.1708  156.7705 C   0  0  0  0  0  0  0  0  0  0  0  0
  148.4159  140.2934  155.8120 C   0  0  0  0  0  0  0  0  0  0  0  0
  149.3948  141.2714  156.4918 C   0  0  0  0  0  0  0  0  0  0  0  0
  152.7233  143.0595  160.4993 N   0  0  0  0  0  0  0  0  0  0  0  0
  152.4580  143.7954  161.6371 C   0  0  0  0  0  0  0  0  0  0  0  0
  153.0104  143.1330  162.6954 C   0  0  0  0  0  0  0  0  0  0  0  0
  153.6185  141.9941  162.0992 C   0  0  0  0  0  0  0  0  0  0  0  0
  153.4540  141.9566  160.7872 N   0  0  0  0  0  0  0  0  0  0  0  0
  151.9548  145.1235  157.8554 H   0  0  0  0  0  0  0  0  0  0  0  0
  153.0273  145.4757  159.2020 H   0  0  0  0  0  0  0  0  0  0  0  0
  151.3003  145.2787  159.4810 H   0  0  0  0  0  0  0  0  0  0  0  0
  153.2341  143.1134  158.5054 H   0  0  0  0  0  0  0  0  0  0  0  0
  152.4344  141.6095  157.4248 H   0  0  0  0  0  0  0  0  0  0  0  0
  151.0294  138.8860  158.4436 H   0  0  0  0  0  0  0  0  0  0  0  0
  149.6537  139.8643  158.8754 H   0  0  0  0  0  0  0  0  0  0  0  0
  149.7277  137.8956  156.5542 H   0  0  0  0  0  0  0  0  0  0  0  0
  148.8909  137.6941  158.0698 H   0  0  0  0  0  0  0  0  0  0  0  0
  147.3463  138.4619  156.2532 H   0  0  0  0  0  0  0  0  0  0  0  0
  147.4028  139.5912  157.5856 H   0  0  0  0  0  0  0  0  0  0  0  0
  148.8728  139.8622  154.9207 H   0  0  0  0  0  0  0  0  0  0  0  0
  147.5341  140.8348  155.4687 H   0  0  0  0  0  0  0  0  0  0  0  0
  148.8673  141.7807  157.2997 H   0  0  0  0  0  0  0  0  0  0  0  0
  149.6679  142.0593  155.7880 H   0  0  0  0  0  0  0  0  0  0  0  0
  151.9066  144.7235  161.5982 H   0  0  0  0  0  0  0  0  0  0  0  0
  152.9919  143.4241  163.7349 H   0  0  0  0  0  0  0  0  0  0  0  0
  154.1762  141.2019  162.5766 H   0  0  0  0  0  0  0  0  0  0  0  0
  1  2  1  0  0  0  0
  1 20  1  0  0  0  0
  1 21  1  0  0  0  0
  1 22  1  0  0  0  0
  2  3  1  0  0  0  0
  2 15  1  0  0  0  0
  2 23  1  0  0  0  0
  3  4  2  0  0  0  0
  3  5  1  0  0  0  0
  5  6  1  0  0  0  0
  5 24  1  0  0  0  0
  6 14  1  0  0  0  0
  6  7  1  0  0  0  0
  6 10  1  0  0  0  0
  7  8  2  0  0  0  0
  7  9  1  0  0  0  0
 10 11  1  0  0  0  0
 10 25  1  0  0  0  0
 10 26  1  0  0  0  0
 11 12  1  0  0  0  0
 11 27  1  0  0  0  0
 11 28  1  0  0  0  0
 12 13  1  0  0  0  0
 12 29  1  0  0  0  0
 12 30  1  0  0  0  0
 13 14  1  0  0  0  0
 13 31  1  0  0  0  0
 13 32  1  0  0  0  0
 14 33  1  0  0  0  0
 14 34  1  0  0  0  0
 15 19  1  0  0  0  0
 15 16  1  0  0  0  0
 16 17  2  0  0  0  0
 16 35  1  0  0  0  0
 17 18  1  0  0  0  0
 17 36  1  0  0  0  0
 18 19  2  0  0  0  0
 18 37  1  0  0  0  0
M  CHG  1   9  -1
M  END
> <s_m_source_file>
AV-unprocessed.smi

> <i_m_source_file_index>
777

> <i_lp_mmshare_version>
43012

> <i_f3d_flags>
0

> <s_epik_input>
bjFbY0hdW2NIXVtjSF1uMVtDQEhdKFtDSDNdKUMoPU8pW05IXUMyKEMoPU8pW09IXSlbQ0gyXVtDSDJdW0NIMl1bQ0gyXVtDSDJdMg==

> <s_epik_cmdline>
J2VwaWtfcHl0aG9uJywgJy1waCcsICc3LjAnLCAnLXRuJywgJzgnLCAnLW1hJywgJzIwMCcsICctbWV0YWxfYmluZGluZycsICctaW1hZScsICc8aW5maWxlLm1hZT4nLCAnLW9tYWUnLCAnPG91dGZpbGUubWFlPic=

> <r_lp_tautomer_probability>
1

> <r_epik_Ionization_Penalty>
0.000371068

> <r_epik_Ionization_Penalty_Charging>
0.000323848

> <r_epik_Ionization_Penalty_Neutral>
4.72198e-05

> <r_epik_State_Penalty>
0.000195685

> <r_epik_Charging_Adjusted_Penalty>
0.000519533

> <i_epik_Tot_Q>
-1

> <i_epik_Tot_abs_Q>
1

> <r_epik_Metal_State_Penalty>
-0

> <b_epik_Metal_Only>
0

> <s_lp_Force_Field>
OPLS_2005

> <r_lp_Energy>
8.44032

> <b_lp_Chiralities_Consistent>
1

> <s_lp_Variant>
AV-unprocessed.smi:777-1

> <Gold.Version>
5.8.1

> <Gold.Id.Protein>
6NUR|6NUR_protein|mol2

> <Gold.PLP.Fitness>
48.5188

> <Gold.PLP.PLP>
-40.9233

> <Gold.PLP.part.hbond>
-2.9483

> <Gold.PLP.part.metal>
0.0000

> <Gold.PLP.part.buried>
-7.0706

> <Gold.PLP.part.nonpolar>
-30.7805

> <Gold.PLP.part.repulsive>
0.2038

> <Gold.PLP.ligand.clash>
0.0000

> <Gold.PLP.ligand.torsion>
0.7843

> <Gold.PLP.Chemscore.Hbond>
2.9913

> <Gold.PLP.Chemscore.CHOScore>
0.0000

> <Gold.PLP.Chemscore.Metal>
0.0000

> <Gold.Chemscore.Hbonds>
donor molecule, donor type, donor heavy atom, donor atom, acceptor molecule, acceptor atom, score
      P1  H  7989  7998       L1     9  1.00
      P1  H  7997  8010       L1     8  2.00

> <Gold.PLP.Chemscore.Internal.Correction>
0.1904

> <Gold.Rescore>
     Score         DG    S(hbond)    S(metal)    S(lipo)     H(rot)  DE(clash)    DE(int)     intcor
     14.35     -16.24       1.99        0.00      78.44       1.98       0.05       1.84       ----

> <Gold.Chemscore.Fitness>
14.3485

> <Gold.Chemscore.DG>
-16.2372

> <Gold.Chemscore.ZeroCoef>
-5.4800

> <Gold.Chemscore.Hbond>
1.9884

> <Gold.Chemscore.Metal>
0.0000

> <Gold.Chemscore.Lipo>
78.4432

> <Gold.Chemscore.Internal_Hbond>
0.0000

> <Gold.Chemscore.DEClash>
0.0528

> <Gold.Chemscore.DEInternal>
1.8359

> <Gold.Chemscore.Rot>
1.9774

> <Gold.Chemscore.Internal.Correction>
   9.000000E+99

> <Gold.Chemscore.Hbonds>
donor molecule, donor type, donor heavy atom, donor atom, acceptor molecule, acceptor atom, score
      P1  H  7989  7998       L1     9  0.95
      P1  H  7997  8010       L1     8  1.00

> <Gold.Chemscore.Hbond.Weighted>
-6.6413

> <Gold.Chemscore.Metal.Weighted>
-0.0000

> <Gold.Chemscore.Lipo.Weighted>
-9.1778

> <Gold.Chemscore.Internal_Hbond.Weighted>
0.0000

> <Gold.Chemscore.DEClash.Weighted>
0.0528

> <Gold.Chemscore.DEInternal.Weighted>
1.8359

> <Gold.Chemscore.Rot.Weighted>
5.0620

> <Gold.Chemscore.Internal.Correction.Weighted>
   9.000000E+99

> <Gold.Protein.RotatedTorsions>
[ 6907 6896 6895 6894 ] final  161.81 input  -60.11 | X-H torsion
[ 7974 7965 7964 7962 ] final -170.88 input  175.53 | X-H torsion
[ 8008 7997 7996 7995 ] final   78.85 input   59.86 | X-H torsion
[ 10167 10162 10161 10158 ] final -162.69 input  -65.29 | X-H torsion
[ 10718 10713 10712 10709 ] final  -93.32 input   66.30 | X-H torsion
[ 10763 10752 10751 10750 ] final   10.28 input  -60.55 | X-H torsion
[ 11005 11000 10999 10996 ] final -132.73 input  -57.11 | X-H torsion

> <Gold.Protein.ActiveResidues>
 VAL166  LYS551  ARG553  GLY616  TRP617  ASP618  TYR619  PRO620  LYS621  CYS622 
 ASP623  PHE694  ASN695  SER759  ASP760  ASP761  ALA762  ILE779  LEU786  VAL792 
 PHE793  MET794  SER795  GLU796  ALA797  LYS798  CYS799  TRP800  GLU811  SER814 

> <Gold.Protein.RotatedAtoms>
  151.9499  133.3663  159.3995 H   0  0  0  0  0  0  0  0  0  0  0  0  # atno 6907 bound_to 6896
  150.6982  134.4351  159.5275 H   0  0  0  0  0  0  0  0  0  0  0  0  # atno 6908 bound_to 6896
  152.2022  134.8577  160.0557 H   0  0  0  0  0  0  0  0  0  0  0  0  # atno 6909 bound_to 6896
  144.7164  140.2005  143.6339 H   0  0  0  0  0  0  0  0  0  0  0  0  # atno 7974 bound_to 7965
  155.8615  140.3453  155.5760 H   0  0  0  0  0  0  0  0  0  0  0  0  # atno 8008 bound_to 7997
  155.7927  140.0874  157.2019 H   0  0  0  0  0  0  0  0  0  0  0  0  # atno 8009 bound_to 7997
  154.4012  140.1480  156.3169 H   0  0  0  0  0  0  0  0  0  0  0  0  # atno 8010 bound_to 7997
  139.6374  144.0324  152.2065 H   0  0  0  0  0  0  0  0  0  0  0  0  # atno 10167 bound_to 10162
  156.0012  130.5022  150.5758 H   0  0  0  0  0  0  0  0  0  0  0  0  # atno 10718 bound_to 10713
  153.2049  135.6861  153.8185 H   0  0  0  0  0  0  0  0  0  0  0  0  # atno 10763 bound_to 10752
  153.7438  135.3234  155.3310 H   0  0  0  0  0  0  0  0  0  0  0  0  # atno 10764 bound_to 10752
  154.8191  135.4664  154.0832 H   0  0  0  0  0  0  0  0  0  0  0  0  # atno 10765 bound_to 10752
  140.9144  134.1526  157.4364 H   0  0  0  0  0  0  0  0  0  0  0  0  # atno 11005 bound_to 11000
  145.8684  139.2259  143.1675 LP  0  0  0  0  0  0  0  0  0  0  0  0  # atno 17320 bound_to 7965
  146.0108  140.8437  142.9972 LP  0  0  0  0  0  0  0  0  0  0  0  0  # atno 17321 bound_to 7965
  140.0005  144.6297  150.7734 LP  0  0  0  0  0  0  0  0  0  0  0  0  # atno 17342 bound_to 10162
  140.7472  143.2903  151.3348 LP  0  0  0  0  0  0  0  0  0  0  0  0  # atno 17343 bound_to 10162
  157.3646  131.0755  151.1608 LP  0  0  0  0  0  0  0  0  0  0  0  0  # atno 17370 bound_to 10713
  157.2381  130.6557  149.5878 LP  0  0  0  0  0  0  0  0  0  0  0  0  # atno 17371 bound_to 10713
  139.8763  134.9948  156.5711 LP  0  0  0  0  0  0  0  0  0  0  0  0  # atno 17394 bound_to 11000
  140.8069  133.8460  155.8775 LP  0  0  0  0  0  0  0  0  0  0  0  0  # atno 17395 bound_to 11000

$$$$
