AV-unprocessed.smi:69|AV-procd|sdf|651|dock7
  -GOLD-   2262016553D 1   1.00000     0.00000
 Structure written by MMmdl.
 32 34  0  0  0  0  0  0  0  0  1 V2000
  154.1672  143.6124  158.5595 N   0  0  0  0  0  0  0  0  0  0  0  0
  153.0180  143.0284  158.1932 C   0  0  0  0  0  0  0  0  0  0  0  0
  151.8839  143.7677  158.2192 N   0  0  0  0  0  0  0  0  0  0  0  0
  150.7241  143.2095  157.8553 C   0  0  0  0  0  0  0  0  0  0  0  0
  150.4898  141.9596  157.4453 N   0  0  0  0  0  0  0  0  0  0  0  0
  151.6361  141.2186  157.4229 C   0  0  0  0  0  0  0  0  0  0  0  0
  152.9344  141.6755  157.7782 C   0  0  0  0  0  0  0  0  0  0  0  0
  153.8552  140.6465  157.6268 N   0  0  0  0  0  0  0  0  0  0  0  0
  153.1360  139.6406  157.2039 C   0  0  0  0  0  0  0  0  0  0  0  0
  151.7901  139.9012  157.0541 N   0  0  0  0  0  0  0  0  0  0  0  0
  150.7003  138.9924  156.5849 C   0  0  2  0  0  0  0  0  0  0  0  0
  151.2411  137.7283  156.3928 O   0  0  0  0  0  0  0  0  0  0  0  0
  150.3957  137.0327  155.4911 C   0  0  2  0  0  0  0  0  0  0  0  0
  151.1370  135.8221  154.9044 C   0  0  0  0  0  0  0  0  0  0  0  0
  150.2526  135.0429  154.1278 O   0  0  0  0  0  0  0  0  0  0  0  0
  150.0544  138.1076  154.4486 C   0  0  1  0  0  0  0  0  0  0  0  0
  148.7622  137.8803  153.9227 O   0  0  0  0  0  0  0  0  0  0  0  0
  150.0927  139.4206  155.2330 C   0  0  2  0  0  0  0  0  0  0  0  0
  150.8509  140.3976  154.5408 O   0  0  0  0  0  0  0  0  0  0  0  0
  149.9708  138.9662  157.3965 H   0  0  0  0  0  0  0  0  0  0  0  0
  149.4915  136.7236  156.0211 H   0  0  0  0  0  0  0  0  0  0  0  0
  150.7937  138.1090  153.6457 H   0  0  0  0  0  0  0  0  0  0  0  0
  149.0952  139.8198  155.4235 H   0  0  0  0  0  0  0  0  0  0  0  0
  155.0266  143.0823  158.5470 H   0  0  0  0  0  0  0  0  0  0  0  0
  154.1715  144.5808  158.8453 H   0  0  0  0  0  0  0  0  0  0  0  0
  149.8607  143.8568  157.8983 H   0  0  0  0  0  0  0  0  0  0  0  0
  153.5723  138.6768  156.9846 H   0  0  0  0  0  0  0  0  0  0  0  0
  151.9395  136.1575  154.2471 H   0  0  0  0  0  0  0  0  0  0  0  0
  151.5911  135.2157  155.6886 H   0  0  0  0  0  0  0  0  0  0  0  0
  149.6920  135.6239  153.6365 H   0  0  0  0  0  0  0  0  0  0  0  0
  148.8457  137.3575  153.1395 H   0  0  0  0  0  0  0  0  0  0  0  0
  151.6642  140.5276  155.0040 H   0  0  0  0  0  0  0  0  0  0  0  0
  1  2  1  0  0  0  0
  1 24  1  0  0  0  0
  1 25  1  0  0  0  0
  2  7  1  0  0  0  0
  2  3  2  0  0  0  0
  3  4  1  0  0  0  0
  4  5  2  0  0  0  0
  4 26  1  0  0  0  0
  5  6  1  0  0  0  0
  6 10  1  0  0  0  0
  6  7  2  0  0  0  0
  7  8  1  0  0  0  0
  8  9  2  0  0  0  0
  9 10  1  0  0  0  0
  9 27  1  0  0  0  0
 10 11  1  0  0  0  0
 11 20  1  0  0  0  0
 11 18  1  0  0  0  0
 11 12  1  0  0  0  0
 12 13  1  0  0  0  0
 13 21  1  0  0  0  0
 13 14  1  0  0  0  0
 13 16  1  0  0  0  0
 14 15  1  0  0  0  0
 14 28  1  0  0  0  0
 14 29  1  0  0  0  0
 15 30  1  0  0  0  0
 16 22  1  0  0  0  0
 16 17  1  0  0  0  0
 16 18  1  0  0  0  0
 17 31  1  0  0  0  0
 18 23  1  0  0  0  0
 18 19  1  0  0  0  0
 19 32  1  0  0  0  0
M  END
> <s_m_source_file>
AV-unprocessed.smi

> <i_m_source_file_index>
69

> <i_lp_mmshare_version>
43012

> <i_f3d_flags>
0

> <s_epik_input>
bjFbY0hdbmMoW05IMl0pYyhjMTIpbltjSF1uMltDQEBIXTNPW0NASF0oW0NIMl1bT0hdKVtDQEBIXShbT0hdKVtDQEhdM1tPSF0=

> <s_epik_cmdline>
J2VwaWtfcHl0aG9uJywgJy1waCcsICc3LjAnLCAnLXRuJywgJzgnLCAnLW1hJywgJzIwMCcsICctbWV0YWxfYmluZGluZycsICctaW1hZScsICc8aW5maWxlLm1hZT4nLCAnLW9tYWUnLCAnPG91dGZpbGUubWFlPic=

> <r_lp_tautomer_probability>
1

> <r_epik_Ionization_Penalty>
0.000428445

> <r_epik_Ionization_Penalty_Charging>
0

> <r_epik_Ionization_Penalty_Neutral>
0.000428445

> <r_epik_State_Penalty>
-0

> <r_epik_Charging_Adjusted_Penalty>
0

> <i_epik_Tot_Q>
0

> <i_epik_Tot_abs_Q>
0

> <r_epik_Metal_State_Penalty>
-0

> <b_epik_Metal_Only>
0

> <s_epik_Chemistry_Notes>
This compound contains an acetal/aminal-like group ( X-CH(R)-Y where X, Y are N, S, or O) that may be acid/base labile, releasing an aldehyde.

> <s_lp_Force_Field>
OPLS_2005

> <r_lp_Energy>
36.244

> <b_lp_Chiralities_Consistent>
1

> <s_lp_Variant>
AV-unprocessed.smi:69-9

> <Gold.Version>
5.8.1

> <Gold.Id.Protein>
6NUR|6NUR_protein|mol2

> <Gold.PLP.Fitness>
36.7188

> <Gold.PLP.PLP>
-23.4077

> <Gold.PLP.part.hbond>
-5.0511

> <Gold.PLP.part.metal>
0.0000

> <Gold.PLP.part.buried>
-2.9126

> <Gold.PLP.part.nonpolar>
-15.9401

> <Gold.PLP.part.repulsive>
0.1665

> <Gold.PLP.ligand.clash>
0.0000

> <Gold.PLP.ligand.torsion>
0.1041

> <Gold.PLP.Chemscore.Hbond>
3.4758

> <Gold.PLP.Chemscore.CHOScore>
1.0262

> <Gold.PLP.Chemscore.Metal>
0.0000

> <Gold.Chemscore.Hbonds>
donor molecule, donor type, donor heavy atom, donor atom, acceptor molecule, acceptor atom, score
      L1  H    15    30       P1  7948  0.72
      L1  H    17    31       P1  7948  1.00
      P1  H  7989  7998       L1    19  0.03
      P1  H  7997  8010       L1     8  0.01
      L1  C     4    26       P1  8028  0.71
      L1  C     4    26       P1  8029  0.01

> <Gold.PLP.Chemscore.Internal.Correction>
0.0132

> <Gold.Rescore>
     Score         DG    S(hbond)    S(metal)    S(lipo)     H(rot)  DE(clash)    DE(int)     intcor
      7.54      -7.82       2.86        0.00      26.49       4.03       0.07       0.22       ----

> <Gold.Chemscore.Fitness>
7.5368

> <Gold.Chemscore.DG>
-7.8201

> <Gold.Chemscore.ZeroCoef>
-5.4800

> <Gold.Chemscore.Hbond>
2.8597

> <Gold.Chemscore.Metal>
0.0000

> <Gold.Chemscore.Lipo>
26.4929

> <Gold.Chemscore.Internal_Hbond>
0.0000

> <Gold.Chemscore.DEClash>
0.0657

> <Gold.Chemscore.DEInternal>
0.2176

> <Gold.Chemscore.Rot>
4.0277

> <Gold.Chemscore.Internal.Correction>
   9.000000E+99

> <Gold.Chemscore.Hbonds>
donor molecule, donor type, donor heavy atom, donor atom, acceptor molecule, acceptor atom, score
      L1  H    15    30       P1  7948  0.08
      L1  H    17    31       P1  7948  1.00

> <Gold.Chemscore.Hbond.Weighted>
-9.5514

> <Gold.Chemscore.Metal.Weighted>
-0.0000

> <Gold.Chemscore.Lipo.Weighted>
-3.0997

> <Gold.Chemscore.Internal_Hbond.Weighted>
0.0000

> <Gold.Chemscore.DEClash.Weighted>
0.0657

> <Gold.Chemscore.DEInternal.Weighted>
0.2176

> <Gold.Chemscore.Rot.Weighted>
10.3110

> <Gold.Chemscore.Internal.Correction.Weighted>
   9.000000E+99

> <Gold.Protein.RotatedTorsions>
[ 6907 6896 6895 6894 ] final   27.52 input  -60.11 | X-H torsion
[ 7974 7965 7964 7962 ] final  -58.86 input  175.53 | X-H torsion
[ 8008 7997 7996 7995 ] final   20.41 input   59.86 | X-H torsion
[ 10167 10162 10161 10158 ] final   85.05 input  -65.29 | X-H torsion
[ 10718 10713 10712 10709 ] final   57.00 input   66.30 | X-H torsion
[ 10763 10752 10751 10750 ] final   96.52 input  -60.55 | X-H torsion
[ 11005 11000 10999 10996 ] final  179.95 input  -57.11 | X-H torsion

> <Gold.Protein.ActiveResidues>
 VAL166  LYS551  ARG553  GLY616  TRP617  ASP618  TYR619  PRO620  LYS621  CYS622 
 ASP623  PHE694  ASN695  SER759  ASP760  ASP761  ALA762  ILE779  LEU786  VAL792 
 PHE793  MET794  SER795  GLU796  ALA797  LYS798  CYS799  TRP800  GLU811  SER814 

> <Gold.Protein.RotatedAtoms>
  152.0034  134.9916  160.0565 H   0  0  0  0  0  0  0  0  0  0  0  0  # atno 6907 bound_to 6896
  152.1497  133.4510  159.4816 H   0  0  0  0  0  0  0  0  0  0  0  0  # atno 6908 bound_to 6896
  150.6874  134.2122  159.4407 H   0  0  0  0  0  0  0  0  0  0  0  0  # atno 6909 bound_to 6896
  145.8344  140.8459  143.0067 H   0  0  0  0  0  0  0  0  0  0  0  0  # atno 7974 bound_to 7965
  154.9351  140.3045  155.5148 H   0  0  0  0  0  0  0  0  0  0  0  0  # atno 8008 bound_to 7997
  156.3000  140.2346  156.4352 H   0  0  0  0  0  0  0  0  0  0  0  0  # atno 8009 bound_to 7997
  154.8199  140.0424  157.1392 H   0  0  0  0  0  0  0  0  0  0  0  0  # atno 8010 bound_to 7997
  139.9018  144.6325  150.8629 H   0  0  0  0  0  0  0  0  0  0  0  0  # atno 10167 bound_to 10162
  157.5478  130.8743  149.8917 H   0  0  0  0  0  0  0  0  0  0  0  0  # atno 10718 bound_to 10713
  153.2659  135.4215  155.0940 H   0  0  0  0  0  0  0  0  0  0  0  0  # atno 10763 bound_to 10752
  154.8438  135.3460  154.6312 H   0  0  0  0  0  0  0  0  0  0  0  0  # atno 10764 bound_to 10752
  153.6732  135.7042  153.5198 H   0  0  0  0  0  0  0  0  0  0  0  0  # atno 10765 bound_to 10752
  140.4119  134.6684  157.4618 H   0  0  0  0  0  0  0  0  0  0  0  0  # atno 11005 bound_to 11000
  144.6737  140.0719  143.7472 LP  0  0  0  0  0  0  0  0  0  0  0  0  # atno 17320 bound_to 7965
  145.9535  139.2750  143.1198 LP  0  0  0  0  0  0  0  0  0  0  0  0  # atno 17321 bound_to 7965
  140.7705  143.3431  151.2166 LP  0  0  0  0  0  0  0  0  0  0  0  0  # atno 17342 bound_to 10162
  139.7019  143.9519  152.2909 LP  0  0  0  0  0  0  0  0  0  0  0  0  # atno 17343 bound_to 10162
  156.0550  130.3710  150.1111 LP  0  0  0  0  0  0  0  0  0  0  0  0  # atno 17370 bound_to 10713
  156.9286  130.9706  151.3536 LP  0  0  0  0  0  0  0  0  0  0  0  0  # atno 17371 bound_to 10713
  140.0261  134.6474  155.9170 LP  0  0  0  0  0  0  0  0  0  0  0  0  # atno 17394 bound_to 11000
  141.1818  133.6548  156.5051 LP  0  0  0  0  0  0  0  0  0  0  0  0  # atno 17395 bound_to 11000

$$$$
