AV-unprocessed.smi:3303|AV-procd|sdf|12660|dock6
  -GOLD-   2272018593D 1   1.00000     0.00000
 Structure written by MMmdl.
 45 46  0  0  0  0  0  0  0  0  3 V2000
  151.5836  138.2125  154.8545 C   0  0  0  0  0  0  0  0  0  0  0  0
  150.5696  139.2747  154.3970 C   0  0  1  0  0  0  0  0  0  0  0  0
  149.1684  138.6775  154.1560 C   0  0  0  0  0  0  0  0  0  0  0  0
  148.2378  139.6993  153.6127 N   0  3  1  0  0  0  0  0  0  0  0  0
  146.9538  139.1220  153.1533 C   0  0  0  0  0  0  0  0  0  0  0  0
  148.0924  140.8976  154.4885 C   0  0  1  0  0  0  0  0  0  0  0  0
  147.2438  140.6415  155.7534 C   0  0  0  0  0  0  0  0  0  0  0  0
  149.4773  141.5138  154.7961 C   0  0  0  0  0  0  0  0  0  0  0  0
  150.5132  140.5003  155.3371 C   0  0  1  0  0  0  0  0  0  0  0  0
  150.2491  140.1021  156.7418 N   0  3  0  0  0  0  0  0  0  0  0  0
  150.9803  140.8708  157.7703 C   0  0  0  0  0  0  0  0  0  0  0  0
  150.9530  142.3717  157.4534 C   0  0  0  0  0  0  0  0  0  0  0  0
  151.3439  143.2144  158.6521 C   0  0  0  0  0  0  0  0  0  0  0  0
  151.3901  144.6219  158.5621 C   0  0  0  0  0  0  0  0  0  0  0  0
  151.7529  145.3549  159.7090 C   0  0  0  0  0  0  0  0  0  0  0  0
  152.0519  144.6558  160.8943 C   0  0  0  0  0  0  0  0  0  0  0  0
  151.9752  143.2488  160.8808 C   0  0  0  0  0  0  0  0  0  0  0  0
  151.6276  142.5363  159.7869 N   0  0  0  0  0  0  0  0  0  0  0  0
  151.2841  137.7413  155.7910 H   0  0  0  0  0  0  0  0  0  0  0  0
  152.5720  138.6494  155.0005 H   0  0  0  0  0  0  0  0  0  0  0  0
  151.6830  137.4227  154.1091 H   0  0  0  0  0  0  0  0  0  0  0  0
  150.9264  139.6367  153.4310 H   0  0  0  0  0  0  0  0  0  0  0  0
  149.2473  137.8586  153.4393 H   0  0  0  0  0  0  0  0  0  0  0  0
  148.7648  138.2465  155.0728 H   0  0  0  0  0  0  0  0  0  0  0  0
  146.4209  138.6300  153.9676 H   0  0  0  0  0  0  0  0  0  0  0  0
  147.1297  138.3808  152.3732 H   0  0  0  0  0  0  0  0  0  0  0  0
  146.3088  139.8952  152.7344 H   0  0  0  0  0  0  0  0  0  0  0  0
  147.5499  141.6427  153.9044 H   0  0  0  0  0  0  0  0  0  0  0  0
  147.2258  141.5250  156.3922 H   0  0  0  0  0  0  0  0  0  0  0  0
  147.6176  139.8124  156.3522 H   0  0  0  0  0  0  0  0  0  0  0  0
  146.2075  140.4177  155.4999 H   0  0  0  0  0  0  0  0  0  0  0  0
  149.8720  141.9242  153.8657 H   0  0  0  0  0  0  0  0  0  0  0  0
  149.3734  142.3733  155.4577 H   0  0  0  0  0  0  0  0  0  0  0  0
  151.4963  140.9736  155.3219 H   0  0  0  0  0  0  0  0  0  0  0  0
  149.2581  140.1702  156.9238 H   0  0  0  0  0  0  0  0  0  0  0  0
  150.5287  140.6903  158.7467 H   0  0  0  0  0  0  0  0  0  0  0  0
  152.0137  140.5292  157.8232 H   0  0  0  0  0  0  0  0  0  0  0  0
  151.6348  142.5936  156.6307 H   0  0  0  0  0  0  0  0  0  0  0  0
  149.9582  142.6659  157.1158 H   0  0  0  0  0  0  0  0  0  0  0  0
  151.1545  145.1314  157.6390 H   0  0  0  0  0  0  0  0  0  0  0  0
  151.7999  146.4337  159.6797 H   0  0  0  0  0  0  0  0  0  0  0  0
  152.3341  145.1850  161.7927 H   0  0  0  0  0  0  0  0  0  0  0  0
  152.1978  142.6803  161.7715 H   0  0  0  0  0  0  0  0  0  0  0  0
  150.5264  139.1357  156.8423 H   0  0  0  0  0  0  0  0  0  0  0  0
  148.6831  140.0421  152.7729 H   0  0  0  0  0  0  0  0  0  0  0  0
  1  2  1  0  0  0  0
  1 19  1  0  0  0  0
  1 20  1  0  0  0  0
  1 21  1  0  0  0  0
  2  9  1  0  0  0  0
  2  3  1  0  0  0  0
  2 22  1  0  0  0  0
  3  4  1  0  0  0  0
  3 23  1  0  0  0  0
  3 24  1  0  0  0  0
  4  5  1  0  0  0  0
  4  6  1  0  0  0  0
  4 45  1  0  0  0  0
  5 25  1  0  0  0  0
  5 26  1  0  0  0  0
  5 27  1  0  0  0  0
  6  7  1  0  0  0  0
  6  8  1  0  0  0  0
  6 28  1  0  0  0  0
  7 29  1  0  0  0  0
  7 30  1  0  0  0  0
  7 31  1  0  0  0  0
  8  9  1  0  0  0  0
  8 32  1  0  0  0  0
  8 33  1  0  0  0  0
  9 10  1  0  0  0  0
  9 34  1  0  0  0  0
 10 11  1  0  0  0  0
 10 35  1  0  0  0  0
 10 44  1  0  0  0  0
 11 12  1  0  0  0  0
 11 36  1  0  0  0  0
 11 37  1  0  0  0  0
 12 13  1  0  0  0  0
 12 38  1  0  0  0  0
 12 39  1  0  0  0  0
 13 18  1  0  0  0  0
 13 14  2  0  0  0  0
 14 15  1  0  0  0  0
 14 40  1  0  0  0  0
 15 16  2  0  0  0  0
 15 41  1  0  0  0  0
 16 17  1  0  0  0  0
 16 42  1  0  0  0  0
 17 18  2  0  0  0  0
 17 43  1  0  0  0  0
M  CHG  1   4   1
M  CHG  1  10   1
M  END
> <s_m_source_file>
AV-unprocessed.smi

> <i_m_source_file_index>
3303

> <i_lp_mmshare_version>
43012

> <i_f3d_flags>
0

> <s_epik_input>
W0NIM11bQ0BASF0xW0NIMl1OKFtDSDNdKVtDQEBIXShbQ0gzXSlbQ0gyXVtDQEhdMVtOSF1bQ0gyXVtDSDJdYzJbY0hdW2NIXVtjSF1bY0hdbjI=

> <s_epik_cmdline>
J2VwaWtfcHl0aG9uJywgJy1waCcsICc3LjAnLCAnLXRuJywgJzgnLCAnLW1hJywgJzIwMCcsICctbWV0YWxfYmluZGluZycsICctaW1hZScsICc8aW5maWxlLm1hZT4nLCAnLW9tYWUnLCAnPG91dGZpbGUubWFlPic=

> <r_epik_Ionization_Penalty>
0.0769462

> <r_epik_Ionization_Penalty_Charging>
0.0759813

> <r_epik_Ionization_Penalty_Neutral>
0.000964829

> <r_epik_State_Penalty>
0.0654373

> <r_epik_Charging_Adjusted_Penalty>
0.141419

> <i_epik_Tot_Q>
2

> <i_epik_Tot_abs_Q>
2

> <r_epik_Metal_State_Penalty>
0.0656439

> <b_epik_Metal_Only>
0

> <s_lp_Force_Field>
OPLS_2005

> <r_lp_Energy>
33.2065

> <b_lp_Chiralities_Consistent>
1

> <s_lp_Variant>
AV-unprocessed.smi:3303-4

> <Gold.Version>
5.8.1

> <Gold.Id.Protein>
6NUR|6NUR_protein|mol2

> <Gold.PLP.Fitness>
44.0093

> <Gold.PLP.PLP>
-42.2482

> <Gold.PLP.part.hbond>
-1.0000

> <Gold.PLP.part.metal>
0.0000

> <Gold.PLP.part.buried>
-2.9734

> <Gold.PLP.part.nonpolar>
-37.2747

> <Gold.PLP.part.repulsive>
0.1006

> <Gold.PLP.ligand.clash>
0.0000

> <Gold.PLP.ligand.torsion>
0.6259

> <Gold.PLP.Chemscore.Hbond>
1.0000

> <Gold.PLP.Chemscore.CHOScore>
0.0000

> <Gold.PLP.Chemscore.Metal>
0.0000

> <Gold.Chemscore.Hbonds>
donor molecule, donor type, donor heavy atom, donor atom, acceptor molecule, acceptor atom, score
      L1  H     4    45       P1  7957  1.00

> <Gold.PLP.Chemscore.Internal.Correction>
0.0129

> <Gold.Rescore>
     Score         DG    S(hbond)    S(metal)    S(lipo)     H(rot)  DE(clash)    DE(int)     intcor
     18.99     -19.91       1.00        0.00     124.93       1.37       0.34       0.58       ----

> <Gold.Chemscore.Fitness>
18.9949

> <Gold.Chemscore.DG>
-19.9149

> <Gold.Chemscore.ZeroCoef>
-5.4800

> <Gold.Chemscore.Hbond>
0.9991

> <Gold.Chemscore.Metal>
0.0000

> <Gold.Chemscore.Lipo>
124.9270

> <Gold.Chemscore.Internal_Hbond>
0.0000

> <Gold.Chemscore.DEClash>
0.3384

> <Gold.Chemscore.DEInternal>
0.5817

> <Gold.Chemscore.Rot>
1.3744

> <Gold.Chemscore.Internal.Correction>
   9.000000E+99

> <Gold.Chemscore.Hbonds>
donor molecule, donor type, donor heavy atom, donor atom, acceptor molecule, acceptor atom, score
      L1  H     4    45       P1  7957  1.00

> <Gold.Chemscore.Hbond.Weighted>
-3.3369

> <Gold.Chemscore.Metal.Weighted>
-0.0000

> <Gold.Chemscore.Lipo.Weighted>
-14.6165

> <Gold.Chemscore.Internal_Hbond.Weighted>
0.0000

> <Gold.Chemscore.DEClash.Weighted>
0.3384

> <Gold.Chemscore.DEInternal.Weighted>
0.5817

> <Gold.Chemscore.Rot.Weighted>
3.5185

> <Gold.Chemscore.Internal.Correction.Weighted>
   9.000000E+99

> <Gold.Protein.RotatedTorsions>
[ 6907 6896 6895 6894 ] final  -21.70 input  -60.11 | X-H torsion
[ 7974 7965 7964 7962 ] final -164.44 input  175.53 | X-H torsion
[ 8008 7997 7996 7995 ] final  -37.89 input   59.86 | X-H torsion
[ 10167 10162 10161 10158 ] final  -11.86 input  -65.29 | X-H torsion
[ 10718 10713 10712 10709 ] final -135.79 input   66.30 | X-H torsion
[ 10763 10752 10751 10750 ] final   69.09 input  -60.55 | X-H torsion
[ 11005 11000 10999 10996 ] final   83.59 input  -57.11 | X-H torsion

> <Gold.Protein.ActiveResidues>
 VAL166  LYS551  ARG553  GLY616  TRP617  ASP618  TYR619  PRO620  LYS621  CYS622 
 ASP623  PHE694  ASN695  SER759  ASP760  ASP761  ALA762  ILE779  LEU786  VAL792 
 PHE793  MET794  SER795  GLU796  ALA797  LYS798  CYS799  TRP800  GLU811  SER814 

> <Gold.Protein.RotatedAtoms>
  151.2295  135.0549  159.8981 H   0  0  0  0  0  0  0  0  0  0  0  0  # atno 6907 bound_to 6896
  152.5406  134.0553  159.8138 H   0  0  0  0  0  0  0  0  0  0  0  0  # atno 6908 bound_to 6896
  151.0730  133.5402  159.2657 H   0  0  0  0  0  0  0  0  0  0  0  0  # atno 6909 bound_to 6896
  144.7297  140.2960  143.6212 H   0  0  0  0  0  0  0  0  0  0  0  0  # atno 7974 bound_to 7965
  154.4045  140.1592  156.2611 H   0  0  0  0  0  0  0  0  0  0  0  0  # atno 8008 bound_to 7997
  155.9036  140.3431  155.6022 H   0  0  0  0  0  0  0  0  0  0  0  0  # atno 8009 bound_to 7997
  155.7419  140.0793  157.2232 H   0  0  0  0  0  0  0  0  0  0  0  0  # atno 8010 bound_to 7997
  140.7148  143.5594  150.9212 H   0  0  0  0  0  0  0  0  0  0  0  0  # atno 10167 bound_to 10162
  156.2699  130.7259  151.1223 H   0  0  0  0  0  0  0  0  0  0  0  0  # atno 10718 bound_to 10713
  153.0269  135.5223  154.7235 H   0  0  0  0  0  0  0  0  0  0  0  0  # atno 10763 bound_to 10752
  154.6283  135.2897  155.0248 H   0  0  0  0  0  0  0  0  0  0  0  0  # atno 10764 bound_to 10752
  154.1209  135.6607  153.4955 H   0  0  0  0  0  0  0  0  0  0  0  0  # atno 10765 bound_to 10752
  139.9026  134.8155  156.2330 H   0  0  0  0  0  0  0  0  0  0  0  0  # atno 11005 bound_to 11000
  145.7807  139.1890  143.2159 LP  0  0  0  0  0  0  0  0  0  0  0  0  # atno 17320 bound_to 7965
  146.0836  140.7736  142.9629 LP  0  0  0  0  0  0  0  0  0  0  0  0  # atno 17321 bound_to 7965
  139.9319  143.6483  152.3074 LP  0  0  0  0  0  0  0  0  0  0  0  0  # atno 17342 bound_to 10162
  139.6937  144.7644  151.1394 LP  0  0  0  0  0  0  0  0  0  0  0  0  # atno 17343 bound_to 10162
  157.7280  131.0635  150.5839 LP  0  0  0  0  0  0  0  0  0  0  0  0  # atno 17370 bound_to 10713
  156.5934  130.4335  149.5927 LP  0  0  0  0  0  0  0  0  0  0  0  0  # atno 17371 bound_to 10713
  141.0333  133.6977  156.1469 LP  0  0  0  0  0  0  0  0  0  0  0  0  # atno 17394 bound_to 11000
  140.7064  134.4509  157.5584 LP  0  0  0  0  0  0  0  0  0  0  0  0  # atno 17395 bound_to 11000

$$$$
