AV-unprocessed.smi:99|AV-procd|sdf|878|dock9
  -GOLD-   2262017353D 1   1.00000     0.00000
 Structure written by MMmdl.
 53 56  0  0  0  0  0  0  0  0  1 V2000
  147.8388  137.3475  160.6518 O   0  0  0  0  0  0  0  0  0  0  0  0
  148.3213  136.2771  160.2759 C   0  0  0  0  0  0  0  0  0  0  0  0
  149.3786  136.1872  159.4458 O   0  0  0  0  0  0  0  0  0  0  0  0
  150.3690  137.2017  159.4452 C   0  0  0  0  0  0  0  0  0  0  0  0
  151.0403  137.2467  158.0690 C   0  0  1  0  0  0  0  0  0  0  0  0
  150.8575  136.0051  157.3912 O   0  0  0  0  0  0  0  0  0  0  0  0
  150.7895  136.2085  156.0074 C   0  0  1  0  0  0  0  0  0  0  0  0
  149.4994  135.6194  155.4810 N   0  0  0  0  0  0  0  0  0  0  0  0
  148.4400  136.4207  155.0734 C   0  0  0  0  0  0  0  0  0  0  0  0
  147.2824  135.9195  154.5807 C   0  0  0  0  0  0  0  0  0  0  0  0
  147.0965  134.4783  154.4469 C   0  0  0  0  0  0  0  0  0  0  0  0
  146.0840  133.9313  154.0155 O   0  0  0  0  0  0  0  0  0  0  0  0
  148.1924  133.7120  154.8539 N   0  0  0  0  0  0  0  0  0  0  0  0
  149.3914  134.2166  155.3590 C   0  0  0  0  0  0  0  0  0  0  0  0
  150.3014  133.4486  155.6687 O   0  0  0  0  0  0  0  0  0  0  0  0
  150.8186  137.7228  155.7528 C   0  0  2  0  0  0  0  0  0  0  0  0
  152.1243  138.1348  155.3917 O   0  0  0  0  0  0  0  0  0  0  0  0
  150.3998  138.2499  157.1175 C   0  0  2  0  0  0  0  0  0  0  0  0
  150.7904  139.5994  157.3442 O   0  0  0  0  0  0  0  0  0  0  0  0
  152.0195  139.8867  157.8251 C   0  0  0  0  0  0  0  0  0  0  0  0
  152.9969  139.1493  157.6844 O   0  0  0  0  0  0  0  0  0  0  0  0
  152.0689  141.1867  158.5533 C   0  0  0  0  0  0  0  0  0  0  0  0
  153.0913  141.4082  159.5053 C   0  0  0  0  0  0  0  0  0  0  0  0
  153.1625  142.6246  160.2117 C   0  0  0  0  0  0  0  0  0  0  0  0
  152.2121  143.6344  159.9747 C   0  0  0  0  0  0  0  0  0  0  0  0
  151.1906  143.4267  159.0295 C   0  0  0  0  0  0  0  0  0  0  0  0
  151.1178  142.2109  158.3218 C   0  0  0  0  0  0  0  0  0  0  0  0
  147.7946  134.9448  160.6917 C   0  0  0  0  0  0  0  0  0  0  0  0
  147.1077  134.8237  161.9224 C   0  0  0  0  0  0  0  0  0  0  0  0
  146.5953  133.5796  162.3388 C   0  0  0  0  0  0  0  0  0  0  0  0
  146.7635  132.4411  161.5296 C   0  0  0  0  0  0  0  0  0  0  0  0
  147.4456  132.5479  160.3036 C   0  0  0  0  0  0  0  0  0  0  0  0
  147.9589  133.7912  159.8855 C   0  0  0  0  0  0  0  0  0  0  0  0
  148.1117  132.7091  154.7701 H   0  0  0  0  0  0  0  0  0  0  0  0
  149.9288  138.1695  159.6888 H   0  0  0  0  0  0  0  0  0  0  0  0
  151.1109  136.9741  160.2119 H   0  0  0  0  0  0  0  0  0  0  0  0
  152.1084  137.4511  158.1605 H   0  0  0  0  0  0  0  0  0  0  0  0
  151.5977  135.6541  155.5256 H   0  0  0  0  0  0  0  0  0  0  0  0
  148.5233  137.4952  155.1392 H   0  0  0  0  0  0  0  0  0  0  0  0
  146.4893  136.5893  154.2811 H   0  0  0  0  0  0  0  0  0  0  0  0
  150.1243  138.0119  154.9626 H   0  0  0  0  0  0  0  0  0  0  0  0
  152.6566  138.1633  156.1721 H   0  0  0  0  0  0  0  0  0  0  0  0
  149.3166  138.1555  157.2148 H   0  0  0  0  0  0  0  0  0  0  0  0
  153.8318  140.6472  159.7054 H   0  0  0  0  0  0  0  0  0  0  0  0
  153.9476  142.7820  160.9367 H   0  0  0  0  0  0  0  0  0  0  0  0
  152.2667  144.5669  160.5170 H   0  0  0  0  0  0  0  0  0  0  0  0
  150.4605  144.2013  158.8467 H   0  0  0  0  0  0  0  0  0  0  0  0
  150.3209  142.0844  157.6035 H   0  0  0  0  0  0  0  0  0  0  0  0
  146.9658  135.6839  162.5605 H   0  0  0  0  0  0  0  0  0  0  0  0
  146.0715  133.4996  163.2799 H   0  0  0  0  0  0  0  0  0  0  0  0
  146.3694  131.4875  161.8485 H   0  0  0  0  0  0  0  0  0  0  0  0
  147.5750  131.6748  159.6811 H   0  0  0  0  0  0  0  0  0  0  0  0
  148.4757  133.8380  158.9381 H   0  0  0  0  0  0  0  0  0  0  0  0
  1  2  2  0  0  0  0
  2  3  1  0  0  0  0
  2 28  1  0  0  0  0
  3  4  1  0  0  0  0
  4  5  1  0  0  0  0
  4 35  1  0  0  0  0
  4 36  1  0  0  0  0
  5 18  1  0  0  0  0
  5  6  1  0  0  0  0
  5 37  1  0  0  0  0
  6  7  1  0  0  0  0
  7  8  1  0  0  0  0
  7 16  1  0  0  0  0
  7 38  1  0  0  0  0
  8 14  1  0  0  0  0
  8  9  1  0  0  0  0
  9 10  2  0  0  0  0
  9 39  1  0  0  0  0
 10 11  1  0  0  0  0
 10 40  1  0  0  0  0
 11 12  2  0  0  0  0
 11 13  1  0  0  0  0
 13 34  1  0  0  0  0
 13 14  1  0  0  0  0
 14 15  2  0  0  0  0
 16 17  1  0  0  0  0
 16 18  1  0  0  0  0
 16 41  1  0  0  0  0
 17 42  1  0  0  0  0
 18 19  1  0  0  0  0
 18 43  1  0  0  0  0
 19 20  1  0  0  0  0
 20 21  2  0  0  0  0
 20 22  1  0  0  0  0
 22 27  1  0  0  0  0
 22 23  2  0  0  0  0
 23 24  1  0  0  0  0
 23 44  1  0  0  0  0
 24 25  2  0  0  0  0
 24 45  1  0  0  0  0
 25 26  1  0  0  0  0
 25 46  1  0  0  0  0
 26 27  2  0  0  0  0
 26 47  1  0  0  0  0
 27 48  1  0  0  0  0
 28 33  1  0  0  0  0
 28 29  2  0  0  0  0
 29 30  1  0  0  0  0
 29 49  1  0  0  0  0
 30 31  2  0  0  0  0
 30 50  1  0  0  0  0
 31 32  1  0  0  0  0
 31 51  1  0  0  0  0
 32 33  2  0  0  0  0
 32 52  1  0  0  0  0
 33 53  1  0  0  0  0
M  END
> <s_m_source_file>
AV-unprocessed.smi

> <i_m_source_file_index>
99

> <i_lp_mmshare_version>
43012

> <i_f3d_flags>
0

> <s_epik_input>
W2NIXTFbY0hdW2NIXVtjSF1bY0hdYzFDKD1PKU9bQ0gyXVtDQEBIXTJPW0NAQEhdKG4zW2NIXVtjSF1jKD1PKVtuSF1jMz1PKVtDQEBIXShbT0hdKVtDQEhdMk9DKD1PKWM0W2NIXVtjSF1bY0hdW2NIXVtjSF00

> <s_epik_cmdline>
J2VwaWtfcHl0aG9uJywgJy1waCcsICc3LjAnLCAnLXRuJywgJzgnLCAnLW1hJywgJzIwMCcsICctbWV0YWxfYmluZGluZycsICctaW1hZScsICc8aW5maWxlLm1hZT4nLCAnLW9tYWUnLCAnPG91dGZpbGUubWFlPic=

> <r_lp_tautomer_probability>
1

> <r_epik_Ionization_Penalty>
0.00454555

> <r_epik_Ionization_Penalty_Charging>
0.0045191

> <r_epik_Ionization_Penalty_Neutral>
2.64449e-05

> <r_epik_State_Penalty>
-0

> <r_epik_Charging_Adjusted_Penalty>
0.0045191

> <i_epik_Tot_Q>
0

> <i_epik_Tot_abs_Q>
0

> <r_epik_Metal_State_Penalty>
1.27877

> <b_epik_Metal_Only>
0

> <s_epik_Chemistry_Notes>
This compound has an ester and may undergo hydrolysis at high or low pH. This compound contains an acetal/aminal-like group ( X-CH(R)-Y where X, Y are N, S, or O) that may be acid/base labile, releasing an aldehyde.

> <s_lp_Force_Field>
OPLS_2005

> <r_lp_Energy>
38.7636

> <b_lp_Chiralities_Consistent>
1

> <s_lp_Variant>
AV-unprocessed.smi:99-14

> <Gold.Version>
5.8.1

> <Gold.Id.Protein>
6NUR|6NUR_protein|mol2

> <Gold.PLP.Fitness>
50.7901

> <Gold.PLP.PLP>
-47.8761

> <Gold.PLP.part.hbond>
-4.4416

> <Gold.PLP.part.metal>
0.0000

> <Gold.PLP.part.buried>
-6.0094

> <Gold.PLP.part.nonpolar>
-38.7984

> <Gold.PLP.part.repulsive>
0.0854

> <Gold.PLP.ligand.clash>
0.0000

> <Gold.PLP.ligand.torsion>
2.5098

> <Gold.PLP.Chemscore.Hbond>
2.5520

> <Gold.PLP.Chemscore.CHOScore>
0.0000

> <Gold.PLP.Chemscore.Metal>
0.0000

> <Gold.Chemscore.Hbonds>
donor molecule, donor type, donor heavy atom, donor atom, acceptor molecule, acceptor atom, score
      P1  H  6931  6943       L1     1  0.74
      P1  H  6934  6947       L1     1  0.82
      P1  H  7997  8008       L1    21  1.00

> <Gold.PLP.Chemscore.Internal.Correction>
0.2776

> <Gold.Rescore>
     Score         DG    S(hbond)    S(metal)    S(lipo)     H(rot)  DE(clash)    DE(int)     intcor
     12.04     -18.91       2.49        0.00     113.54       3.19       0.51       6.36       ----

> <Gold.Chemscore.Fitness>
12.0421

> <Gold.Chemscore.DG>
-18.9103

> <Gold.Chemscore.ZeroCoef>
-5.4800

> <Gold.Chemscore.Hbond>
2.4889

> <Gold.Chemscore.Metal>
0.0000

> <Gold.Chemscore.Lipo>
113.5419

> <Gold.Chemscore.Internal_Hbond>
0.0000

> <Gold.Chemscore.DEClash>
0.5119

> <Gold.Chemscore.DEInternal>
6.3564

> <Gold.Chemscore.Rot>
3.1903

> <Gold.Chemscore.Internal.Correction>
   9.000000E+99

> <Gold.Chemscore.Hbonds>
donor molecule, donor type, donor heavy atom, donor atom, acceptor molecule, acceptor atom, score
      P1  H  6931  6943       L1     1  0.57
      P1  H  6934  6947       L1     1  0.81
      P1  H  7997  8008       L1    21  0.71

> <Gold.Chemscore.Hbond.Weighted>
-8.3130

> <Gold.Chemscore.Metal.Weighted>
-0.0000

> <Gold.Chemscore.Lipo.Weighted>
-13.2844

> <Gold.Chemscore.Internal_Hbond.Weighted>
0.0000

> <Gold.Chemscore.DEClash.Weighted>
0.5119

> <Gold.Chemscore.DEInternal.Weighted>
6.3564

> <Gold.Chemscore.Rot.Weighted>
8.1671

> <Gold.Chemscore.Internal.Correction.Weighted>
   9.000000E+99

> <Gold.Protein.RotatedTorsions>
[ 6907 6896 6895 6894 ] final  -43.22 input  -60.11 | X-H torsion
[ 7974 7965 7964 7962 ] final   96.92 input  175.53 | X-H torsion
[ 8008 7997 7996 7995 ] final  -57.54 input   59.86 | X-H torsion
[ 10167 10162 10161 10158 ] final  -19.70 input  -65.29 | X-H torsion
[ 10718 10713 10712 10709 ] final  -17.19 input   66.30 | X-H torsion
[ 10763 10752 10751 10750 ] final  -89.81 input  -60.55 | X-H torsion
[ 11005 11000 10999 10996 ] final   66.96 input  -57.11 | X-H torsion

> <Gold.Protein.ActiveResidues>
 VAL166  LYS551  ARG553  GLY616  TRP617  ASP618  TYR619  PRO620  LYS621  CYS622 
 ASP623  PHE694  ASN695  SER759  ASP760  ASP761  ALA762  ILE779  LEU786  VAL792 
 PHE793  MET794  SER795  GLU796  ALA797  LYS798  CYS799  TRP800  GLU811  SER814 

> <Gold.Protein.RotatedAtoms>
  150.9464  134.8868  159.7644 H   0  0  0  0  0  0  0  0  0  0  0  0  # atno 6907 bound_to 6896
  152.5102  134.3868  159.9380 H   0  0  0  0  0  0  0  0  0  0  0  0  # atno 6908 bound_to 6896
  151.3887  133.3756  159.2753 H   0  0  0  0  0  0  0  0  0  0  0  0  # atno 6909 bound_to 6896
  145.4324  139.2309  143.3137 H   0  0  0  0  0  0  0  0  0  0  0  0  # atno 7974 bound_to 7965
  154.4272  140.1104  156.5813 H   0  0  0  0  0  0  0  0  0  0  0  0  # atno 8008 bound_to 7997
  155.6109  140.3494  155.4603 H   0  0  0  0  0  0  0  0  0  0  0  0  # atno 8009 bound_to 7997
  156.0100  140.1217  157.0453 H   0  0  0  0  0  0  0  0  0  0  0  0  # atno 8010 bound_to 7997
  140.7270  143.4794  151.0139 H   0  0  0  0  0  0  0  0  0  0  0  0  # atno 10167 bound_to 10162
  156.5771  130.4764  149.6337 H   0  0  0  0  0  0  0  0  0  0  0  0  # atno 10718 bound_to 10713
  154.6592  135.5327  153.7997 H   0  0  0  0  0  0  0  0  0  0  0  0  # atno 10763 bound_to 10752
  153.0432  135.6501  154.0898 H   0  0  0  0  0  0  0  0  0  0  0  0  # atno 10764 bound_to 10752
  154.0808  135.2947  155.3270 H   0  0  0  0  0  0  0  0  0  0  0  0  # atno 10765 bound_to 10752
  139.9800  134.6760  156.0281 H   0  0  0  0  0  0  0  0  0  0  0  0  # atno 11005 bound_to 11000
  146.2600  140.5063  142.8857 LP  0  0  0  0  0  0  0  0  0  0  0  0  # atno 17320 bound_to 7965
  144.8174  140.6491  143.6375 LP  0  0  0  0  0  0  0  0  0  0  0  0  # atno 17321 bound_to 7965
  139.8491  143.7462  152.3178 LP  0  0  0  0  0  0  0  0  0  0  0  0  # atno 17342 bound_to 10162
  139.7638  144.7498  151.0325 LP  0  0  0  0  0  0  0  0  0  0  0  0  # atno 17343 bound_to 10162
  156.2664  130.6992  151.1776 LP  0  0  0  0  0  0  0  0  0  0  0  0  # atno 17370 bound_to 10713
  157.7335  131.0590  150.5573 LP  0  0  0  0  0  0  0  0  0  0  0  0  # atno 17371 bound_to 10713
  141.1473  133.6554  156.3905 LP  0  0  0  0  0  0  0  0  0  0  0  0  # atno 17394 bound_to 11000
  140.5117  134.6389  157.5286 LP  0  0  0  0  0  0  0  0  0  0  0  0  # atno 17395 bound_to 11000

$$$$
