AV-unprocessed.smi:598|AV-procd|sdf|3028|dock5
  -GOLD-   2262023543D 1   1.00000     0.00000
 Structure written by MMmdl.
 43 44  0  0  0  0  0  0  0  0  3 V2000
  147.5604  132.9159  152.4435 C   0  0  0  0  0  0  0  0  0  0  0  0
  146.9113  134.2948  152.2257 C   0  0  1  0  0  0  0  0  0  0  0  0
  145.8183  134.1887  151.1419 C   0  0  0  0  0  0  0  0  0  0  0  0
  145.1380  135.5370  150.8696 C   0  0  0  0  0  0  0  0  0  0  0  0
  144.5576  136.1311  152.1614 C   0  0  0  0  0  0  0  0  0  0  0  0
  145.6252  136.2634  153.2629 C   0  0  2  0  0  0  0  0  0  0  0  0
  146.5763  137.3177  152.9016 N   0  0  0  0  0  0  0  0  0  0  0  0
  146.6690  138.5321  153.4655 C   0  0  0  0  0  0  0  0  0  0  0  0
  145.9572  138.9014  154.4007 O   0  0  0  0  0  0  0  0  0  0  0  0
  147.7475  139.4544  152.8785 C   0  0  0  0  0  0  0  0  0  0  0  0
  148.8380  139.7629  153.8194 N   0  0  0  0  0  0  0  0  0  0  0  0
  149.7345  138.7190  154.1222 C   0  0  0  0  0  0  0  0  0  0  0  0
  150.7668  138.8854  154.9721 C   0  0  0  0  0  0  0  0  0  0  0  0
  151.6762  137.8014  155.2727 N   0  3  0  0  0  0  0  0  0  0  0  0
  152.6645  138.0361  155.9607 O   0  0  0  0  0  0  0  0  0  0  0  0
  151.4350  136.6819  154.8307 O   0  5  0  0  0  0  0  0  0  0  0  0
  150.9361  140.1911  155.5799 C   0  0  0  0  0  0  0  0  0  0  0  0
  150.0801  141.1927  155.2973 C   0  0  0  0  0  0  0  0  0  0  0  0
  148.9557  141.0086  154.3738 C   0  0  0  0  0  0  0  0  0  0  0  0
  148.1678  141.9185  154.1149 O   0  0  0  0  0  0  0  0  0  0  0  0
  146.3306  134.9060  153.5317 C   0  0  2  0  0  0  0  0  0  0  0  0
  147.3723  135.0192  154.6631 C   0  0  0  0  0  0  0  0  0  0  0  0
  146.8553  132.2105  152.8843 H   0  0  0  0  0  0  0  0  0  0  0  0
  148.4296  132.9764  153.0978 H   0  0  0  0  0  0  0  0  0  0  0  0
  147.9058  132.4925  151.4996 H   0  0  0  0  0  0  0  0  0  0  0  0
  147.6883  134.9625  151.8507 H   0  0  0  0  0  0  0  0  0  0  0  0
  146.2484  133.8088  150.2144 H   0  0  0  0  0  0  0  0  0  0  0  0
  145.0654  133.4617  151.4500 H   0  0  0  0  0  0  0  0  0  0  0  0
  145.8563  136.2295  150.4293 H   0  0  0  0  0  0  0  0  0  0  0  0
  144.3446  135.4088  150.1326 H   0  0  0  0  0  0  0  0  0  0  0  0
  144.1039  137.1017  151.9560 H   0  0  0  0  0  0  0  0  0  0  0  0
  143.7508  135.4894  152.5182 H   0  0  0  0  0  0  0  0  0  0  0  0
  145.1014  136.5565  154.1745 H   0  0  0  0  0  0  0  0  0  0  0  0
  147.2111  137.1053  152.1456 H   0  0  0  0  0  0  0  0  0  0  0  0
  148.1451  138.9853  151.9769 H   0  0  0  0  0  0  0  0  0  0  0  0
  147.2742  140.3754  152.5327 H   0  0  0  0  0  0  0  0  0  0  0  0
  149.5183  137.7847  153.6241 H   0  0  0  0  0  0  0  0  0  0  0  0
  151.7500  140.3750  156.2660 H   0  0  0  0  0  0  0  0  0  0  0  0
  150.2241  142.1572  155.7618 H   0  0  0  0  0  0  0  0  0  0  0  0
  145.5596  134.2225  153.8914 H   0  0  0  0  0  0  0  0  0  0  0  0
  148.2553  135.5733  154.3443 H   0  0  0  0  0  0  0  0  0  0  0  0
  147.7012  134.0388  155.0063 H   0  0  0  0  0  0  0  0  0  0  0  0
  146.9528  135.5314  155.5295 H   0  0  0  0  0  0  0  0  0  0  0  0
  1  2  1  0  0  0  0
  1 23  1  0  0  0  0
  1 24  1  0  0  0  0
  1 25  1  0  0  0  0
  2 21  1  0  0  0  0
  2  3  1  0  0  0  0
  2 26  1  0  0  0  0
  3  4  1  0  0  0  0
  3 27  1  0  0  0  0
  3 28  1  0  0  0  0
  4  5  1  0  0  0  0
  4 29  1  0  0  0  0
  4 30  1  0  0  0  0
  5  6  1  0  0  0  0
  5 31  1  0  0  0  0
  5 32  1  0  0  0  0
  6  7  1  0  0  0  0
  6 21  1  0  0  0  0
  6 33  1  0  0  0  0
  7  8  1  0  0  0  0
  7 34  1  0  0  0  0
  8  9  2  0  0  0  0
  8 10  1  0  0  0  0
 10 11  1  0  0  0  0
 10 35  1  0  0  0  0
 10 36  1  0  0  0  0
 11 19  1  0  0  0  0
 11 12  1  0  0  0  0
 12 13  2  0  0  0  0
 12 37  1  0  0  0  0
 13 14  1  0  0  0  0
 13 17  1  0  0  0  0
 14 15  2  0  0  0  0
 14 16  1  0  0  0  0
 17 18  2  0  0  0  0
 17 38  1  0  0  0  0
 18 19  1  0  0  0  0
 18 39  1  0  0  0  0
 19 20  2  0  0  0  0
 21 22  1  0  0  0  0
 21 40  1  0  0  0  0
 22 41  1  0  0  0  0
 22 42  1  0  0  0  0
 22 43  1  0  0  0  0
M  CHG  1  14   1
M  CHG  1  16  -1
M  END
> <s_m_source_file>
AV-unprocessed.smi

> <i_m_source_file_index>
598

> <i_lp_mmshare_version>
43012

> <i_f3d_flags>
0

> <s_epik_input>
W0NIM11bQ0BASF0xW0NIMl1bQ0gyXVtDSDJdW0NASF0oW0NASF0xW0NIM10pW05IXUMoPU8pW0NIMl1uMltjSF1jKFtOK10oPU8pW08tXSlbY0hdW2NIXWMyPU8=

> <s_epik_cmdline>
J2VwaWtfcHl0aG9uJywgJy1waCcsICc3LjAnLCAnLXRuJywgJzgnLCAnLW1hJywgJzIwMCcsICctbWV0YWxfYmluZGluZycsICctaW1hZScsICc8aW5maWxlLm1hZT4nLCAnLW9tYWUnLCAnPG91dGZpbGUubWFlPic=

> <r_lp_tautomer_probability>
1

> <r_epik_Ionization_Penalty>
1.91291e-08

> <r_epik_Ionization_Penalty_Charging>
8.21931e-11

> <r_epik_Ionization_Penalty_Neutral>
1.90469e-08

> <r_epik_State_Penalty>
-0

> <r_epik_Charging_Adjusted_Penalty>
8.21931e-11

> <i_epik_Tot_Q>
0

> <i_epik_Tot_abs_Q>
2

> <r_epik_Metal_State_Penalty>
-0

> <b_epik_Metal_Only>
0

> <s_lp_Force_Field>
OPLS_2005

> <r_lp_Energy>
23.1067

> <b_lp_Chiralities_Consistent>
1

> <s_lp_Variant>
AV-unprocessed.smi:598-8

> <Gold.Version>
5.8.1

> <Gold.Id.Protein>
6NUR|6NUR_protein|mol2

> <Gold.PLP.Fitness>
41.0069

> <Gold.PLP.PLP>
-33.2310

> <Gold.PLP.part.hbond>
-2.7244

> <Gold.PLP.part.metal>
0.0000

> <Gold.PLP.part.buried>
4.7209

> <Gold.PLP.part.nonpolar>
-34.8828

> <Gold.PLP.part.repulsive>
0.4374

> <Gold.PLP.ligand.clash>
0.0000

> <Gold.PLP.ligand.torsion>
0.2722

> <Gold.PLP.Chemscore.Hbond>
1.7680

> <Gold.PLP.Chemscore.CHOScore>
1.0000

> <Gold.PLP.Chemscore.Metal>
0.0000

> <Gold.Chemscore.Hbonds>
donor molecule, donor type, donor heavy atom, donor atom, acceptor molecule, acceptor atom, score
      L1  H     7    34       P1  7948  0.82
      P1  H 10752 10765       L1    16  1.00
      L1  C    12    37       P1  7948  1.00

> <Gold.PLP.Chemscore.Internal.Correction>
0.0164

> <Gold.Rescore>
     Score         DG    S(hbond)    S(metal)    S(lipo)     H(rot)  DE(clash)    DE(int)     intcor
     14.93     -15.39       1.92        0.00      63.53       1.54       0.22       0.24       ----

> <Gold.Chemscore.Fitness>
14.9257

> <Gold.Chemscore.DG>
-15.3888

> <Gold.Chemscore.ZeroCoef>
-5.4800

> <Gold.Chemscore.Hbond>
1.9212

> <Gold.Chemscore.Metal>
0.0000

> <Gold.Chemscore.Lipo>
63.5287

> <Gold.Chemscore.Internal_Hbond>
0.0000

> <Gold.Chemscore.DEClash>
0.2233

> <Gold.Chemscore.DEInternal>
0.2398

> <Gold.Chemscore.Rot>
1.5393

> <Gold.Chemscore.Internal.Correction>
   9.000000E+99

> <Gold.Chemscore.Hbonds>
donor molecule, donor type, donor heavy atom, donor atom, acceptor molecule, acceptor atom, score
      L1  H     7    34       P1  7948  0.81
      P1  H 10752 10765       L1    16  0.91

> <Gold.Chemscore.Hbond.Weighted>
-6.4167

> <Gold.Chemscore.Metal.Weighted>
-0.0000

> <Gold.Chemscore.Lipo.Weighted>
-7.4329

> <Gold.Chemscore.Internal_Hbond.Weighted>
0.0000

> <Gold.Chemscore.DEClash.Weighted>
0.2233

> <Gold.Chemscore.DEInternal.Weighted>
0.2398

> <Gold.Chemscore.Rot.Weighted>
3.9407

> <Gold.Chemscore.Internal.Correction.Weighted>
   9.000000E+99

> <Gold.Protein.RotatedTorsions>
[ 6907 6896 6895 6894 ] final -112.58 input  -60.11 | X-H torsion
[ 7974 7965 7964 7962 ] final  146.89 input  175.53 | X-H torsion
[ 8008 7997 7996 7995 ] final  -90.93 input   59.86 | X-H torsion
[ 10167 10162 10161 10158 ] final -160.76 input  -65.29 | X-H torsion
[ 10718 10713 10712 10709 ] final -125.01 input   66.30 | X-H torsion
[ 10763 10752 10751 10750 ] final  177.32 input  -60.55 | X-H torsion
[ 11005 11000 10999 10996 ] final -114.46 input  -57.11 | X-H torsion

> <Gold.Protein.ActiveResidues>
 VAL166  LYS551  ARG553  GLY616  TRP617  ASP618  TYR619  PRO620  LYS621  CYS622 
 ASP623  PHE694  ASN695  SER759  ASP760  ASP761  ALA762  ILE779  LEU786  VAL792 
 PHE793  MET794  SER795  GLU796  ALA797  LYS798  CYS799  TRP800  GLU811  SER814 

> <Gold.Protein.RotatedAtoms>
  150.7768  133.9069  159.3357 H   0  0  0  0  0  0  0  0  0  0  0  0  # atno 6907 bound_to 6896
  151.6941  135.0939  160.0248 H   0  0  0  0  0  0  0  0  0  0  0  0  # atno 6908 bound_to 6896
  152.3807  133.6504  159.6194 H   0  0  0  0  0  0  0  0  0  0  0  0  # atno 6909 bound_to 6896
  144.8635  139.5961  143.5920 H   0  0  0  0  0  0  0  0  0  0  0  0  # atno 7974 bound_to 7965
  154.7046  140.0525  157.0491 H   0  0  0  0  0  0  0  0  0  0  0  0  # atno 8008 bound_to 7997
  155.0638  140.3192  155.4633 H   0  0  0  0  0  0  0  0  0  0  0  0  # atno 8009 bound_to 7997
  156.2770  140.2094  156.5765 H   0  0  0  0  0  0  0  0  0  0  0  0  # atno 8010 bound_to 7997
  139.6515  144.0075  152.2165 H   0  0  0  0  0  0  0  0  0  0  0  0  # atno 10167 bound_to 10162
  156.1638  130.6620  151.0086 H   0  0  0  0  0  0  0  0  0  0  0  0  # atno 10718 bound_to 10713
  154.4929  135.2780  155.1482 H   0  0  0  0  0  0  0  0  0  0  0  0  # atno 10763 bound_to 10752
  154.3147  135.6222  153.5484 H   0  0  0  0  0  0  0  0  0  0  0  0  # atno 10764 bound_to 10752
  152.9890  135.5728  154.5354 H   0  0  0  0  0  0  0  0  0  0  0  0  # atno 10765 bound_to 10752
  141.0550  133.9626  157.2769 H   0  0  0  0  0  0  0  0  0  0  0  0  # atno 11005 bound_to 11000
  146.2878  139.7053  142.9183 LP  0  0  0  0  0  0  0  0  0  0  0  0  # atno 17320 bound_to 7965
  145.4267  141.0411  143.2934 LP  0  0  0  0  0  0  0  0  0  0  0  0  # atno 17321 bound_to 7965
  139.9791  144.6441  150.7918 LP  0  0  0  0  0  0  0  0  0  0  0  0  # atno 17342 bound_to 10162
  140.7540  143.3018  151.3060 LP  0  0  0  0  0  0  0  0  0  0  0  0  # atno 17343 bound_to 10162
  157.6752  131.0852  150.7511 LP  0  0  0  0  0  0  0  0  0  0  0  0  # atno 17370 bound_to 10713
  156.7573  130.4787  149.5444 LP  0  0  0  0  0  0  0  0  0  0  0  0  # atno 17371 bound_to 10713
  139.9383  135.0194  156.8626 LP  0  0  0  0  0  0  0  0  0  0  0  0  # atno 17394 bound_to 11000
  140.5981  134.0198  155.7526 LP  0  0  0  0  0  0  0  0  0  0  0  0  # atno 17395 bound_to 11000

$$$$
