AV-unprocessed.smi:3326|AV-procd|sdf|12786|dock4
  -GOLD-   2272019133D 1   1.00000     0.00000
 Structure written by MMmdl.
 30 31  0  0  0  0  0  0  0  0  1 V2000
  151.5868  145.0732  160.3856 F   0  0  0  0  0  0  0  0  0  0  0  0
  151.5551  144.2639  159.3262 C   0  0  0  0  0  0  0  0  0  0  0  0
  150.2783  144.0554  159.0039 F   0  0  0  0  0  0  0  0  0  0  0  0
  152.1611  144.8849  158.3139 F   0  0  0  0  0  0  0  0  0  0  0  0
  152.2466  142.9324  159.6107 C   0  0  0  0  0  0  0  0  0  0  0  0
  152.9813  142.7481  160.8042 C   0  0  0  0  0  0  0  0  0  0  0  0
  153.6113  141.5133  161.0435 C   0  0  0  0  0  0  0  0  0  0  0  0
  153.4844  140.5016  160.0752 C   0  0  0  0  0  0  0  0  0  0  0  0
  152.7866  140.6598  158.9319 N   0  0  0  0  0  0  0  0  0  0  0  0
  152.1768  141.8472  158.6979 C   0  0  0  0  0  0  0  0  0  0  0  0
  151.4545  141.9869  157.5027 N   0  0  0  0  0  0  0  0  0  0  0  0
  151.6241  141.0498  156.4012 C   0  0  0  0  0  0  0  0  0  0  0  0
  150.2717  140.6007  155.8317 C   0  0  1  0  0  0  0  0  0  0  0  0
  149.3377  141.7434  155.4427 C   0  0  0  0  0  0  0  0  0  0  0  0
  148.3845  141.0645  154.4789 C   0  0  0  0  0  0  0  0  0  0  0  0
  149.2229  139.9294  153.8820 C   0  0  0  0  0  0  0  0  0  0  0  0
  150.4551  139.9255  154.5973 O   0  0  0  0  0  0  0  0  0  0  0  0
  153.0683  143.5374  161.5357 H   0  0  0  0  0  0  0  0  0  0  0  0
  154.1784  141.3459  161.9472 H   0  0  0  0  0  0  0  0  0  0  0  0
  153.9544  139.5404  160.2219 H   0  0  0  0  0  0  0  0  0  0  0  0
  150.7850  142.7362  157.4037 H   0  0  0  0  0  0  0  0  0  0  0  0
  152.2291  141.5076  155.6177 H   0  0  0  0  0  0  0  0  0  0  0  0
  152.1717  140.1791  156.7638 H   0  0  0  0  0  0  0  0  0  0  0  0
  149.7703  139.9218  156.5242 H   0  0  0  0  0  0  0  0  0  0  0  0
  148.8313  142.1919  156.2978 H   0  0  0  0  0  0  0  0  0  0  0  0
  149.8926  142.5272  154.9250 H   0  0  0  0  0  0  0  0  0  0  0  0
  147.5322  140.6527  155.0209 H   0  0  0  0  0  0  0  0  0  0  0  0
  148.0029  141.7500  153.7217 H   0  0  0  0  0  0  0  0  0  0  0  0
  148.7186  138.9698  154.0016 H   0  0  0  0  0  0  0  0  0  0  0  0
  149.4157  140.0803  152.8195 H   0  0  0  0  0  0  0  0  0  0  0  0
  1  2  1  0  0  0  0
  2  3  1  0  0  0  0
  2  4  1  0  0  0  0
  2  5  1  0  0  0  0
  5 10  1  0  0  0  0
  5  6  2  0  0  0  0
  6  7  1  0  0  0  0
  6 18  1  0  0  0  0
  7  8  2  0  0  0  0
  7 19  1  0  0  0  0
  8  9  1  0  0  0  0
  8 20  1  0  0  0  0
  9 10  2  0  0  0  0
 10 11  1  0  0  0  0
 11 12  1  0  0  0  0
 11 21  1  0  0  0  0
 12 13  1  0  0  0  0
 12 22  1  0  0  0  0
 12 23  1  0  0  0  0
 13 17  1  0  0  0  0
 13 14  1  0  0  0  0
 13 24  1  0  0  0  0
 14 15  1  0  0  0  0
 14 25  1  0  0  0  0
 14 26  1  0  0  0  0
 15 16  1  0  0  0  0
 15 27  1  0  0  0  0
 15 28  1  0  0  0  0
 16 17  1  0  0  0  0
 16 29  1  0  0  0  0
 16 30  1  0  0  0  0
M  END
> <s_m_source_file>
AV-unprocessed.smi

> <i_m_source_file_index>
3326

> <i_lp_mmshare_version>
43012

> <i_f3d_flags>
0

> <s_epik_input>
RkMoRikoRiljMVtjSF1bY0hdW2NIXW5jMVtOSF1bQ0gyXVtDQEBIXTJbQ0gyXVtDSDJdW0NIMl1PMg==

> <s_epik_cmdline>
J2VwaWtfcHl0aG9uJywgJy1waCcsICc3LjAnLCAnLXRuJywgJzgnLCAnLW1hJywgJzIwMCcsICctbWV0YWxfYmluZGluZycsICctaW1hZScsICc8aW5maWxlLm1hZT4nLCAnLW9tYWUnLCAnPG91dGZpbGUubWFlPic=

> <r_lp_tautomer_probability>
1

> <r_epik_Ionization_Penalty>
0.000820218

> <r_epik_Ionization_Penalty_Charging>
0

> <r_epik_Ionization_Penalty_Neutral>
0.000820218

> <r_epik_State_Penalty>
0.000527207

> <r_epik_Charging_Adjusted_Penalty>
0.000527207

> <i_epik_Tot_Q>
0

> <i_epik_Tot_abs_Q>
0

> <r_epik_Metal_State_Penalty>
-0

> <b_epik_Metal_Only>
0

> <s_lp_Force_Field>
OPLS_2005

> <r_lp_Energy>
21.9295

> <b_lp_Chiralities_Consistent>
1

> <s_lp_Variant>
AV-unprocessed.smi:3326-2

> <Gold.Version>
5.8.1

> <Gold.Id.Protein>
6NUR|6NUR_protein|mol2

> <Gold.PLP.Fitness>
45.1621

> <Gold.PLP.PLP>
-42.7243

> <Gold.PLP.part.hbond>
-1.0000

> <Gold.PLP.part.metal>
0.0000

> <Gold.PLP.part.buried>
-1.4154

> <Gold.PLP.part.nonpolar>
-40.3001

> <Gold.PLP.part.repulsive>
0.1588

> <Gold.PLP.ligand.clash>
0.2412

> <Gold.PLP.ligand.torsion>
0.4088

> <Gold.PLP.Chemscore.Hbond>
1.0000

> <Gold.PLP.Chemscore.CHOScore>
0.0000

> <Gold.PLP.Chemscore.Metal>
0.0000

> <Gold.Chemscore.Hbonds>
donor molecule, donor type, donor heavy atom, donor atom, acceptor molecule, acceptor atom, score
      P1  H  7989  7998       L1    17  1.00

> <Gold.PLP.Chemscore.Internal.Correction>
0.4966

> <Gold.Rescore>
     Score         DG    S(hbond)    S(metal)    S(lipo)     H(rot)  DE(clash)    DE(int)     intcor
     12.73     -14.93       0.82        0.00      84.73       1.25       0.12       2.08       ----

> <Gold.Chemscore.Fitness>
12.7328

> <Gold.Chemscore.DG>
-14.9252

> <Gold.Chemscore.ZeroCoef>
-5.4800

> <Gold.Chemscore.Hbond>
0.8189

> <Gold.Chemscore.Metal>
0.0000

> <Gold.Chemscore.Lipo>
84.7310

> <Gold.Chemscore.Internal_Hbond>
0.0000

> <Gold.Chemscore.DEClash>
0.1153

> <Gold.Chemscore.DEInternal>
2.0770

> <Gold.Chemscore.Rot>
1.2514

> <Gold.Chemscore.Internal.Correction>
   9.000000E+99

> <Gold.Chemscore.Hbonds>
donor molecule, donor type, donor heavy atom, donor atom, acceptor molecule, acceptor atom, score
      P1  H  7989  7998       L1    17  0.35

> <Gold.Chemscore.Hbond.Weighted>
-2.7352

> <Gold.Chemscore.Metal.Weighted>
-0.0000

> <Gold.Chemscore.Lipo.Weighted>
-9.9135

> <Gold.Chemscore.Internal_Hbond.Weighted>
0.0000

> <Gold.Chemscore.DEClash.Weighted>
0.1153

> <Gold.Chemscore.DEInternal.Weighted>
2.0770

> <Gold.Chemscore.Rot.Weighted>
3.2036

> <Gold.Chemscore.Internal.Correction.Weighted>
   9.000000E+99

> <Gold.Protein.RotatedTorsions>
[ 6907 6896 6895 6894 ] final  -42.12 input  -60.11 | X-H torsion
[ 7974 7965 7964 7962 ] final  -66.29 input  175.53 | X-H torsion
[ 8008 7997 7996 7995 ] final  -25.24 input   59.86 | X-H torsion
[ 10167 10162 10161 10158 ] final   88.28 input  -65.29 | X-H torsion
[ 10718 10713 10712 10709 ] final  -90.61 input   66.30 | X-H torsion
[ 10763 10752 10751 10750 ] final -121.23 input  -60.55 | X-H torsion
[ 11005 11000 10999 10996 ] final  -39.99 input  -57.11 | X-H torsion

> <Gold.Protein.ActiveResidues>
 VAL166  LYS551  ARG553  GLY616  TRP617  ASP618  TYR619  PRO620  LYS621  CYS622 
 ASP623  PHE694  ASN695  SER759  ASP760  ASP761  ALA762  ILE779  LEU786  VAL792 
 PHE793  MET794  SER795  GLU796  ALA797  LYS798  CYS799  TRP800  GLU811  SER814 

> <Gold.Protein.RotatedAtoms>
  150.9588  134.8979  159.7717 H   0  0  0  0  0  0  0  0  0  0  0  0  # atno 6907 bound_to 6896
  152.5148  134.3701  159.9325 H   0  0  0  0  0  0  0  0  0  0  0  0  # atno 6908 bound_to 6896
  151.3714  133.3813  159.2735 H   0  0  0  0  0  0  0  0  0  0  0  0  # atno 6909 bound_to 6896
  145.7436  140.8942  143.0517 H   0  0  0  0  0  0  0  0  0  0  0  0  # atno 7974 bound_to 7965
  154.4486  140.1932  156.0588 H   0  0  0  0  0  0  0  0  0  0  0  0  # atno 8008 bound_to 7997
  156.0598  140.3298  155.7421 H   0  0  0  0  0  0  0  0  0  0  0  0  # atno 8009 bound_to 7997
  155.5428  140.0588  157.2857 H   0  0  0  0  0  0  0  0  0  0  0  0  # atno 8010 bound_to 7997
  139.8689  144.6503  150.8972 H   0  0  0  0  0  0  0  0  0  0  0  0  # atno 10167 bound_to 10162
  155.9989  130.4916  150.5349 H   0  0  0  0  0  0  0  0  0  0  0  0  # atno 10718 bound_to 10713
  154.8663  135.4175  154.2586 H   0  0  0  0  0  0  0  0  0  0  0  0  # atno 10763 bound_to 10752
  153.3518  135.6999  153.6788 H   0  0  0  0  0  0  0  0  0  0  0  0  # atno 10764 bound_to 10752
  153.5724  135.3588  155.2815 H   0  0  0  0  0  0  0  0  0  0  0  0  # atno 10765 bound_to 10752
  141.0142  133.6893  156.2260 H   0  0  0  0  0  0  0  0  0  0  0  0  # atno 11005 bound_to 11000
  144.6865  139.9495  143.7477 LP  0  0  0  0  0  0  0  0  0  0  0  0  # atno 17320 bound_to 7965
  146.0424  139.3434  143.0689 LP  0  0  0  0  0  0  0  0  0  0  0  0  # atno 17321 bound_to 7965
  140.7764  143.3680  151.1702 LP  0  0  0  0  0  0  0  0  0  0  0  0  # atno 17342 bound_to 10162
  139.7302  143.9084  152.3017 LP  0  0  0  0  0  0  0  0  0  0  0  0  # atno 17343 bound_to 10162
  157.3294  131.0696  151.1872 LP  0  0  0  0  0  0  0  0  0  0  0  0  # atno 17370 bound_to 10713
  157.2759  130.6726  149.6042 LP  0  0  0  0  0  0  0  0  0  0  0  0  # atno 17371 bound_to 10713
  140.6683  134.4895  157.5586 LP  0  0  0  0  0  0  0  0  0  0  0  0  # atno 17394 bound_to 11000
  139.9107  134.8351  156.1539 LP  0  0  0  0  0  0  0  0  0  0  0  0  # atno 17395 bound_to 11000

$$$$
