AV-unprocessed.smi:3229|AV-procd|sdf|12327|dock6
  -GOLD-   2272018173D 1   1.00000     0.00000
 Structure written by MMmdl.
 35 36  0  0  0  0  0  0  0  0  1 V2000
  151.9561  145.3468  160.0716 C   0  0  0  0  0  0  0  0  0  0  0  0
  152.1963  144.8075  158.6572 C   0  0  0  0  0  0  0  0  0  0  0  0
  151.7991  143.3771  158.4961 C   0  0  0  0  0  0  0  0  0  0  0  0
  150.8100  142.8693  157.6908 C   0  0  0  0  0  0  0  0  0  0  0  0
  150.6810  141.4809  157.7617 N   0  0  0  0  0  0  0  0  0  0  0  0
  151.5499  140.9298  158.6134 C   0  0  0  0  0  0  0  0  0  0  0  0
  151.6526  139.4575  158.8551 C   0  0  0  0  0  0  0  0  0  0  0  0
  150.4104  138.6624  158.4067 C   0  0  0  0  0  0  0  0  0  0  0  0
  149.8481  137.8401  159.4735 N   0  0  0  0  0  0  0  0  0  0  0  0
  148.7262  137.1099  159.3777 C   0  0  0  0  0  0  0  0  0  0  0  0
  148.0273  137.0825  158.3642 O   0  0  0  0  0  0  0  0  0  0  0  0
  148.3552  136.2591  160.5993 C   0  0  2  0  0  0  0  0  0  0  0  0
  147.2073  135.2726  160.3621 C   0  0  0  0  0  0  0  0  0  0  0  0
  146.6433  135.1197  161.7566 C   0  0  0  0  0  0  0  0  0  0  0  0
  146.7710  136.5376  162.3031 C   0  0  0  0  0  0  0  0  0  0  0  0
  147.9165  137.0994  161.6682 O   0  0  0  0  0  0  0  0  0  0  0  0
  152.6111  142.1073  159.3766 S   0  0  0  0  0  0  0  0  0  0  0  0
  152.2697  146.3881  160.1481 H   0  0  0  0  0  0  0  0  0  0  0  0
  152.5174  144.7744  160.8108 H   0  0  0  0  0  0  0  0  0  0  0  0
  150.9004  145.2975  160.3395 H   0  0  0  0  0  0  0  0  0  0  0  0
  151.6466  145.4172  157.9396 H   0  0  0  0  0  0  0  0  0  0  0  0
  153.2510  144.9225  158.4045 H   0  0  0  0  0  0  0  0  0  0  0  0
  150.1530  143.4219  157.0355 H   0  0  0  0  0  0  0  0  0  0  0  0
  152.5342  139.0819  158.3352 H   0  0  0  0  0  0  0  0  0  0  0  0
  151.8350  139.2936  159.9180 H   0  0  0  0  0  0  0  0  0  0  0  0
  149.6334  139.3562  158.0853 H   0  0  0  0  0  0  0  0  0  0  0  0
  150.6479  138.0439  157.5399 H   0  0  0  0  0  0  0  0  0  0  0  0
  150.3623  137.8010  160.3419 H   0  0  0  0  0  0  0  0  0  0  0  0
  149.2403  135.7189  160.9390 H   0  0  0  0  0  0  0  0  0  0  0  0
  146.4501  135.6930  159.6976 H   0  0  0  0  0  0  0  0  0  0  0  0
  147.5453  134.3251  159.9413 H   0  0  0  0  0  0  0  0  0  0  0  0
  145.6186  134.7473  161.7689 H   0  0  0  0  0  0  0  0  0  0  0  0
  147.2639  134.4359  162.3374 H   0  0  0  0  0  0  0  0  0  0  0  0
  145.8983  137.1305  162.0264 H   0  0  0  0  0  0  0  0  0  0  0  0
  146.8644  136.5596  163.3890 H   0  0  0  0  0  0  0  0  0  0  0  0
  1  2  1  0  0  0  0
  1 18  1  0  0  0  0
  1 19  1  0  0  0  0
  1 20  1  0  0  0  0
  2  3  1  0  0  0  0
  2 21  1  0  0  0  0
  2 22  1  0  0  0  0
  3 17  1  0  0  0  0
  3  4  2  0  0  0  0
  4  5  1  0  0  0  0
  4 23  1  0  0  0  0
  5  6  2  0  0  0  0
  6  7  1  0  0  0  0
  6 17  1  0  0  0  0
  7  8  1  0  0  0  0
  7 24  1  0  0  0  0
  7 25  1  0  0  0  0
  8  9  1  0  0  0  0
  8 26  1  0  0  0  0
  8 27  1  0  0  0  0
  9 10  1  0  0  0  0
  9 28  1  0  0  0  0
 10 11  2  0  0  0  0
 10 12  1  0  0  0  0
 12 16  1  0  0  0  0
 12 13  1  0  0  0  0
 12 29  1  0  0  0  0
 13 14  1  0  0  0  0
 13 30  1  0  0  0  0
 13 31  1  0  0  0  0
 14 15  1  0  0  0  0
 14 32  1  0  0  0  0
 14 33  1  0  0  0  0
 15 16  1  0  0  0  0
 15 34  1  0  0  0  0
 15 35  1  0  0  0  0
M  END
> <s_m_source_file>
AV-unprocessed.smi

> <i_m_source_file_index>
3229

> <i_lp_mmshare_version>
43012

> <i_f3d_flags>
0

> <s_epik_input>
W0NIM11bQ0gyXWMxW2NIXW5jKHMxKVtDSDJdW0NIMl1bTkhdQyg9TylbQ0BASF0yW0NIMl1bQ0gyXVtDSDJdTzI=

> <s_epik_cmdline>
J2VwaWtfcHl0aG9uJywgJy1waCcsICc3LjAnLCAnLXRuJywgJzgnLCAnLW1hJywgJzIwMCcsICctbWV0YWxfYmluZGluZycsICctaW1hZScsICc8aW5maWxlLm1hZT4nLCAnLW9tYWUnLCAnPG91dGZpbGUubWFlPic=

> <r_epik_Ionization_Penalty>
0.000508191

> <r_epik_Ionization_Penalty_Charging>
0

> <r_epik_Ionization_Penalty_Neutral>
0.000508191

> <r_epik_State_Penalty>
0.000316483

> <r_epik_Charging_Adjusted_Penalty>
0.000316483

> <i_epik_Tot_Q>
0

> <i_epik_Tot_abs_Q>
0

> <r_epik_Metal_State_Penalty>
-0

> <b_epik_Metal_Only>
0

> <s_lp_Force_Field>
OPLS_2005

> <r_lp_Energy>
9.62318

> <b_lp_Chiralities_Consistent>
1

> <s_lp_Variant>
AV-unprocessed.smi:3229-1

> <Gold.Version>
5.8.1

> <Gold.Id.Protein>
6NUR|6NUR_protein|mol2

> <Gold.PLP.Fitness>
41.3628

> <Gold.PLP.PLP>
-35.0390

> <Gold.PLP.part.hbond>
-2.0000

> <Gold.PLP.part.metal>
0.0000

> <Gold.PLP.part.buried>
-4.7773

> <Gold.PLP.part.nonpolar>
-29.6230

> <Gold.PLP.part.repulsive>
1.1641

> <Gold.PLP.ligand.clash>
0.0000

> <Gold.PLP.ligand.torsion>
0.7991

> <Gold.PLP.Chemscore.Hbond>
1.6292

> <Gold.PLP.Chemscore.CHOScore>
1.0000

> <Gold.PLP.Chemscore.Metal>
0.0000

> <Gold.Chemscore.Hbonds>
donor molecule, donor type, donor heavy atom, donor atom, acceptor molecule, acceptor atom, score
      P1  H  6931  6943       L1    16  1.00
      P1  H  6934  6947       L1    16  0.42
      L1  C     4    23       P1  8028  1.00

> <Gold.PLP.Chemscore.Internal.Correction>
0.0344

> <Gold.Rescore>
     Score         DG    S(hbond)    S(metal)    S(lipo)     H(rot)  DE(clash)    DE(int)     intcor
     15.60     -16.12       0.98        0.00      98.01       1.60       0.00       0.51       ----

> <Gold.Chemscore.Fitness>
15.6018

> <Gold.Chemscore.DG>
-16.1186

> <Gold.Chemscore.ZeroCoef>
-5.4800

> <Gold.Chemscore.Hbond>
0.9814

> <Gold.Chemscore.Metal>
0.0000

> <Gold.Chemscore.Lipo>
98.0087

> <Gold.Chemscore.Internal_Hbond>
0.0000

> <Gold.Chemscore.DEClash>
0.0021

> <Gold.Chemscore.DEInternal>
0.5146

> <Gold.Chemscore.Rot>
1.6040

> <Gold.Chemscore.Internal.Correction>
   9.000000E+99

> <Gold.Chemscore.Hbonds>
donor molecule, donor type, donor heavy atom, donor atom, acceptor molecule, acceptor atom, score
      P1  H  6931  6943       L1    16  0.69
      P1  H  6934  6947       L1    16  0.13

> <Gold.Chemscore.Hbond.Weighted>
-3.2778

> <Gold.Chemscore.Metal.Weighted>
-0.0000

> <Gold.Chemscore.Lipo.Weighted>
-11.4670

> <Gold.Chemscore.Internal_Hbond.Weighted>
0.0000

> <Gold.Chemscore.DEClash.Weighted>
0.0021

> <Gold.Chemscore.DEInternal.Weighted>
0.5146

> <Gold.Chemscore.Rot.Weighted>
4.1062

> <Gold.Chemscore.Internal.Correction.Weighted>
   9.000000E+99

> <Gold.Protein.RotatedTorsions>
[ 6907 6896 6895 6894 ] final  161.17 input  -60.11 | X-H torsion
[ 7974 7965 7964 7962 ] final   88.51 input  175.53 | X-H torsion
[ 8008 7997 7996 7995 ] final  127.41 input   59.86 | X-H torsion
[ 10167 10162 10161 10158 ] final  -26.26 input  -65.29 | X-H torsion
[ 10718 10713 10712 10709 ] final -111.12 input   66.30 | X-H torsion
[ 10763 10752 10751 10750 ] final -142.89 input  -60.55 | X-H torsion
[ 11005 11000 10999 10996 ] final -150.28 input  -57.11 | X-H torsion

> <Gold.Protein.ActiveResidues>
 VAL166  LYS551  ARG553  GLY616  TRP617  ASP618  TYR619  PRO620  LYS621  CYS622 
 ASP623  PHE694  ASN695  SER759  ASP760  ASP761  ALA762  ILE779  LEU786  VAL792 
 PHE793  MET794  SER795  GLU796  ALA797  LYS798  CYS799  TRP800  GLU811  SER814 

> <Gold.Protein.RotatedAtoms>
  151.9596  133.3691  159.4030 H   0  0  0  0  0  0  0  0  0  0  0  0  # atno 6907 bound_to 6896
  150.6966  134.4254  159.5233 H   0  0  0  0  0  0  0  0  0  0  0  0  # atno 6908 bound_to 6896
  152.1940  134.8646  160.0565 H   0  0  0  0  0  0  0  0  0  0  0  0  # atno 6909 bound_to 6896
  145.5448  139.2291  143.2546 H   0  0  0  0  0  0  0  0  0  0  0  0  # atno 7974 bound_to 7965
  156.2890  140.2669  156.2269 H   0  0  0  0  0  0  0  0  0  0  0  0  # atno 8008 bound_to 7997
  155.0111  140.0387  157.2418 H   0  0  0  0  0  0  0  0  0  0  0  0  # atno 8009 bound_to 7997
  154.7517  140.2744  155.6292 H   0  0  0  0  0  0  0  0  0  0  0  0  # atno 8010 bound_to 7997
  140.7283  143.4194  151.0976 H   0  0  0  0  0  0  0  0  0  0  0  0  # atno 10167 bound_to 10162
  156.0629  130.5850  150.8330 H   0  0  0  0  0  0  0  0  0  0  0  0  # atno 10718 bound_to 10713
  154.8492  135.3483  154.6099 H   0  0  0  0  0  0  0  0  0  0  0  0  # atno 10763 bound_to 10752
  153.6708  135.6985  153.5152 H   0  0  0  0  0  0  0  0  0  0  0  0  # atno 10764 bound_to 10752
  153.2744  135.4283  155.0975 H   0  0  0  0  0  0  0  0  0  0  0  0  # atno 10765 bound_to 10752
  140.7418  134.3505  157.5145 H   0  0  0  0  0  0  0  0  0  0  0  0  # atno 11005 bound_to 11000
  146.1957  140.6269  142.9125 LP  0  0  0  0  0  0  0  0  0  0  0  0  # atno 17320 bound_to 7965
  144.7559  140.5305  143.6769 LP  0  0  0  0  0  0  0  0  0  0  0  0  # atno 17321 bound_to 7965
  139.7838  143.8317  152.3141 LP  0  0  0  0  0  0  0  0  0  0  0  0  # atno 17342 bound_to 10162
  139.8278  144.7267  150.9490 LP  0  0  0  0  0  0  0  0  0  0  0  0  # atno 17343 bound_to 10162
  157.5650  131.0946  150.9503 LP  0  0  0  0  0  0  0  0  0  0  0  0  # atno 17370 bound_to 10713
  156.9732  130.5499  149.5292 LP  0  0  0  0  0  0  0  0  0  0  0  0  # atno 17371 bound_to 10713
  139.8804  134.9086  156.2971 LP  0  0  0  0  0  0  0  0  0  0  0  0  # atno 17394 bound_to 11000
  140.9829  133.7256  156.0699 LP  0  0  0  0  0  0  0  0  0  0  0  0  # atno 17395 bound_to 11000

$$$$
