AV-unprocessed.smi:1584|AV-procd|sdf|6365|dock1
  -GOLD-   22720 6593D 1   1.00000     0.00000
 Structure written by MMmdl.
 39 40  0  0  0  0  0  0  0  0  1 V2000
  154.4981  136.1417  160.9667 C   0  0  0  0  0  0  0  0  0  0  0  0
  154.5503  137.2245  162.0553 C   0  0  2  0  0  0  0  0  0  0  0  0
  153.8831  136.7479  163.3601 C   0  0  0  0  0  0  0  0  0  0  0  0
  154.5632  135.6050  163.9435 N   0  0  0  0  0  0  0  0  0  0  0  0
  154.0521  134.3556  164.2268 C   0  0  0  0  0  0  0  0  0  0  0  0
  155.0623  133.6185  164.7751 C   0  0  0  0  0  0  0  0  0  0  0  0
  156.1677  134.5144  164.7845 C   0  0  0  0  0  0  0  0  0  0  0  0
  155.8662  135.7021  164.2850 N   0  0  0  0  0  0  0  0  0  0  0  0
  153.8966  138.4412  161.5776 N   0  0  0  0  0  0  0  0  0  0  0  0
  154.4458  139.6652  161.5542 C   0  0  0  0  0  0  0  0  0  0  0  0
  155.6009  139.8957  161.9140 O   0  0  0  0  0  0  0  0  0  0  0  0
  153.5498  140.8022  161.0452 C   0  0  2  0  0  0  0  0  0  0  0  0
  154.1122  141.3993  159.7496 C   0  0  0  0  0  0  0  0  0  0  0  0
  153.1648  142.4831  159.2193 C   0  0  0  0  0  0  0  0  0  0  0  0
  152.7390  143.4457  160.2453 N   0  0  0  0  0  0  0  0  0  0  0  0
  152.1798  144.6946  159.7248 C   0  0  0  0  0  0  0  0  0  0  0  0
  152.7779  143.2135  161.5801 C   0  0  0  0  0  0  0  0  0  0  0  0
  152.3532  144.0243  162.4039 O   0  0  0  0  0  0  0  0  0  0  0  0
  153.4044  141.9111  162.1067 C   0  0  0  0  0  0  0  0  0  0  0  0
  154.9955  135.2298  161.2982 H   0  0  0  0  0  0  0  0  0  0  0  0
  154.9972  136.4734  160.0555 H   0  0  0  0  0  0  0  0  0  0  0  0
  153.4698  135.8854  160.7099 H   0  0  0  0  0  0  0  0  0  0  0  0
  155.5997  137.4361  162.2700 H   0  0  0  0  0  0  0  0  0  0  0  0
  153.8576  137.5532  164.0958 H   0  0  0  0  0  0  0  0  0  0  0  0
  152.8460  136.4661  163.1721 H   0  0  0  0  0  0  0  0  0  0  0  0
  153.0231  134.1000  164.0206 H   0  0  0  0  0  0  0  0  0  0  0  0
  155.0185  132.5954  165.1179 H   0  0  0  0  0  0  0  0  0  0  0  0
  157.1735  134.3382  165.1363 H   0  0  0  0  0  0  0  0  0  0  0  0
  152.9434  138.3475  161.2583 H   0  0  0  0  0  0  0  0  0  0  0  0
  152.5593  140.3945  160.8337 H   0  0  0  0  0  0  0  0  0  0  0  0
  155.0962  141.8353  159.9311 H   0  0  0  0  0  0  0  0  0  0  0  0
  154.2488  140.6260  158.9924 H   0  0  0  0  0  0  0  0  0  0  0  0
  153.6504  143.0053  158.3936 H   0  0  0  0  0  0  0  0  0  0  0  0
  152.2697  142.0142  158.8084 H   0  0  0  0  0  0  0  0  0  0  0  0
  151.1916  144.8874  160.1453 H   0  0  0  0  0  0  0  0  0  0  0  0
  152.0684  144.6743  158.6400 H   0  0  0  0  0  0  0  0  0  0  0  0
  152.8290  145.5344  159.9767 H   0  0  0  0  0  0  0  0  0  0  0  0
  152.8042  141.5449  162.9409 H   0  0  0  0  0  0  0  0  0  0  0  0
  154.3790  142.1734  162.5211 H   0  0  0  0  0  0  0  0  0  0  0  0
  1  2  1  0  0  0  0
  1 20  1  0  0  0  0
  1 21  1  0  0  0  0
  1 22  1  0  0  0  0
  2  3  1  0  0  0  0
  2  9  1  0  0  0  0
  2 23  1  0  0  0  0
  3  4  1  0  0  0  0
  3 24  1  0  0  0  0
  3 25  1  0  0  0  0
  4  8  1  0  0  0  0
  4  5  1  0  0  0  0
  5  6  2  0  0  0  0
  5 26  1  0  0  0  0
  6  7  1  0  0  0  0
  6 27  1  0  0  0  0
  7  8  2  0  0  0  0
  7 28  1  0  0  0  0
  9 10  1  0  0  0  0
  9 29  1  0  0  0  0
 10 11  2  0  0  0  0
 10 12  1  0  0  0  0
 12 19  1  0  0  0  0
 12 13  1  0  0  0  0
 12 30  1  0  0  0  0
 13 14  1  0  0  0  0
 13 31  1  0  0  0  0
 13 32  1  0  0  0  0
 14 15  1  0  0  0  0
 14 33  1  0  0  0  0
 14 34  1  0  0  0  0
 15 16  1  0  0  0  0
 15 17  1  0  0  0  0
 16 35  1  0  0  0  0
 16 36  1  0  0  0  0
 16 37  1  0  0  0  0
 17 18  2  0  0  0  0
 17 19  1  0  0  0  0
 19 38  1  0  0  0  0
 19 39  1  0  0  0  0
M  END
> <s_m_source_file>
AV-unprocessed.smi

> <i_m_source_file_index>
1584

> <i_lp_mmshare_version>
43012

> <i_f3d_flags>
0

> <s_epik_input>
bjFbY0hdW2NIXVtjSF1uMVtDSDJdW0NAQEhdKFtDSDNdKVtOSF1DKD1PKVtDQEBIXTJbQ0gyXVtDSDJdTihbQ0gzXSlDKD1PKVtDSDJdMg==

> <s_epik_cmdline>
J2VwaWtfcHl0aG9uJywgJy1waCcsICc3LjAnLCAnLXRuJywgJzgnLCAnLW1hJywgJzIwMCcsICctbWV0YWxfYmluZGluZycsICctaW1hZScsICc8aW5maWxlLm1hZT4nLCAnLW9tYWUnLCAnPG91dGZpbGUubWFlPic=

> <r_lp_tautomer_probability>
1

> <r_epik_Ionization_Penalty>
0.000299422

> <r_epik_Ionization_Penalty_Charging>
0

> <r_epik_Ionization_Penalty_Neutral>
0.000299422

> <r_epik_State_Penalty>
-0

> <r_epik_Charging_Adjusted_Penalty>
0

> <i_epik_Tot_Q>
0

> <i_epik_Tot_abs_Q>
0

> <r_epik_Metal_State_Penalty>
-0

> <b_epik_Metal_Only>
0

> <s_lp_Force_Field>
OPLS_2005

> <r_lp_Energy>
13.4891

> <b_lp_Chiralities_Consistent>
1

> <s_lp_Variant>
AV-unprocessed.smi:1584-1

> <Gold.Version>
5.8.1

> <Gold.Id.Protein>
6NUR|6NUR_protein|mol2

> <Gold.PLP.Fitness>
40.4392

> <Gold.PLP.PLP>
-40.5795

> <Gold.PLP.part.hbond>
0.0000

> <Gold.PLP.part.metal>
0.0000

> <Gold.PLP.part.buried>
-3.9811

> <Gold.PLP.part.nonpolar>
-36.5582

> <Gold.PLP.part.repulsive>
0.2903

> <Gold.PLP.ligand.clash>
0.0000

> <Gold.PLP.ligand.torsion>
0.0864

> <Gold.PLP.Chemscore.Hbond>
0.0000

> <Gold.PLP.Chemscore.CHOScore>
0.0000

> <Gold.PLP.Chemscore.Metal>
0.0000

> <Gold.PLP.Chemscore.Internal.Correction>
0.0325

> <Gold.Rescore>
     Score         DG    S(hbond)    S(metal)    S(lipo)     H(rot)  DE(clash)    DE(int)     intcor
     12.39     -12.51       0.00        0.00      96.68       1.67       0.01       0.10       ----

> <Gold.Chemscore.Fitness>
12.3924

> <Gold.Chemscore.DG>
-12.5077

> <Gold.Chemscore.ZeroCoef>
-5.4800

> <Gold.Chemscore.Hbond>
0.0000

> <Gold.Chemscore.Metal>
0.0000

> <Gold.Chemscore.Lipo>
96.6812

> <Gold.Chemscore.Internal_Hbond>
0.0000

> <Gold.Chemscore.DEClash>
0.0113

> <Gold.Chemscore.DEInternal>
0.1040

> <Gold.Chemscore.Rot>
1.6734

> <Gold.Chemscore.Internal.Correction>
   9.000000E+99

> <Gold.Chemscore.Hbond.Weighted>
-0.0000

> <Gold.Chemscore.Metal.Weighted>
-0.0000

> <Gold.Chemscore.Lipo.Weighted>
-11.3117

> <Gold.Chemscore.Internal_Hbond.Weighted>
0.0000

> <Gold.Chemscore.DEClash.Weighted>
0.0113

> <Gold.Chemscore.DEInternal.Weighted>
0.1040

> <Gold.Chemscore.Rot.Weighted>
4.2840

> <Gold.Chemscore.Internal.Correction.Weighted>
   9.000000E+99

> <Gold.Protein.RotatedTorsions>
[ 6907 6896 6895 6894 ] final   43.59 input  -60.11 | X-H torsion
[ 7974 7965 7964 7962 ] final  -66.88 input  175.53 | X-H torsion
[ 8008 7997 7996 7995 ] final   10.41 input   59.86 | X-H torsion
[ 10167 10162 10161 10158 ] final   97.52 input  -65.29 | X-H torsion
[ 10718 10713 10712 10709 ] final  -77.17 input   66.30 | X-H torsion
[ 10763 10752 10751 10750 ] final  -38.73 input  -60.55 | X-H torsion
[ 11005 11000 10999 10996 ] final  102.13 input  -57.11 | X-H torsion

> <Gold.Protein.ActiveResidues>
 VAL166  LYS551  ARG553  GLY616  TRP617  ASP618  TYR619  PRO620  LYS621  CYS622 
 ASP623  PHE694  ASN695  SER759  ASP760  ASP761  ALA762  ILE779  LEU786  VAL792 
 PHE793  MET794  SER795  GLU796  ALA797  LYS798  CYS799  TRP800  GLU811  SER814 

> <Gold.Protein.RotatedAtoms>
  152.2221  134.8403  160.0484 H   0  0  0  0  0  0  0  0  0  0  0  0  # atno 6907 bound_to 6896
  151.9182  133.3573  159.3896 H   0  0  0  0  0  0  0  0  0  0  0  0  # atno 6908 bound_to 6896
  150.7003  134.4587  159.5414 H   0  0  0  0  0  0  0  0  0  0  0  0  # atno 6909 bound_to 6896
  145.7362  140.8974  143.0554 H   0  0  0  0  0  0  0  0  0  0  0  0  # atno 7974 bound_to 7965
  154.7930  140.2839  155.5977 H   0  0  0  0  0  0  0  0  0  0  0  0  # atno 8008 bound_to 7997
  156.2967  140.2601  156.2711 H   0  0  0  0  0  0  0  0  0  0  0  0  # atno 8009 bound_to 7997
  154.9647  140.0377  157.2196 H   0  0  0  0  0  0  0  0  0  0  0  0  # atno 8010 bound_to 7997
  139.7793  144.6894  151.0045 H   0  0  0  0  0  0  0  0  0  0  0  0  # atno 10167 bound_to 10162
  156.0153  130.4484  150.3304 H   0  0  0  0  0  0  0  0  0  0  0  0  # atno 10718 bound_to 10713
  153.9177  135.6785  153.4749 H   0  0  0  0  0  0  0  0  0  0  0  0  # atno 10763 bound_to 10752
  153.1045  135.4812  154.8923 H   0  0  0  0  0  0  0  0  0  0  0  0  # atno 10764 bound_to 10752
  154.7494  135.3181  154.8541 H   0  0  0  0  0  0  0  0  0  0  0  0  # atno 10765 bound_to 10752
  139.8776  134.9211  156.5011 H   0  0  0  0  0  0  0  0  0  0  0  0  # atno 11005 bound_to 11000
  144.6881  139.9398  143.7474 LP  0  0  0  0  0  0  0  0  0  0  0  0  # atno 17320 bound_to 7965
  146.0491  139.3494  143.0650 LP  0  0  0  0  0  0  0  0  0  0  0  0  # atno 17321 bound_to 7965
  140.7818  143.4501  151.0426 LP  0  0  0  0  0  0  0  0  0  0  0  0  # atno 17342 bound_to 10162
  139.8182  143.7857  152.3175 LP  0  0  0  0  0  0  0  0  0  0  0  0  # atno 17343 bound_to 10162
  157.1402  131.0294  151.2931 LP  0  0  0  0  0  0  0  0  0  0  0  0  # atno 17370 bound_to 10713
  157.4478  130.7581  149.7125 LP  0  0  0  0  0  0  0  0  0  0  0  0  # atno 17371 bound_to 10713
  140.8589  133.8075  155.9244 LP  0  0  0  0  0  0  0  0  0  0  0  0  # atno 17394 bound_to 11000
  140.9070  134.2308  157.5008 LP  0  0  0  0  0  0  0  0  0  0  0  0  # atno 17395 bound_to 11000

$$$$
