AV-unprocessed.smi:1791|AV-procd|sdf|7221|dock2
  -GOLD-   22720 8463D 1   1.00000     0.00000
 Structure written by MMmdl.
 38 39  0  0  0  0  0  0  0  0  1 V2000
  153.1689  138.9081  158.5155 C   0  0  0  0  0  0  0  0  0  0  0  0
  153.1971  138.9434  157.0927 O   0  0  0  0  0  0  0  0  0  0  0  0
  152.3806  138.0735  156.3998 C   0  0  0  0  0  0  0  0  0  0  0  0
  151.8131  136.9851  157.0919 C   0  0  0  0  0  0  0  0  0  0  0  0
  150.9783  136.0929  156.3921 C   0  0  0  0  0  0  0  0  0  0  0  0
  150.7420  136.3155  155.0145 C   0  0  0  0  0  0  0  0  0  0  0  0
  149.9018  135.5040  154.2060 N   0  0  0  0  0  0  0  0  0  0  0  0
  149.4725  134.2521  154.4388 C   0  0  0  0  0  0  0  0  0  0  0  0
  149.7914  133.5594  155.4049 O   0  0  0  0  0  0  0  0  0  0  0  0
  148.6592  133.8332  153.4585 N   0  0  0  0  0  0  0  0  0  0  0  0
  148.0124  132.5245  153.3787 C   0  0  1  0  0  0  0  0  0  0  0  0
  147.1065  132.3452  154.6056 C   0  0  0  0  0  0  0  0  0  0  0  0
  147.2239  132.3977  152.0598 C   0  0  1  0  0  0  0  0  0  0  0  0
  146.4307  131.0999  151.9010 C   0  0  0  0  0  0  0  0  0  0  0  0
  145.3498  131.4702  150.8990 C   0  0  0  0  0  0  0  0  0  0  0  0
  145.3107  133.0010  150.9433 C   0  0  0  0  0  0  0  0  0  0  0  0
  146.1960  133.3734  151.9914 O   0  0  0  0  0  0  0  0  0  0  0  0
  151.3463  137.4416  154.4186 C   0  0  0  0  0  0  0  0  0  0  0  0
  152.1490  138.2993  155.0829 N   0  0  0  0  0  0  0  0  0  0  0  0
  153.8705  139.6436  158.9085 H   0  0  0  0  0  0  0  0  0  0  0  0
  153.4668  137.9308  158.8979 H   0  0  0  0  0  0  0  0  0  0  0  0
  152.1786  139.1568  158.9001 H   0  0  0  0  0  0  0  0  0  0  0  0
  152.0100  136.8396  158.1438 H   0  0  0  0  0  0  0  0  0  0  0  0
  150.5268  135.2716  156.9266 H   0  0  0  0  0  0  0  0  0  0  0  0
  149.6282  135.9099  153.3232 H   0  0  0  0  0  0  0  0  0  0  0  0
  148.4671  134.4741  152.7026 H   0  0  0  0  0  0  0  0  0  0  0  0
  148.7644  131.7339  153.4077 H   0  0  0  0  0  0  0  0  0  0  0  0
  146.6359  131.3617  154.6060 H   0  0  0  0  0  0  0  0  0  0  0  0
  146.3131  133.0931  154.6282 H   0  0  0  0  0  0  0  0  0  0  0  0
  147.6762  132.4351  155.5309 H   0  0  0  0  0  0  0  0  0  0  0  0
  147.8904  132.5289  151.2047 H   0  0  0  0  0  0  0  0  0  0  0  0
  147.0466  130.2629  151.5707 H   0  0  0  0  0  0  0  0  0  0  0  0
  145.9691  130.8243  152.8503 H   0  0  0  0  0  0  0  0  0  0  0  0
  145.6084  131.1270  149.8966 H   0  0  0  0  0  0  0  0  0  0  0  0
  144.3907  131.0269  151.1688 H   0  0  0  0  0  0  0  0  0  0  0  0
  145.6702  133.4207  150.0029 H   0  0  0  0  0  0  0  0  0  0  0  0
  144.3085  133.3884  151.1271 H   0  0  0  0  0  0  0  0  0  0  0  0
  151.1846  137.6619  153.3734 H   0  0  0  0  0  0  0  0  0  0  0  0
  1  2  1  0  0  0  0
  1 20  1  0  0  0  0
  1 21  1  0  0  0  0
  1 22  1  0  0  0  0
  2  3  1  0  0  0  0
  3 19  1  0  0  0  0
  3  4  2  0  0  0  0
  4  5  1  0  0  0  0
  4 23  1  0  0  0  0
  5  6  2  0  0  0  0
  5 24  1  0  0  0  0
  6  7  1  0  0  0  0
  6 18  1  0  0  0  0
  7  8  1  0  0  0  0
  7 25  1  0  0  0  0
  8  9  2  0  0  0  0
  8 10  1  0  0  0  0
 10 11  1  0  0  0  0
 10 26  1  0  0  0  0
 11 12  1  0  0  0  0
 11 13  1  0  0  0  0
 11 27  1  0  0  0  0
 12 28  1  0  0  0  0
 12 29  1  0  0  0  0
 12 30  1  0  0  0  0
 13 17  1  0  0  0  0
 13 14  1  0  0  0  0
 13 31  1  0  0  0  0
 14 15  1  0  0  0  0
 14 32  1  0  0  0  0
 14 33  1  0  0  0  0
 15 16  1  0  0  0  0
 15 34  1  0  0  0  0
 15 35  1  0  0  0  0
 16 17  1  0  0  0  0
 16 36  1  0  0  0  0
 16 37  1  0  0  0  0
 18 19  2  0  0  0  0
 18 38  1  0  0  0  0
M  END
> <s_m_source_file>
AV-unprocessed.smi

> <i_m_source_file_index>
1791

> <i_lp_mmshare_version>
43012

> <i_f3d_flags>
0

> <s_epik_input>
W0NIM11PYzFbY0hdW2NIXWMoW2NIXW4xKVtOSF1DKD1PKVtOSF1bQ0BIXShbQ0gzXSlbQ0BASF0yW0NIMl1bQ0gyXVtDSDJdTzI=

> <s_epik_cmdline>
J2VwaWtfcHl0aG9uJywgJy1waCcsICc3LjAnLCAnLXRuJywgJzgnLCAnLW1hJywgJzIwMCcsICctbWV0YWxfYmluZGluZycsICctaW1hZScsICc8aW5maWxlLm1hZT4nLCAnLW9tYWUnLCAnPG91dGZpbGUubWFlPic=

> <r_lp_tautomer_probability>
1

> <r_epik_Ionization_Penalty>
9.18737e-05

> <r_epik_Ionization_Penalty_Charging>
0

> <r_epik_Ionization_Penalty_Neutral>
9.18737e-05

> <r_epik_State_Penalty>
-0

> <r_epik_Charging_Adjusted_Penalty>
0

> <i_epik_Tot_Q>
0

> <i_epik_Tot_abs_Q>
0

> <r_epik_Metal_State_Penalty>
-0

> <b_epik_Metal_Only>
0

> <s_lp_Force_Field>
OPLS_2005

> <r_lp_Energy>
20.4699

> <b_lp_Chiralities_Consistent>
1

> <s_lp_Variant>
AV-unprocessed.smi:1791-4

> <Gold.Version>
5.8.1

> <Gold.Id.Protein>
6NUR|6NUR_protein|mol2

> <Gold.PLP.Fitness>
37.1253

> <Gold.PLP.PLP>
-25.9250

> <Gold.PLP.part.hbond>
-3.6824

> <Gold.PLP.part.metal>
0.0000

> <Gold.PLP.part.buried>
-3.2803

> <Gold.PLP.part.nonpolar>
-19.5636

> <Gold.PLP.part.repulsive>
0.2234

> <Gold.PLP.ligand.clash>
0.0000

> <Gold.PLP.ligand.torsion>
0.2814

> <Gold.PLP.Chemscore.Hbond>
2.9120

> <Gold.PLP.Chemscore.CHOScore>
0.9879

> <Gold.PLP.Chemscore.Metal>
0.0000

> <Gold.Chemscore.Hbonds>
donor molecule, donor type, donor heavy atom, donor atom, acceptor molecule, acceptor atom, score
      L1  H     7    25       P1  7948  0.80
      L1  H    10    26       P1  7948  0.78
      P1  H  7997  8009       L1     2  1.00
      L1  C    18    38       P1  7949  0.93

> <Gold.PLP.Chemscore.Internal.Correction>
0.0634

> <Gold.Rescore>
     Score         DG    S(hbond)    S(metal)    S(lipo)     H(rot)  DE(clash)    DE(int)     intcor
     15.66     -17.09       2.53        0.00      59.22       1.47       0.04       1.39       ----

> <Gold.Chemscore.Fitness>
15.6621

> <Gold.Chemscore.DG>
-17.0920

> <Gold.Chemscore.ZeroCoef>
-5.4800

> <Gold.Chemscore.Hbond>
2.5284

> <Gold.Chemscore.Metal>
0.0000

> <Gold.Chemscore.Lipo>
59.2176

> <Gold.Chemscore.Internal_Hbond>
0.0000

> <Gold.Chemscore.DEClash>
0.0442

> <Gold.Chemscore.DEInternal>
1.3856

> <Gold.Chemscore.Rot>
1.4693

> <Gold.Chemscore.Internal.Correction>
   9.000000E+99

> <Gold.Chemscore.Hbonds>
donor molecule, donor type, donor heavy atom, donor atom, acceptor molecule, acceptor atom, score
      L1  H     7    25       P1  7948  0.12
      L1  H    10    26       P1  7948  0.13
      P1  H  7997  8009       L1     2  0.60

> <Gold.Chemscore.Hbond.Weighted>
-8.4449

> <Gold.Chemscore.Metal.Weighted>
-0.0000

> <Gold.Chemscore.Lipo.Weighted>
-6.9285

> <Gold.Chemscore.Internal_Hbond.Weighted>
0.0000

> <Gold.Chemscore.DEClash.Weighted>
0.0442

> <Gold.Chemscore.DEInternal.Weighted>
1.3856

> <Gold.Chemscore.Rot.Weighted>
3.7613

> <Gold.Chemscore.Internal.Correction.Weighted>
   9.000000E+99

> <Gold.Protein.RotatedTorsions>
[ 6907 6896 6895 6894 ] final   51.69 input  -60.11 | X-H torsion
[ 7974 7965 7964 7962 ] final  -98.48 input  175.53 | X-H torsion
[ 8008 7997 7996 7995 ] final  178.98 input   59.86 | X-H torsion
[ 10167 10162 10161 10158 ] final   13.77 input  -65.29 | X-H torsion
[ 10718 10713 10712 10709 ] final  155.74 input   66.30 | X-H torsion
[ 10763 10752 10751 10750 ] final  -76.52 input  -60.55 | X-H torsion
[ 11005 11000 10999 10996 ] final   12.99 input  -57.11 | X-H torsion

> <Gold.Protein.ActiveResidues>
 VAL166  LYS551  ARG553  GLY616  TRP617  ASP618  TYR619  PRO620  LYS621  CYS622 
 ASP623  PHE694  ASN695  SER759  ASP760  ASP761  ALA762  ILE779  LEU786  VAL792 
 PHE793  MET794  SER795  GLU796  ALA797  LYS798  CYS799  TRP800  GLU811  SER814 

> <Gold.Protein.RotatedAtoms>
  152.3153  134.7447  160.0326 H   0  0  0  0  0  0  0  0  0  0  0  0  # atno 6907 bound_to 6896
  151.7914  133.3354  159.3508 H   0  0  0  0  0  0  0  0  0  0  0  0  # atno 6908 bound_to 6896
  150.7341  134.5770  159.5964 H   0  0  0  0  0  0  0  0  0  0  0  0  # atno 6909 bound_to 6896
  145.3201  140.9420  143.2720 H   0  0  0  0  0  0  0  0  0  0  0  0  # atno 7974 bound_to 7965
  156.0486  140.1320  157.0076 H   0  0  0  0  0  0  0  0  0  0  0  0  # atno 8008 bound_to 7997
  154.4424  140.1015  156.6413 H   0  0  0  0  0  0  0  0  0  0  0  0  # atno 8009 bound_to 7997
  155.5559  140.3464  155.4481 H   0  0  0  0  0  0  0  0  0  0  0  0  # atno 8010 bound_to 7997
  140.5980  143.8662  150.6937 H   0  0  0  0  0  0  0  0  0  0  0  0  # atno 10167 bound_to 10162
  157.2143  131.0704  151.1951 H   0  0  0  0  0  0  0  0  0  0  0  0  # atno 10718 bound_to 10713
  154.5009  135.5795  153.6530 H   0  0  0  0  0  0  0  0  0  0  0  0  # atno 10763 bound_to 10752
  152.9878  135.6135  154.3004 H   0  0  0  0  0  0  0  0  0  0  0  0  # atno 10764 bound_to 10752
  154.2911  135.2848  155.2633 H   0  0  0  0  0  0  0  0  0  0  0  0  # atno 10765 bound_to 10752
  140.4858  134.0890  155.7760 H   0  0  0  0  0  0  0  0  0  0  0  0  # atno 11005 bound_to 11000
  144.8946  139.4729  143.6661 LP  0  0  0  0  0  0  0  0  0  0  0  0  # atno 17320 bound_to 7965
  146.3085  139.7665  142.9037 LP  0  0  0  0  0  0  0  0  0  0  0  0  # atno 17321 bound_to 7965
  140.2201  143.3816  152.1650 LP  0  0  0  0  0  0  0  0  0  0  0  0  # atno 17342 bound_to 10162
  139.5271  144.7116  151.5188 LP  0  0  0  0  0  0  0  0  0  0  0  0  # atno 17343 bound_to 10162
  157.3641  130.7146  149.6521 LP  0  0  0  0  0  0  0  0  0  0  0  0  # atno 17370 bound_to 10713
  155.9688  130.4217  150.4483 LP  0  0  0  0  0  0  0  0  0  0  0  0  # atno 17371 bound_to 10713
  141.1509  133.8971  157.2100 LP  0  0  0  0  0  0  0  0  0  0  0  0  # atno 17394 bound_to 11000
  139.9799  135.0101  156.9724 LP  0  0  0  0  0  0  0  0  0  0  0  0  # atno 17395 bound_to 11000

$$$$
