AV-unprocessed.smi:2273|AV-procd|sdf|9167|dock2
  -GOLD-   2272012383D 1   1.00000     0.00000
 Structure written by MMmdl.
 53 54  0  0  0  0  0  0  0  0  1 V2000
  153.0659  138.6636  154.6376 C   0  0  0  0  0  0  0  0  0  0  0  0
  151.5957  138.2175  154.6063 C   0  0  0  0  0  0  0  0  0  0  0  0
  150.5592  139.3657  154.4757 C   0  0  0  0  0  0  0  0  0  0  0  0
  150.5236  140.1994  155.7854 C   0  0  0  0  0  0  0  0  0  0  0  0
  149.6212  141.4390  155.7749 C   0  0  0  0  0  0  0  0  0  0  0  0
  149.1461  138.8336  154.0853 C   0  0  1  0  0  0  0  0  0  0  0  0
  148.4819  137.9862  155.2000 C   0  0  0  0  0  0  0  0  0  0  0  0
  147.0979  137.4637  154.7712 C   0  0  2  0  0  0  0  0  0  0  0  0
  147.2125  136.4431  153.7239 N   0  0  0  0  0  0  0  0  0  0  0  0
  146.3400  135.4725  153.3988 C   0  0  0  0  0  0  0  0  0  0  0  0
  145.2721  135.3471  153.9962 O   0  0  0  0  0  0  0  0  0  0  0  0
  146.7367  134.6841  152.3790 N   0  0  0  0  0  0  0  0  0  0  0  0
  146.0259  133.6082  151.8229 C   0  0  0  0  0  0  0  0  0  0  0  0
  145.0070  133.8717  150.9626 C   0  0  0  0  0  0  0  0  0  0  0  0
  144.5912  135.2940  150.6237 C   0  0  0  0  0  0  0  0  0  0  0  0
  144.2770  132.7677  150.3749 C   0  0  0  0  0  0  0  0  0  0  0  0
  144.6236  131.5107  150.6817 C   0  0  0  0  0  0  0  0  0  0  0  0
  145.6916  131.2318  151.5460 N   0  0  0  0  0  0  0  0  0  0  0  0
  146.0031  129.8238  151.8056 C   0  0  0  0  0  0  0  0  0  0  0  0
  146.4517  132.2155  152.1073 C   0  0  0  0  0  0  0  0  0  0  0  0
  147.4398  131.9352  152.7898 O   0  0  0  0  0  0  0  0  0  0  0  0
  146.2417  138.6393  154.2790 C   0  0  0  0  0  0  0  0  0  0  0  0
  147.0046  139.4977  153.2574 C   0  0  0  0  0  0  0  0  0  0  0  0
  148.2502  139.9115  153.8088 O   0  0  0  0  0  0  0  0  0  0  0  0
  153.7275  137.7991  154.5792 H   0  0  0  0  0  0  0  0  0  0  0  0
  153.3153  139.1915  155.5575 H   0  0  0  0  0  0  0  0  0  0  0  0
  153.2994  139.3153  153.7953 H   0  0  0  0  0  0  0  0  0  0  0  0
  151.5023  137.5438  153.7543 H   0  0  0  0  0  0  0  0  0  0  0  0
  151.3785  137.6191  155.4922 H   0  0  0  0  0  0  0  0  0  0  0  0
  150.9113  140.0105  153.6694 H   0  0  0  0  0  0  0  0  0  0  0  0
  150.2335  139.5585  156.6187 H   0  0  0  0  0  0  0  0  0  0  0  0
  151.5273  140.5530  156.0162 H   0  0  0  0  0  0  0  0  0  0  0  0
  149.7643  142.0235  156.6839 H   0  0  0  0  0  0  0  0  0  0  0  0
  148.5662  141.1688  155.7342 H   0  0  0  0  0  0  0  0  0  0  0  0
  149.8505  142.0869  154.9286 H   0  0  0  0  0  0  0  0  0  0  0  0
  149.2460  138.2450  153.1716 H   0  0  0  0  0  0  0  0  0  0  0  0
  149.1096  137.1540  155.5082 H   0  0  0  0  0  0  0  0  0  0  0  0
  148.3633  138.6060  156.0898 H   0  0  0  0  0  0  0  0  0  0  0  0
  146.5930  137.0295  155.6356 H   0  0  0  0  0  0  0  0  0  0  0  0
  148.0813  136.4479  153.2091 H   0  0  0  0  0  0  0  0  0  0  0  0
  147.5759  134.9556  151.8884 H   0  0  0  0  0  0  0  0  0  0  0  0
  143.8087  135.3069  149.8646 H   0  0  0  0  0  0  0  0  0  0  0  0
  145.4370  135.8664  150.2413 H   0  0  0  0  0  0  0  0  0  0  0  0
  144.2060  135.7930  151.5120 H   0  0  0  0  0  0  0  0  0  0  0  0
  143.4525  132.9501  149.7012 H   0  0  0  0  0  0  0  0  0  0  0  0
  144.1147  130.6477  150.2779 H   0  0  0  0  0  0  0  0  0  0  0  0
  146.0436  129.6283  152.8783 H   0  0  0  0  0  0  0  0  0  0  0  0
  146.9707  129.5627  151.3751 H   0  0  0  0  0  0  0  0  0  0  0  0
  145.2613  129.1444  151.3841 H   0  0  0  0  0  0  0  0  0  0  0  0
  145.3027  138.2825  153.8540 H   0  0  0  0  0  0  0  0  0  0  0  0
  145.9740  139.2651  155.1313 H   0  0  0  0  0  0  0  0  0  0  0  0
  147.1666  138.9523  152.3264 H   0  0  0  0  0  0  0  0  0  0  0  0
  146.4206  140.3829  153.0058 H   0  0  0  0  0  0  0  0  0  0  0  0
  1  2  1  0  0  0  0
  1 25  1  0  0  0  0
  1 26  1  0  0  0  0
  1 27  1  0  0  0  0
  2  3  1  0  0  0  0
  2 28  1  0  0  0  0
  2 29  1  0  0  0  0
  3  4  1  0  0  0  0
  3  6  1  0  0  0  0
  3 30  1  0  0  0  0
  4  5  1  0  0  0  0
  4 31  1  0  0  0  0
  4 32  1  0  0  0  0
  5 33  1  0  0  0  0
  5 34  1  0  0  0  0
  5 35  1  0  0  0  0
  6 24  1  0  0  0  0
  6  7  1  0  0  0  0
  6 36  1  0  0  0  0
  7  8  1  0  0  0  0
  7 37  1  0  0  0  0
  7 38  1  0  0  0  0
  8  9  1  0  0  0  0
  8 22  1  0  0  0  0
  8 39  1  0  0  0  0
  9 10  1  0  0  0  0
  9 40  1  0  0  0  0
 10 11  2  0  0  0  0
 10 12  1  0  0  0  0
 12 13  1  0  0  0  0
 12 41  1  0  0  0  0
 13 20  1  0  0  0  0
 13 14  2  0  0  0  0
 14 15  1  0  0  0  0
 14 16  1  0  0  0  0
 15 42  1  0  0  0  0
 15 43  1  0  0  0  0
 15 44  1  0  0  0  0
 16 17  2  0  0  0  0
 16 45  1  0  0  0  0
 17 18  1  0  0  0  0
 17 46  1  0  0  0  0
 18 19  1  0  0  0  0
 18 20  1  0  0  0  0
 19 47  1  0  0  0  0
 19 48  1  0  0  0  0
 19 49  1  0  0  0  0
 20 21  2  0  0  0  0
 22 23  1  0  0  0  0
 22 50  1  0  0  0  0
 22 51  1  0  0  0  0
 23 24  1  0  0  0  0
 23 52  1  0  0  0  0
 23 53  1  0  0  0  0
M  END
> <s_m_source_file>
AV-unprocessed.smi

> <i_m_source_file_index>
2273

> <i_lp_mmshare_version>
43012

> <i_f3d_flags>
0

> <s_epik_input>
W0NIM11bQ0gyXVtDSF0oW0NIMl1bQ0gzXSlbQ0BASF0xW0NIMl1bQ0BIXShbQ0gyXVtDSDJdTzEpW05IXUMoPU8pW05IXWMyYyhbQ0gzXSlbY0hdW2NIXW4oW0NIM10pYzI9Tw==

> <s_epik_cmdline>
J2VwaWtfcHl0aG9uJywgJy1waCcsICc3LjAnLCAnLXRuJywgJzgnLCAnLW1hJywgJzIwMCcsICctbWV0YWxfYmluZGluZycsICctaW1hZScsICc8aW5maWxlLm1hZT4nLCAnLW9tYWUnLCAnPG91dGZpbGUubWFlPic=

> <r_lp_tautomer_probability>
1

> <r_epik_Ionization_Penalty>
2.66245e-05

> <r_epik_Ionization_Penalty_Charging>
6.91055e-06

> <r_epik_Ionization_Penalty_Neutral>
1.97139e-05

> <r_epik_State_Penalty>
-0

> <r_epik_Charging_Adjusted_Penalty>
6.91055e-06

> <i_epik_Tot_Q>
0

> <i_epik_Tot_abs_Q>
0

> <r_epik_Metal_State_Penalty>
-0

> <b_epik_Metal_Only>
0

> <s_lp_Force_Field>
OPLS_2005

> <r_lp_Energy>
42.8543

> <b_lp_Chiralities_Consistent>
1

> <s_lp_Variant>
AV-unprocessed.smi:2273-4

> <Gold.Version>
5.8.1

> <Gold.Id.Protein>
6NUR|6NUR_protein|mol2

> <Gold.PLP.Fitness>
47.3290

> <Gold.PLP.PLP>
-43.1714

> <Gold.PLP.part.hbond>
-2.0000

> <Gold.PLP.part.metal>
0.0000

> <Gold.PLP.part.buried>
-5.5480

> <Gold.PLP.part.nonpolar>
-37.3291

> <Gold.PLP.part.repulsive>
1.4232

> <Gold.PLP.ligand.clash>
0.0000

> <Gold.PLP.ligand.torsion>
1.1421

> <Gold.PLP.Chemscore.Hbond>
1.9120

> <Gold.PLP.Chemscore.CHOScore>
0.0000

> <Gold.PLP.Chemscore.Metal>
0.0000

> <Gold.Chemscore.Hbonds>
donor molecule, donor type, donor heavy atom, donor atom, acceptor molecule, acceptor atom, score
      L1  H     9    40       P1  7948  1.00
      L1  H    12    41       P1  7948  0.90

> <Gold.PLP.Chemscore.Internal.Correction>
0.7058

> <Gold.Rescore>
     Score         DG    S(hbond)    S(metal)    S(lipo)     H(rot)  DE(clash)    DE(int)     intcor
     17.13     -19.79       1.84        0.00     100.76       1.42       0.16       2.49       ----

> <Gold.Chemscore.Fitness>
17.1344

> <Gold.Chemscore.DG>
-19.7861

> <Gold.Chemscore.ZeroCoef>
-5.4800

> <Gold.Chemscore.Hbond>
1.8449

> <Gold.Chemscore.Metal>
0.0000

> <Gold.Chemscore.Lipo>
100.7575

> <Gold.Chemscore.Internal_Hbond>
0.0000

> <Gold.Chemscore.DEClash>
0.1587

> <Gold.Chemscore.DEInternal>
2.4931

> <Gold.Chemscore.Rot>
1.4236

> <Gold.Chemscore.Internal.Correction>
   9.000000E+99

> <Gold.Chemscore.Hbonds>
donor molecule, donor type, donor heavy atom, donor atom, acceptor molecule, acceptor atom, score
      L1  H     9    40       P1  7948  0.96
      L1  H    12    41       P1  7948  0.69

> <Gold.Chemscore.Hbond.Weighted>
-6.1620

> <Gold.Chemscore.Metal.Weighted>
-0.0000

> <Gold.Chemscore.Lipo.Weighted>
-11.7886

> <Gold.Chemscore.Internal_Hbond.Weighted>
0.0000

> <Gold.Chemscore.DEClash.Weighted>
0.1587

> <Gold.Chemscore.DEInternal.Weighted>
2.4931

> <Gold.Chemscore.Rot.Weighted>
3.6445

> <Gold.Chemscore.Internal.Correction.Weighted>
   9.000000E+99

> <Gold.Protein.RotatedTorsions>
[ 6907 6896 6895 6894 ] final  176.71 input  -60.11 | X-H torsion
[ 7974 7965 7964 7962 ] final   32.55 input  175.53 | X-H torsion
[ 8008 7997 7996 7995 ] final   82.10 input   59.86 | X-H torsion
[ 10167 10162 10161 10158 ] final  -30.51 input  -65.29 | X-H torsion
[ 10718 10713 10712 10709 ] final   10.08 input   66.30 | X-H torsion
[ 10763 10752 10751 10750 ] final -167.67 input  -60.55 | X-H torsion
[ 11005 11000 10999 10996 ] final -152.15 input  -57.11 | X-H torsion

> <Gold.Protein.ActiveResidues>
 VAL166  LYS551  ARG553  GLY616  TRP617  ASP618  TYR619  PRO620  LYS621  CYS622 
 ASP623  PHE694  ASN695  SER759  ASP760  ASP761  ALA762  ILE779  LEU786  VAL792 
 PHE793  MET794  SER795  GLU796  ALA797  LYS798  CYS799  TRP800  GLU811  SER814 

> <Gold.Protein.RotatedAtoms>
  151.7157  133.3313  159.3302 H   0  0  0  0  0  0  0  0  0  0  0  0  # atno 6907 bound_to 6896
  150.7674  134.6492  159.6288 H   0  0  0  0  0  0  0  0  0  0  0  0  # atno 6908 bound_to 6896
  152.3683  134.6774  160.0236 H   0  0  0  0  0  0  0  0  0  0  0  0  # atno 6909 bound_to 6896
  146.1479  139.6511  142.9119 H   0  0  0  0  0  0  0  0  0  0  0  0  # atno 7974 bound_to 7965
  155.9061  140.3430  155.6063 H   0  0  0  0  0  0  0  0  0  0  0  0  # atno 8008 bound_to 7997
  155.7442  140.0811  157.2250 H   0  0  0  0  0  0  0  0  0  0  0  0  # atno 8009 bound_to 7997
  154.4050  140.1565  156.2638 H   0  0  0  0  0  0  0  0  0  0  0  0  # atno 8010 bound_to 7997
  140.7248  143.3843  151.1544 H   0  0  0  0  0  0  0  0  0  0  0  0  # atno 10167 bound_to 10162
  156.9757  130.5986  149.5672 H   0  0  0  0  0  0  0  0  0  0  0  0  # atno 10718 bound_to 10713
  154.6708  135.2939  154.9744 H   0  0  0  0  0  0  0  0  0  0  0  0  # atno 10763 bound_to 10752
  154.0772  135.6609  153.4836 H   0  0  0  0  0  0  0  0  0  0  0  0  # atno 10764 bound_to 10752
  153.0485  135.5189  154.7703 H   0  0  0  0  0  0  0  0  0  0  0  0  # atno 10765 bound_to 10752
  140.7219  134.3717  157.5182 H   0  0  0  0  0  0  0  0  0  0  0  0  # atno 11005 bound_to 11000
  145.4894  141.0438  143.2601 LP  0  0  0  0  0  0  0  0  0  0  0  0  # atno 17320 bound_to 7965
  144.7868  139.6410  143.7130 LP  0  0  0  0  0  0  0  0  0  0  0  0  # atno 17321 bound_to 7965
  139.7437  143.8885  152.3057 LP  0  0  0  0  0  0  0  0  0  0  0  0  # atno 17342 bound_to 10162
  139.8715  144.7066  150.8982 LP  0  0  0  0  0  0  0  0  0  0  0  0  # atno 17343 bound_to 10162
  156.0264  130.5358  150.8419 LP  0  0  0  0  0  0  0  0  0  0  0  0  # atno 17370 bound_to 10713
  157.5561  131.0945  150.9626 LP  0  0  0  0  0  0  0  0  0  0  0  0  # atno 17371 bound_to 10713
  139.8846  134.8961  156.2693 LP  0  0  0  0  0  0  0  0  0  0  0  0  # atno 17394 bound_to 11000
  140.9996  133.7159  156.0939 LP  0  0  0  0  0  0  0  0  0  0  0  0  # atno 17395 bound_to 11000

$$$$
