AV-unprocessed.smi:1046|AV-procd|sdf|4550|dock4
  -GOLD-   22720 2573D 1   1.00000     0.00000
 Structure written by MMmdl.
 53 55  0  0  0  0  0  0  0  0  2 V2000
  151.9654  144.8586  160.6709 C   0  0  0  0  0  0  0  0  0  0  0  0
  152.0981  143.4908  160.0247 C   0  0  0  0  0  0  0  0  0  0  0  0
  153.1535  142.6409  160.4258 C   0  0  0  0  0  0  0  0  0  0  0  0
  153.3129  141.3621  159.8483 C   0  0  0  0  0  0  0  0  0  0  0  0
  154.2593  140.3800  160.0853 N   0  0  0  0  0  0  0  0  0  0  0  0
  153.8747  139.4278  159.2401 C   0  0  0  0  0  0  0  0  0  0  0  0
  152.7899  139.6779  158.4816 N   0  0  0  0  0  0  0  0  0  0  0  0
  152.1859  138.8005  157.4956 C   0  0  0  0  0  0  0  0  0  0  0  0
  150.9935  138.0147  158.0739 C   0  0  2  0  0  0  0  0  0  0  0  0
  151.4110  136.7443  158.5321 O   0  0  0  0  0  0  0  0  0  0  0  0
  149.7634  137.8473  157.1536 C   0  0  0  0  0  0  0  0  0  0  0  0
  149.9522  137.0478  155.9330 N   0  0  0  0  0  0  0  0  0  0  0  0
  148.7032  136.4570  155.4498 C   0  0  0  0  0  0  0  0  0  0  0  0
  147.7313  137.4922  154.8505 C   0  0  0  0  0  0  0  0  0  0  0  0
  148.3791  138.2087  153.7233 N   0  3  0  0  0  0  0  0  0  0  0  0
  147.4565  139.1562  153.0482 C   0  0  0  0  0  0  0  0  0  0  0  0
  146.3489  138.4430  152.2536 C   0  0  0  0  0  0  0  0  0  0  0  0
  146.6266  138.5083  150.8706 O   0  0  0  0  0  0  0  0  0  0  0  0
  149.6572  138.8259  154.1649 C   0  0  0  0  0  0  0  0  0  0  0  0
  150.5732  137.7656  154.8127 C   0  0  0  0  0  0  0  0  0  0  0  0
  152.3803  140.9542  158.8504 C   0  0  0  0  0  0  0  0  0  0  0  0
  151.3253  141.7897  158.4437 C   0  0  0  0  0  0  0  0  0  0  0  0
  151.1796  143.0636  159.0319 C   0  0  0  0  0  0  0  0  0  0  0  0
  150.0363  143.9583  158.5872 C   0  0  0  0  0  0  0  0  0  0  0  0
  152.7824  145.0515  161.3666 H   0  0  0  0  0  0  0  0  0  0  0  0
  151.0292  144.9282  161.2254 H   0  0  0  0  0  0  0  0  0  0  0  0
  151.9799  145.6432  159.9140 H   0  0  0  0  0  0  0  0  0  0  0  0
  153.8519  142.9648  161.1833 H   0  0  0  0  0  0  0  0  0  0  0  0
  154.4115  138.4931  159.1691 H   0  0  0  0  0  0  0  0  0  0  0  0
  151.8651  139.4108  156.6505 H   0  0  0  0  0  0  0  0  0  0  0  0
  152.9585  138.1224  157.1334 H   0  0  0  0  0  0  0  0  0  0  0  0
  150.6433  138.5530  158.9557 H   0  0  0  0  0  0  0  0  0  0  0  0
  152.0228  136.3870  157.9065 H   0  0  0  0  0  0  0  0  0  0  0  0
  148.9933  137.3746  157.7653 H   0  0  0  0  0  0  0  0  0  0  0  0
  149.3586  138.8285  156.9089 H   0  0  0  0  0  0  0  0  0  0  0  0
  148.9336  135.7084  154.6904 H   0  0  0  0  0  0  0  0  0  0  0  0
  148.2127  135.9123  156.2575 H   0  0  0  0  0  0  0  0  0  0  0  0
  146.8375  136.9796  154.4925 H   0  0  0  0  0  0  0  0  0  0  0  0
  147.4053  138.2054  155.6092 H   0  0  0  0  0  0  0  0  0  0  0  0
  146.9850  139.8000  153.7923 H   0  0  0  0  0  0  0  0  0  0  0  0
  148.0279  139.8154  152.3932 H   0  0  0  0  0  0  0  0  0  0  0  0
  146.3075  137.3926  152.5431 H   0  0  0  0  0  0  0  0  0  0  0  0
  145.3630  138.8615  152.4530 H   0  0  0  0  0  0  0  0  0  0  0  0
  145.8077  138.5561  150.4000 H   0  0  0  0  0  0  0  0  0  0  0  0
  150.1777  139.2587  153.3115 H   0  0  0  0  0  0  0  0  0  0  0  0
  149.4581  139.6469  154.8544 H   0  0  0  0  0  0  0  0  0  0  0  0
  151.5035  138.2370  155.1147 H   0  0  0  0  0  0  0  0  0  0  0  0
  150.8553  137.0403  154.0482 H   0  0  0  0  0  0  0  0  0  0  0  0
  150.6339  141.4515  157.6864 H   0  0  0  0  0  0  0  0  0  0  0  0
  149.3919  143.4517  157.8680 H   0  0  0  0  0  0  0  0  0  0  0  0
  150.4217  144.8619  158.1146 H   0  0  0  0  0  0  0  0  0  0  0  0
  149.4213  144.2477  159.4395 H   0  0  0  0  0  0  0  0  0  0  0  0
  148.6122  137.5030  153.0390 H   0  0  0  0  0  0  0  0  0  0  0  0
  1  2  1  0  0  0  0
  1 25  1  0  0  0  0
  1 26  1  0  0  0  0
  1 27  1  0  0  0  0
  2 23  1  0  0  0  0
  2  3  2  0  0  0  0
  3  4  1  0  0  0  0
  3 28  1  0  0  0  0
  4 21  2  0  0  0  0
  4  5  1  0  0  0  0
  5  6  2  0  0  0  0
  6  7  1  0  0  0  0
  6 29  1  0  0  0  0
  7  8  1  0  0  0  0
  7 21  1  0  0  0  0
  8  9  1  0  0  0  0
  8 30  1  0  0  0  0
  8 31  1  0  0  0  0
  9 10  1  0  0  0  0
  9 11  1  0  0  0  0
  9 32  1  0  0  0  0
 10 33  1  0  0  0  0
 11 12  1  0  0  0  0
 11 34  1  0  0  0  0
 11 35  1  0  0  0  0
 12 20  1  0  0  0  0
 12 13  1  0  0  0  0
 13 14  1  0  0  0  0
 13 36  1  0  0  0  0
 13 37  1  0  0  0  0
 14 15  1  0  0  0  0
 14 38  1  0  0  0  0
 14 39  1  0  0  0  0
 15 16  1  0  0  0  0
 15 19  1  0  0  0  0
 15 53  1  0  0  0  0
 16 17  1  0  0  0  0
 16 40  1  0  0  0  0
 16 41  1  0  0  0  0
 17 18  1  0  0  0  0
 17 42  1  0  0  0  0
 17 43  1  0  0  0  0
 18 44  1  0  0  0  0
 19 20  1  0  0  0  0
 19 45  1  0  0  0  0
 19 46  1  0  0  0  0
 20 47  1  0  0  0  0
 20 48  1  0  0  0  0
 21 22  1  0  0  0  0
 22 23  2  0  0  0  0
 22 49  1  0  0  0  0
 23 24  1  0  0  0  0
 24 50  1  0  0  0  0
 24 51  1  0  0  0  0
 24 52  1  0  0  0  0
M  CHG  1  15   1
M  END
> <s_m_source_file>
AV-unprocessed.smi

> <i_m_source_file_index>
1046

> <i_lp_mmshare_version>
43012

> <i_f3d_flags>
0

> <s_epik_input>
W0NIM11jKFtjSF0xKWMoW0NIM10pW2NIXWMoYzEyKW4oW2NIXW4yKVtDSDJdW0NASF0oW09IXSlbQ0gyXU4zW0NIMl1bQ0gyXU4oW0NIMl1bQ0gyXTMpW0NIMl1bQ0gyXVtPSF0=

> <s_epik_cmdline>
J2VwaWtfcHl0aG9uJywgJy1waCcsICc3LjAnLCAnLXRuJywgJzgnLCAnLW1hJywgJzIwMCcsICctbWV0YWxfYmluZGluZycsICctaW1hZScsICc8aW5maWxlLm1hZT4nLCAnLW9tYWUnLCAnPG91dGZpbGUubWFlPic=

> <r_epik_Ionization_Penalty>
0.218081

> <r_epik_Ionization_Penalty_Charging>
0.0909554

> <r_epik_Ionization_Penalty_Neutral>
0.127126

> <r_epik_State_Penalty>
0.825642

> <r_epik_Charging_Adjusted_Penalty>
0.916597

> <i_epik_Tot_Q>
1

> <i_epik_Tot_abs_Q>
1

> <r_epik_Metal_State_Penalty>
0.740189

> <b_epik_Metal_Only>
0

> <s_lp_Force_Field>
OPLS_2005

> <r_lp_Energy>
40.3597

> <b_lp_Chiralities_Consistent>
1

> <s_lp_Variant>
AV-unprocessed.smi:1046-3

> <Gold.Version>
5.8.1

> <Gold.Id.Protein>
6NUR|6NUR_protein|mol2

> <Gold.PLP.Fitness>
54.5691

> <Gold.PLP.PLP>
-43.0078

> <Gold.PLP.part.hbond>
-4.1561

> <Gold.PLP.part.metal>
0.0000

> <Gold.PLP.part.buried>
-5.7508

> <Gold.PLP.part.nonpolar>
-34.0249

> <Gold.PLP.part.repulsive>
0.0558

> <Gold.PLP.ligand.clash>
0.0000

> <Gold.PLP.ligand.torsion>
1.5006

> <Gold.PLP.Chemscore.Hbond>
4.7753

> <Gold.PLP.Chemscore.CHOScore>
0.0000

> <Gold.PLP.Chemscore.Metal>
0.0000

> <Gold.Chemscore.Hbonds>
donor molecule, donor type, donor heavy atom, donor atom, acceptor molecule, acceptor atom, score
      L1  H    15    53       P1  7948  2.00
      L1  H    18    44       P1 10171  1.00
      P1  H  6896  6909       L1    10  0.64
      P1  H  7954  7966       L1    18  0.98

> <Gold.PLP.Chemscore.Internal.Correction>
0.2367

> <Gold.Rescore>
     Score         DG    S(hbond)    S(metal)    S(lipo)     H(rot)  DE(clash)    DE(int)     intcor
     20.25     -21.73       3.17        0.00     118.52       3.21       0.03       1.45       ----

> <Gold.Chemscore.Fitness>
20.2509

> <Gold.Chemscore.DG>
-21.7287

> <Gold.Chemscore.ZeroCoef>
-5.4800

> <Gold.Chemscore.Hbond>
3.1701

> <Gold.Chemscore.Metal>
0.0000

> <Gold.Chemscore.Lipo>
118.5239

> <Gold.Chemscore.Internal_Hbond>
0.0000

> <Gold.Chemscore.DEClash>
0.0256

> <Gold.Chemscore.DEInternal>
1.4522

> <Gold.Chemscore.Rot>
3.2058

> <Gold.Chemscore.Internal.Correction>
   9.000000E+99

> <Gold.Chemscore.Hbonds>
donor molecule, donor type, donor heavy atom, donor atom, acceptor molecule, acceptor atom, score
      L1  H    15    53       P1  7948  1.00
      L1  H    18    44       P1 10171  0.96
      P1  H  6896  6909       L1    10  0.16
      P1  H  7954  7966       L1    18  0.88

> <Gold.Chemscore.Hbond.Weighted>
-10.5881

> <Gold.Chemscore.Metal.Weighted>
-0.0000

> <Gold.Chemscore.Lipo.Weighted>
-13.8673

> <Gold.Chemscore.Internal_Hbond.Weighted>
0.0000

> <Gold.Chemscore.DEClash.Weighted>
0.0256

> <Gold.Chemscore.DEInternal.Weighted>
1.4522

> <Gold.Chemscore.Rot.Weighted>
8.2067

> <Gold.Chemscore.Internal.Correction.Weighted>
   9.000000E+99

> <Gold.Protein.RotatedTorsions>
[ 6907 6896 6895 6894 ] final  102.95 input  -60.11 | X-H torsion
[ 7974 7965 7964 7962 ] final   96.71 input  175.53 | X-H torsion
[ 8008 7997 7996 7995 ] final   22.70 input   59.86 | X-H torsion
[ 10167 10162 10161 10158 ] final   57.01 input  -65.29 | X-H torsion
[ 10718 10713 10712 10709 ] final -121.79 input   66.30 | X-H torsion
[ 10763 10752 10751 10750 ] final  -20.04 input  -60.55 | X-H torsion
[ 11005 11000 10999 10996 ] final   58.77 input  -57.11 | X-H torsion

> <Gold.Protein.ActiveResidues>
 VAL166  LYS551  ARG553  GLY616  TRP617  ASP618  TYR619  PRO620  LYS621  CYS622 
 ASP623  PHE694  ASN695  SER759  ASP760  ASP761  ALA762  ILE779  LEU786  VAL792 
 PHE793  MET794  SER795  GLU796  ALA797  LYS798  CYS799  TRP800  GLU811  SER814 

> <Gold.Protein.RotatedAtoms>
  152.5309  133.9898  159.7845 H   0  0  0  0  0  0  0  0  0  0  0  0  # atno 6907 bound_to 6896
  151.0136  133.5934  159.2687 H   0  0  0  0  0  0  0  0  0  0  0  0  # atno 6908 bound_to 6896
  151.2999  135.0772  159.9288 H   0  0  0  0  0  0  0  0  0  0  0  0  # atno 6909 bound_to 6896
  145.4352  139.2306  143.3122 H   0  0  0  0  0  0  0  0  0  0  0  0  # atno 7974 bound_to 7965
  154.9696  140.3088  155.4994 H   0  0  0  0  0  0  0  0  0  0  0  0  # atno 8008 bound_to 7997
  156.2967  140.2286  156.4727 H   0  0  0  0  0  0  0  0  0  0  0  0  # atno 8009 bound_to 7997
  154.7888  140.0441  157.1173 H   0  0  0  0  0  0  0  0  0  0  0  0  # atno 8010 bound_to 7997
  140.2026  144.3972  150.6522 H   0  0  0  0  0  0  0  0  0  0  0  0  # atno 10167 bound_to 10162
  156.1365  130.6434  150.9705 H   0  0  0  0  0  0  0  0  0  0  0  0  # atno 10718 bound_to 10713
  153.6142  135.6995  153.5335 H   0  0  0  0  0  0  0  0  0  0  0  0  # atno 10763 bound_to 10752
  153.2991  135.4134  155.1236 H   0  0  0  0  0  0  0  0  0  0  0  0  # atno 10764 bound_to 10752
  154.8557  135.3644  154.5681 H   0  0  0  0  0  0  0  0  0  0  0  0  # atno 10765 bound_to 10752
  140.0353  134.5952  155.9452 H   0  0  0  0  0  0  0  0  0  0  0  0  # atno 11005 bound_to 11000
  146.2586  140.5094  142.8863 LP  0  0  0  0  0  0  0  0  0  0  0  0  # atno 17320 bound_to 7965
  144.8157  140.6463  143.6386 LP  0  0  0  0  0  0  0  0  0  0  0  0  # atno 17321 bound_to 7965
  140.6379  143.2198  151.6354 LP  0  0  0  0  0  0  0  0  0  0  0  0  # atno 17342 bound_to 10162
  139.5211  144.3203  152.0916 LP  0  0  0  0  0  0  0  0  0  0  0  0  # atno 17343 bound_to 10162
  157.6537  131.0893  150.7994 LP  0  0  0  0  0  0  0  0  0  0  0  0  # atno 17370 bound_to 10713
  156.8074  130.4941  149.5361 LP  0  0  0  0  0  0  0  0  0  0  0  0  # atno 17371 bound_to 10713
  141.1854  133.6555  156.5195 LP  0  0  0  0  0  0  0  0  0  0  0  0  # atno 17394 bound_to 11000
  140.4158  134.7231  157.4862 LP  0  0  0  0  0  0  0  0  0  0  0  0  # atno 17395 bound_to 11000

$$$$
