AV-unprocessed.smi:1538|AV-procd|sdf|6192|dock1
  -GOLD-   22720 6353D 1   1.00000     0.00000
 Structure written by MMmdl.
 37 38  0  0  0  0  0  0  0  0  2 V2000
  153.6141  141.7264  160.7082 C   0  0  0  0  0  0  0  0  0  0  0  0
  152.6624  142.6984  160.1667 N   0  0  0  0  0  0  0  0  0  0  0  0
  152.2416  142.4478  158.7828 C   0  0  0  0  0  0  0  0  0  0  0  0
  151.6667  143.6916  158.0918 C   0  0  0  0  0  0  0  0  0  0  0  0
  150.6260  144.4069  158.9654 C   0  0  1  0  0  0  0  0  0  0  0  0
  149.2841  143.6567  159.0371 C   0  0  0  0  0  0  0  0  0  0  0  0
  148.6717  143.5704  160.1018 O   0  0  0  0  0  0  0  0  0  0  0  0
  148.8295  143.1272  157.8917 N   0  0  0  0  0  0  0  0  0  0  0  0
  147.5802  142.3896  157.7690 C   0  0  0  0  0  0  0  0  0  0  0  0
  147.8172  141.0297  157.0989 C   0  0  0  0  0  0  0  0  0  0  0  0
  147.4206  141.0447  155.6896 N   0  0  0  0  0  0  0  0  0  0  0  0
  148.2438  140.9916  154.5943 C   0  0  0  0  0  0  0  0  0  0  0  0
  147.4293  141.0263  153.4917 C   0  0  0  0  0  0  0  0  0  0  0  0
  146.1448  141.0974  153.9605 N   0  3  0  0  0  0  0  0  0  0  0  0
  146.1414  141.1083  155.2976 C   0  0  0  0  0  0  0  0  0  0  0  0
  151.1917  144.7241  160.3688 C   0  0  0  0  0  0  0  0  0  0  0  0
  152.1929  143.7040  160.9441 C   0  0  0  0  0  0  0  0  0  0  0  0
  152.5510  143.8518  162.1129 O   0  0  0  0  0  0  0  0  0  0  0  0
  153.2463  141.2979  161.6416 H   0  0  0  0  0  0  0  0  0  0  0  0
  154.5742  142.2044  160.9069 H   0  0  0  0  0  0  0  0  0  0  0  0
  153.7913  140.8966  160.0228 H   0  0  0  0  0  0  0  0  0  0  0  0
  153.0861  142.0828  158.1965 H   0  0  0  0  0  0  0  0  0  0  0  0
  151.5045  141.6442  158.7893 H   0  0  0  0  0  0  0  0  0  0  0  0
  152.4799  144.3850  157.8728 H   0  0  0  0  0  0  0  0  0  0  0  0
  151.2382  143.4163  157.1272 H   0  0  0  0  0  0  0  0  0  0  0  0
  150.4185  145.3655  158.4863 H   0  0  0  0  0  0  0  0  0  0  0  0
  149.3851  143.2429  157.0562 H   0  0  0  0  0  0  0  0  0  0  0  0
  147.1461  142.2489  158.7603 H   0  0  0  0  0  0  0  0  0  0  0  0
  146.8691  142.9768  157.1852 H   0  0  0  0  0  0  0  0  0  0  0  0
  148.8692  140.7452  157.1552 H   0  0  0  0  0  0  0  0  0  0  0  0
  147.2440  140.2476  157.5991 H   0  0  0  0  0  0  0  0  0  0  0  0
  149.3196  140.9337  154.6782 H   0  0  0  0  0  0  0  0  0  0  0  0
  147.6617  141.0053  152.4368 H   0  0  0  0  0  0  0  0  0  0  0  0
  145.2757  141.1571  155.9340 H   0  0  0  0  0  0  0  0  0  0  0  0
  151.7144  145.6801  160.3225 H   0  0  0  0  0  0  0  0  0  0  0  0
  150.3851  144.8680  161.0900 H   0  0  0  0  0  0  0  0  0  0  0  0
  145.3153  141.1353  153.3813 H   0  0  0  0  0  0  0  0  0  0  0  0
  1  2  1  0  0  0  0
  1 19  1  0  0  0  0
  1 20  1  0  0  0  0
  1 21  1  0  0  0  0
  2 17  1  0  0  0  0
  2  3  1  0  0  0  0
  3  4  1  0  0  0  0
  3 22  1  0  0  0  0
  3 23  1  0  0  0  0
  4  5  1  0  0  0  0
  4 24  1  0  0  0  0
  4 25  1  0  0  0  0
  5  6  1  0  0  0  0
  5 16  1  0  0  0  0
  5 26  1  0  0  0  0
  6  7  2  0  0  0  0
  6  8  1  0  0  0  0
  8  9  1  0  0  0  0
  8 27  1  0  0  0  0
  9 10  1  0  0  0  0
  9 28  1  0  0  0  0
  9 29  1  0  0  0  0
 10 11  1  0  0  0  0
 10 30  1  0  0  0  0
 10 31  1  0  0  0  0
 11 15  1  0  0  0  0
 11 12  1  0  0  0  0
 12 13  2  0  0  0  0
 12 32  1  0  0  0  0
 13 14  1  0  0  0  0
 13 33  1  0  0  0  0
 14 15  2  0  0  0  0
 14 37  1  0  0  0  0
 15 34  1  0  0  0  0
 16 17  1  0  0  0  0
 16 35  1  0  0  0  0
 16 36  1  0  0  0  0
 17 18  2  0  0  0  0
M  CHG  1  14   1
M  END
> <s_m_source_file>
AV-unprocessed.smi

> <i_m_source_file_index>
1538

> <i_lp_mmshare_version>
43012

> <i_f3d_flags>
0

> <s_epik_input>
W0NIM11OMVtDSDJdW0NIMl1bQ0BIXShbQ0gyXUMxPU8pQyg9TylbTkhdW0NIMl1bQ0gyXW4yW2NIXVtjSF1uW2NIXTI=

> <s_epik_cmdline>
J2VwaWtfcHl0aG9uJywgJy1waCcsICc3LjAnLCAnLXRuJywgJzgnLCAnLW1hJywgJzIwMCcsICctbWV0YWxfYmluZGluZycsICctaW1hZScsICc8aW5maWxlLm1hZT4nLCAnLW9tYWUnLCAnPG91dGZpbGUubWFlPic=

> <r_lp_tautomer_probability>
1

> <r_epik_Ionization_Penalty>
0.272873

> <r_epik_Ionization_Penalty_Charging>
0

> <r_epik_Ionization_Penalty_Neutral>
0.272873

> <r_epik_State_Penalty>
0.265096

> <r_epik_Charging_Adjusted_Penalty>
0.265096

> <i_epik_Tot_Q>
1

> <i_epik_Tot_abs_Q>
1

> <r_epik_Metal_State_Penalty>
0.549113

> <b_epik_Metal_Only>
0

> <s_lp_Force_Field>
OPLS_2005

> <r_lp_Energy>
17.3063

> <b_lp_Chiralities_Consistent>
1

> <s_lp_Variant>
AV-unprocessed.smi:1538-1

> <Gold.Version>
5.8.1

> <Gold.Id.Protein>
6NUR|6NUR_protein|mol2

> <Gold.PLP.Fitness>
45.0829

> <Gold.PLP.PLP>
-37.3688

> <Gold.PLP.part.hbond>
-4.0000

> <Gold.PLP.part.metal>
0.0000

> <Gold.PLP.part.buried>
-3.8655

> <Gold.PLP.part.nonpolar>
-30.7689

> <Gold.PLP.part.repulsive>
0.3731

> <Gold.PLP.ligand.clash>
0.0000

> <Gold.PLP.ligand.torsion>
0.8100

> <Gold.PLP.Chemscore.Hbond>
3.0828

> <Gold.PLP.Chemscore.CHOScore>
0.0000

> <Gold.PLP.Chemscore.Metal>
0.0000

> <Gold.Chemscore.Hbonds>
donor molecule, donor type, donor heavy atom, donor atom, acceptor molecule, acceptor atom, score
      L1  H     8    27       P1  8028  0.33
      L1  H    14    37       P1 10175  2.00
      P1  H  6933  6944       L1     7  0.70

> <Gold.PLP.Chemscore.Internal.Correction>
0.0855

> <Gold.Rescore>
     Score         DG    S(hbond)    S(metal)    S(lipo)     H(rot)  DE(clash)    DE(int)     intcor
     14.72     -15.59       2.19        0.00      68.56       2.05       0.01       0.85       ----

> <Gold.Chemscore.Fitness>
14.7194

> <Gold.Chemscore.DG>
-15.5852

> <Gold.Chemscore.ZeroCoef>
-5.4800

> <Gold.Chemscore.Hbond>
2.1936

> <Gold.Chemscore.Metal>
0.0000

> <Gold.Chemscore.Lipo>
68.5558

> <Gold.Chemscore.Internal_Hbond>
0.0000

> <Gold.Chemscore.DEClash>
0.0135

> <Gold.Chemscore.DEInternal>
0.8523

> <Gold.Chemscore.Rot>
2.0478

> <Gold.Chemscore.Internal.Correction>
   9.000000E+99

> <Gold.Chemscore.Hbonds>
donor molecule, donor type, donor heavy atom, donor atom, acceptor molecule, acceptor atom, score
      L1  H     8    27       P1  8028  0.30
      L1  H    14    37       P1 10175  0.39
      P1  H  6933  6944       L1     7  0.70

> <Gold.Chemscore.Hbond.Weighted>
-7.3265

> <Gold.Chemscore.Metal.Weighted>
-0.0000

> <Gold.Chemscore.Lipo.Weighted>
-8.0210

> <Gold.Chemscore.Internal_Hbond.Weighted>
0.0000

> <Gold.Chemscore.DEClash.Weighted>
0.0135

> <Gold.Chemscore.DEInternal.Weighted>
0.8523

> <Gold.Chemscore.Rot.Weighted>
5.2423

> <Gold.Chemscore.Internal.Correction.Weighted>
   9.000000E+99

> <Gold.Protein.RotatedTorsions>
[ 6907 6896 6895 6894 ] final   42.21 input  -60.11 | X-H torsion
[ 7974 7965 7964 7962 ] final   42.68 input  175.53 | X-H torsion
[ 8008 7997 7996 7995 ] final   -1.16 input   59.86 | X-H torsion
[ 10167 10162 10161 10158 ] final   58.57 input  -65.29 | X-H torsion
[ 10718 10713 10712 10709 ] final  -39.45 input   66.30 | X-H torsion
[ 10763 10752 10751 10750 ] final  -81.62 input  -60.55 | X-H torsion
[ 11005 11000 10999 10996 ] final -139.04 input  -57.11 | X-H torsion

> <Gold.Protein.ActiveResidues>
 VAL166  LYS551  ARG553  GLY616  TRP617  ASP618  TYR619  PRO620  LYS621  CYS622 
 ASP623  PHE694  ASN695  SER759  ASP760  ASP761  ALA762  ILE779  LEU786  VAL792 
 PHE793  MET794  SER795  GLU796  ALA797  LYS798  CYS799  TRP800  GLU811  SER814 

> <Gold.Protein.RotatedAtoms>
  152.2050  134.8554  160.0503 H   0  0  0  0  0  0  0  0  0  0  0  0  # atno 6907 bound_to 6896
  151.9393  133.3628  159.3967 H   0  0  0  0  0  0  0  0  0  0  0  0  # atno 6908 bound_to 6896
  150.6963  134.4380  159.5323 H   0  0  0  0  0  0  0  0  0  0  0  0  # atno 6909 bound_to 6896
  146.0720  139.5273  142.9592 H   0  0  0  0  0  0  0  0  0  0  0  0  # atno 7974 bound_to 7965
  154.6499  140.2566  155.7225 H   0  0  0  0  0  0  0  0  0  0  0  0  # atno 8008 bound_to 7997
  156.2570  140.2870  156.0850 H   0  0  0  0  0  0  0  0  0  0  0  0  # atno 8009 bound_to 7997
  155.1466  140.0381  157.2801 H   0  0  0  0  0  0  0  0  0  0  0  0  # atno 8010 bound_to 7997
  140.1858  144.4136  150.6594 H   0  0  0  0  0  0  0  0  0  0  0  0  # atno 10167 bound_to 10162
  156.2923  130.4230  149.8226 H   0  0  0  0  0  0  0  0  0  0  0  0  # atno 10718 bound_to 10713
  154.5659  135.5620  153.7049 H   0  0  0  0  0  0  0  0  0  0  0  0  # atno 10763 bound_to 10752
  153.0032  135.6285  154.2181 H   0  0  0  0  0  0  0  0  0  0  0  0  # atno 10764 bound_to 10752
  154.2120  135.2873  155.2935 H   0  0  0  0  0  0  0  0  0  0  0  0  # atno 10765 bound_to 10752
  140.8558  134.2230  157.4735 H   0  0  0  0  0  0  0  0  0  0  0  0  # atno 11005 bound_to 11000
  145.6374  141.0291  143.1830 LP  0  0  0  0  0  0  0  0  0  0  0  0  # atno 17320 bound_to 7965
  144.7237  139.7944  143.7372 LP  0  0  0  0  0  0  0  0  0  0  0  0  # atno 17321 bound_to 7965
  140.6489  143.2220  151.6122 LP  0  0  0  0  0  0  0  0  0  0  0  0  # atno 17342 bound_to 10162
  139.5277  144.3010  152.1073 LP  0  0  0  0  0  0  0  0  0  0  0  0  # atno 17343 bound_to 10162
  156.5635  130.8394  151.3336 LP  0  0  0  0  0  0  0  0  0  0  0  0  # atno 17370 bound_to 10713
  157.7346  130.9748  150.2036 LP  0  0  0  0  0  0  0  0  0  0  0  0  # atno 17371 bound_to 10713
  139.8705  134.9705  156.4705 LP  0  0  0  0  0  0  0  0  0  0  0  0  # atno 17394 bound_to 11000
  140.8739  133.7968  155.9394 LP  0  0  0  0  0  0  0  0  0  0  0  0  # atno 17395 bound_to 11000

$$$$
