AV-unprocessed.smi:148|AV-procd|sdf|1211|dock6
  -GOLD-   2262018383D 1   1.00000     0.00000
 Structure written by MMmdl.
 63 67  0  0  0  0  0  0  0  0  1 V2000
  146.5343  135.6978  152.5752 O   0  0  0  0  0  0  0  0  0  0  0  0
  146.2820  134.6530  153.4914 C   0  0  0  0  0  0  0  0  0  0  0  0
  146.4405  133.2754  152.8054 C   0  0  1  0  0  0  0  0  0  0  0  0
  146.8861  132.2069  153.8346 C   0  0  0  0  0  0  0  0  0  0  0  0
  146.7175  132.6293  155.2136 N   0  0  0  0  0  0  0  0  0  0  0  0
  145.5345  132.9430  155.8440 C   0  0  0  0  0  0  0  0  0  0  0  0
  145.6484  133.2958  157.0952 N   0  0  0  0  0  0  0  0  0  0  0  0
  147.0142  133.2278  157.3429 C   0  0  0  0  0  0  0  0  0  0  0  0
  147.8346  133.4776  158.4791 C   0  0  0  0  0  0  0  0  0  0  0  0
  147.3783  133.8806  159.6861 N   0  0  0  0  0  0  0  0  0  0  0  0
  147.8985  135.2116  159.9977 C   0  0  0  0  0  0  0  0  0  0  0  0
  147.2049  135.8085  161.2281 C   0  0  0  0  0  0  0  0  0  0  0  0
  147.3285  134.8549  162.4201 C   0  0  0  0  0  0  0  0  0  0  0  0
  146.7611  133.4779  162.0500 C   0  0  0  0  0  0  0  0  0  0  0  0
  147.4388  132.8934  160.7809 C   0  0  1  0  0  0  0  0  0  0  0  0
  146.8776  131.4902  160.3663 C   0  0  2  0  0  0  0  0  0  0  0  0
  145.3697  131.4952  160.0214 C   0  0  0  0  0  0  0  0  0  0  0  0
  144.6950  130.4517  160.9235 C   0  0  0  0  0  0  0  0  0  0  0  0
  145.6775  130.2005  162.0659 C   0  0  0  0  0  0  0  0  0  0  0  0
  147.0407  130.3472  161.3929 C   0  0  2  0  0  0  0  0  0  0  0  0
  148.1032  130.5057  162.3115 O   0  0  0  0  0  0  0  0  0  0  0  0
  149.1715  133.2919  158.3536 N   0  0  0  0  0  0  0  0  0  0  0  0
  149.6835  132.8986  157.1835 C   0  0  0  0  0  0  0  0  0  0  0  0
  149.0475  132.6354  156.0395 N   0  0  0  0  0  0  0  0  0  0  0  0
  147.7011  132.8123  156.1685 C   0  0  0  0  0  0  0  0  0  0  0  0
  145.1879  132.8387  151.9951 C   0  0  2  0  0  0  0  0  0  0  0  0
  145.3277  131.5239  151.2254 C   0  0  0  0  0  0  0  0  0  0  0  0
  144.9401  131.8866  149.7929 C   0  0  0  0  0  0  0  0  0  0  0  0
  144.0979  133.0167  149.9478 O   0  0  0  0  0  0  0  0  0  0  0  0
  144.7016  133.8369  150.9343 C   0  0  0  0  0  0  0  0  0  0  0  0
  147.4693  135.8065  152.4916 H   0  0  0  0  0  0  0  0  0  0  0  0
  146.9644  134.7561  154.3347 H   0  0  0  0  0  0  0  0  0  0  0  0
  145.2748  134.7958  153.8799 H   0  0  0  0  0  0  0  0  0  0  0  0
  147.2451  133.3755  152.0749 H   0  0  0  0  0  0  0  0  0  0  0  0
  146.3177  131.2859  153.7004 H   0  0  0  0  0  0  0  0  0  0  0  0
  147.9337  131.9464  153.6792 H   0  0  0  0  0  0  0  0  0  0  0  0
  144.5768  132.8949  155.3461 H   0  0  0  0  0  0  0  0  0  0  0  0
  148.9732  135.1485  160.1759 H   0  0  0  0  0  0  0  0  0  0  0  0
  147.7567  135.8766  159.1442 H   0  0  0  0  0  0  0  0  0  0  0  0
  147.6435  136.7760  161.4728 H   0  0  0  0  0  0  0  0  0  0  0  0
  146.1522  135.9884  161.0059 H   0  0  0  0  0  0  0  0  0  0  0  0
  148.3753  134.7576  162.7100 H   0  0  0  0  0  0  0  0  0  0  0  0
  146.8001  135.2600  163.2834 H   0  0  0  0  0  0  0  0  0  0  0  0
  146.8947  132.8146  162.9025 H   0  0  0  0  0  0  0  0  0  0  0  0
  145.6856  133.5719  161.9035 H   0  0  0  0  0  0  0  0  0  0  0  0
  148.4941  132.7642  161.0219 H   0  0  0  0  0  0  0  0  0  0  0  0
  147.4257  131.1578  159.4844 H   0  0  0  0  0  0  0  0  0  0  0  0
  144.9225  132.4754  160.1825 H   0  0  0  0  0  0  0  0  0  0  0  0
  145.2079  131.2567  158.9694 H   0  0  0  0  0  0  0  0  0  0  0  0
  143.7184  130.7790  161.2811 H   0  0  0  0  0  0  0  0  0  0  0  0
  144.5464  129.5282  160.3625 H   0  0  0  0  0  0  0  0  0  0  0  0
  145.5425  130.9538  162.8418 H   0  0  0  0  0  0  0  0  0  0  0  0
  145.5408  129.2218  162.5269 H   0  0  0  0  0  0  0  0  0  0  0  0
  147.2358  129.4249  160.8429 H   0  0  0  0  0  0  0  0  0  0  0  0
  147.7462  130.5072  163.1863 H   0  0  0  0  0  0  0  0  0  0  0  0
  150.7564  132.7763  157.1607 H   0  0  0  0  0  0  0  0  0  0  0  0
  144.3622  132.6794  152.6894 H   0  0  0  0  0  0  0  0  0  0  0  0
  146.3204  131.0776  151.2784 H   0  0  0  0  0  0  0  0  0  0  0  0
  144.6271  130.7893  151.6250 H   0  0  0  0  0  0  0  0  0  0  0  0
  145.8214  132.1675  149.2137 H   0  0  0  0  0  0  0  0  0  0  0  0
  144.4336  131.0728  149.2736 H   0  0  0  0  0  0  0  0  0  0  0  0
  143.9932  134.5615  151.3360 H   0  0  0  0  0  0  0  0  0  0  0  0
  145.5219  134.3876  150.4744 H   0  0  0  0  0  0  0  0  0  0  0  0
  1  2  1  0  0  0  0
  1 31  1  0  0  0  0
  2  3  1  0  0  0  0
  2 32  1  0  0  0  0
  2 33  1  0  0  0  0
  3  4  1  0  0  0  0
  3 26  1  0  0  0  0
  3 34  1  0  0  0  0
  4  5  1  0  0  0  0
  4 35  1  0  0  0  0
  4 36  1  0  0  0  0
  5 25  1  0  0  0  0
  5  6  1  0  0  0  0
  6  7  2  0  0  0  0
  6 37  1  0  0  0  0
  7  8  1  0  0  0  0
  8 25  2  0  0  0  0
  8  9  1  0  0  0  0
  9 10  1  0  0  0  0
  9 22  2  0  0  0  0
 10 15  1  0  0  0  0
 10 11  1  0  0  0  0
 11 12  1  0  0  0  0
 11 38  1  0  0  0  0
 11 39  1  0  0  0  0
 12 13  1  0  0  0  0
 12 40  1  0  0  0  0
 12 41  1  0  0  0  0
 13 14  1  0  0  0  0
 13 42  1  0  0  0  0
 13 43  1  0  0  0  0
 14 15  1  0  0  0  0
 14 44  1  0  0  0  0
 14 45  1  0  0  0  0
 15 16  1  0  0  0  0
 15 46  1  0  0  0  0
 16 20  1  0  0  0  0
 16 17  1  0  0  0  0
 16 47  1  0  0  0  0
 17 18  1  0  0  0  0
 17 48  1  0  0  0  0
 17 49  1  0  0  0  0
 18 19  1  0  0  0  0
 18 50  1  0  0  0  0
 18 51  1  0  0  0  0
 19 20  1  0  0  0  0
 19 52  1  0  0  0  0
 19 53  1  0  0  0  0
 20 21  1  0  0  0  0
 20 54  1  0  0  0  0
 21 55  1  0  0  0  0
 22 23  1  0  0  0  0
 23 24  2  0  0  0  0
 23 56  1  0  0  0  0
 24 25  1  0  0  0  0
 26 30  1  0  0  0  0
 26 27  1  0  0  0  0
 26 57  1  0  0  0  0
 27 28  1  0  0  0  0
 27 58  1  0  0  0  0
 27 59  1  0  0  0  0
 28 29  1  0  0  0  0
 28 60  1  0  0  0  0
 28 61  1  0  0  0  0
 29 30  1  0  0  0  0
 30 62  1  0  0  0  0
 30 63  1  0  0  0  0
M  END
> <s_m_source_file>
AV-unprocessed.smi

> <i_m_source_file_index>
148

> <i_lp_mmshare_version>
43012

> <i_f3d_flags>
0

> <s_epik_input>
W0NIMl0xT1tDSDJdW0NIMl1bQ0BIXTFbQ0BIXShbQ0gyXVtPSF0pW0NIMl1uKFtjSF1uMiljKGMyMyluW2NIXW5jM040W0NIMl1bQ0gyXVtDSDJdW0NIMl1bQ0BIXTRbQ0BASF01W0NIMl1bQ0gyXVtDSDJdW0NASF01W09IXQ==

> <s_epik_cmdline>
J2VwaWtfcHl0aG9uJywgJy1waCcsICc3LjAnLCAnLXRuJywgJzgnLCAnLW1hJywgJzIwMCcsICctbWV0YWxfYmluZGluZycsICctaW1hZScsICc8aW5maWxlLm1hZT4nLCAnLW9tYWUnLCAnPG91dGZpbGUubWFlPic=

> <r_lp_tautomer_probability>
1

> <r_epik_Ionization_Penalty>
0.00556303

> <r_epik_Ionization_Penalty_Charging>
0

> <r_epik_Ionization_Penalty_Neutral>
0.00556303

> <r_epik_State_Penalty>
0.00401767

> <r_epik_Charging_Adjusted_Penalty>
0.00401767

> <i_epik_Tot_Q>
0

> <i_epik_Tot_abs_Q>
0

> <r_epik_Metal_State_Penalty>
-0

> <b_epik_Metal_Only>
0

> <s_lp_Force_Field>
OPLS_2005

> <r_lp_Energy>
71.509

> <b_lp_Chiralities_Consistent>
1

> <s_lp_Variant>
AV-unprocessed.smi:148-10

> <Gold.Version>
5.8.1

> <Gold.Id.Protein>
6NUR|6NUR_protein|mol2

> <Gold.PLP.Fitness>
43.1707

> <Gold.PLP.PLP>
-36.0041

> <Gold.PLP.part.hbond>
-2.0000

> <Gold.PLP.part.metal>
0.0000

> <Gold.PLP.part.buried>
-6.6900

> <Gold.PLP.part.nonpolar>
-27.6543

> <Gold.PLP.part.repulsive>
0.2548

> <Gold.PLP.ligand.clash>
0.0000

> <Gold.PLP.ligand.torsion>
1.1228

> <Gold.PLP.Chemscore.Hbond>
2.0000

> <Gold.PLP.Chemscore.CHOScore>
1.0000

> <Gold.PLP.Chemscore.Metal>
0.0000

> <Gold.Chemscore.Hbonds>
donor molecule, donor type, donor heavy atom, donor atom, acceptor molecule, acceptor atom, score
      L1  H     1    31       P1  7948  1.00
      P1  H  6896  6909       L1    22  1.00
      L1  C     6    37       P1 10957  1.00

> <Gold.PLP.Chemscore.Internal.Correction>
0.4122

> <Gold.Rescore>
     Score         DG    S(hbond)    S(metal)    S(lipo)     H(rot)  DE(clash)    DE(int)     intcor
     13.21     -14.34       1.91        0.00      93.80       3.32       0.03       1.10       ----

> <Gold.Chemscore.Fitness>
13.2145

> <Gold.Chemscore.DG>
-14.3426

> <Gold.Chemscore.ZeroCoef>
-5.4800

> <Gold.Chemscore.Hbond>
1.9127

> <Gold.Chemscore.Metal>
0.0000

> <Gold.Chemscore.Lipo>
93.7968

> <Gold.Chemscore.Internal_Hbond>
0.0000

> <Gold.Chemscore.DEClash>
0.0310

> <Gold.Chemscore.DEInternal>
1.0972

> <Gold.Chemscore.Rot>
3.3203

> <Gold.Chemscore.Internal.Correction>
   9.000000E+99

> <Gold.Chemscore.Hbonds>
donor molecule, donor type, donor heavy atom, donor atom, acceptor molecule, acceptor atom, score
      L1  H     1    31       P1  7948  0.99
      P1  H  6896  6909       L1    22  0.45

> <Gold.Chemscore.Hbond.Weighted>
-6.3884

> <Gold.Chemscore.Metal.Weighted>
-0.0000

> <Gold.Chemscore.Lipo.Weighted>
-10.9742

> <Gold.Chemscore.Internal_Hbond.Weighted>
0.0000

> <Gold.Chemscore.DEClash.Weighted>
0.0310

> <Gold.Chemscore.DEInternal.Weighted>
1.0972

> <Gold.Chemscore.Rot.Weighted>
8.5000

> <Gold.Chemscore.Internal.Correction.Weighted>
   9.000000E+99

> <Gold.Protein.RotatedTorsions>
[ 6907 6896 6895 6894 ] final   13.35 input  -60.11 | X-H torsion
[ 7974 7965 7964 7962 ] final   61.34 input  175.53 | X-H torsion
[ 8008 7997 7996 7995 ] final  115.85 input   59.86 | X-H torsion
[ 10167 10162 10161 10158 ] final  -26.02 input  -65.29 | X-H torsion
[ 10718 10713 10712 10709 ] final  128.67 input   66.30 | X-H torsion
[ 10763 10752 10751 10750 ] final  178.31 input  -60.55 | X-H torsion
[ 11005 11000 10999 10996 ] final   92.79 input  -57.11 | X-H torsion

> <Gold.Protein.ActiveResidues>
 VAL166  LYS551  ARG553  GLY616  TRP617  ASP618  TYR619  PRO620  LYS621  CYS622 
 ASP623  PHE694  ASN695  SER759  ASP760  ASP761  ALA762  ILE779  LEU786  VAL792 
 PHE793  MET794  SER795  GLU796  ALA797  LYS798  CYS799  TRP800  GLU811  SER814 

> <Gold.Protein.RotatedAtoms>
  151.7849  135.0751  160.0378 H   0  0  0  0  0  0  0  0  0  0  0  0  # atno 6907 bound_to 6896
  152.3197  133.5836  159.5745 H   0  0  0  0  0  0  0  0  0  0  0  0  # atno 6908 bound_to 6896
  150.7363  133.9945  159.3660 H   0  0  0  0  0  0  0  0  0  0  0  0  # atno 6909 bound_to 6896
  145.8859  139.3476  143.0678 H   0  0  0  0  0  0  0  0  0  0  0  0  # atno 7974 bound_to 7965
  156.2405  140.2930  156.0432 H   0  0  0  0  0  0  0  0  0  0  0  0  # atno 8008 bound_to 7997
  155.1964  140.0408  157.2927 H   0  0  0  0  0  0  0  0  0  0  0  0  # atno 8009 bound_to 7997
  154.6160  140.2464  155.7616 H   0  0  0  0  0  0  0  0  0  0  0  0  # atno 8010 bound_to 7997
  140.7284  143.4214  151.0945 H   0  0  0  0  0  0  0  0  0  0  0  0  # atno 10167 bound_to 10162
  157.5224  131.1098  150.9134 H   0  0  0  0  0  0  0  0  0  0  0  0  # atno 10718 bound_to 10713
  154.5060  135.2786  155.1382 H   0  0  0  0  0  0  0  0  0  0  0  0  # atno 10763 bound_to 10752
  154.2996  135.6251  153.5423 H   0  0  0  0  0  0  0  0  0  0  0  0  # atno 10764 bound_to 10752
  152.9910  135.5693  154.5514 H   0  0  0  0  0  0  0  0  0  0  0  0  # atno 10765 bound_to 10752
  139.8818  134.8753  156.3624 H   0  0  0  0  0  0  0  0  0  0  0  0  # atno 11005 bound_to 11000
  145.8967  140.9269  143.0524 LP  0  0  0  0  0  0  0  0  0  0  0  0  # atno 17320 bound_to 7965
  144.6728  140.0978  143.7462 LP  0  0  0  0  0  0  0  0  0  0  0  0  # atno 17321 bound_to 7965
  139.7860  143.8286  152.3145 LP  0  0  0  0  0  0  0  0  0  0  0  0  # atno 17342 bound_to 10162
  139.8254  144.7277  150.9519 LP  0  0  0  0  0  0  0  0  0  0  0  0  # atno 17343 bound_to 10162
  156.9741  130.5502  149.5292 LP  0  0  0  0  0  0  0  0  0  0  0  0  # atno 17370 bound_to 10713
  156.0362  130.5450  150.8660 LP  0  0  0  0  0  0  0  0  0  0  0  0  # atno 17371 bound_to 10713
  140.9520  133.7445  156.0285 LP  0  0  0  0  0  0  0  0  0  0  0  0  # atno 17394 bound_to 11000
  140.8094  134.3417  157.5416 LP  0  0  0  0  0  0  0  0  0  0  0  0  # atno 17395 bound_to 11000

$$$$
