#       Name:                AV-unprocessed.smi:1053
#       Creating user name   scv26
#       Creation time:       Fri Mar 27 03:12:14 2020


#       File generated by GOLD software.
#

@<TRIPOS>MOLECULE
AV-unprocessed.smi:1053
    42    43     1
SMALL
NO_CHARGES


@<TRIPOS>ATOM
      1 ****        -2.6496  -1.5002  -0.9794 C.3            1 S1                 0.0000
      2 ****        -2.7759  -0.0013  -0.6714 C.3            1 S1                 0.0000
      3 ****        -2.1128   0.8542  -1.6923 N.4            1 S1                 1.0000
      4 ****        -2.5594   2.2681  -1.6554 C.3            1 S1                 0.0000
      5 ****        -1.8925   3.0328  -0.4970 C.3            1 S1                 0.0000
      6 ****        -0.4780   2.9320  -0.6113 O.3            1 S1                 0.0000
      7 ****        -0.0164   1.5876  -0.5303 C.3            1 S1                 0.0000
      8 ****         1.5218   1.6219  -0.5716 C.3            1 S1                 0.0000
      9 ****         2.1229   0.3051  -0.4014 N.pl3          1 S1                 0.0000
     10 ****         2.1754  -0.3962   0.7896 C.ar           1 S1                 0.0000
     11 ****         1.7265   0.1986   1.9007 N.ar           1 S1                 0.0000
     12 ****         1.7878  -0.5138   3.0463 C.ar           1 S1                 0.0000
     13 ****         2.2976  -1.8265   3.0770 C.ar           1 S1                 0.0000
     14 ****         2.7439  -2.3543   1.8447 C.ar           1 S1                 0.0000
     15 ****         3.3200  -3.7573   1.7256 C.3            1 S1                 0.0000
     16 ****         4.5695  -3.6928   1.2652 F              1 S1                 0.0000
     17 ****         3.3347  -4.3822   2.9036 F              1 S1                 0.0000
     18 ****         2.5837  -4.4739   0.8760 F              1 S1                 0.0000
     19 ****         2.6771  -1.6294   0.7033 N.ar           1 S1                 0.0000
     20 ****        -0.6291   0.7846  -1.7008 C.3            1 S1                 0.0000
     21 ****        -3.2502  -2.0844  -0.2820 H              1 S1                 0.0000
     22 ****        -1.6227  -1.8532  -0.8898 H              1 S1                 0.0000
     23 ****        -3.0001  -1.7280  -1.9865 H              1 S1                 0.0000
     24 ****        -3.8389   0.2419  -0.6501 H              1 S1                 0.0000
     25 ****        -2.3958   0.2117   0.3274 H              1 S1                 0.0000
     26 ****        -2.2863   2.7387  -2.6008 H              1 S1                 0.0000
     27 ****        -3.6462   2.3288  -1.5861 H              1 S1                 0.0000
     28 ****        -2.1720   4.0857  -0.5350 H              1 S1                 0.0000
     29 ****        -2.2221   2.6541   0.4717 H              1 S1                 0.0000
     30 ****        -0.3353   1.1689   0.4244 H              1 S1                 0.0000
     31 ****         1.8597   2.0345  -1.5224 H              1 S1                 0.0000
     32 ****         1.9016   2.2879   0.2043 H              1 S1                 0.0000
     33 ****         2.4808  -0.1616  -1.2225 H              1 S1                 0.0000
     34 ****         1.4258  -0.0341   3.9436 H              1 S1                 0.0000
     35 ****         2.3422  -2.3893   3.9978 H              1 S1                 0.0000
     36 ****        -0.2897  -0.2501  -1.6871 H              1 S1                 0.0000
     37 ****        -0.2772   1.2013  -2.6455 H              1 S1                 0.0000
     38 ****        -2.4225   0.4896  -2.5820 H              1 S1                 0.0000
     39 ****        -0.0586   3.4597   0.1274 LP             1 S1                 0.0000
     40 ****        -0.1999   3.3135  -1.4929 LP             1 S1                 0.0000
     41 ****         1.3618   1.1295   1.8836 LP             1 S1                 0.0000
     42 ****         2.9912  -2.0032  -0.1694 LP             1 S1                 0.0000
@<TRIPOS>BOND
    1    1    2 1     
    2    1   21 1     
    3    1   22 1     
    4    1   23 1     
    5    2    3 1     
    6    2   24 1     
    7    2   25 1     
    8    3   20 1     
    9    3    4 1     
   10    3   38 1     
   11    4    5 1     
   12    4   26 1     
   13    4   27 1     
   14    5    6 1     
   15    5   28 1     
   16    5   29 1     
   17    6    7 1     
   18    7    8 1     
   19    7   20 1     
   20    7   30 1     
   21    8    9 1     
   22    8   31 1     
   23    8   32 1     
   24    9   10 1     
   25    9   33 1     
   26   10   19 ar    
   27   10   11 ar    
   28   11   12 ar    
   29   12   13 ar    
   30   12   34 1     
   31   13   14 ar    
   32   13   35 1     
   33   14   15 1     
   34   14   19 ar    
   35   15   16 1     
   36   15   17 1     
   37   15   18 1     
   38   20   36 1     
   39   20   37 1     
   40    6   39 1     
   41    6   40 1     
   42   11   41 1     
   43   19   42 1     
@<TRIPOS>SUBSTRUCTURE
      1 S1             1
@<TRIPOS>SET
LONE_PAIRS      STATIC     ATOMS    <user>   **** ""
4 39 40 41 42
DONOR_HYDROGENS      STATIC     ATOMS    <user>   **** ""
2 38 33
ATOM$BLUE        STATIC     ATOMS    COLORGROUP SYSTEM
4 39 40 41 42
ATOM$RED        STATIC     ATOMS    COLORGROUP SYSTEM
2 38 33
