AV-unprocessed.smi:35|AV-procd|sdf|270|dock9
  -GOLD-   2262016 33D 1   1.00000     0.00000
 Structure written by MMmdl.
 28 29  0  0  0  0  0  0  0  0  2 V2000
  151.7329  134.2854  156.9102 O   0  0  0  0  0  0  0  0  0  0  0  0
  151.4079  135.2918  156.2825 C   0  0  0  0  0  0  0  0  0  0  0  0
  152.3066  136.2364  155.8807 N   0  5  0  0  0  0  0  0  0  0  0  0
  151.9406  137.3521  155.1840 C   0  0  0  0  0  0  0  0  0  0  0  0
  152.7411  138.2178  154.8297 O   0  0  0  0  0  0  0  0  0  0  0  0
  150.5698  137.5416  154.8556 N   0  0  0  0  0  0  0  0  0  0  0  0
  150.1713  138.7791  154.0715 C   0  0  1  0  0  0  0  0  0  0  0  0
  148.8013  138.7382  153.7881 O   0  0  0  0  0  0  0  0  0  0  0  0
  148.1135  139.6996  154.5805 C   0  0  2  0  0  0  0  0  0  0  0  0
  146.7391  140.0401  153.9774 C   0  0  0  0  0  0  0  0  0  0  0  0
  146.8427  140.2058  152.5790 O   0  0  0  0  0  0  0  0  0  0  0  0
  149.1260  140.8446  154.7032 C   0  0  2  0  0  0  0  0  0  0  0  0
  149.1272  141.6553  153.5422 O   0  0  0  0  0  0  0  0  0  0  0  0
  150.4498  140.1019  154.8309 C   0  0  1  0  0  0  0  0  0  0  0  0
  150.7631  139.9229  156.2014 O   0  0  0  0  0  0  0  0  0  0  0  0
  149.6343  136.5998  155.2525 C   0  0  0  0  0  0  0  0  0  0  0  0
  150.0032  135.5023  155.9436 C   0  0  0  0  0  0  0  0  0  0  0  0
  148.5600  134.2410  156.4470 Br  0  0  0  0  0  0  0  0  0  0  0  0
  150.7037  138.7061  153.1216 H   0  0  0  0  0  0  0  0  0  0  0  0
  147.9648  139.2617  155.5691 H   0  0  0  0  0  0  0  0  0  0  0  0
  145.9962  139.2753  154.2046 H   0  0  0  0  0  0  0  0  0  0  0  0
  146.3711  140.9738  154.4032 H   0  0  0  0  0  0  0  0  0  0  0  0
  147.7579  140.2054  152.3435 H   0  0  0  0  0  0  0  0  0  0  0  0
  148.9162  141.4847  155.5613 H   0  0  0  0  0  0  0  0  0  0  0  0
  149.2005  141.0922  152.7869 H   0  0  0  0  0  0  0  0  0  0  0  0
  151.2765  140.6330  154.3568 H   0  0  0  0  0  0  0  0  0  0  0  0
  150.4509  139.0707  156.4671 H   0  0  0  0  0  0  0  0  0  0  0  0
  148.5906  136.7306  155.0137 H   0  0  0  0  0  0  0  0  0  0  0  0
  1  2  2  0  0  0  0
  2 17  1  0  0  0  0
  2  3  1  0  0  0  0
  3  4  1  0  0  0  0
  4  5  2  0  0  0  0
  4  6  1  0  0  0  0
  6  7  1  0  0  0  0
  6 16  1  0  0  0  0
  7 14  1  0  0  0  0
  7  8  1  0  0  0  0
  7 19  1  0  0  0  0
  8  9  1  0  0  0  0
  9 10  1  0  0  0  0
  9 12  1  0  0  0  0
  9 20  1  0  0  0  0
 10 11  1  0  0  0  0
 10 21  1  0  0  0  0
 10 22  1  0  0  0  0
 11 23  1  0  0  0  0
 12 13  1  0  0  0  0
 12 14  1  0  0  0  0
 12 24  1  0  0  0  0
 13 25  1  0  0  0  0
 14 15  1  0  0  0  0
 14 26  1  0  0  0  0
 15 27  1  0  0  0  0
 16 17  2  0  0  0  0
 16 28  1  0  0  0  0
 17 18  1  0  0  0  0
M  CHG  1   3  -1
M  END
> <s_m_source_file>
AV-unprocessed.smi

> <i_m_source_file_index>
35

> <i_lp_mmshare_version>
43012

> <i_f3d_flags>
0

> <s_epik_input>
Tz1jMVtuSF1jKD1PKW4oW2NIXWMxQnIpW0NAQEhdMk9bQ0BASF0oW0NIMl1bT0hdKVtDQEBIXShbT0hdKVtDQEhdMltPSF0=

> <s_epik_cmdline>
J2VwaWtfcHl0aG9uJywgJy1waCcsICc3LjAnLCAnLXRuJywgJzgnLCAnLW1hJywgJzIwMCcsICctbWV0YWxfYmluZGluZycsICctaW1hZScsICc8aW5maWxlLm1hZT4nLCAnLW9tYWUnLCAnPG91dGZpbGUubWFlPic=

> <r_epik_Ionization_Penalty>
1.06112

> <r_epik_Ionization_Penalty_Charging>
2.1796e-09

> <r_epik_Ionization_Penalty_Neutral>
1.06112

> <r_epik_State_Penalty>
1.11484

> <r_epik_Charging_Adjusted_Penalty>
1.11484

> <i_epik_Tot_Q>
-1

> <i_epik_Tot_abs_Q>
1

> <r_epik_Metal_State_Penalty>
0.0032876

> <b_epik_Metal_Only>
0

> <s_epik_Chemistry_Notes>
This compound contains an acetal/aminal-like group ( X-CH(R)-Y where X, Y are N, S, or O) that may be acid/base labile, releasing an aldehyde.

> <s_lp_Force_Field>
OPLS_2005

> <r_lp_Energy>
42.6041

> <b_lp_Chiralities_Consistent>
1

> <s_lp_Variant>
AV-unprocessed.smi:35-24

> <Gold.Version>
5.8.1

> <Gold.Id.Protein>
6NUR|6NUR_protein|mol2

> <Gold.PLP.Fitness>
35.9487

> <Gold.PLP.PLP>
-23.8842

> <Gold.PLP.part.hbond>
-5.6864

> <Gold.PLP.part.metal>
0.0000

> <Gold.PLP.part.buried>
-1.0624

> <Gold.PLP.part.nonpolar>
-16.1731

> <Gold.PLP.part.repulsive>
0.9360

> <Gold.PLP.ligand.clash>
0.0000

> <Gold.PLP.ligand.torsion>
0.1412

> <Gold.PLP.Chemscore.Hbond>
4.1019

> <Gold.PLP.Chemscore.CHOScore>
0.0000

> <Gold.PLP.Chemscore.Metal>
0.0000

> <Gold.Chemscore.Hbonds>
donor molecule, donor type, donor heavy atom, donor atom, acceptor molecule, acceptor atom, score
      L1  H    11    23       P1  7957  0.62
      L1  H    13    25       P1  7957  1.00
      P1  H 10752 10763       L1     3  1.33

> <Gold.PLP.Chemscore.Internal.Correction>
0.0411

> <Gold.Rescore>
     Score         DG    S(hbond)    S(metal)    S(lipo)     H(rot)  DE(clash)    DE(int)     intcor
      7.24      -8.46       2.54        0.00      32.33       3.63       0.69       0.53       ----

> <Gold.Chemscore.Fitness>
7.2414

> <Gold.Chemscore.DG>
-8.4648

> <Gold.Chemscore.ZeroCoef>
-5.4800

> <Gold.Chemscore.Hbond>
2.5403

> <Gold.Chemscore.Metal>
0.0000

> <Gold.Chemscore.Lipo>
32.3345

> <Gold.Chemscore.Internal_Hbond>
0.0000

> <Gold.Chemscore.DEClash>
0.6896

> <Gold.Chemscore.DEInternal>
0.5338

> <Gold.Chemscore.Rot>
3.6261

> <Gold.Chemscore.Internal.Correction>
   9.000000E+99

> <Gold.Chemscore.Hbonds>
donor molecule, donor type, donor heavy atom, donor atom, acceptor molecule, acceptor atom, score
      L1  H    11    23       P1  7957  0.62
      L1  H    13    25       P1  7957  0.98
      P1  H  6896  6907       L1     1  0.01
      P1  H 10752 10763       L1     3  0.12

> <Gold.Chemscore.Hbond.Weighted>
-8.4845

> <Gold.Chemscore.Metal.Weighted>
-0.0000

> <Gold.Chemscore.Lipo.Weighted>
-3.7831

> <Gold.Chemscore.Internal_Hbond.Weighted>
0.0000

> <Gold.Chemscore.DEClash.Weighted>
0.6896

> <Gold.Chemscore.DEInternal.Weighted>
0.5338

> <Gold.Chemscore.Rot.Weighted>
9.2828

> <Gold.Chemscore.Internal.Correction.Weighted>
   9.000000E+99

> <Gold.Protein.RotatedTorsions>
[ 6907 6896 6895 6894 ] final -146.92 input  -60.11 | X-H torsion
[ 7974 7965 7964 7962 ] final -107.83 input  175.53 | X-H torsion
[ 8008 7997 7996 7995 ] final -142.26 input   59.86 | X-H torsion
[ 10167 10162 10161 10158 ] final  -81.72 input  -65.29 | X-H torsion
[ 10718 10713 10712 10709 ] final  165.61 input   66.30 | X-H torsion
[ 10763 10752 10751 10750 ] final   88.73 input  -60.55 | X-H torsion
[ 11005 11000 10999 10996 ] final    0.21 input  -57.11 | X-H torsion

> <Gold.Protein.ActiveResidues>
 VAL166  LYS551  ARG553  GLY616  TRP617  ASP618  TYR619  PRO620  LYS621  CYS622 
 ASP623  PHE694  ASN695  SER759  ASP760  ASP761  ALA762  ILE779  LEU786  VAL792 
 PHE793  MET794  SER795  GLU796  ALA797  LYS798  CYS799  TRP800  GLU811  SER814 

> <Gold.Protein.RotatedAtoms>
  151.1484  133.4924  159.2595 H   0  0  0  0  0  0  0  0  0  0  0  0  # atno 6907 bound_to 6896
  151.1580  135.0259  159.8707 H   0  0  0  0  0  0  0  0  0  0  0  0  # atno 6908 bound_to 6896
  152.5463  134.1361  159.8512 H   0  0  0  0  0  0  0  0  0  0  0  0  # atno 6909 bound_to 6896
  145.2005  140.9054  143.3372 H   0  0  0  0  0  0  0  0  0  0  0  0  # atno 7974 bound_to 7965
  155.4913  140.0568  157.2953 H   0  0  0  0  0  0  0  0  0  0  0  0  # atno 8008 bound_to 7997
  154.4622  140.2002  156.0165 H   0  0  0  0  0  0  0  0  0  0  0  0  # atno 8009 bound_to 7997
  156.0911  140.3233  155.7821 H   0  0  0  0  0  0  0  0  0  0  0  0  # atno 8010 bound_to 7997
  140.4386  143.2522  151.8658 H   0  0  0  0  0  0  0  0  0  0  0  0  # atno 10167 bound_to 10162
  157.0777  131.0383  151.2587 H   0  0  0  0  0  0  0  0  0  0  0  0  # atno 10718 bound_to 10713
  153.1798  135.4496  155.0013 H   0  0  0  0  0  0  0  0  0  0  0  0  # atno 10763 bound_to 10752
  154.8022  135.3260  154.7523 H   0  0  0  0  0  0  0  0  0  0  0  0  # atno 10764 bound_to 10752
  153.7989  135.6964  153.4914 H   0  0  0  0  0  0  0  0  0  0  0  0  # atno 10765 bound_to 10752
  140.6291  133.9591  155.8265 H   0  0  0  0  0  0  0  0  0  0  0  0  # atno 11005 bound_to 11000
  144.9953  139.3650  143.6194 LP  0  0  0  0  0  0  0  0  0  0  0  0  # atno 17320 bound_to 7965
  146.3418  139.9153  142.8774 LP  0  0  0  0  0  0  0  0  0  0  0  0  # atno 17321 bound_to 7965
  139.4788  144.5254  151.8742 LP  0  0  0  0  0  0  0  0  0  0  0  0  # atno 17342 bound_to 10162
  140.4344  144.2071  150.5889 LP  0  0  0  0  0  0  0  0  0  0  0  0  # atno 17343 bound_to 10162
  157.4826  130.7774  149.7429 LP  0  0  0  0  0  0  0  0  0  0  0  0  # atno 17370 bound_to 10713
  155.9932  130.3926  150.2909 LP  0  0  0  0  0  0  0  0  0  0  0  0  # atno 17371 bound_to 10713
  141.0688  134.0237  157.3556 LP  0  0  0  0  0  0  0  0  0  0  0  0  # atno 17394 bound_to 11000
  139.9123  135.0192  156.7741 LP  0  0  0  0  0  0  0  0  0  0  0  0  # atno 17395 bound_to 11000

$$$$
