#       Name:                AV-unprocessed.smi:1700
#       Creating user name   scv26
#       Creation time:       Fri Mar 27 07:59:44 2020


#       File generated by GOLD software.
#

@<TRIPOS>MOLECULE
AV-unprocessed.smi:1700
    39    40     1
SMALL
NO_CHARGES


@<TRIPOS>ATOM
      1 ****        -2.5471  -2.8584  -1.5393 C.3            1 S1                 0.0000
      2 ****        -3.2964  -1.5713  -1.2345 C.ar           1 S1                 0.0000
      3 ****        -4.7073  -1.5715  -1.2598 C.ar           1 S1                 0.0000
      4 ****        -5.3987  -0.3808  -0.9785 C.ar           1 S1                 0.0000
      5 ****        -4.6448   0.7673  -0.6816 C.ar           1 S1                 0.0000
      6 ****        -3.2965   0.7766  -0.6553 N.ar           1 S1                 0.0000
      7 ****        -2.6133  -0.3644  -0.9247 C.ar           1 S1                 0.0000
      8 ****        -1.1909  -0.4272  -0.9198 N.am           1 S1                 0.0000
      9 ****        -0.3104   0.5575  -0.6668 C.2            1 S1                 0.0000
     10 ****        -0.6009   1.7133  -0.3567 O.2            1 S1                 0.0000
     11 ****         0.9518   0.1231  -0.7923 N.am           1 S1                 0.0000
     12 ****         2.1411   0.9412  -0.5835 C.3            1 S1                 0.0000
     13 ****         2.5027   1.0437   0.9072 C.3            1 S1                 0.0000
     14 ****         3.6927   1.9586   1.1882 C.3            1 S1                 0.0000
     15 ****         4.1824   1.4194   2.5125 C.3            1 S1                 0.0000
     16 ****         3.9806  -0.0825   2.3315 C.3            1 S1                 0.0000
     17 ****         2.8951  -0.2284   1.4185 O.3            1 S1                 0.0000
     18 ****        -3.2347  -3.6752  -1.7610 H              1 S1                 0.0000
     19 ****        -1.9371  -3.1562  -0.6860 H              1 S1                 0.0000
     20 ****        -1.8952  -2.7257  -2.4032 H              1 S1                 0.0000
     21 ****        -5.2566  -2.4722  -1.4921 H              1 S1                 0.0000
     22 ****        -6.4782  -0.3482  -0.9903 H              1 S1                 0.0000
     23 ****        -5.1362   1.7032  -0.4601 H              1 S1                 0.0000
     24 ****        -0.7985  -1.3279  -1.1494 H              1 S1                 0.0000
     25 ****         1.1034  -0.8431  -1.0425 H              1 S1                 0.0000
     26 ****         2.9670   0.4983  -1.1405 H              1 S1                 0.0000
     27 ****         1.9842   1.9363  -1.0034 H              1 S1                 0.0000
     28 ****         1.6468   1.3917   1.4881 H              1 S1                 0.0000
     29 ****         4.4642   1.8354   0.4266 H              1 S1                 0.0000
     30 ****         3.4173   3.0129   1.2301 H              1 S1                 0.0000
     31 ****         5.2159   1.6889   2.7320 H              1 S1                 0.0000
     32 ****         3.5520   1.7892   3.3223 H              1 S1                 0.0000
     33 ****         4.8679  -0.5354   1.8877 H              1 S1                 0.0000
     34 ****         3.7781  -0.5896   3.2752 H              1 S1                 0.0000
     35 ****        -2.8033   1.6191  -0.4386 LP             1 S1                 0.0000
     36 ****        -1.5604   1.9831  -0.2754 LP             1 S1                 0.0000
     37 ****         0.1227   2.3822  -0.1861 LP             1 S1                 0.0000
     38 ****         3.1787  -0.8153   0.6602 LP             1 S1                 0.0000
     39 ****         2.1200  -0.6468   1.8920 LP             1 S1                 0.0000
@<TRIPOS>BOND
    1    1    2 1     
    2    1   18 1     
    3    1   19 1     
    4    1   20 1     
    5    2    7 ar    
    6    2    3 ar    
    7    3    4 ar    
    8    3   21 1     
    9    4    5 ar    
   10    4   22 1     
   11    5    6 ar    
   12    5   23 1     
   13    6    7 ar    
   14    7    8 1     
   15    8    9 am    
   16    8   24 1     
   17    9   10 2     
   18    9   11 am    
   19   11   12 1     
   20   11   25 1     
   21   12   13 1     
   22   12   26 1     
   23   12   27 1     
   24   13   17 1     
   25   13   14 1     
   26   13   28 1     
   27   14   15 1     
   28   14   29 1     
   29   14   30 1     
   30   15   16 1     
   31   15   31 1     
   32   15   32 1     
   33   16   17 1     
   34   16   33 1     
   35   16   34 1     
   36    6   35 1     
   37   10   36 1     
   38   10   37 1     
   39   17   38 1     
   40   17   39 1     
@<TRIPOS>SUBSTRUCTURE
      1 S1             1
@<TRIPOS>SET
LONE_PAIRS      STATIC     ATOMS    <user>   **** ""
5 35 36 37 38 39
DONOR_HYDROGENS      STATIC     ATOMS    <user>   **** ""
2 24 25
ATOM$BLUE        STATIC     ATOMS    COLORGROUP SYSTEM
5 35 36 37 38 39
ATOM$RED        STATIC     ATOMS    COLORGROUP SYSTEM
2 24 25
