#       Name:                AV-unprocessed.smi:2532
#       Creating user name   scv26
#       Creation time:       Fri Mar 27 14:01:48 2020


#       File generated by GOLD software.
#

@<TRIPOS>MOLECULE
AV-unprocessed.smi:2532
    41    43     1
SMALL
NO_CHARGES


@<TRIPOS>ATOM
      1 ****        -0.4404  -0.3151  -0.9156 O.3            1 S1                 0.0000
      2 ****         0.1362   0.2458   0.2472 C.3            1 S1                 0.0000
      3 ****         1.6623   0.2589   0.0700 C.3            1 S1                 0.0000
      4 ****         2.1648  -1.0349   0.3574 O.3            1 S1                 0.0000
      5 ****         3.5692  -1.1324   0.1859 C.3            1 S1                 0.0000
      6 ****         3.9718  -2.5226   0.5599 C.2            1 S1                 0.0000
      7 ****         4.9910  -3.2639   0.0180 C.2            1 S1                 0.0000
      8 ****         5.1270  -4.5536   0.6109 C.2            1 S1                 0.0000
      9 ****         4.2155  -4.7786   1.6077 C.2            1 S1                 0.0000
     10 ****         3.1678  -3.4058   1.8372 S.3            1 S1                 0.0000
     11 ****        -0.4324   1.6617   0.4665 C.3            1 S1                 0.0000
     12 ****        -1.8912   1.6671   0.6509 N.pl3          1 S1                 0.0000
     13 ****        -2.6232   1.4407   1.7753 C.2            1 S1                 0.0000
     14 ****        -3.9384   1.5547   1.4409 N.pl3          1 S1                 1.0000
     15 ****        -4.0495   1.8577   0.0823 C.ar           1 S1                 0.0000
     16 ****        -5.1708   2.0677  -0.7145 C.ar           1 S1                 0.0000
     17 ****        -4.9355   2.3567  -2.0747 C.ar           1 S1                 0.0000
     18 ****        -3.6268   2.4273  -2.5948 C.ar           1 S1                 0.0000
     19 ****        -2.4975   2.2131  -1.7776 C.ar           1 S1                 0.0000
     20 ****        -2.7378   1.9300  -0.4331 C.ar           1 S1                 0.0000
     21 ****        -0.0923  -1.1868  -1.0284 H              1 S1                 0.0000
     22 ****        -0.1266  -0.3752   1.1049 H              1 S1                 0.0000
     23 ****         1.9414   0.5847  -0.9339 H              1 S1                 0.0000
     24 ****         2.1100   0.9620   0.7743 H              1 S1                 0.0000
     25 ****         3.8404  -0.9227  -0.8501 H              1 S1                 0.0000
     26 ****         4.0850  -0.4115   0.8217 H              1 S1                 0.0000
     27 ****         5.6376  -2.9284  -0.7794 H              1 S1                 0.0000
     28 ****         5.8795  -5.2596   0.2920 H              1 S1                 0.0000
     29 ****         4.0976  -5.6602   2.2204 H              1 S1                 0.0000
     30 ****         0.0018   2.0992   1.3662 H              1 S1                 0.0000
     31 ****        -0.1673   2.3288  -0.3540 H              1 S1                 0.0000
     32 ****        -2.2314   1.2109   2.7557 H              1 S1                 0.0000
     33 ****        -6.1745   2.0128  -0.3190 H              1 S1                 0.0000
     34 ****        -5.7757   2.5261  -2.7323 H              1 S1                 0.0000
     35 ****        -3.4852   2.6494  -3.6426 H              1 S1                 0.0000
     36 ****        -1.5004   2.2632  -2.1887 H              1 S1                 0.0000
     37 ****        -4.7021   1.4326   2.0935 H              1 S1                 0.0000
     38 ****        -0.2115   0.2460  -1.7110 LP             1 S1                 0.0000
     39 ****        -1.4342  -0.3584  -0.8131 LP             1 S1                 0.0000
     40 ****         1.7225  -1.6918  -0.2532 LP             1 S1                 0.0000
     41 ****         1.9429  -1.2599   1.3062 LP             1 S1                 0.0000
@<TRIPOS>BOND
    1    1    2 1     
    2    1   21 1     
    3    2    3 1     
    4    2   11 1     
    5    2   22 1     
    6    3    4 1     
    7    3   23 1     
    8    3   24 1     
    9    4    5 1     
   10    5    6 1     
   11    5   25 1     
   12    5   26 1     
   13    6   10 1     
   14    6    7 2     
   15    7    8 1     
   16    7   27 1     
   17    8    9 2     
   18    8   28 1     
   19    9   10 1     
   20    9   29 1     
   21   11   12 1     
   22   11   30 1     
   23   11   31 1     
   24   12   20 1     
   25   12   13 1     
   26   13   14 2     
   27   13   32 1     
   28   14   15 1     
   29   14   37 1     
   30   15   20 ar    
   31   15   16 ar    
   32   16   17 ar    
   33   16   33 1     
   34   17   18 ar    
   35   17   34 1     
   36   18   19 ar    
   37   18   35 1     
   38   19   20 ar    
   39   19   36 1     
   40    1   38 1     
   41    1   39 1     
   42    4   40 1     
   43    4   41 1     
@<TRIPOS>SUBSTRUCTURE
      1 S1             1
@<TRIPOS>SET
LONE_PAIRS      STATIC     ATOMS    <user>   **** ""
4 38 39 40 41
DONOR_HYDROGENS      STATIC     ATOMS    <user>   **** ""
2 21 37
ATOM$BLUE        STATIC     ATOMS    COLORGROUP SYSTEM
4 38 39 40 41
ATOM$RED        STATIC     ATOMS    COLORGROUP SYSTEM
2 21 37
