AV-unprocessed.smi:2551|AV-procd|sdf|10014|dock4
  -GOLD-   2272014 63D 1   1.00000     0.00000
 Structure written by MMmdl.
 25 26  0  0  0  0  0  0  0  0  2 V2000
  150.8006  140.3680  157.9189 O   0  0  0  0  0  0  0  0  0  0  0  0
  152.0238  140.4508  157.8149 C   0  0  0  0  0  0  0  0  0  0  0  0
  152.7715  139.5673  157.1022 N   0  5  0  0  0  0  0  0  0  0  0  0
  152.2672  138.8434  156.0858 C   0  0  0  0  0  0  0  0  0  0  0  0
  152.7029  137.6065  155.7972 N   0  0  0  0  0  0  0  0  0  0  0  0
  152.0521  137.0381  154.7108 N   0  0  0  0  0  0  0  0  0  0  0  0
  151.1301  137.8609  154.2118 C   0  0  0  0  0  0  0  0  0  0  0  0
  150.9748  139.4052  155.0220 S   0  0  0  0  0  0  0  0  0  0  0  0
  152.6633  141.4618  158.4351 N   0  0  0  0  0  0  0  0  0  0  0  0
  152.0425  142.5097  159.2415 C   0  0  0  0  0  0  0  0  0  0  0  0
  150.8022  143.0816  158.5284 C   0  0  0  0  0  0  0  0  0  0  0  0
  150.9422  144.6034  158.5901 C   0  0  0  0  0  0  0  0  0  0  0  0
  152.4484  144.8423  158.6032 C   0  0  0  0  0  0  0  0  0  0  0  0
  153.0003  143.6988  159.4548 C   0  0  0  0  0  0  0  0  0  0  0  0
  150.5371  137.5563  153.3623 H   0  0  0  0  0  0  0  0  0  0  0  0
  153.6675  141.5008  158.3401 H   0  0  0  0  0  0  0  0  0  0  0  0
  151.7458  142.1018  160.2095 H   0  0  0  0  0  0  0  0  0  0  0  0
  150.7823  142.7704  157.4825 H   0  0  0  0  0  0  0  0  0  0  0  0
  149.8720  142.7388  158.9826 H   0  0  0  0  0  0  0  0  0  0  0  0
  150.4437  145.1049  157.7602 H   0  0  0  0  0  0  0  0  0  0  0  0
  150.5043  144.9759  159.5171 H   0  0  0  0  0  0  0  0  0  0  0  0
  152.8410  144.7676  157.5883 H   0  0  0  0  0  0  0  0  0  0  0  0
  152.7161  145.8245  158.9941 H   0  0  0  0  0  0  0  0  0  0  0  0
  152.9796  143.9901  160.5057 H   0  0  0  0  0  0  0  0  0  0  0  0
  154.0383  143.4712  159.2078 H   0  0  0  0  0  0  0  0  0  0  0  0
  1  2  2  0  0  0  0
  2  3  1  0  0  0  0
  2  9  1  0  0  0  0
  3  4  1  0  0  0  0
  4  8  1  0  0  0  0
  4  5  2  0  0  0  0
  5  6  1  0  0  0  0
  6  7  2  0  0  0  0
  7  8  1  0  0  0  0
  7 15  1  0  0  0  0
  9 10  1  0  0  0  0
  9 16  1  0  0  0  0
 10 14  1  0  0  0  0
 10 11  1  0  0  0  0
 10 17  1  0  0  0  0
 11 12  1  0  0  0  0
 11 18  1  0  0  0  0
 11 19  1  0  0  0  0
 12 13  1  0  0  0  0
 12 20  1  0  0  0  0
 12 21  1  0  0  0  0
 13 14  1  0  0  0  0
 13 22  1  0  0  0  0
 13 23  1  0  0  0  0
 14 24  1  0  0  0  0
 14 25  1  0  0  0  0
M  CHG  1   3  -1
M  END
> <s_m_source_file>
AV-unprocessed.smi

> <i_m_source_file_index>
2551

> <i_lp_mmshare_version>
43012

> <i_f3d_flags>
0

> <s_epik_input>
W0NIMl0xW0NIMl1bQ0gyXVtDSDJdW0NIXTFbTkhdQyg9TylbTkhdYzJubltjSF1zMg==

> <s_epik_cmdline>
J2VwaWtfcHl0aG9uJywgJy1waCcsICc3LjAnLCAnLXRuJywgJzgnLCAnLW1hJywgJzIwMCcsICctbWV0YWxfYmluZGluZycsICctaW1hZScsICc8aW5maWxlLm1hZT4nLCAnLW9tYWUnLCAnPG91dGZpbGUubWFlPic=

> <r_lp_tautomer_probability>
1

> <r_epik_Ionization_Penalty>
4.51495

> <r_epik_Ionization_Penalty_Charging>
4.46823

> <r_epik_Ionization_Penalty_Neutral>
0.0467187

> <r_epik_State_Penalty>
4.46792

> <r_epik_Charging_Adjusted_Penalty>
8.93614

> <i_epik_Tot_Q>
-1

> <i_epik_Tot_abs_Q>
1

> <r_epik_Metal_State_Penalty>
0.803637

> <b_epik_Metal_Only>
1

> <s_lp_Force_Field>
OPLS_2005

> <r_lp_Energy>
17.7165

> <b_lp_Chiralities_Consistent>
1

> <s_lp_Variant>
AV-unprocessed.smi:2551-2

> <Gold.Version>
5.8.1

> <Gold.Id.Protein>
6NUR|6NUR_protein|mol2

> <Gold.PLP.Fitness>
40.8342

> <Gold.PLP.PLP>
-29.5012

> <Gold.PLP.part.hbond>
-3.0000

> <Gold.PLP.part.metal>
0.0000

> <Gold.PLP.part.buried>
-2.3033

> <Gold.PLP.part.nonpolar>
-24.6319

> <Gold.PLP.part.repulsive>
0.2101

> <Gold.PLP.ligand.clash>
0.0000

> <Gold.PLP.ligand.torsion>
0.5284

> <Gold.PLP.Chemscore.Hbond>
2.9440

> <Gold.PLP.Chemscore.CHOScore>
1.1846

> <Gold.PLP.Chemscore.Metal>
0.0000

> <Gold.Chemscore.Hbonds>
donor molecule, donor type, donor heavy atom, donor atom, acceptor molecule, acceptor atom, score
      P1  H  7997  8008       L1     3  2.00
      P1  H 10752 10763       L1     6  0.94
      L1  C     7    15       P1  7948  0.61
      L1  C     7    15       P1  7949  0.55

> <Gold.PLP.Chemscore.Internal.Correction>
0.0040

> <Gold.Rescore>
     Score         DG    S(hbond)    S(metal)    S(lipo)     H(rot)  DE(clash)    DE(int)     intcor
     15.13     -17.12       1.56        0.00      76.86       1.00       0.07       1.92       ----

> <Gold.Chemscore.Fitness>
15.1268

> <Gold.Chemscore.DG>
-17.1212

> <Gold.Chemscore.ZeroCoef>
-5.4800

> <Gold.Chemscore.Hbond>
1.5595

> <Gold.Chemscore.Metal>
0.0000

> <Gold.Chemscore.Lipo>
76.8579

> <Gold.Chemscore.Internal_Hbond>
0.0000

> <Gold.Chemscore.DEClash>
0.0724

> <Gold.Chemscore.DEInternal>
1.9220

> <Gold.Chemscore.Rot>
1.0000

> <Gold.Chemscore.Internal.Correction>
   9.000000E+99

> <Gold.Chemscore.Hbonds>
donor molecule, donor type, donor heavy atom, donor atom, acceptor molecule, acceptor atom, score
      P1  H  7997  8008       L1     3  0.52
      P1  H 10752 10763       L1     6  0.36

> <Gold.Chemscore.Hbond.Weighted>
-5.2088

> <Gold.Chemscore.Metal.Weighted>
-0.0000

> <Gold.Chemscore.Lipo.Weighted>
-8.9924

> <Gold.Chemscore.Internal_Hbond.Weighted>
0.0000

> <Gold.Chemscore.DEClash.Weighted>
0.0724

> <Gold.Chemscore.DEInternal.Weighted>
1.9220

> <Gold.Chemscore.Rot.Weighted>
2.5600

> <Gold.Chemscore.Internal.Correction.Weighted>
   9.000000E+99

> <Gold.Protein.RotatedTorsions>
[ 6907 6896 6895 6894 ] final  136.38 input  -60.11 | X-H torsion
[ 7974 7965 7964 7962 ] final   75.66 input  175.53 | X-H torsion
[ 8008 7997 7996 7995 ] final  -55.29 input   59.86 | X-H torsion
[ 10167 10162 10161 10158 ] final  152.22 input  -65.29 | X-H torsion
[ 10718 10713 10712 10709 ] final   71.70 input   66.30 | X-H torsion
[ 10763 10752 10751 10750 ] final   50.83 input  -60.55 | X-H torsion
[ 11005 11000 10999 10996 ] final   21.95 input  -57.11 | X-H torsion

> <Gold.Protein.ActiveResidues>
 VAL166  LYS551  ARG553  GLY616  TRP617  ASP618  TYR619  PRO620  LYS621  CYS622 
 ASP623  PHE694  ASN695  SER759  ASP760  ASP761  ALA762  ILE779  LEU786  VAL792 
 PHE793  MET794  SER795  GLU796  ALA797  LYS798  CYS799  TRP800  GLU811  SER814 

> <Gold.Protein.RotatedAtoms>
  152.2900  133.5552  159.5551 H   0  0  0  0  0  0  0  0  0  0  0  0  # atno 6907 bound_to 6896
  150.7231  134.0442  159.3785 H   0  0  0  0  0  0  0  0  0  0  0  0  # atno 6908 bound_to 6896
  151.8348  135.0610  160.0492 H   0  0  0  0  0  0  0  0  0  0  0  0  # atno 6909 bound_to 6896
  145.7127  139.2620  143.1641 H   0  0  0  0  0  0  0  0  0  0  0  0  # atno 7974 bound_to 7965
  154.4190  140.1156  156.5453 H   0  0  0  0  0  0  0  0  0  0  0  0  # atno 8008 bound_to 7997
  155.6466  140.3496  155.4714 H   0  0  0  0  0  0  0  0  0  0  0  0  # atno 8009 bound_to 7997
  155.9827  140.1163  157.0701 H   0  0  0  0  0  0  0  0  0  0  0  0  # atno 8010 bound_to 7997
  139.4834  144.5376  151.7619 H   0  0  0  0  0  0  0  0  0  0  0  0  # atno 10167 bound_to 10162
  157.6465  130.9541  150.0825 H   0  0  0  0  0  0  0  0  0  0  0  0  # atno 10718 bound_to 10713
  152.9784  135.5866  154.4316 H   0  0  0  0  0  0  0  0  0  0  0  0  # atno 10763 bound_to 10752
  154.3929  135.2768  155.2146 H   0  0  0  0  0  0  0  0  0  0  0  0  # atno 10764 bound_to 10752
  154.4010  135.6103  153.5952 H   0  0  0  0  0  0  0  0  0  0  0  0  # atno 10765 bound_to 10752
  140.3860  134.1870  155.7663 H   0  0  0  0  0  0  0  0  0  0  0  0  # atno 11005 bound_to 11000
  146.0698  140.7882  142.9694 LP  0  0  0  0  0  0  0  0  0  0  0  0  # atno 17320 bound_to 7965
  144.6937  140.3324  143.7213 LP  0  0  0  0  0  0  0  0  0  0  0  0  # atno 17321 bound_to 7965
  140.4911  144.1309  150.5950 LP  0  0  0  0  0  0  0  0  0  0  0  0  # atno 17342 bound_to 10162
  140.4170  143.2629  151.9762 LP  0  0  0  0  0  0  0  0  0  0  0  0  # atno 17343 bound_to 10162
  156.1798  130.3649  149.9051 LP  0  0  0  0  0  0  0  0  0  0  0  0  # atno 17370 bound_to 10713
  156.7006  130.8932  151.3599 LP  0  0  0  0  0  0  0  0  0  0  0  0  # atno 17371 bound_to 10713
  141.1907  133.8211  157.0907 LP  0  0  0  0  0  0  0  0  0  0  0  0  # atno 17394 bound_to 11000
  140.0442  134.9838  157.1019 LP  0  0  0  0  0  0  0  0  0  0  0  0  # atno 17395 bound_to 11000

$$$$
