AV-unprocessed.smi:1112|AV-procd|sdf|4796|dock9
  -GOLD-   22720 3343D 1   1.00000     0.00000
 Structure written by MMmdl.
 49 51  0  0  0  0  0  0  0  0  1 V2000
  150.4882  133.7233  155.6431 O   0  0  0  0  0  0  0  0  0  0  0  0
  149.9063  134.4645  154.8515 C   0  0  0  0  0  0  0  0  0  0  0  0
  150.1303  135.7836  154.7648 N   0  0  0  0  0  0  0  0  0  0  0  0
  151.1066  136.5420  155.5462 C   0  0  0  0  0  0  0  0  0  0  0  0
  151.6773  137.7636  154.7765 C   0  0  0  0  0  0  0  0  0  0  0  0
  152.1106  137.2769  153.5200 O   0  0  0  0  0  0  0  0  0  0  0  0
  150.5751  138.8080  154.4749 C   0  0  0  0  0  0  0  0  0  0  0  0
  150.1583  139.6128  155.7211 C   0  0  0  0  0  0  0  0  0  0  0  0
  151.3705  140.2670  156.4023 C   0  0  0  0  0  0  0  0  0  0  0  0
  152.4571  139.2305  156.7254 C   0  0  0  0  0  0  0  0  0  0  0  0
  152.8789  138.4609  155.4623 C   0  0  0  0  0  0  0  0  0  0  0  0
  148.9640  134.0764  153.9759 N   0  0  0  0  0  0  0  0  0  0  0  0
  148.4525  132.7674  153.7392 C   0  0  0  0  0  0  0  0  0  0  0  0
  149.1364  131.5891  154.1275 C   0  0  0  0  0  0  0  0  0  0  0  0
  148.5678  130.3362  153.8334 C   0  0  0  0  0  0  0  0  0  0  0  0
  147.3384  130.3031  153.1519 C   0  0  0  0  0  0  0  0  0  0  0  0
  146.6814  131.4140  152.7615 N   0  0  0  0  0  0  0  0  0  0  0  0
  147.2240  132.6240  153.0435 C   0  0  0  0  0  0  0  0  0  0  0  0
  146.5206  133.7669  152.6221 N   0  0  0  0  0  0  0  0  0  0  0  0
  146.0275  134.6275  153.6846 C   0  0  0  0  0  0  0  0  0  0  0  0
  145.0072  135.5527  153.0172 C   0  0  0  0  0  0  0  0  0  0  0  0
  144.5730  134.8098  151.7477 C   0  0  0  0  0  0  0  0  0  0  0  0
  145.3846  133.5116  151.7523 C   0  0  0  0  0  0  0  0  0  0  0  0
  149.5981  136.3089  154.0867 H   0  0  0  0  0  0  0  0  0  0  0  0
  150.6236  136.8700  156.4676 H   0  0  0  0  0  0  0  0  0  0  0  0
  151.9162  135.8856  155.8642 H   0  0  0  0  0  0  0  0  0  0  0  0
  151.3501  137.1146  152.9829 H   0  0  0  0  0  0  0  0  0  0  0  0
  150.9355  139.5108  153.7217 H   0  0  0  0  0  0  0  0  0  0  0  0
  149.7006  138.3232  154.0390 H   0  0  0  0  0  0  0  0  0  0  0  0
  149.4382  140.3808  155.4383 H   0  0  0  0  0  0  0  0  0  0  0  0
  149.6442  138.9668  156.4323 H   0  0  0  0  0  0  0  0  0  0  0  0
  151.7847  141.0365  155.7497 H   0  0  0  0  0  0  0  0  0  0  0  0
  151.0556  140.7735  157.3151 H   0  0  0  0  0  0  0  0  0  0  0  0
  153.3237  139.7273  157.1621 H   0  0  0  0  0  0  0  0  0  0  0  0
  152.0892  138.5366  157.4811 H   0  0  0  0  0  0  0  0  0  0  0  0
  153.6689  137.7493  155.7029 H   0  0  0  0  0  0  0  0  0  0  0  0
  153.3297  139.1697  154.7656 H   0  0  0  0  0  0  0  0  0  0  0  0
  148.5094  134.8141  153.4576 H   0  0  0  0  0  0  0  0  0  0  0  0
  150.0907  131.6193  154.6300 H   0  0  0  0  0  0  0  0  0  0  0  0
  149.0658  129.4213  154.1183 H   0  0  0  0  0  0  0  0  0  0  0  0
  146.8735  129.3597  152.9065 H   0  0  0  0  0  0  0  0  0  0  0  0
  145.5433  134.0381  154.4644 H   0  0  0  0  0  0  0  0  0  0  0  0
  146.8409  135.1904  154.1433 H   0  0  0  0  0  0  0  0  0  0  0  0
  144.1686  135.7699  153.6795 H   0  0  0  0  0  0  0  0  0  0  0  0
  145.4747  136.5011  152.7503 H   0  0  0  0  0  0  0  0  0  0  0  0
  143.5012  134.6105  151.7309 H   0  0  0  0  0  0  0  0  0  0  0  0
  144.8141  135.4061  150.8670 H   0  0  0  0  0  0  0  0  0  0  0  0
  145.7126  133.2396  150.7485 H   0  0  0  0  0  0  0  0  0  0  0  0
  144.7795  132.6920  152.1426 H   0  0  0  0  0  0  0  0  0  0  0  0
  1  2  2  0  0  0  0
  2  3  1  0  0  0  0
  2 12  1  0  0  0  0
  3  4  1  0  0  0  0
  3 24  1  0  0  0  0
  4  5  1  0  0  0  0
  4 25  1  0  0  0  0
  4 26  1  0  0  0  0
  5 11  1  0  0  0  0
  5  6  1  0  0  0  0
  5  7  1  0  0  0  0
  6 27  1  0  0  0  0
  7  8  1  0  0  0  0
  7 28  1  0  0  0  0
  7 29  1  0  0  0  0
  8  9  1  0  0  0  0
  8 30  1  0  0  0  0
  8 31  1  0  0  0  0
  9 10  1  0  0  0  0
  9 32  1  0  0  0  0
  9 33  1  0  0  0  0
 10 11  1  0  0  0  0
 10 34  1  0  0  0  0
 10 35  1  0  0  0  0
 11 36  1  0  0  0  0
 11 37  1  0  0  0  0
 12 13  1  0  0  0  0
 12 38  1  0  0  0  0
 13 18  1  0  0  0  0
 13 14  2  0  0  0  0
 14 15  1  0  0  0  0
 14 39  1  0  0  0  0
 15 16  2  0  0  0  0
 15 40  1  0  0  0  0
 16 17  1  0  0  0  0
 16 41  1  0  0  0  0
 17 18  2  0  0  0  0
 18 19  1  0  0  0  0
 19 23  1  0  0  0  0
 19 20  1  0  0  0  0
 20 21  1  0  0  0  0
 20 42  1  0  0  0  0
 20 43  1  0  0  0  0
 21 22  1  0  0  0  0
 21 44  1  0  0  0  0
 21 45  1  0  0  0  0
 22 23  1  0  0  0  0
 22 46  1  0  0  0  0
 22 47  1  0  0  0  0
 23 48  1  0  0  0  0
 23 49  1  0  0  0  0
M  END
> <s_m_source_file>
AV-unprocessed.smi

> <i_m_source_file_index>
1112

> <i_lp_mmshare_version>
43012

> <i_f3d_flags>
0

> <s_epik_input>
W0NIMl0xW0NIMl1bQ0gyXVtDSDJdW0NIMl1DMShbT0hdKVtDSDJdW05IXUMoPU8pW05IXWMyW2NIXVtjSF1bY0hdbmMyTjNbQ0gyXVtDSDJdW0NIMl1bQ0gyXTM=

> <s_epik_cmdline>
J2VwaWtfcHl0aG9uJywgJy1waCcsICc3LjAnLCAnLXRuJywgJzgnLCAnLW1hJywgJzIwMCcsICctbWV0YWxfYmluZGluZycsICctaW1hZScsICc8aW5maWxlLm1hZT4nLCAnLW9tYWUnLCAnPG91dGZpbGUubWFlPic=

> <r_lp_tautomer_probability>
1

> <r_epik_Ionization_Penalty>
0.100401

> <r_epik_Ionization_Penalty_Charging>
0

> <r_epik_Ionization_Penalty_Neutral>
0.100401

> <r_epik_State_Penalty>
0.0898606

> <r_epik_Charging_Adjusted_Penalty>
0.0898606

> <i_epik_Tot_Q>
0

> <i_epik_Tot_abs_Q>
0

> <r_epik_Metal_State_Penalty>
0.0767935

> <b_epik_Metal_Only>
0

> <s_lp_Force_Field>
OPLS_2005

> <r_lp_Energy>
45.6108

> <b_lp_Chiralities_Consistent>
1

> <s_lp_Variant>
AV-unprocessed.smi:1112-1

> <Gold.Version>
5.8.1

> <Gold.Id.Protein>
6NUR|6NUR_protein|mol2

> <Gold.PLP.Fitness>
53.0324

> <Gold.PLP.PLP>
-42.0229

> <Gold.PLP.part.hbond>
-4.1180

> <Gold.PLP.part.metal>
0.0000

> <Gold.PLP.part.buried>
-4.0055

> <Gold.PLP.part.nonpolar>
-34.4246

> <Gold.PLP.part.repulsive>
0.5360

> <Gold.PLP.ligand.clash>
0.0000

> <Gold.PLP.ligand.torsion>
0.4031

> <Gold.PLP.Chemscore.Hbond>
3.9280

> <Gold.PLP.Chemscore.CHOScore>
0.0000

> <Gold.PLP.Chemscore.Metal>
0.0000

> <Gold.Chemscore.Hbonds>
donor molecule, donor type, donor heavy atom, donor atom, acceptor molecule, acceptor atom, score
      L1  H     3    24       P1  7948  0.29
      L1  H     6    27       P1  7949  0.58
      L1  H    12    38       P1  7948  0.54
      P1  H 10752 10764       L1     6  1.00

> <Gold.PLP.Chemscore.Internal.Correction>
0.0316

> <Gold.Rescore>
     Score         DG    S(hbond)    S(metal)    S(lipo)     H(rot)  DE(clash)    DE(int)     intcor
     16.00     -17.64       2.12        0.00      84.60       1.89       0.00       1.64       ----

> <Gold.Chemscore.Fitness>
16.0016

> <Gold.Chemscore.DG>
-17.6426

> <Gold.Chemscore.ZeroCoef>
-5.4800

> <Gold.Chemscore.Hbond>
2.1241

> <Gold.Chemscore.Metal>
0.0000

> <Gold.Chemscore.Lipo>
84.5981

> <Gold.Chemscore.Internal_Hbond>
0.0000

> <Gold.Chemscore.DEClash>
0.0038

> <Gold.Chemscore.DEInternal>
1.6372

> <Gold.Chemscore.Rot>
1.8866

> <Gold.Chemscore.Internal.Correction>
   9.000000E+99

> <Gold.Chemscore.Hbonds>
donor molecule, donor type, donor heavy atom, donor atom, acceptor molecule, acceptor atom, score
      L1  H     3    24       P1  7948  0.20
      L1  H     6    27       P1  7949  0.45
      L1  H    12    38       P1  7948  0.38
      P1  H 10752 10764       L1     6  0.39

> <Gold.Chemscore.Hbond.Weighted>
-7.0943

> <Gold.Chemscore.Metal.Weighted>
-0.0000

> <Gold.Chemscore.Lipo.Weighted>
-9.8980

> <Gold.Chemscore.Internal_Hbond.Weighted>
0.0000

> <Gold.Chemscore.DEClash.Weighted>
0.0038

> <Gold.Chemscore.DEInternal.Weighted>
1.6372

> <Gold.Chemscore.Rot.Weighted>
4.8297

> <Gold.Chemscore.Internal.Correction.Weighted>
   9.000000E+99

> <Gold.Protein.RotatedTorsions>
[ 6907 6896 6895 6894 ] final   89.37 input  -60.11 | X-H torsion
[ 7974 7965 7964 7962 ] final -137.73 input  175.53 | X-H torsion
[ 8008 7997 7996 7995 ] final  -39.69 input   59.86 | X-H torsion
[ 10167 10162 10161 10158 ] final -152.62 input  -65.29 | X-H torsion
[ 10718 10713 10712 10709 ] final   14.22 input   66.30 | X-H torsion
[ 10763 10752 10751 10750 ] final  -98.65 input  -60.55 | X-H torsion
[ 11005 11000 10999 10996 ] final  -52.30 input  -57.11 | X-H torsion

> <Gold.Protein.ActiveResidues>
 VAL166  LYS551  ARG553  GLY616  TRP617  ASP618  TYR619  PRO620  LYS621  CYS622 
 ASP623  PHE694  ASN695  SER759  ASP760  ASP761  ALA762  ILE779  LEU786  VAL792 
 PHE793  MET794  SER795  GLU796  ALA797  LYS798  CYS799  TRP800  GLU811  SER814 

> <Gold.Protein.RotatedAtoms>
  152.5435  134.1977  159.8699 H   0  0  0  0  0  0  0  0  0  0  0  0  # atno 6907 bound_to 6896
  151.1968  133.4628  159.2603 H   0  0  0  0  0  0  0  0  0  0  0  0  # atno 6908 bound_to 6896
  151.1029  134.9995  159.8513 H   0  0  0  0  0  0  0  0  0  0  0  0  # atno 6909 bound_to 6896
  144.8817  140.6517  143.5202 H   0  0  0  0  0  0  0  0  0  0  0  0  # atno 7974 bound_to 7965
  154.4020  140.1545  156.2905 H   0  0  0  0  0  0  0  0  0  0  0  0  # atno 8008 bound_to 7997
  155.8789  140.3445  155.5852 H   0  0  0  0  0  0  0  0  0  0  0  0  # atno 8009 bound_to 7997
  155.7689  140.0827  157.2108 H   0  0  0  0  0  0  0  0  0  0  0  0  # atno 8010 bound_to 7997
  139.7166  143.9023  152.2488 H   0  0  0  0  0  0  0  0  0  0  0  0  # atno 10167 bound_to 10162
  157.0360  130.6212  149.5743 H   0  0  0  0  0  0  0  0  0  0  0  0  # atno 10718 bound_to 10713
  154.7432  135.5001  153.9159 H   0  0  0  0  0  0  0  0  0  0  0  0  # atno 10763 bound_to 10752
  153.1065  135.6698  153.9586 H   0  0  0  0  0  0  0  0  0  0  0  0  # atno 10764 bound_to 10752
  153.9357  135.3073  155.3423 H   0  0  0  0  0  0  0  0  0  0  0  0  # atno 10765 bound_to 10752
  141.0917  133.6631  156.4005 H   0  0  0  0  0  0  0  0  0  0  0  0  # atno 11005 bound_to 11000
  145.3942  139.1610  143.4212 LP  0  0  0  0  0  0  0  0  0  0  0  0  # atno 17320 bound_to 7965
  146.2998  140.4034  142.8708 LP  0  0  0  0  0  0  0  0  0  0  0  0  # atno 17321 bound_to 7965
  139.8908  144.6967  150.8773 LP  0  0  0  0  0  0  0  0  0  0  0  0  # atno 17342 bound_to 10162
  140.7745  143.3588  151.1868 LP  0  0  0  0  0  0  0  0  0  0  0  0  # atno 17343 bound_to 10162
  156.0054  130.5139  150.7810 LP  0  0  0  0  0  0  0  0  0  0  0  0  # atno 17370 bound_to 10713
  157.5141  131.0927  151.0161 LP  0  0  0  0  0  0  0  0  0  0  0  0  # atno 17371 bound_to 10713
  140.5236  134.6280  157.5326 LP  0  0  0  0  0  0  0  0  0  0  0  0  # atno 17394 bound_to 11000
  139.9744  134.7239  155.9977 LP  0  0  0  0  0  0  0  0  0  0  0  0  # atno 17395 bound_to 11000

$$$$
