AV-unprocessed.smi:1021|AV-procd|sdf|4456|dock9
  -GOLD-   22720 2433D 1   1.00000     0.00000
 Structure written by MMmdl.
 43 45  0  0  0  0  0  0  0  0  2 V2000
  152.1444  135.3948  156.6539 O   0  0  0  0  0  0  0  0  0  0  0  0
  151.5116  136.6433  156.8373 C   0  0  0  0  0  0  0  0  0  0  0  0
  152.3479  137.7669  156.2093 C   0  0  0  0  0  0  0  0  0  0  0  0
  152.0488  137.9784  154.7170 C   0  0  0  0  0  0  0  0  0  0  0  0
  150.7968  138.7676  154.5136 C   0  0  0  0  0  0  0  0  0  0  0  0
  149.7182  138.3706  153.7813 N   0  3  0  0  0  0  0  0  0  0  0  0
  148.7392  139.3645  153.8041 C   0  0  0  0  0  0  0  0  0  0  0  0
  147.4791  139.4172  153.2164 C   0  0  0  0  0  0  0  0  0  0  0  0
  146.7261  140.5890  153.4377 C   0  0  0  0  0  0  0  0  0  0  0  0
  147.2315  141.6509  154.2160 C   0  0  0  0  0  0  0  0  0  0  0  0
  148.5110  141.5862  154.8062 C   0  0  0  0  0  0  0  0  0  0  0  0
  149.2477  140.4232  154.5835 C   0  0  0  0  0  0  0  0  0  0  0  0
  150.5177  140.0117  155.0016 N   0  0  0  0  0  0  0  0  0  0  0  0
  151.3163  140.9095  155.8511 C   0  0  0  0  0  0  0  0  0  0  0  0
  151.0906  140.6645  157.3571 C   0  0  2  0  0  0  0  0  0  0  0  0
  149.7583  140.2317  157.5373 O   0  0  0  0  0  0  0  0  0  0  0  0
  151.4226  141.8905  158.1966 C   0  0  0  0  0  0  0  0  0  0  0  0
  150.7387  143.1038  157.9663 C   0  0  0  0  0  0  0  0  0  0  0  0
  151.0169  144.2369  158.7548 C   0  0  0  0  0  0  0  0  0  0  0  0
  151.9816  144.1642  159.7777 C   0  0  0  0  0  0  0  0  0  0  0  0
  152.2473  145.2532  160.5369 F   0  0  0  0  0  0  0  0  0  0  0  0
  152.6684  142.9575  160.0115 C   0  0  0  0  0  0  0  0  0  0  0  0
  152.3899  141.8235  159.2241 C   0  0  0  0  0  0  0  0  0  0  0  0
  152.5586  135.1458  157.4663 H   0  0  0  0  0  0  0  0  0  0  0  0
  150.5117  136.6132  156.4033 H   0  0  0  0  0  0  0  0  0  0  0  0
  151.3938  136.8168  157.9070 H   0  0  0  0  0  0  0  0  0  0  0  0
  152.1407  138.6924  156.7475 H   0  0  0  0  0  0  0  0  0  0  0  0
  153.4096  137.5625  156.3533 H   0  0  0  0  0  0  0  0  0  0  0  0
  152.8757  138.4996  154.2335 H   0  0  0  0  0  0  0  0  0  0  0  0
  151.9528  137.0178  154.2126 H   0  0  0  0  0  0  0  0  0  0  0  0
  147.0904  138.6054  152.6190 H   0  0  0  0  0  0  0  0  0  0  0  0
  145.7414  140.6752  153.0016 H   0  0  0  0  0  0  0  0  0  0  0  0
  146.6259  142.5334  154.3633 H   0  0  0  0  0  0  0  0  0  0  0  0
  148.8900  142.4044  155.4005 H   0  0  0  0  0  0  0  0  0  0  0  0
  152.3678  140.7765  155.5941 H   0  0  0  0  0  0  0  0  0  0  0  0
  151.0645  141.9362  155.5821 H   0  0  0  0  0  0  0  0  0  0  0  0
  151.7238  139.8406  157.6881 H   0  0  0  0  0  0  0  0  0  0  0  0
  149.2725  140.4194  156.7486 H   0  0  0  0  0  0  0  0  0  0  0  0
  149.9909  143.1662  157.1894 H   0  0  0  0  0  0  0  0  0  0  0  0
  150.4888  145.1620  158.5763 H   0  0  0  0  0  0  0  0  0  0  0  0
  153.4071  142.9004  160.7974 H   0  0  0  0  0  0  0  0  0  0  0  0
  152.9156  140.9002  159.4193 H   0  0  0  0  0  0  0  0  0  0  0  0
  149.6596  137.4818  153.3010 H   0  0  0  0  0  0  0  0  0  0  0  0
  1  2  1  0  0  0  0
  1 24  1  0  0  0  0
  2  3  1  0  0  0  0
  2 25  1  0  0  0  0
  2 26  1  0  0  0  0
  3  4  1  0  0  0  0
  3 27  1  0  0  0  0
  3 28  1  0  0  0  0
  4  5  1  0  0  0  0
  4 29  1  0  0  0  0
  4 30  1  0  0  0  0
  5 13  1  0  0  0  0
  5  6  2  0  0  0  0
  6  7  1  0  0  0  0
  6 43  1  0  0  0  0
  7 12  2  0  0  0  0
  7  8  1  0  0  0  0
  8  9  2  0  0  0  0
  8 31  1  0  0  0  0
  9 10  1  0  0  0  0
  9 32  1  0  0  0  0
 10 11  2  0  0  0  0
 10 33  1  0  0  0  0
 11 12  1  0  0  0  0
 11 34  1  0  0  0  0
 12 13  1  0  0  0  0
 13 14  1  0  0  0  0
 14 15  1  0  0  0  0
 14 35  1  0  0  0  0
 14 36  1  0  0  0  0
 15 16  1  0  0  0  0
 15 17  1  0  0  0  0
 15 37  1  0  0  0  0
 16 38  1  0  0  0  0
 17 23  1  0  0  0  0
 17 18  2  0  0  0  0
 18 19  1  0  0  0  0
 18 39  1  0  0  0  0
 19 20  2  0  0  0  0
 19 40  1  0  0  0  0
 20 21  1  0  0  0  0
 20 22  1  0  0  0  0
 22 23  2  0  0  0  0
 22 41  1  0  0  0  0
 23 42  1  0  0  0  0
M  CHG  1   6   1
M  END
> <s_m_source_file>
AV-unprocessed.smi

> <i_m_source_file_index>
1021

> <i_lp_mmshare_version>
43012

> <i_f3d_flags>
0

> <s_epik_input>
W09IXVtDSDJdW0NIMl1bQ0gyXWMobjEpbihjKGMxMilbY0hdW2NIXVtjSF1bY0hdMilbQ0gyXVtDQEhdKFtPSF0pYzNbY0hdW2NIXWMoRilbY0hdW2NIXTM=

> <s_epik_cmdline>
J2VwaWtfcHl0aG9uJywgJy1waCcsICc3LjAnLCAnLXRuJywgJzgnLCAnLW1hJywgJzIwMCcsICctbWV0YWxfYmluZGluZycsICctaW1hZScsICc8aW5maWxlLm1hZT4nLCAnLW9tYWUnLCAnPG91dGZpbGUubWFlPic=

> <r_epik_Ionization_Penalty>
0.786441

> <r_epik_Ionization_Penalty_Charging>
0.786439

> <r_epik_Ionization_Penalty_Neutral>
1.96029e-06

> <r_epik_State_Penalty>
0.816472

> <r_epik_Charging_Adjusted_Penalty>
1.60291

> <i_epik_Tot_Q>
1

> <i_epik_Tot_abs_Q>
1

> <r_epik_Metal_State_Penalty>
4.73733

> <b_epik_Metal_Only>
0

> <s_lp_Force_Field>
OPLS_2005

> <r_lp_Energy>
17.0058

> <b_lp_Chiralities_Consistent>
1

> <s_lp_Variant>
AV-unprocessed.smi:1021-3

> <Gold.Version>
5.8.1

> <Gold.Id.Protein>
6NUR|6NUR_protein|mol2

> <Gold.PLP.Fitness>
55.7274

> <Gold.PLP.PLP>
-48.5565

> <Gold.PLP.part.hbond>
-2.7601

> <Gold.PLP.part.metal>
0.0000

> <Gold.PLP.part.buried>
0.9285

> <Gold.PLP.part.nonpolar>
-46.9619

> <Gold.PLP.part.repulsive>
0.0581

> <Gold.PLP.ligand.clash>
0.0000

> <Gold.PLP.ligand.torsion>
0.9414

> <Gold.PLP.Chemscore.Hbond>
3.0000

> <Gold.PLP.Chemscore.CHOScore>
0.0000

> <Gold.PLP.Chemscore.Metal>
0.0000

> <Gold.Chemscore.Hbonds>
donor molecule, donor type, donor heavy atom, donor atom, acceptor molecule, acceptor atom, score
      L1  H     6    43       P1  7948  2.00
      P1  H 10752 10765       L1     1  1.00

> <Gold.PLP.Chemscore.Internal.Correction>
0.0537

> <Gold.Rescore>
     Score         DG    S(hbond)    S(metal)    S(lipo)     H(rot)  DE(clash)    DE(int)     intcor
     16.76     -18.51       1.85        0.00     127.83       3.16       0.60       1.16       ----

> <Gold.Chemscore.Fitness>
16.7585

> <Gold.Chemscore.DG>
-18.5129

> <Gold.Chemscore.ZeroCoef>
-5.4800

> <Gold.Chemscore.Hbond>
1.8466

> <Gold.Chemscore.Metal>
0.0000

> <Gold.Chemscore.Lipo>
127.8297

> <Gold.Chemscore.Internal_Hbond>
0.0000

> <Gold.Chemscore.DEClash>
0.5970

> <Gold.Chemscore.DEInternal>
1.1574

> <Gold.Chemscore.Rot>
3.1604

> <Gold.Chemscore.Internal.Correction>
   9.000000E+99

> <Gold.Chemscore.Hbonds>
donor molecule, donor type, donor heavy atom, donor atom, acceptor molecule, acceptor atom, score
      L1  H     6    43       P1  7948  0.70
      P1  H 10752 10765       L1     1  0.48

> <Gold.Chemscore.Hbond.Weighted>
-6.1675

> <Gold.Chemscore.Metal.Weighted>
-0.0000

> <Gold.Chemscore.Lipo.Weighted>
-14.9561

> <Gold.Chemscore.Internal_Hbond.Weighted>
0.0000

> <Gold.Chemscore.DEClash.Weighted>
0.5970

> <Gold.Chemscore.DEInternal.Weighted>
1.1574

> <Gold.Chemscore.Rot.Weighted>
8.0907

> <Gold.Chemscore.Internal.Correction.Weighted>
   9.000000E+99

> <Gold.Protein.RotatedTorsions>
[ 6907 6896 6895 6894 ] final -103.62 input  -60.11 | X-H torsion
[ 7974 7965 7964 7962 ] final  -91.63 input  175.53 | X-H torsion
[ 8008 7997 7996 7995 ] final  162.88 input   59.86 | X-H torsion
[ 10167 10162 10161 10158 ] final  -34.42 input  -65.29 | X-H torsion
[ 10718 10713 10712 10709 ] final   -2.69 input   66.30 | X-H torsion
[ 10763 10752 10751 10750 ] final -120.88 input  -60.55 | X-H torsion
[ 11005 11000 10999 10996 ] final -145.92 input  -57.11 | X-H torsion

> <Gold.Protein.ActiveResidues>
 VAL166  LYS551  ARG553  GLY616  TRP617  ASP618  TYR619  PRO620  LYS621  CYS622 
 ASP623  PHE694  ASN695  SER759  ASP760  ASP761  ALA762  ILE779  LEU786  VAL792 
 PHE793  MET794  SER795  GLU796  ALA797  LYS798  CYS799  TRP800  GLU811  SER814 

> <Gold.Protein.RotatedAtoms>
  150.7249  134.0401  159.3762 H   0  0  0  0  0  0  0  0  0  0  0  0  # atno 6907 bound_to 6896
  151.8374  135.0599  160.0453 H   0  0  0  0  0  0  0  0  0  0  0  0  # atno 6908 bound_to 6896
  152.2888  133.5505  159.5580 H   0  0  0  0  0  0  0  0  0  0  0  0  # atno 6909 bound_to 6896
  145.4106  140.9544  143.2236 H   0  0  0  0  0  0  0  0  0  0  0  0  # atno 7974 bound_to 7965
  156.1999  140.1738  156.7921 H   0  0  0  0  0  0  0  0  0  0  0  0  # atno 8008 bound_to 7997
  154.5578  140.0705  156.8801 H   0  0  0  0  0  0  0  0  0  0  0  0  # atno 8009 bound_to 7997
  155.2906  140.3355  155.4255 H   0  0  0  0  0  0  0  0  0  0  0  0  # atno 8010 bound_to 7997
  140.7186  143.3549  151.2079 H   0  0  0  0  0  0  0  0  0  0  0  0  # atno 10167 bound_to 10162
  156.7871  130.5349  149.5741 H   0  0  0  0  0  0  0  0  0  0  0  0  # atno 10718 bound_to 10713
  154.8655  135.4187  154.2530 H   0  0  0  0  0  0  0  0  0  0  0  0  # atno 10763 bound_to 10752
  153.3473  135.6997  153.6823 H   0  0  0  0  0  0  0  0  0  0  0  0  # atno 10764 bound_to 10752
  153.5778  135.3579  155.2836 H   0  0  0  0  0  0  0  0  0  0  0  0  # atno 10765 bound_to 10752
  140.7873  134.3010  157.5025 H   0  0  0  0  0  0  0  0  0  0  0  0  # atno 11005 bound_to 11000
  144.8311  139.5626  143.6943 LP  0  0  0  0  0  0  0  0  0  0  0  0  # atno 17320 bound_to 7965
  146.2707  139.6627  142.9298 LP  0  0  0  0  0  0  0  0  0  0  0  0  # atno 17321 bound_to 7965
  139.7089  143.9410  152.2939 LP  0  0  0  0  0  0  0  0  0  0  0  0  # atno 17342 bound_to 10162
  139.9128  144.6846  150.8544 LP  0  0  0  0  0  0  0  0  0  0  0  0  # atno 17343 bound_to 10162
  156.1182  130.6090  151.0153 LP  0  0  0  0  0  0  0  0  0  0  0  0  # atno 17370 bound_to 10713
  157.6618  131.0879  150.7820 LP  0  0  0  0  0  0  0  0  0  0  0  0  # atno 17371 bound_to 10713
  139.8735  134.9354  156.3631 LP  0  0  0  0  0  0  0  0  0  0  0  0  # atno 17394 bound_to 11000
  140.9424  133.7505  156.0164 LP  0  0  0  0  0  0  0  0  0  0  0  0  # atno 17395 bound_to 11000

$$$$
