AV-unprocessed.smi:2867|AV-procd|sdf|11023|dock8
  -GOLD-   2272015483D 1   1.00000     0.00000
 Structure written by MMmdl.
 40 42  0  0  0  0  0  0  0  0  1 V2000
  150.2922  145.2563  160.0396 C   0  0  0  0  0  0  0  0  0  0  0  0
  150.8340  144.1107  160.6731 O   0  0  0  0  0  0  0  0  0  0  0  0
  152.2452  144.0506  160.5652 C   0  0  0  0  0  0  0  0  0  0  0  0
  152.7185  142.6597  161.0024 C   0  0  0  0  0  0  0  0  0  0  0  0
  152.7545  141.7360  159.8799 N   0  0  0  0  0  0  0  0  0  0  0  0
  153.6472  140.7386  159.6549 C   0  0  0  0  0  0  0  0  0  0  0  0
  154.7656  140.4315  160.5350 C   0  0  0  0  0  0  0  0  0  0  0  0
  156.0249  140.0924  159.9966 C   0  0  0  0  0  0  0  0  0  0  0  0
  157.1032  139.7990  160.8541 C   0  0  0  0  0  0  0  0  0  0  0  0
  156.9243  139.8396  162.2506 C   0  0  0  0  0  0  0  0  0  0  0  0
  155.6662  140.1715  162.7903 C   0  0  0  0  0  0  0  0  0  0  0  0
  155.4939  140.2089  164.1328 F   0  0  0  0  0  0  0  0  0  0  0  0
  154.5875  140.4652  161.9338 C   0  0  0  0  0  0  0  0  0  0  0  0
  153.4227  140.0191  158.5533 N   0  0  0  0  0  0  0  0  0  0  0  0
  152.2896  140.6015  158.0211 C   0  0  0  0  0  0  0  0  0  0  0  0
  151.5542  140.2844  156.8572 C   0  0  0  0  0  0  0  0  0  0  0  0
  150.4054  141.0326  156.5234 C   0  0  0  0  0  0  0  0  0  0  0  0
  149.4844  140.6150  155.0487 S   0  0  0  0  0  0  0  0  0  0  0  0
  149.1434  142.1680  154.3945 N   0  0  0  0  0  0  0  0  0  0  0  0
  150.3699  139.9159  154.1046 O   0  0  0  0  0  0  0  0  0  0  0  0
  148.2035  140.0204  155.4604 O   0  0  0  0  0  0  0  0  0  0  0  0
  149.9735  142.1014  157.3368 C   0  0  0  0  0  0  0  0  0  0  0  0
  150.6967  142.4295  158.4994 C   0  0  0  0  0  0  0  0  0  0  0  0
  151.8434  141.6824  158.8310 C   0  0  0  0  0  0  0  0  0  0  0  0
  149.2072  145.2532  160.1426 H   0  0  0  0  0  0  0  0  0  0  0  0
  150.5292  145.2681  158.9747 H   0  0  0  0  0  0  0  0  0  0  0  0
  150.6712  146.1734  160.4929 H   0  0  0  0  0  0  0  0  0  0  0  0
  152.5483  144.2448  159.5349 H   0  0  0  0  0  0  0  0  0  0  0  0
  152.7018  144.8169  161.1942 H   0  0  0  0  0  0  0  0  0  0  0  0
  153.7154  142.7209  161.4395 H   0  0  0  0  0  0  0  0  0  0  0  0
  152.0674  142.2615  161.7801 H   0  0  0  0  0  0  0  0  0  0  0  0
  156.1667  140.0592  158.9262 H   0  0  0  0  0  0  0  0  0  0  0  0
  158.0676  139.5426  160.4409 H   0  0  0  0  0  0  0  0  0  0  0  0
  157.7514  139.6146  162.9075 H   0  0  0  0  0  0  0  0  0  0  0  0
  153.6245  140.7210  162.3518 H   0  0  0  0  0  0  0  0  0  0  0  0
  151.8741  139.4662  156.2291 H   0  0  0  0  0  0  0  0  0  0  0  0
  149.5066  142.9092  154.9931 H   0  0  0  0  0  0  0  0  0  0  0  0
  148.1445  142.2858  154.2262 H   0  0  0  0  0  0  0  0  0  0  0  0
  149.0909  142.6672  157.0764 H   0  0  0  0  0  0  0  0  0  0  0  0
  150.3716  143.2439  159.1297 H   0  0  0  0  0  0  0  0  0  0  0  0
  1  2  1  0  0  0  0
  1 25  1  0  0  0  0
  1 26  1  0  0  0  0
  1 27  1  0  0  0  0
  2  3  1  0  0  0  0
  3  4  1  0  0  0  0
  3 28  1  0  0  0  0
  3 29  1  0  0  0  0
  4  5  1  0  0  0  0
  4 30  1  0  0  0  0
  4 31  1  0  0  0  0
  5 24  1  0  0  0  0
  5  6  1  0  0  0  0
  6  7  1  0  0  0  0
  6 14  2  0  0  0  0
  7 13  1  0  0  0  0
  7  8  2  0  0  0  0
  8  9  1  0  0  0  0
  8 32  1  0  0  0  0
  9 10  2  0  0  0  0
  9 33  1  0  0  0  0
 10 11  1  0  0  0  0
 10 34  1  0  0  0  0
 11 12  1  0  0  0  0
 11 13  2  0  0  0  0
 13 35  1  0  0  0  0
 14 15  1  0  0  0  0
 15 24  2  0  0  0  0
 15 16  1  0  0  0  0
 16 17  2  0  0  0  0
 16 36  1  0  0  0  0
 17 18  1  0  0  0  0
 17 22  1  0  0  0  0
 18 19  1  0  0  0  0
 18 20  2  0  0  0  0
 18 21  2  0  0  0  0
 19 37  1  0  0  0  0
 19 38  1  0  0  0  0
 22 23  2  0  0  0  0
 22 39  1  0  0  0  0
 23 24  1  0  0  0  0
 23 40  1  0  0  0  0
M  END
> <s_m_source_file>
AV-unprocessed.smi

> <i_m_source_file_index>
2867

> <i_lp_mmshare_version>
43012

> <i_f3d_flags>
0

> <s_epik_input>
W05IMl1TKD1PKSg9TyljKFtjSF0xKVtjSF1bY0hdYyhjMTIpbihbQ0gyXVtDSDJdT1tDSDNdKWMobjIpLWMzW2NIXVtjSF1bY0hdYyhGKVtjSF0z

> <s_epik_cmdline>
J2VwaWtfcHl0aG9uJywgJy1waCcsICc3LjAnLCAnLXRuJywgJzgnLCAnLW1hJywgJzIwMCcsICctbWV0YWxfYmluZGluZycsICctaW1hZScsICc8aW5maWxlLm1hZT4nLCAnLW9tYWUnLCAnPG91dGZpbGUubWFlPic=

> <r_epik_Ionization_Penalty>
0.0786023

> <r_epik_Ionization_Penalty_Charging>
0

> <r_epik_Ionization_Penalty_Neutral>
0.0786023

> <r_epik_State_Penalty>
0.0592545

> <r_epik_Charging_Adjusted_Penalty>
0.0592545

> <i_epik_Tot_Q>
0

> <i_epik_Tot_abs_Q>
0

> <r_epik_Metal_State_Penalty>
0.300641

> <b_epik_Metal_Only>
0

> <s_lp_Force_Field>
OPLS_2005

> <r_lp_Energy>
19.4946

> <b_lp_Chiralities_Consistent>
1

> <s_lp_Variant>
AV-unprocessed.smi:2867-1

> <Gold.Version>
5.8.1

> <Gold.Id.Protein>
6NUR|6NUR_protein|mol2

> <Gold.PLP.Fitness>
52.4723

> <Gold.PLP.PLP>
-45.4747

> <Gold.PLP.part.hbond>
-4.4462

> <Gold.PLP.part.metal>
0.0000

> <Gold.PLP.part.buried>
-2.4980

> <Gold.PLP.part.nonpolar>
-37.3381

> <Gold.PLP.part.repulsive>
0.8366

> <Gold.PLP.ligand.clash>
0.0000

> <Gold.PLP.ligand.torsion>
2.3313

> <Gold.PLP.Chemscore.Hbond>
2.8751

> <Gold.PLP.Chemscore.CHOScore>
0.0000

> <Gold.PLP.Chemscore.Metal>
0.0000

> <Gold.Chemscore.Hbonds>
donor molecule, donor type, donor heavy atom, donor atom, acceptor molecule, acceptor atom, score
      L1  H    19    37       P1  8028  0.74
      P1  H  7989  7998       L1    20  1.00
      P1  H  7997  8010       L1    14  0.98
      P1  H  8011  8017       L1    19  0.16

> <Gold.PLP.Chemscore.Internal.Correction>
3.0349

> <Gold.Rescore>
     Score         DG    S(hbond)    S(metal)    S(lipo)     H(rot)  DE(clash)    DE(int)     intcor
     18.09     -22.43       2.32        0.00     110.53       1.45       0.49       3.85       ----

> <Gold.Chemscore.Fitness>
18.0895

> <Gold.Chemscore.DG>
-22.4338

> <Gold.Chemscore.ZeroCoef>
-5.4800

> <Gold.Chemscore.Hbond>
2.3177

> <Gold.Chemscore.Metal>
0.0000

> <Gold.Chemscore.Lipo>
110.5326

> <Gold.Chemscore.Internal_Hbond>
0.0000

> <Gold.Chemscore.DEClash>
0.4903

> <Gold.Chemscore.DEInternal>
3.8541

> <Gold.Chemscore.Rot>
1.4530

> <Gold.Chemscore.Internal.Correction>
   9.000000E+99

> <Gold.Chemscore.Hbonds>
donor molecule, donor type, donor heavy atom, donor atom, acceptor molecule, acceptor atom, score
      L1  H    19    37       P1  8028  0.70
      P1  H  7989  7998       L1    20  0.89
      P1  H  7997  8010       L1    14  0.60
      P1  H  8011  8017       L1    19  0.02

> <Gold.Chemscore.Hbond.Weighted>
-7.7411

> <Gold.Chemscore.Metal.Weighted>
-0.0000

> <Gold.Chemscore.Lipo.Weighted>
-12.9323

> <Gold.Chemscore.Internal_Hbond.Weighted>
0.0000

> <Gold.Chemscore.DEClash.Weighted>
0.4903

> <Gold.Chemscore.DEInternal.Weighted>
3.8541

> <Gold.Chemscore.Rot.Weighted>
3.7196

> <Gold.Chemscore.Internal.Correction.Weighted>
   9.000000E+99

> <Gold.Protein.RotatedTorsions>
[ 6907 6896 6895 6894 ] final   -8.17 input  -60.11 | X-H torsion
[ 7974 7965 7964 7962 ] final    1.14 input  175.53 | X-H torsion
[ 8008 7997 7996 7995 ] final   17.03 input   59.86 | X-H torsion
[ 10167 10162 10161 10158 ] final   58.53 input  -65.29 | X-H torsion
[ 10718 10713 10712 10709 ] final  150.96 input   66.30 | X-H torsion
[ 10763 10752 10751 10750 ] final   38.10 input  -60.55 | X-H torsion
[ 11005 11000 10999 10996 ] final  135.67 input  -57.11 | X-H torsion

> <Gold.Protein.ActiveResidues>
 VAL166  LYS551  ARG553  GLY616  TRP617  ASP618  TYR619  PRO620  LYS621  CYS622 
 ASP623  PHE694  ASN695  SER759  ASP760  ASP761  ALA762  ILE779  LEU786  VAL792 
 PHE793  MET794  SER795  GLU796  ALA797  LYS798  CYS799  TRP800  GLU811  SER814 

> <Gold.Protein.RotatedAtoms>
  151.4379  135.1017  159.9661 H   0  0  0  0  0  0  0  0  0  0  0  0  # atno 6907 bound_to 6896
  152.4933  133.8556  159.7234 H   0  0  0  0  0  0  0  0  0  0  0  0  # atno 6908 bound_to 6896
  150.9109  133.6941  159.2883 H   0  0  0  0  0  0  0  0  0  0  0  0  # atno 6909 bound_to 6896
  146.2439  140.1031  142.8347 H   0  0  0  0  0  0  0  0  0  0  0  0  # atno 7974 bound_to 7965
  154.8855  140.2979  155.5401 H   0  0  0  0  0  0  0  0  0  0  0  0  # atno 8008 bound_to 7997
  156.3021  140.2434  156.3797 H   0  0  0  0  0  0  0  0  0  0  0  0  # atno 8009 bound_to 7997
  154.8673  140.0403  157.1691 H   0  0  0  0  0  0  0  0  0  0  0  0  # atno 8010 bound_to 7997
  140.1862  144.4132  150.6592 H   0  0  0  0  0  0  0  0  0  0  0  0  # atno 10167 bound_to 10162
  157.2768  131.0827  151.1560 H   0  0  0  0  0  0  0  0  0  0  0  0  # atno 10718 bound_to 10713
  153.0013  135.6259  154.2250 H   0  0  0  0  0  0  0  0  0  0  0  0  # atno 10763 bound_to 10752
  154.1993  135.2805  155.2998 H   0  0  0  0  0  0  0  0  0  0  0  0  # atno 10764 bound_to 10752
  154.5697  135.5680  153.7142 H   0  0  0  0  0  0  0  0  0  0  0  0  # atno 10765 bound_to 10752
  139.9995  134.9484  157.0040 H   0  0  0  0  0  0  0  0  0  0  0  0  # atno 11005 bound_to 11000
  145.0551  140.9047  143.4972 LP  0  0  0  0  0  0  0  0  0  0  0  0  # atno 17320 bound_to 7965
  145.1136  139.2740  143.5624 LP  0  0  0  0  0  0  0  0  0  0  0  0  # atno 17321 bound_to 7965
  140.6486  143.2219  151.6128 LP  0  0  0  0  0  0  0  0  0  0  0  0  # atno 17342 bound_to 10162
  139.5275  144.3015  152.1069 LP  0  0  0  0  0  0  0  0  0  0  0  0  # atno 17343 bound_to 10162
  157.3010  130.6843  149.6164 LP  0  0  0  0  0  0  0  0  0  0  0  0  # atno 17370 bound_to 10713
  155.9664  130.4392  150.5249 LP  0  0  0  0  0  0  0  0  0  0  0  0  # atno 17371 bound_to 10713
  140.4754  134.1343  155.7209 LP  0  0  0  0  0  0  0  0  0  0  0  0  # atno 17394 bound_to 11000
  141.1631  133.8755  157.1792 LP  0  0  0  0  0  0  0  0  0  0  0  0  # atno 17395 bound_to 11000

$$$$
