#       Name:                AV-unprocessed.smi:109
#       Creating user name   scv26
#       Creation time:       Thu Mar 26 18:10:04 2020


#       File generated by GOLD software.
#

@<TRIPOS>MOLECULE
AV-unprocessed.smi:109
    71    74     1
SMALL
NO_CHARGES


@<TRIPOS>ATOM
      1 ****        -2.4872   2.3975   4.2872 O.3            1 S1                 0.0000
      2 ****        -1.9144   1.9820   3.0662 C.3            1 S1                 0.0000
      3 ****        -3.0187   1.7595   2.0183 C.3            1 S1                 0.0000
      4 ****        -2.4927   1.3821   0.6111 C.3            1 S1                 0.0000
      5 ****        -1.7529   0.1198   0.6875 N.pl3          1 S1                 0.0000
      6 ****        -0.4015   0.0742   0.7011 C.ar           1 S1                 0.0000
      7 ****         0.3462   1.2071   0.7006 N.ar           1 S1                 0.0000
      8 ****         1.6782   1.1280   0.7216 C.ar           1 S1                 0.0000
      9 ****         2.4461   0.0380   0.7459 N.ar           1 S1                 0.0000
     10 ****         1.7070  -1.1100   0.7443 C.ar           1 S1                 0.0000
     11 ****         0.2839  -1.1682   0.7208 C.ar           1 S1                 0.0000
     12 ****        -0.1349  -2.4899   0.7203 N.2            1 S1                 0.0000
     13 ****         0.9778  -3.1709   0.7367 C.2            1 S1                 0.0000
     14 ****         2.1381  -2.4276   0.7691 N.pl3          1 S1                 0.0000
     15 ****         3.5372  -2.9855   0.7701 C.3            1 S1                 0.0000
     16 ****         4.0118  -2.9924  -0.5377 O.3            1 S1                 0.0000
     17 ****         4.7512  -1.8063  -0.7882 C.3            1 S1                 0.0000
     18 ****         5.7356  -2.0419  -1.9439 C.3            1 S1                 0.0000
     19 ****         5.0768  -1.8928  -3.1835 O.3            1 S1                 0.0000
     20 ****         5.4472  -1.5353   0.5561 C.3            1 S1                 0.0000
     21 ****         5.5690  -0.1431   0.7669 O.3            1 S1                 0.0000
     22 ****         4.5317  -2.1673   1.6107 C.3            1 S1                 0.0000
     23 ****         5.2805  -3.0050   2.4684 O.3            1 S1                 0.0000
     24 ****        -3.6139   1.2608  -0.4610 C.3            1 S1                 0.0000
     25 ****        -3.0248   0.8882  -1.8466 C.3            1 S1                 0.0000
     26 ****        -4.1036   0.7672  -2.9340 C.3            1 S1                 0.0000
     27 ****        -4.9155   2.0620  -3.0534 C.3            1 S1                 0.0000
     28 ****        -5.5319   2.4367  -1.7004 C.3            1 S1                 0.0000
     29 ****        -4.4601   2.5513  -0.6037 C.3            1 S1                 0.0000
     30 ****         3.4071  -4.0072   1.1298 H              1 S1                 0.0000
     31 ****         4.0618  -0.9988  -1.0358 H              1 S1                 0.0000
     32 ****         6.4358  -1.9976   0.5707 H              1 S1                 0.0000
     33 ****         4.0079  -1.4389   2.2290 H              1 S1                 0.0000
     34 ****        -3.0715   1.7199   4.5914 H              1 S1                 0.0000
     35 ****        -1.2120   2.7445   2.7284 H              1 S1                 0.0000
     36 ****        -1.3470   1.0685   3.2442 H              1 S1                 0.0000
     37 ****        -3.7111   0.9932   2.3697 H              1 S1                 0.0000
     38 ****        -3.5879   2.6858   1.9646 H              1 S1                 0.0000
     39 ****        -1.8391   2.1881   0.2780 H              1 S1                 0.0000
     40 ****        -2.3213  -0.7148   0.6818 H              1 S1                 0.0000
     41 ****         2.2031   2.0718   0.7206 H              1 S1                 0.0000
     42 ****         0.9823  -4.2512   0.7276 H              1 S1                 0.0000
     43 ****         6.5357  -1.3016  -1.9092 H              1 S1                 0.0000
     44 ****         6.2012  -3.0255  -1.8761 H              1 S1                 0.0000
     45 ****         5.7074  -2.0181  -3.8762 H              1 S1                 0.0000
     46 ****         4.7028   0.2364   0.7539 H              1 S1                 0.0000
     47 ****         5.7434  -3.6376   1.9408 H              1 S1                 0.0000
     48 ****        -4.2862   0.4569  -0.1563 H              1 S1                 0.0000
     49 ****        -2.2926   1.6394  -2.1460 H              1 S1                 0.0000
     50 ****        -2.4855  -0.0579  -1.7968 H              1 S1                 0.0000
     51 ****        -3.6401   0.5305  -3.8921 H              1 S1                 0.0000
     52 ****        -4.7697  -0.0638  -2.6986 H              1 S1                 0.0000
     53 ****        -4.2713   2.8702  -3.4020 H              1 S1                 0.0000
     54 ****        -5.6998   1.9438  -3.8015 H              1 S1                 0.0000
     55 ****        -6.0742   3.3784  -1.7883 H              1 S1                 0.0000
     56 ****        -6.2669   1.6836  -1.4134 H              1 S1                 0.0000
     57 ****        -4.9733   2.7845   0.3277 H              1 S1                 0.0000
     58 ****        -3.8065   3.3977  -0.8192 H              1 S1                 0.0000
     59 ****        -2.9981   3.2458   4.1485 LP             1 S1                 0.0000
     60 ****        -1.7662   2.5493   4.9634 LP             1 S1                 0.0000
     61 ****        -0.1012   2.1013   0.6845 LP             1 S1                 0.0000
     62 ****         3.4458   0.0590   0.7633 LP             1 S1                 0.0000
     63 ****        -1.0716  -2.8398   0.7099 LP             1 S1                 0.0000
     64 ****         3.2393  -3.0419  -1.1708 LP             1 S1                 0.0000
     65 ****         4.6039  -3.7871  -0.6716 LP             1 S1                 0.0000
     66 ****         4.6832  -0.9757  -3.2478 LP             1 S1                 0.0000
     67 ****         4.3492  -2.5741  -3.2627 LP             1 S1                 0.0000
     68 ****         6.1262   0.2612   0.0416 LP             1 S1                 0.0000
     69 ****         5.9999   0.0283   1.6529 LP             1 S1                 0.0000
     70 ****         4.6655  -3.4777   3.0996 LP             1 S1                 0.0000
     71 ****         5.9349  -2.4564   2.9888 LP             1 S1                 0.0000
@<TRIPOS>BOND
    1    1    2 1     
    2    1   34 1     
    3    2    3 1     
    4    2   35 1     
    5    2   36 1     
    6    3    4 1     
    7    3   37 1     
    8    3   38 1     
    9    4    5 1     
   10    4   24 1     
   11    4   39 1     
   12    5    6 1     
   13    5   40 1     
   14    6   11 ar    
   15    6    7 ar    
   16    7    8 ar    
   17    8    9 ar    
   18    8   41 1     
   19    9   10 ar    
   20   10   14 1     
   21   10   11 ar    
   22   11   12 1     
   23   12   13 2     
   24   13   14 1     
   25   13   42 1     
   26   14   15 1     
   27   15   30 1     
   28   15   22 1     
   29   15   16 1     
   30   16   17 1     
   31   17   31 1     
   32   17   18 1     
   33   17   20 1     
   34   18   19 1     
   35   18   43 1     
   36   18   44 1     
   37   19   45 1     
   38   20   32 1     
   39   20   21 1     
   40   20   22 1     
   41   21   46 1     
   42   22   33 1     
   43   22   23 1     
   44   23   47 1     
   45   24   29 1     
   46   24   25 1     
   47   24   48 1     
   48   25   26 1     
   49   25   49 1     
   50   25   50 1     
   51   26   27 1     
   52   26   51 1     
   53   26   52 1     
   54   27   28 1     
   55   27   53 1     
   56   27   54 1     
   57   28   29 1     
   58   28   55 1     
   59   28   56 1     
   60   29   57 1     
   61   29   58 1     
   62    1   59 1     
   63    1   60 1     
   64    7   61 1     
   65    9   62 1     
   66   12   63 1     
   67   16   64 1     
   68   16   65 1     
   69   19   66 1     
   70   19   67 1     
   71   21   68 1     
   72   21   69 1     
   73   23   70 1     
   74   23   71 1     
@<TRIPOS>SUBSTRUCTURE
      1 S1             1
@<TRIPOS>SET
LONE_PAIRS      STATIC     ATOMS    <user>   **** ""
13 59 60 61 62 63 64 65 66 67 68 69 70 71
DONOR_HYDROGENS      STATIC     ATOMS    <user>   **** ""
5 34 40 45 46 47
ATOM$BLUE        STATIC     ATOMS    COLORGROUP SYSTEM
13 59 60 61 62 63 64 65 66 67 68 69 70 71
ATOM$RED        STATIC     ATOMS    COLORGROUP SYSTEM
5 34 40 45 46 47
