AV-unprocessed.smi:2973|AV-procd|sdf|11340|dock1
  -GOLD-   2272016253D 1   1.00000     0.00000
 Structure written by MMmdl.
 49 51  0  0  0  0  0  0  0  0  1 V2000
  148.5330  142.8947  158.6311 C   0  0  0  0  0  0  0  0  0  0  0  0
  149.7552  143.8313  158.5254 C   0  0  1  0  0  0  0  0  0  0  0  0
  150.0781  144.4639  159.8964 C   0  0  0  0  0  0  0  0  0  0  0  0
  151.2298  145.4763  159.7969 C   0  0  0  0  0  0  0  0  0  0  0  0
  152.4893  144.8375  159.1954 C   0  0  0  0  0  0  0  0  0  0  0  0
  152.1909  144.1983  157.8272 C   0  0  0  0  0  0  0  0  0  0  0  0
  151.0181  143.1861  157.8706 C   0  0  2  0  0  0  0  0  0  0  0  0
  150.7295  142.7167  156.5265 N   0  0  0  0  0  0  0  0  0  0  0  0
  150.9325  141.4027  156.3698 C   0  0  0  0  0  0  0  0  0  0  0  0
  150.7654  140.7797  155.3227 O   0  0  0  0  0  0  0  0  0  0  0  0
  151.3424  140.8959  157.5455 N   0  0  0  0  0  0  0  0  0  0  0  0
  151.6788  139.4824  157.7620 C   0  0  0  0  0  0  0  0  0  0  0  0
  153.0910  139.2659  158.3242 C   0  0  0  0  0  0  0  0  0  0  0  0
  153.9861  138.7815  157.6299 O   0  0  0  0  0  0  0  0  0  0  0  0
  153.2739  139.6440  159.5980 N   0  0  0  0  0  0  0  0  0  0  0  0
  154.5274  139.5330  160.3349 C   0  0  0  0  0  0  0  0  0  0  0  0
  154.2873  139.1993  161.8169 C   0  0  0  0  0  0  0  0  0  0  0  0
  154.4246  137.7153  162.1007 C   0  0  0  0  0  0  0  0  0  0  0  0
  154.2686  137.2143  163.4111 C   0  0  0  0  0  0  0  0  0  0  0  0
  154.4017  135.8277  163.6194 C   0  0  0  0  0  0  0  0  0  0  0  0
  154.6824  134.9997  162.5155 C   0  0  0  0  0  0  0  0  0  0  0  0
  154.8180  135.5977  161.2467 C   0  0  0  0  0  0  0  0  0  0  0  0
  154.6931  136.9259  161.0362 N   0  0  0  0  0  0  0  0  0  0  0  0
  151.4356  141.8475  158.4846 C   0  0  0  0  0  0  0  0  0  0  0  0
  151.7920  141.6944  159.6531 O   0  0  0  0  0  0  0  0  0  0  0  0
  148.7208  142.0570  159.3034 H   0  0  0  0  0  0  0  0  0  0  0  0
  148.2516  142.4876  157.6599 H   0  0  0  0  0  0  0  0  0  0  0  0
  147.6661  143.4316  159.0168 H   0  0  0  0  0  0  0  0  0  0  0  0
  149.4488  144.6487  157.8707 H   0  0  0  0  0  0  0  0  0  0  0  0
  149.1937  144.9677  160.2879 H   0  0  0  0  0  0  0  0  0  0  0  0
  150.3297  143.6910  160.6230 H   0  0  0  0  0  0  0  0  0  0  0  0
  150.9198  146.3212  159.1807 H   0  0  0  0  0  0  0  0  0  0  0  0
  151.4543  145.8812  160.7841 H   0  0  0  0  0  0  0  0  0  0  0  0
  153.2683  145.5924  159.0862 H   0  0  0  0  0  0  0  0  0  0  0  0
  152.8872  144.0912  159.8828 H   0  0  0  0  0  0  0  0  0  0  0  0
  151.9557  144.9894  157.1137 H   0  0  0  0  0  0  0  0  0  0  0  0
  153.0956  143.7183  157.4502 H   0  0  0  0  0  0  0  0  0  0  0  0
  150.4177  143.3328  155.7899 H   0  0  0  0  0  0  0  0  0  0  0  0
  150.9604  139.0250  158.4443 H   0  0  0  0  0  0  0  0  0  0  0  0
  151.5842  138.9345  156.8228 H   0  0  0  0  0  0  0  0  0  0  0  0
  152.4856  140.0327  160.0952 H   0  0  0  0  0  0  0  0  0  0  0  0
  155.1218  138.7458  159.8704 H   0  0  0  0  0  0  0  0  0  0  0  0
  155.1024  140.4554  160.2357 H   0  0  0  0  0  0  0  0  0  0  0  0
  154.9924  139.7431  162.4475 H   0  0  0  0  0  0  0  0  0  0  0  0
  153.2921  139.5305  162.1161 H   0  0  0  0  0  0  0  0  0  0  0  0
  154.0516  137.8745  164.2381 H   0  0  0  0  0  0  0  0  0  0  0  0
  154.2904  135.4071  164.6079 H   0  0  0  0  0  0  0  0  0  0  0  0
  154.7914  133.9323  162.6377 H   0  0  0  0  0  0  0  0  0  0  0  0
  155.0318  134.9932  160.3776 H   0  0  0  0  0  0  0  0  0  0  0  0
  1  2  1  0  0  0  0
  1 26  1  0  0  0  0
  1 27  1  0  0  0  0
  1 28  1  0  0  0  0
  2  7  1  0  0  0  0
  2  3  1  0  0  0  0
  2 29  1  0  0  0  0
  3  4  1  0  0  0  0
  3 30  1  0  0  0  0
  3 31  1  0  0  0  0
  4  5  1  0  0  0  0
  4 32  1  0  0  0  0
  4 33  1  0  0  0  0
  5  6  1  0  0  0  0
  5 34  1  0  0  0  0
  5 35  1  0  0  0  0
  6  7  1  0  0  0  0
  6 36  1  0  0  0  0
  6 37  1  0  0  0  0
  7 24  1  0  0  0  0
  7  8  1  0  0  0  0
  8  9  1  0  0  0  0
  8 38  1  0  0  0  0
  9 10  2  0  0  0  0
  9 11  1  0  0  0  0
 11 12  1  0  0  0  0
 11 24  1  0  0  0  0
 12 13  1  0  0  0  0
 12 39  1  0  0  0  0
 12 40  1  0  0  0  0
 13 14  2  0  0  0  0
 13 15  1  0  0  0  0
 15 16  1  0  0  0  0
 15 41  1  0  0  0  0
 16 17  1  0  0  0  0
 16 42  1  0  0  0  0
 16 43  1  0  0  0  0
 17 18  1  0  0  0  0
 17 44  1  0  0  0  0
 17 45  1  0  0  0  0
 18 23  1  0  0  0  0
 18 19  2  0  0  0  0
 19 20  1  0  0  0  0
 19 46  1  0  0  0  0
 20 21  2  0  0  0  0
 20 47  1  0  0  0  0
 21 22  1  0  0  0  0
 21 48  1  0  0  0  0
 22 23  2  0  0  0  0
 22 49  1  0  0  0  0
 24 25  2  0  0  0  0
M  END
> <s_m_source_file>
AV-unprocessed.smi

> <i_m_source_file_index>
2973

> <i_lp_mmshare_version>
43012

> <i_f3d_flags>
0

> <s_epik_input>
W0NIMl0xW0NIMl1bQ0gyXVtDSDJdW0NAQEhdKFtDSDNdKVtDQF0xMltOSF1DKD1PKU4oQzI9TylbQ0gyXUMoPU8pW05IXVtDSDJdW0NIMl1jM1tjSF1bY0hdW2NIXVtjSF1uMw==

> <s_epik_cmdline>
J2VwaWtfcHl0aG9uJywgJy1waCcsICc3LjAnLCAnLXRuJywgJzgnLCAnLW1hJywgJzIwMCcsICctbWV0YWxfYmluZGluZycsICctaW1hZScsICc8aW5maWxlLm1hZT4nLCAnLW9tYWUnLCAnPG91dGZpbGUubWFlPic=

> <r_lp_tautomer_probability>
1

> <r_epik_Ionization_Penalty>
0.0245152

> <r_epik_Ionization_Penalty_Charging>
0

> <r_epik_Ionization_Penalty_Neutral>
0.0245152

> <r_epik_State_Penalty>
0.0198648

> <r_epik_Charging_Adjusted_Penalty>
0.0198648

> <i_epik_Tot_Q>
0

> <i_epik_Tot_abs_Q>
0

> <r_epik_Metal_State_Penalty>
0.0400162

> <b_epik_Metal_Only>
0

> <s_lp_Force_Field>
OPLS_2005

> <r_lp_Energy>
16.769

> <b_lp_Chiralities_Consistent>
1

> <s_lp_Variant>
AV-unprocessed.smi:2973-4

> <Gold.Version>
5.8.1

> <Gold.Id.Protein>
6NUR|6NUR_protein|mol2

> <Gold.PLP.Fitness>
52.6200

> <Gold.PLP.PLP>
-46.3873

> <Gold.PLP.part.hbond>
-2.8934

> <Gold.PLP.part.metal>
0.0000

> <Gold.PLP.part.buried>
-4.0674

> <Gold.PLP.part.nonpolar>
-37.7431

> <Gold.PLP.part.repulsive>
0.2197

> <Gold.PLP.ligand.clash>
0.0000

> <Gold.PLP.ligand.torsion>
0.5686

> <Gold.PLP.Chemscore.Hbond>
2.4441

> <Gold.PLP.Chemscore.CHOScore>
0.0000

> <Gold.PLP.Chemscore.Metal>
0.0000

> <Gold.Chemscore.Hbonds>
donor molecule, donor type, donor heavy atom, donor atom, acceptor molecule, acceptor atom, score
      L1  H     8    38       P1  8028  0.62
      P1  H  7989  7998       L1    10  0.83
      P1  H  7997  8010       L1    14  0.97

> <Gold.PLP.Chemscore.Internal.Correction>
0.0376

> <Gold.Rescore>
     Score         DG    S(hbond)    S(metal)    S(lipo)     H(rot)  DE(clash)    DE(int)     intcor
     17.55     -20.77       1.94        0.00     116.06       1.86       0.07       3.15       ----

> <Gold.Chemscore.Fitness>
17.5504

> <Gold.Chemscore.DG>
-20.7725

> <Gold.Chemscore.ZeroCoef>
-5.4800

> <Gold.Chemscore.Hbond>
1.9351

> <Gold.Chemscore.Metal>
0.0000

> <Gold.Chemscore.Lipo>
116.0603

> <Gold.Chemscore.Internal_Hbond>
0.0000

> <Gold.Chemscore.DEClash>
0.0736

> <Gold.Chemscore.DEInternal>
3.1485

> <Gold.Chemscore.Rot>
1.8553

> <Gold.Chemscore.Internal.Correction>
   9.000000E+99

> <Gold.Chemscore.Hbonds>
donor molecule, donor type, donor heavy atom, donor atom, acceptor molecule, acceptor atom, score
      L1  H     8    38       P1  8028  0.60
      P1  H  7989  7998       L1    10  0.79
      P1  H  7997  8010       L1    14  0.30

> <Gold.Chemscore.Hbond.Weighted>
-6.4632

> <Gold.Chemscore.Metal.Weighted>
-0.0000

> <Gold.Chemscore.Lipo.Weighted>
-13.5791

> <Gold.Chemscore.Internal_Hbond.Weighted>
0.0000

> <Gold.Chemscore.DEClash.Weighted>
0.0736

> <Gold.Chemscore.DEInternal.Weighted>
3.1485

> <Gold.Chemscore.Rot.Weighted>
4.7497

> <Gold.Chemscore.Internal.Correction.Weighted>
   9.000000E+99

> <Gold.Protein.RotatedTorsions>
[ 6907 6896 6895 6894 ] final -103.99 input  -60.11 | X-H torsion
[ 7974 7965 7964 7962 ] final -159.58 input  175.53 | X-H torsion
[ 8008 7997 7996 7995 ] final   42.30 input   59.86 | X-H torsion
[ 10167 10162 10161 10158 ] final   20.31 input  -65.29 | X-H torsion
[ 10718 10713 10712 10709 ] final  -63.53 input   66.30 | X-H torsion
[ 10763 10752 10751 10750 ] final    7.21 input  -60.55 | X-H torsion
[ 11005 11000 10999 10996 ] final  -64.83 input  -57.11 | X-H torsion

> <Gold.Protein.ActiveResidues>
 VAL166  LYS551  ARG553  GLY616  TRP617  ASP618  TYR619  PRO620  LYS621  CYS622 
 ASP623  PHE694  ASN695  SER759  ASP760  ASP761  ALA762  ILE779  LEU786  VAL792 
 PHE793  MET794  SER795  GLU796  ALA797  LYS798  CYS799  TRP800  GLU811  SER814 

> <Gold.Protein.RotatedAtoms>
  150.7266  134.0345  159.3744 H   0  0  0  0  0  0  0  0  0  0  0  0  # atno 6907 bound_to 6896
  151.8316  135.0617  160.0447 H   0  0  0  0  0  0  0  0  0  0  0  0  # atno 6908 bound_to 6896
  152.2929  133.5543  159.5605 H   0  0  0  0  0  0  0  0  0  0  0  0  # atno 6909 bound_to 6896
  144.7460  140.3664  143.6085 H   0  0  0  0  0  0  0  0  0  0  0  0  # atno 7974 bound_to 7965
  155.2839  140.3374  155.4256 H   0  0  0  0  0  0  0  0  0  0  0  0  # atno 8008 bound_to 7997
  156.2077  140.1757  156.7804 H   0  0  0  0  0  0  0  0  0  0  0  0  # atno 8009 bound_to 7997
  154.5643  140.0681  156.8852 H   0  0  0  0  0  0  0  0  0  0  0  0  # atno 8010 bound_to 7997
  140.5513  143.9503  150.6580 H   0  0  0  0  0  0  0  0  0  0  0  0  # atno 10167 bound_to 10162
  156.0785  130.4222  150.1290 H   0  0  0  0  0  0  0  0  0  0  0  0  # atno 10718 bound_to 10713
  153.2389  135.6901  153.7805 H   0  0  0  0  0  0  0  0  0  0  0  0  # atno 10763 bound_to 10752
  153.6942  135.3308  155.3210 H   0  0  0  0  0  0  0  0  0  0  0  0  # atno 10764 bound_to 10752
  154.8347  135.4552  154.1303 H   0  0  0  0  0  0  0  0  0  0  0  0  # atno 10765 bound_to 10752
  141.1436  133.6672  156.5893 H   0  0  0  0  0  0  0  0  0  0  0  0  # atno 11005 bound_to 11000
  145.7123  139.1688  143.2532 LP  0  0  0  0  0  0  0  0  0  0  0  0  # atno 17320 bound_to 7965
  146.1338  140.7150  142.9399 LP  0  0  0  0  0  0  0  0  0  0  0  0  # atno 17321 bound_to 7965
  140.2930  143.3311  152.1044 LP  0  0  0  0  0  0  0  0  0  0  0  0  # atno 17342 bound_to 10162
  139.5029  144.6744  151.6165 LP  0  0  0  0  0  0  0  0  0  0  0  0  # atno 17343 bound_to 10162
  156.9326  130.9718  151.3530 LP  0  0  0  0  0  0  0  0  0  0  0  0  # atno 17370 bound_to 10713
  157.5892  130.8431  149.8634 LP  0  0  0  0  0  0  0  0  0  0  0  0  # atno 17371 bound_to 10713
  140.3776  134.7551  157.4640 LP  0  0  0  0  0  0  0  0  0  0  0  0  # atno 17394 bound_to 11000
  140.0662  134.5926  155.8692 LP  0  0  0  0  0  0  0  0  0  0  0  0  # atno 17395 bound_to 11000

$$$$
