AV-unprocessed.smi:69|AV-procd|sdf|656|dock10
  -GOLD-   2262016553D 1   1.00000     0.00000
 Structure written by MMmdl.
 32 34  0  0  0  0  0  0  0  0  1 V2000
  152.5184  142.8159  161.4474 N   0  0  0  0  0  0  0  0  0  0  0  0
  152.1702  143.1134  160.1880 C   0  0  0  0  0  0  0  0  0  0  0  0
  152.3444  144.3844  159.7548 N   0  0  0  0  0  0  0  0  0  0  0  0
  152.0098  144.7050  158.5002 C   0  0  0  0  0  0  0  0  0  0  0  0
  151.4972  143.9233  157.5452 N   0  0  0  0  0  0  0  0  0  0  0  0
  151.3206  142.6437  157.9879 C   0  0  0  0  0  0  0  0  0  0  0  0
  151.6312  142.1598  159.2879 C   0  0  0  0  0  0  0  0  0  0  0  0
  151.3237  140.8087  159.3738 N   0  0  0  0  0  0  0  0  0  0  0  0
  150.8621  140.5144  158.1872 C   0  0  0  0  0  0  0  0  0  0  0  0
  150.8154  141.5658  157.2940 N   0  0  0  0  0  0  0  0  0  0  0  0
  150.3672  141.5842  155.8645 C   0  0  1  0  0  0  0  0  0  0  0  0
  151.0652  140.5902  155.1759 O   0  0  0  0  0  0  0  0  0  0  0  0
  150.2743  139.4079  155.1208 C   0  0  2  0  0  0  0  0  0  0  0  0
  150.7938  138.4340  154.0490 C   0  0  0  0  0  0  0  0  0  0  0  0
  150.0057  137.2626  154.0385 O   0  0  0  0  0  0  0  0  0  0  0  0
  148.8744  139.9830  154.8766 C   0  0  2  0  0  0  0  0  0  0  0  0
  148.7008  140.3027  153.5053 O   0  0  0  0  0  0  0  0  0  0  0  0
  148.8718  141.2196  155.7754 C   0  0  2  0  0  0  0  0  0  0  0  0
  148.0652  142.2659  155.2668 O   0  0  0  0  0  0  0  0  0  0  0  0
  150.6270  142.5793  155.5006 H   0  0  0  0  0  0  0  0  0  0  0  0
  150.2789  138.9232  156.0991 H   0  0  0  0  0  0  0  0  0  0  0  0
  148.0921  139.2789  155.1619 H   0  0  0  0  0  0  0  0  0  0  0  0
  148.5050  140.9423  156.7652 H   0  0  0  0  0  0  0  0  0  0  0  0
  152.3994  141.8739  161.7916 H   0  0  0  0  0  0  0  0  0  0  0  0
  152.9056  143.5304  162.0467 H   0  0  0  0  0  0  0  0  0  0  0  0
  152.1767  145.7351  158.2218 H   0  0  0  0  0  0  0  0  0  0  0  0
  150.5431  139.5131  157.9360 H   0  0  0  0  0  0  0  0  0  0  0  0
  150.7165  138.8880  153.0606 H   0  0  0  0  0  0  0  0  0  0  0  0
  151.8421  138.1825  154.2122 H   0  0  0  0  0  0  0  0  0  0  0  0
  149.6247  137.1648  153.1793 H   0  0  0  0  0  0  0  0  0  0  0  0
  149.4413  139.9627  153.0260 H   0  0  0  0  0  0  0  0  0  0  0  0
  148.4238  143.0885  155.5643 H   0  0  0  0  0  0  0  0  0  0  0  0
  1  2  1  0  0  0  0
  1 24  1  0  0  0  0
  1 25  1  0  0  0  0
  2  7  1  0  0  0  0
  2  3  2  0  0  0  0
  3  4  1  0  0  0  0
  4  5  2  0  0  0  0
  4 26  1  0  0  0  0
  5  6  1  0  0  0  0
  6 10  1  0  0  0  0
  6  7  2  0  0  0  0
  7  8  1  0  0  0  0
  8  9  2  0  0  0  0
  9 10  1  0  0  0  0
  9 27  1  0  0  0  0
 10 11  1  0  0  0  0
 11 20  1  0  0  0  0
 11 18  1  0  0  0  0
 11 12  1  0  0  0  0
 12 13  1  0  0  0  0
 13 21  1  0  0  0  0
 13 14  1  0  0  0  0
 13 16  1  0  0  0  0
 14 15  1  0  0  0  0
 14 28  1  0  0  0  0
 14 29  1  0  0  0  0
 15 30  1  0  0  0  0
 16 22  1  0  0  0  0
 16 17  1  0  0  0  0
 16 18  1  0  0  0  0
 17 31  1  0  0  0  0
 18 23  1  0  0  0  0
 18 19  1  0  0  0  0
 19 32  1  0  0  0  0
M  END
> <s_m_source_file>
AV-unprocessed.smi

> <i_m_source_file_index>
69

> <i_lp_mmshare_version>
43012

> <i_f3d_flags>
0

> <s_epik_input>
bjFbY0hdbmMoW05IMl0pYyhjMTIpbltjSF1uMltDQEBIXTNPW0NASF0oW0NIMl1bT0hdKVtDQEBIXShbT0hdKVtDQEhdM1tPSF0=

> <s_epik_cmdline>
J2VwaWtfcHl0aG9uJywgJy1waCcsICc3LjAnLCAnLXRuJywgJzgnLCAnLW1hJywgJzIwMCcsICctbWV0YWxfYmluZGluZycsICctaW1hZScsICc8aW5maWxlLm1hZT4nLCAnLW9tYWUnLCAnPG91dGZpbGUubWFlPic=

> <r_lp_tautomer_probability>
1

> <r_epik_Ionization_Penalty>
0.000428445

> <r_epik_Ionization_Penalty_Charging>
0

> <r_epik_Ionization_Penalty_Neutral>
0.000428445

> <r_epik_State_Penalty>
-0

> <r_epik_Charging_Adjusted_Penalty>
0

> <i_epik_Tot_Q>
0

> <i_epik_Tot_abs_Q>
0

> <r_epik_Metal_State_Penalty>
-0

> <b_epik_Metal_Only>
0

> <s_epik_Chemistry_Notes>
This compound contains an acetal/aminal-like group ( X-CH(R)-Y where X, Y are N, S, or O) that may be acid/base labile, releasing an aldehyde.

> <s_lp_Force_Field>
OPLS_2005

> <r_lp_Energy>
39.6726

> <b_lp_Chiralities_Consistent>
1

> <s_lp_Variant>
AV-unprocessed.smi:69-14

> <Gold.Version>
5.8.1

> <Gold.Id.Protein>
6NUR|6NUR_protein|mol2

> <Gold.PLP.Fitness>
46.5386

> <Gold.PLP.PLP>
-36.3420

> <Gold.PLP.part.hbond>
-4.6794

> <Gold.PLP.part.metal>
0.0000

> <Gold.PLP.part.buried>
-7.8438

> <Gold.PLP.part.nonpolar>
-24.4117

> <Gold.PLP.part.repulsive>
0.2671

> <Gold.PLP.ligand.clash>
0.0000

> <Gold.PLP.ligand.torsion>
0.0497

> <Gold.PLP.Chemscore.Hbond>
3.4240

> <Gold.PLP.Chemscore.CHOScore>
0.0000

> <Gold.PLP.Chemscore.Metal>
0.0000

> <Gold.Chemscore.Hbonds>
donor molecule, donor type, donor heavy atom, donor atom, acceptor molecule, acceptor atom, score
      L1  H    15    30       P1  7948  1.00
      L1  H    17    31       P1  7957  0.48
      L1  H    19    32       P1  8028  1.00
      P1  H  7989  7998       L1    12  0.93

> <Gold.PLP.Chemscore.Internal.Correction>
0.0240

> <Gold.Rescore>
     Score         DG    S(hbond)    S(metal)    S(lipo)     H(rot)  DE(clash)    DE(int)     intcor
     10.59     -10.72       3.50        0.00      33.08       4.03       0.07       0.06       ----

> <Gold.Chemscore.Fitness>
10.5884

> <Gold.Chemscore.DG>
-10.7207

> <Gold.Chemscore.ZeroCoef>
-5.4800

> <Gold.Chemscore.Hbond>
3.4975

> <Gold.Chemscore.Metal>
0.0000

> <Gold.Chemscore.Lipo>
33.0771

> <Gold.Chemscore.Internal_Hbond>
0.0000

> <Gold.Chemscore.DEClash>
0.0690

> <Gold.Chemscore.DEInternal>
0.0633

> <Gold.Chemscore.Rot>
4.0277

> <Gold.Chemscore.Internal.Correction>
   9.000000E+99

> <Gold.Chemscore.Hbonds>
donor molecule, donor type, donor heavy atom, donor atom, acceptor molecule, acceptor atom, score
      L1  H    15    30       P1  7948  0.68
      L1  H    17    31       P1  7957  0.48
      L1  H    19    32       P1  8028  0.99
      P1  H  7989  7998       L1    12  0.48

> <Gold.Chemscore.Hbond.Weighted>
-11.6816

> <Gold.Chemscore.Metal.Weighted>
-0.0000

> <Gold.Chemscore.Lipo.Weighted>
-3.8700

> <Gold.Chemscore.Internal_Hbond.Weighted>
0.0000

> <Gold.Chemscore.DEClash.Weighted>
0.0690

> <Gold.Chemscore.DEInternal.Weighted>
0.0633

> <Gold.Chemscore.Rot.Weighted>
10.3110

> <Gold.Chemscore.Internal.Correction.Weighted>
   9.000000E+99

> <Gold.Protein.RotatedTorsions>
[ 6907 6896 6895 6894 ] final  178.91 input  -60.11 | X-H torsion
[ 7974 7965 7964 7962 ] final  -91.25 input  175.53 | X-H torsion
[ 8008 7997 7996 7995 ] final   41.93 input   59.86 | X-H torsion
[ 10167 10162 10161 10158 ] final  -26.06 input  -65.29 | X-H torsion
[ 10718 10713 10712 10709 ] final   63.13 input   66.30 | X-H torsion
[ 10763 10752 10751 10750 ] final  151.57 input  -60.55 | X-H torsion
[ 11005 11000 10999 10996 ] final -117.86 input  -57.11 | X-H torsion

> <Gold.Protein.ActiveResidues>
 VAL166  LYS551  ARG553  GLY616  TRP617  ASP618  TYR619  PRO620  LYS621  CYS622 
 ASP623  PHE694  ASN695  SER759  ASP760  ASP761  ALA762  ILE779  LEU786  VAL792 
 PHE793  MET794  SER795  GLU796  ALA797  LYS798  CYS799  TRP800  GLU811  SER814 

> <Gold.Protein.RotatedAtoms>
  151.6803  133.3312  159.3217 H   0  0  0  0  0  0  0  0  0  0  0  0  # atno 6907 bound_to 6896
  150.7826  134.6787  159.6441 H   0  0  0  0  0  0  0  0  0  0  0  0  # atno 6908 bound_to 6896
  152.3888  134.6479  160.0168 H   0  0  0  0  0  0  0  0  0  0  0  0  # atno 6909 bound_to 6896
  145.4156  140.9548  143.2210 H   0  0  0  0  0  0  0  0  0  0  0  0  # atno 7974 bound_to 7965
  155.2778  140.3370  155.4260 H   0  0  0  0  0  0  0  0  0  0  0  0  # atno 8008 bound_to 7997
  156.2104  140.1767  156.7749 H   0  0  0  0  0  0  0  0  0  0  0  0  # atno 8009 bound_to 7997
  154.5678  140.0675  156.8903 H   0  0  0  0  0  0  0  0  0  0  0  0  # atno 8010 bound_to 7997
  140.7284  143.4210  151.0951 H   0  0  0  0  0  0  0  0  0  0  0  0  # atno 10167 bound_to 10162
  157.5949  130.9088  149.9676 H   0  0  0  0  0  0  0  0  0  0  0  0  # atno 10718 bound_to 10713
  154.1060  135.2842  155.3241 H   0  0  0  0  0  0  0  0  0  0  0  0  # atno 10763 bound_to 10752
  154.6523  135.5364  153.7919 H   0  0  0  0  0  0  0  0  0  0  0  0  # atno 10764 bound_to 10752
  153.0362  135.6513  154.1221 H   0  0  0  0  0  0  0  0  0  0  0  0  # atno 10765 bound_to 10752
  141.0326  133.9958  157.3120 H   0  0  0  0  0  0  0  0  0  0  0  0  # atno 11005 bound_to 11000
  144.8280  139.5677  143.6957 LP  0  0  0  0  0  0  0  0  0  0  0  0  # atno 17320 bound_to 7965
  146.2683  139.6573  142.9314 LP  0  0  0  0  0  0  0  0  0  0  0  0  # atno 17321 bound_to 7965
  139.7856  143.8292  152.3144 LP  0  0  0  0  0  0  0  0  0  0  0  0  # atno 17342 bound_to 10162
  139.8258  144.7276  150.9513 LP  0  0  0  0  0  0  0  0  0  0  0  0  # atno 17343 bound_to 10162
  156.1010  130.3656  150.0218 LP  0  0  0  0  0  0  0  0  0  0  0  0  # atno 17370 bound_to 10713
  156.8333  130.9400  151.3636 LP  0  0  0  0  0  0  0  0  0  0  0  0  # atno 17371 bound_to 10713
  139.9218  135.0200  156.8092 LP  0  0  0  0  0  0  0  0  0  0  0  0  # atno 17394 bound_to 11000
  140.6380  133.9845  155.7693 LP  0  0  0  0  0  0  0  0  0  0  0  0  # atno 17395 bound_to 11000

$$$$
