AV-unprocessed.smi:552|AV-procd|sdf|2902|dock5
  -GOLD-   2262023393D 1   1.00000     0.00000
 Structure written by MMmdl.
 42 43  0  0  0  0  0  0  0  0  1 V2000
  143.3013  136.9345  153.1967 C   0  0  0  0  0  0  0  0  0  0  0  0
  144.7749  137.2200  153.5209 C   0  0  0  0  0  0  0  0  0  0  0  0
  145.6570  137.4130  152.2730 C   0  0  2  0  0  0  0  0  0  0  0  0
  145.6046  136.1867  151.3482 C   0  0  0  0  0  0  0  0  0  0  0  0
  147.0388  137.6806  152.6672 N   0  0  0  0  0  0  0  0  0  0  0  0
  147.4231  138.5381  153.6236 C   0  0  0  0  0  0  0  0  0  0  0  0
  146.6377  139.2148  154.2872 O   0  0  0  0  0  0  0  0  0  0  0  0
  148.7620  138.5703  153.7367 N   0  0  0  0  0  0  0  0  0  0  0  0
  149.5501  139.3379  154.6354 C   0  0  0  0  0  0  0  0  0  0  0  0
  150.9637  139.3454  154.6444 C   0  0  0  0  0  0  0  0  0  0  0  0
  151.6355  140.1636  155.5726 C   0  0  0  0  0  0  0  0  0  0  0  0
  150.8831  140.9595  156.4688 C   0  0  0  0  0  0  0  0  0  0  0  0
  151.5366  141.7821  157.4130 N   0  0  0  0  0  0  0  0  0  0  0  0
  151.2154  143.2087  157.4185 C   0  0  0  0  0  0  0  0  0  0  0  0
  152.2151  143.9819  158.2949 C   0  0  0  0  0  0  0  0  0  0  0  0
  152.2411  143.4201  159.6025 O   0  0  0  0  0  0  0  0  0  0  0  0
  152.6664  142.0618  159.5853 C   0  0  0  0  0  0  0  0  0  0  0  0
  151.6856  141.2179  158.7527 C   0  0  0  0  0  0  0  0  0  0  0  0
  149.5274  140.9651  156.4407 N   0  0  0  0  0  0  0  0  0  0  0  0
  148.8872  140.1809  155.5487 C   0  0  0  0  0  0  0  0  0  0  0  0
  142.7313  136.7637  154.1101 H   0  0  0  0  0  0  0  0  0  0  0  0
  143.2022  136.0454  152.5734 H   0  0  0  0  0  0  0  0  0  0  0  0
  142.8361  137.7676  152.6694 H   0  0  0  0  0  0  0  0  0  0  0  0
  144.8398  138.1014  154.1603 H   0  0  0  0  0  0  0  0  0  0  0  0
  145.1662  136.3900  154.1104 H   0  0  0  0  0  0  0  0  0  0  0  0
  145.2679  138.2709  151.7214 H   0  0  0  0  0  0  0  0  0  0  0  0
  144.5830  135.9809  151.0275 H   0  0  0  0  0  0  0  0  0  0  0  0
  145.9819  135.2946  151.8490 H   0  0  0  0  0  0  0  0  0  0  0  0
  146.2032  136.3426  150.4499 H   0  0  0  0  0  0  0  0  0  0  0  0
  147.7562  137.1714  152.1720 H   0  0  0  0  0  0  0  0  0  0  0  0
  149.2794  138.0287  153.0598 H   0  0  0  0  0  0  0  0  0  0  0  0
  151.5434  138.7569  153.9502 H   0  0  0  0  0  0  0  0  0  0  0  0
  152.7149  140.1832  155.5716 H   0  0  0  0  0  0  0  0  0  0  0  0
  151.2439  143.6076  156.4037 H   0  0  0  0  0  0  0  0  0  0  0  0
  150.2017  143.3485  157.7965 H   0  0  0  0  0  0  0  0  0  0  0  0
  153.2147  143.9599  157.8575 H   0  0  0  0  0  0  0  0  0  0  0  0
  151.9212  145.0294  158.3642 H   0  0  0  0  0  0  0  0  0  0  0  0
  153.6783  141.9911  159.1828 H   0  0  0  0  0  0  0  0  0  0  0  0
  152.7051  141.6898  160.6092 H   0  0  0  0  0  0  0  0  0  0  0  0
  150.7077  141.1986  159.2357 H   0  0  0  0  0  0  0  0  0  0  0  0
  152.0438  140.1901  158.7234 H   0  0  0  0  0  0  0  0  0  0  0  0
  147.8081  140.2253  155.5709 H   0  0  0  0  0  0  0  0  0  0  0  0
  1  2  1  0  0  0  0
  1 21  1  0  0  0  0
  1 22  1  0  0  0  0
  1 23  1  0  0  0  0
  2  3  1  0  0  0  0
  2 24  1  0  0  0  0
  2 25  1  0  0  0  0
  3  4  1  0  0  0  0
  3  5  1  0  0  0  0
  3 26  1  0  0  0  0
  4 27  1  0  0  0  0
  4 28  1  0  0  0  0
  4 29  1  0  0  0  0
  5  6  1  0  0  0  0
  5 30  1  0  0  0  0
  6  7  2  0  0  0  0
  6  8  1  0  0  0  0
  8  9  1  0  0  0  0
  8 31  1  0  0  0  0
  9 20  1  0  0  0  0
  9 10  2  0  0  0  0
 10 11  1  0  0  0  0
 10 32  1  0  0  0  0
 11 12  2  0  0  0  0
 11 33  1  0  0  0  0
 12 13  1  0  0  0  0
 12 19  1  0  0  0  0
 13 18  1  0  0  0  0
 13 14  1  0  0  0  0
 14 15  1  0  0  0  0
 14 34  1  0  0  0  0
 14 35  1  0  0  0  0
 15 16  1  0  0  0  0
 15 36  1  0  0  0  0
 15 37  1  0  0  0  0
 16 17  1  0  0  0  0
 17 18  1  0  0  0  0
 17 38  1  0  0  0  0
 17 39  1  0  0  0  0
 18 40  1  0  0  0  0
 18 41  1  0  0  0  0
 19 20  2  0  0  0  0
 20 42  1  0  0  0  0
M  END
> <s_m_source_file>
AV-unprocessed.smi

> <i_m_source_file_index>
552

> <i_lp_mmshare_version>
43012

> <i_f3d_flags>
0

> <s_epik_input>
W0NIM11bQ0gyXVtDQEhdKFtDSDNdKVtOSF1DKD1PKVtOSF1jMVtjSF1bY0hdYyhuW2NIXTEpTjJbQ0gyXVtDSDJdT1tDSDJdW0NIMl0y

> <s_epik_cmdline>
J2VwaWtfcHl0aG9uJywgJy1waCcsICc3LjAnLCAnLXRuJywgJzgnLCAnLW1hJywgJzIwMCcsICctbWV0YWxfYmluZGluZycsICctaW1hZScsICc8aW5maWxlLm1hZT4nLCAnLW9tYWUnLCAnPG91dGZpbGUubWFlPic=

> <r_lp_tautomer_probability>
1

> <r_epik_Ionization_Penalty>
0.00215965

> <r_epik_Ionization_Penalty_Charging>
0

> <r_epik_Ionization_Penalty_Neutral>
0.00215965

> <r_epik_State_Penalty>
0.00145276

> <r_epik_Charging_Adjusted_Penalty>
0.00145276

> <i_epik_Tot_Q>
0

> <i_epik_Tot_abs_Q>
0

> <r_epik_Metal_State_Penalty>
-0

> <b_epik_Metal_Only>
0

> <s_lp_Force_Field>
OPLS_2005

> <r_lp_Energy>
20.9108

> <b_lp_Chiralities_Consistent>
1

> <s_lp_Variant>
AV-unprocessed.smi:552-1

> <Gold.Version>
5.8.1

> <Gold.Id.Protein>
6NUR|6NUR_protein|mol2

> <Gold.PLP.Fitness>
40.1568

> <Gold.PLP.PLP>
-36.0566

> <Gold.PLP.part.hbond>
-2.9366

> <Gold.PLP.part.metal>
0.0000

> <Gold.PLP.part.buried>
-1.5029

> <Gold.PLP.part.nonpolar>
-32.5799

> <Gold.PLP.part.repulsive>
0.3330

> <Gold.PLP.ligand.clash>
0.0000

> <Gold.PLP.ligand.torsion>
0.5025

> <Gold.PLP.Chemscore.Hbond>
1.5850

> <Gold.PLP.Chemscore.CHOScore>
0.0000

> <Gold.PLP.Chemscore.Metal>
0.0000

> <Gold.Chemscore.Hbonds>
donor molecule, donor type, donor heavy atom, donor atom, acceptor molecule, acceptor atom, score
      L1  H     5    30       P1  7948  1.00
      L1  H     8    31       P1  7948  0.54

> <Gold.PLP.Chemscore.Internal.Correction>
0.3502

> <Gold.Rescore>
     Score         DG    S(hbond)    S(metal)    S(lipo)     H(rot)  DE(clash)    DE(int)     intcor
     14.93     -18.37       1.90        0.00      85.61       1.35       0.05       3.38       ----

> <Gold.Chemscore.Fitness>
14.9295

> <Gold.Chemscore.DG>
-18.3650

> <Gold.Chemscore.ZeroCoef>
-5.4800

> <Gold.Chemscore.Hbond>
1.8959

> <Gold.Chemscore.Metal>
0.0000

> <Gold.Chemscore.Lipo>
85.6118

> <Gold.Chemscore.Internal_Hbond>
0.0000

> <Gold.Chemscore.DEClash>
0.0522

> <Gold.Chemscore.DEInternal>
3.3833

> <Gold.Chemscore.Rot>
1.3530

> <Gold.Chemscore.Internal.Correction>
   9.000000E+99

> <Gold.Chemscore.Hbonds>
donor molecule, donor type, donor heavy atom, donor atom, acceptor molecule, acceptor atom, score
      L1  H     5    30       P1  7948  0.93
      L1  H     8    31       P1  7948  0.52

> <Gold.Chemscore.Hbond.Weighted>
-6.3322

> <Gold.Chemscore.Metal.Weighted>
-0.0000

> <Gold.Chemscore.Lipo.Weighted>
-10.0166

> <Gold.Chemscore.Internal_Hbond.Weighted>
0.0000

> <Gold.Chemscore.DEClash.Weighted>
0.0522

> <Gold.Chemscore.DEInternal.Weighted>
3.3833

> <Gold.Chemscore.Rot.Weighted>
3.4638

> <Gold.Chemscore.Internal.Correction.Weighted>
   9.000000E+99

> <Gold.Protein.RotatedTorsions>
[ 6907 6896 6895 6894 ] final  -36.14 input  -60.11 | X-H torsion
[ 7974 7965 7964 7962 ] final -118.30 input  175.53 | X-H torsion
[ 8008 7997 7996 7995 ] final  136.27 input   59.86 | X-H torsion
[ 10167 10162 10161 10158 ] final  148.06 input  -65.29 | X-H torsion
[ 10718 10713 10712 10709 ] final  160.41 input   66.30 | X-H torsion
[ 10763 10752 10751 10750 ] final  139.34 input  -60.55 | X-H torsion
[ 11005 11000 10999 10996 ] final  -42.94 input  -57.11 | X-H torsion

> <Gold.Protein.ActiveResidues>
 VAL166  LYS551  ARG553  GLY616  TRP617  ASP618  TYR619  PRO620  LYS621  CYS622 
 ASP623  PHE694  ASN695  SER759  ASP760  ASP761  ALA762  ILE779  LEU786  VAL792 
 PHE793  MET794  SER795  GLU796  ALA797  LYS798  CYS799  TRP800  GLU811  SER814 

> <Gold.Protein.RotatedAtoms>
  151.0309  134.9538  159.8110 H   0  0  0  0  0  0  0  0  0  0  0  0  # atno 6907 bound_to 6896
  152.5345  134.2781  159.9007 H   0  0  0  0  0  0  0  0  0  0  0  0  # atno 6908 bound_to 6896
  151.2791  133.4176  159.2660 H   0  0  0  0  0  0  0  0  0  0  0  0  # atno 6909 bound_to 6896
  145.0754  140.8388  143.4070 H   0  0  0  0  0  0  0  0  0  0  0  0  # atno 7974 bound_to 7965
  156.3004  140.2449  156.3717 H   0  0  0  0  0  0  0  0  0  0  0  0  # atno 8008 bound_to 7997
  154.8782  140.0413  157.1786 H   0  0  0  0  0  0  0  0  0  0  0  0  # atno 8009 bound_to 7997
  154.8723  140.2937  155.5478 H   0  0  0  0  0  0  0  0  0  0  0  0  # atno 8010 bound_to 7997
  139.4880  144.5708  151.7057 H   0  0  0  0  0  0  0  0  0  0  0  0  # atno 10167 bound_to 10162
  157.1507  131.0563  151.2281 H   0  0  0  0  0  0  0  0  0  0  0  0  # atno 10718 bound_to 10713
  153.9045  135.3018  155.3448 H   0  0  0  0  0  0  0  0  0  0  0  0  # atno 10763 bound_to 10752
  154.7654  135.4913  153.9547 H   0  0  0  0  0  0  0  0  0  0  0  0  # atno 10764 bound_to 10752
  153.1226  135.6786  153.9410 H   0  0  0  0  0  0  0  0  0  0  0  0  # atno 10765 bound_to 10752
  141.0350  133.6804  156.2663 H   0  0  0  0  0  0  0  0  0  0  0  0  # atno 11005 bound_to 11000
  145.1242  139.2674  143.5573 LP  0  0  0  0  0  0  0  0  0  0  0  0  # atno 17320 bound_to 7965
  146.3530  140.0874  142.8614 LP  0  0  0  0  0  0  0  0  0  0  0  0  # atno 17321 bound_to 7965
  140.5295  144.0752  150.6049 LP  0  0  0  0  0  0  0  0  0  0  0  0  # atno 17342 bound_to 10162
  140.3737  143.2840  152.0249 LP  0  0  0  0  0  0  0  0  0  0  0  0  # atno 17343 bound_to 10162
  157.4223  130.7444  149.6923 LP  0  0  0  0  0  0  0  0  0  0  0  0  # atno 17370 bound_to 10713
  155.9771  130.4067  150.3735 LP  0  0  0  0  0  0  0  0  0  0  0  0  # atno 17371 bound_to 10713
  140.6339  134.5236  157.5562 LP  0  0  0  0  0  0  0  0  0  0  0  0  # atno 17394 bound_to 11000
  139.9234  134.8104  156.1142 LP  0  0  0  0  0  0  0  0  0  0  0  0  # atno 17395 bound_to 11000

$$$$
