#       Name:                AV-unprocessed.smi:2613
#       Creating user name   scv26
#       Creation time:       Fri Mar 27 14:21:59 2020


#       File generated by GOLD software.
#

@<TRIPOS>MOLECULE
AV-unprocessed.smi:2613
    34    35     1
SMALL
NO_CHARGES


@<TRIPOS>ATOM
      1 ****         0.4631   3.2030  -0.3391 C.3            1 S1                 0.0000
      2 ****        -0.1242   1.8278  -0.3317 C.2            1 S1                 0.0000
      3 ****        -1.4398   1.6147  -0.3455 N.2            1 S1                 0.0000
      4 ****        -1.5232   0.2350  -0.3242 C.ar           1 S1                 0.0000
      5 ****        -2.6502  -0.6164  -0.3201 C.ar           1 S1                 0.0000
      6 ****        -2.4998  -2.0245  -0.2908 C.ar           1 S1                 0.0000
      7 ****        -3.7113  -2.9177  -0.2833 C.2            1 S1                 0.0000
      8 ****        -3.5483  -4.1580  -0.2528 O.co2          1 S1                 0.0000
      9 ****        -4.8474  -2.3940  -0.3074 O.co2          1 S1                -1.0000
     10 ****        -1.1980  -2.5817  -0.2674 C.ar           1 S1                 0.0000
     11 ****        -0.0610  -1.7511  -0.2714 C.ar           1 S1                 0.0000
     12 ****        -0.2294  -0.3557  -0.2997 C.ar           1 S1                 0.0000
     13 ****         0.6540   0.7187  -0.3073 N.pl3          1 S1                 0.0000
     14 ****         2.1054   0.6409  -0.2814 C.3            1 S1                 0.0000
     15 ****         2.6367   0.5721   1.1565 C.3            1 S1                 0.0000
     16 ****         4.0448   0.4861   1.1412 O.3            1 S1                 0.0000
     17 ****        -0.3226   3.9550  -0.2589 H              1 S1                 0.0000
     18 ****         1.0096   3.3731  -1.2669 H              1 S1                 0.0000
     19 ****         1.1448   3.3289   0.5022 H              1 S1                 0.0000
     20 ****        -3.6352  -0.1732  -0.3379 H              1 S1                 0.0000
     21 ****        -1.0607  -3.6532  -0.2457 H              1 S1                 0.0000
     22 ****         0.9283  -2.1835  -0.2515 H              1 S1                 0.0000
     23 ****         2.4137  -0.2431  -0.8412 H              1 S1                 0.0000
     24 ****         2.5239   1.4993  -0.8076 H              1 S1                 0.0000
     25 ****         2.3410   1.4560   1.7220 H              1 S1                 0.0000
     26 ****         2.2326  -0.2979   1.6753 H              1 S1                 0.0000
     27 ****         4.3526   0.4392   2.0335 H              1 S1                 0.0000
     28 ****        -2.1813   2.2853  -0.3661 LP             1 S1                 0.0000
     29 ****        -4.3417  -4.7666  -0.2470 LP             1 S1                 0.0000
     30 ****        -2.6245  -4.5406  -0.2342 LP             1 S1                 0.0000
     31 ****        -5.6641  -2.9710  -0.3026 LP             1 S1                 0.0000
     32 ****        -4.9386  -1.3985  -0.3314 LP             1 S1                 0.0000
     33 ****         4.4272   1.2951   0.6947 LP             1 S1                 0.0000
     34 ****         4.3272  -0.3340   0.6436 LP             1 S1                 0.0000
@<TRIPOS>BOND
    1    1    2 1     
    2    1   17 1     
    3    1   18 1     
    4    1   19 1     
    5    2   13 1     
    6    2    3 2     
    7    3    4 1     
    8    4   12 ar    
    9    4    5 ar    
   10    5    6 ar    
   11    5   20 1     
   12    6    7 1     
   13    6   10 ar    
   14    7    8 ar    
   15    7    9 ar    
   16   10   11 ar    
   17   10   21 1     
   18   11   12 ar    
   19   11   22 1     
   20   12   13 1     
   21   13   14 1     
   22   14   15 1     
   23   14   23 1     
   24   14   24 1     
   25   15   16 1     
   26   15   25 1     
   27   15   26 1     
   28   16   27 1     
   29    3   28 1     
   30    8   29 1     
   31    8   30 1     
   32    9   31 1     
   33    9   32 1     
   34   16   33 1     
   35   16   34 1     
@<TRIPOS>SUBSTRUCTURE
      1 S1             1
@<TRIPOS>SET
LONE_PAIRS      STATIC     ATOMS    <user>   **** ""
7 28 29 30 31 32 33 34
DONOR_HYDROGENS      STATIC     ATOMS    <user>   **** ""
1 27
ATOM$BLUE        STATIC     ATOMS    COLORGROUP SYSTEM
7 28 29 30 31 32 33 34
ATOM$RED        STATIC     ATOMS    COLORGROUP SYSTEM
1 27
