AV-unprocessed.smi:311|AV-procd|sdf|2303|dock2
  -GOLD-   2262022203D 1   1.00000     0.00000
 Structure written by MMmdl.
 44 46  0  0  0  0  0  0  0  0  2 V2000
  150.0650  134.3772  156.3656 C   0  0  0  0  0  0  0  0  0  0  0  0
  150.5416  132.9579  156.2475 C   0  0  0  0  0  0  0  0  0  0  0  0
  151.0976  132.3684  157.2924 N   0  0  0  0  0  0  0  0  0  0  0  0
  151.4252  131.0752  156.8741 O   0  0  0  0  0  0  0  0  0  0  0  0
  151.0477  130.9351  155.5781 C   0  0  0  0  0  0  0  0  0  0  0  0
  151.2999  129.6093  154.9441 C   0  0  0  0  0  0  0  0  0  0  0  0
  150.4780  132.0908  155.1189 C   0  0  0  0  0  0  0  0  0  0  0  0
  149.9001  132.3756  153.7555 C   0  0  0  0  0  0  0  0  0  0  0  0
  148.3783  132.2579  153.8246 C   0  0  0  0  0  0  0  0  0  0  0  0
  147.7595  132.7623  154.7609 O   0  0  0  0  0  0  0  0  0  0  0  0
  147.7838  131.6222  152.8035 N   0  0  0  0  0  0  0  0  0  0  0  0
  146.3416  131.5388  152.5992 C   0  0  2  0  0  0  0  0  0  0  0  0
  145.9554  130.8713  151.2722 C   0  0  0  0  0  0  0  0  0  0  0  0
  144.6541  131.5679  150.8348 C   0  0  0  0  0  0  0  0  0  0  0  0
  144.3624  132.5843  151.8701 N   0  3  2  0  0  0  0  0  0  0  0  0
  143.5374  133.7444  151.4454 C   0  0  0  0  0  0  0  0  0  0  0  0
  144.3451  134.7953  150.6653 C   0  0  0  0  0  0  0  0  0  0  0  0
  145.5829  135.2244  151.4592 C   0  0  0  0  0  0  0  0  0  0  0  0
  146.4440  133.9964  151.7703 C   0  0  0  0  0  0  0  0  0  0  0  0
  145.6437  132.9093  152.5352 C   0  0  2  0  0  0  0  0  0  0  0  0
  149.8954  134.6595  157.4053 H   0  0  0  0  0  0  0  0  0  0  0  0
  149.1273  134.5233  155.8298 H   0  0  0  0  0  0  0  0  0  0  0  0
  150.7973  135.0683  155.9485 H   0  0  0  0  0  0  0  0  0  0  0  0
  150.3612  129.0842  154.7675 H   0  0  0  0  0  0  0  0  0  0  0  0
  151.9253  128.9812  155.5788 H   0  0  0  0  0  0  0  0  0  0  0  0
  151.8052  129.7295  153.9858 H   0  0  0  0  0  0  0  0  0  0  0  0
  150.1664  133.3726  153.4030 H   0  0  0  0  0  0  0  0  0  0  0  0
  150.2815  131.6770  153.0097 H   0  0  0  0  0  0  0  0  0  0  0  0
  148.3731  131.2345  152.0810 H   0  0  0  0  0  0  0  0  0  0  0  0
  145.8978  130.9574  153.4105 H   0  0  0  0  0  0  0  0  0  0  0  0
  146.7263  131.0292  150.5160 H   0  0  0  0  0  0  0  0  0  0  0  0
  145.8261  129.7946  151.3880 H   0  0  0  0  0  0  0  0  0  0  0  0
  144.7926  132.0332  149.8581 H   0  0  0  0  0  0  0  0  0  0  0  0
  143.8223  130.8674  150.7544 H   0  0  0  0  0  0  0  0  0  0  0  0
  142.6864  133.3967  150.8585 H   0  0  0  0  0  0  0  0  0  0  0  0
  143.1252  134.2063  152.3435 H   0  0  0  0  0  0  0  0  0  0  0  0
  144.6471  134.3964  149.6965 H   0  0  0  0  0  0  0  0  0  0  0  0
  143.7187  135.6632  150.4568 H   0  0  0  0  0  0  0  0  0  0  0  0
  146.1610  135.9541  150.8913 H   0  0  0  0  0  0  0  0  0  0  0  0
  145.2828  135.7140  152.3866 H   0  0  0  0  0  0  0  0  0  0  0  0
  146.8341  133.5921  150.8354 H   0  0  0  0  0  0  0  0  0  0  0  0
  147.3118  134.3062  152.3532 H   0  0  0  0  0  0  0  0  0  0  0  0
  145.4333  133.2746  153.5414 H   0  0  0  0  0  0  0  0  0  0  0  0
  143.8184  132.0930  152.5651 H   0  0  0  0  0  0  0  0  0  0  0  0
  1  2  1  0  0  0  0
  1 21  1  0  0  0  0
  1 22  1  0  0  0  0
  1 23  1  0  0  0  0
  2  7  1  0  0  0  0
  2  3  2  0  0  0  0
  3  4  1  0  0  0  0
  4  5  1  0  0  0  0
  5  6  1  0  0  0  0
  5  7  2  0  0  0  0
  6 24  1  0  0  0  0
  6 25  1  0  0  0  0
  6 26  1  0  0  0  0
  7  8  1  0  0  0  0
  8  9  1  0  0  0  0
  8 27  1  0  0  0  0
  8 28  1  0  0  0  0
  9 10  2  0  0  0  0
  9 11  1  0  0  0  0
 11 12  1  0  0  0  0
 11 29  1  0  0  0  0
 12 20  1  0  0  0  0
 12 13  1  0  0  0  0
 12 30  1  0  0  0  0
 13 14  1  0  0  0  0
 13 31  1  0  0  0  0
 13 32  1  0  0  0  0
 14 15  1  0  0  0  0
 14 33  1  0  0  0  0
 14 34  1  0  0  0  0
 15 20  1  0  0  0  0
 15 16  1  0  0  0  0
 15 44  1  0  0  0  0
 16 17  1  0  0  0  0
 16 35  1  0  0  0  0
 16 36  1  0  0  0  0
 17 18  1  0  0  0  0
 17 37  1  0  0  0  0
 17 38  1  0  0  0  0
 18 19  1  0  0  0  0
 18 39  1  0  0  0  0
 18 40  1  0  0  0  0
 19 20  1  0  0  0  0
 19 41  1  0  0  0  0
 19 42  1  0  0  0  0
 20 43  1  0  0  0  0
M  CHG  1  15   1
M  END
> <s_m_source_file>
AV-unprocessed.smi

> <i_m_source_file_index>
311

> <i_lp_mmshare_version>
43012

> <i_f3d_flags>
0

> <s_epik_input>
W0NIM11jMW5vYyhbQ0gzXSljMVtDSDJdQyg9TylbTkhdW0NASF0oW0NIMl1bQ0gyXTIpW0NAQEhdKE4yMylbQ0gyXVtDSDJdW0NIMl1bQ0gyXTM=

> <s_epik_cmdline>
J2VwaWtfcHl0aG9uJywgJy1waCcsICc3LjAnLCAnLXRuJywgJzgnLCAnLW1hJywgJzIwMCcsICctbWV0YWxfYmluZGluZycsICctaW1hZScsICc8aW5maWxlLm1hZT4nLCAnLW9tYWUnLCAnPG91dGZpbGUubWFlPic=

> <r_epik_Ionization_Penalty>
0.00173669

> <r_epik_Ionization_Penalty_Charging>
0.0017366

> <r_epik_Ionization_Penalty_Neutral>
9.2145e-08

> <r_epik_State_Penalty>
0.00117499

> <r_epik_Charging_Adjusted_Penalty>
0.00291159

> <i_epik_Tot_Q>
1

> <i_epik_Tot_abs_Q>
1

> <r_epik_Metal_State_Penalty>
-0

> <b_epik_Metal_Only>
0

> <s_lp_Force_Field>
OPLS_2005

> <r_lp_Energy>
29.2013

> <b_lp_Chiralities_Consistent>
1

> <s_lp_Variant>
AV-unprocessed.smi:311-7

> <Gold.Version>
5.8.1

> <Gold.Id.Protein>
6NUR|6NUR_protein|mol2

> <Gold.PLP.Fitness>
36.4275

> <Gold.PLP.PLP>
-31.4611

> <Gold.PLP.part.hbond>
-2.0000

> <Gold.PLP.part.metal>
0.0000

> <Gold.PLP.part.buried>
-4.5614

> <Gold.PLP.part.nonpolar>
-24.5338

> <Gold.PLP.part.repulsive>
0.0225

> <Gold.PLP.ligand.clash>
0.0000

> <Gold.PLP.ligand.torsion>
0.5065

> <Gold.PLP.Chemscore.Hbond>
1.9913

> <Gold.PLP.Chemscore.CHOScore>
0.0000

> <Gold.PLP.Chemscore.Metal>
0.0000

> <Gold.Chemscore.Hbonds>
donor molecule, donor type, donor heavy atom, donor atom, acceptor molecule, acceptor atom, score
      L1  H    11    29       P1 10747  1.00
      P1  H  6896  6909       L1     3  0.65

> <Gold.PLP.Chemscore.Internal.Correction>
0.0056

> <Gold.Rescore>
     Score         DG    S(hbond)    S(metal)    S(lipo)     H(rot)  DE(clash)    DE(int)     intcor
     15.01     -15.56       1.00        0.00      87.34       1.36       0.13       0.42       ----

> <Gold.Chemscore.Fitness>
15.0073

> <Gold.Chemscore.DG>
-15.5610

> <Gold.Chemscore.ZeroCoef>
-5.4800

> <Gold.Chemscore.Hbond>
0.9984

> <Gold.Chemscore.Metal>
0.0000

> <Gold.Chemscore.Lipo>
87.3440

> <Gold.Chemscore.Internal_Hbond>
0.0000

> <Gold.Chemscore.DEClash>
0.1344

> <Gold.Chemscore.DEInternal>
0.4193

> <Gold.Chemscore.Rot>
1.3567

> <Gold.Chemscore.Internal.Correction>
   9.000000E+99

> <Gold.Chemscore.Hbonds>
donor molecule, donor type, donor heavy atom, donor atom, acceptor molecule, acceptor atom, score
      L1  H    11    29       P1 10747  0.98
      P1  H  6896  6909       L1     3  0.64

> <Gold.Chemscore.Hbond.Weighted>
-3.3348

> <Gold.Chemscore.Metal.Weighted>
-0.0000

> <Gold.Chemscore.Lipo.Weighted>
-10.2192

> <Gold.Chemscore.Internal_Hbond.Weighted>
0.0000

> <Gold.Chemscore.DEClash.Weighted>
0.1344

> <Gold.Chemscore.DEInternal.Weighted>
0.4193

> <Gold.Chemscore.Rot.Weighted>
3.4731

> <Gold.Chemscore.Internal.Correction.Weighted>
   9.000000E+99

> <Gold.Protein.RotatedTorsions>
[ 6907 6896 6895 6894 ] final  -38.37 input  -60.11 | X-H torsion
[ 7974 7965 7964 7962 ] final   32.12 input  175.53 | X-H torsion
[ 8008 7997 7996 7995 ] final  -48.34 input   59.86 | X-H torsion
[ 10167 10162 10161 10158 ] final  -96.78 input  -65.29 | X-H torsion
[ 10718 10713 10712 10709 ] final -136.94 input   66.30 | X-H torsion
[ 10763 10752 10751 10750 ] final    6.63 input  -60.55 | X-H torsion
[ 11005 11000 10999 10996 ] final  106.33 input  -57.11 | X-H torsion

> <Gold.Protein.ActiveResidues>
 VAL166  LYS551  ARG553  GLY616  TRP617  ASP618  TYR619  PRO620  LYS621  CYS622 
 ASP623  PHE694  ASN695  SER759  ASP760  ASP761  ALA762  ILE779  LEU786  VAL792 
 PHE793  MET794  SER795  GLU796  ALA797  LYS798  CYS799  TRP800  GLU811  SER814 

> <Gold.Protein.RotatedAtoms>
  151.0032  134.9339  159.7965 H   0  0  0  0  0  0  0  0  0  0  0  0  # atno 6907 bound_to 6896
  152.5283  134.3126  159.9129 H   0  0  0  0  0  0  0  0  0  0  0  0  # atno 6908 bound_to 6896
  151.3132  133.4030  159.2683 H   0  0  0  0  0  0  0  0  0  0  0  0  # atno 6909 bound_to 6896
  146.1506  139.6567  142.9101 H   0  0  0  0  0  0  0  0  0  0  0  0  # atno 7974 bound_to 7965
  154.4028  140.1324  156.4323 H   0  0  0  0  0  0  0  0  0  0  0  0  # atno 8008 bound_to 7997
  155.7539  140.3487  155.5144 H   0  0  0  0  0  0  0  0  0  0  0  0  # atno 8009 bound_to 7997
  155.8923  140.1005  157.1400 H   0  0  0  0  0  0  0  0  0  0  0  0  # atno 8010 bound_to 7997
  140.2902  143.3226  152.0353 H   0  0  0  0  0  0  0  0  0  0  0  0  # atno 10167 bound_to 10162
  156.2826  130.7329  151.1331 H   0  0  0  0  0  0  0  0  0  0  0  0  # atno 10718 bound_to 10713
  153.2456  135.6908  153.7735 H   0  0  0  0  0  0  0  0  0  0  0  0  # atno 10763 bound_to 10752
  153.6849  135.3322  155.3188 H   0  0  0  0  0  0  0  0  0  0  0  0  # atno 10764 bound_to 10752
  154.8373  135.4531  154.1394 H   0  0  0  0  0  0  0  0  0  0  0  0  # atno 10765 bound_to 10752
  139.8813  134.9365  156.5649 H   0  0  0  0  0  0  0  0  0  0  0  0  # atno 11005 bound_to 11000
  145.4831  141.0438  143.2634 LP  0  0  0  0  0  0  0  0  0  0  0  0  # atno 17320 bound_to 7965
  144.7900  139.6348  143.7117 LP  0  0  0  0  0  0  0  0  0  0  0  0  # atno 17321 bound_to 7965
  139.4940  144.6530  151.6634 LP  0  0  0  0  0  0  0  0  0  0  0  0  # atno 17342 bound_to 10162
  140.5738  144.0063  150.6231 LP  0  0  0  0  0  0  0  0  0  0  0  0  # atno 17343 bound_to 10162
  157.7319  131.0604  150.5655 LP  0  0  0  0  0  0  0  0  0  0  0  0  # atno 17370 bound_to 10713
  156.5763  130.4292  149.5997 LP  0  0  0  0  0  0  0  0  0  0  0  0  # atno 17371 bound_to 10713
  140.8141  133.8405  155.8836 LP  0  0  0  0  0  0  0  0  0  0  0  0  # atno 17394 bound_to 11000
  140.9479  134.1817  157.4750 LP  0  0  0  0  0  0  0  0  0  0  0  0  # atno 17395 bound_to 11000

$$$$
