AV-unprocessed.smi:777|AV-procd|sdf|3701|dock9
  -GOLD-   22720 1123D 1   1.00000     0.00000
 Structure written by MMmdl.
 37 38  0  0  0  0  0  0  0  0  2 V2000
  153.3985  140.9917  161.2867 C   0  0  0  0  0  0  0  0  0  0  0  0
  152.3215  141.2149  160.2039 C   0  0  2  0  0  0  0  0  0  0  0  0
  152.4457  140.2291  159.0320 C   0  0  0  0  0  0  0  0  0  0  0  0
  153.5197  140.1037  158.4440 O   0  0  0  0  0  0  0  0  0  0  0  0
  151.3155  139.5636  158.7258 N   0  0  0  0  0  0  0  0  0  0  0  0
  150.9829  138.6105  157.6555 C   0  0  0  0  0  0  0  0  0  0  0  0
  151.1224  137.2163  158.3201 C   0  0  0  0  0  0  0  0  0  0  0  0
  151.3442  137.1710  159.5508 O   0  0  0  0  0  0  0  0  0  0  0  0
  151.0578  136.2084  157.5807 O   0  5  0  0  0  0  0  0  0  0  0  0
  149.5649  138.7966  157.0258 C   0  0  0  0  0  0  0  0  0  0  0  0
  149.3155  137.8808  155.8114 C   0  0  0  0  0  0  0  0  0  0  0  0
  150.3863  138.0910  154.7310 C   0  0  0  0  0  0  0  0  0  0  0  0
  151.7981  137.8979  155.3032 C   0  0  0  0  0  0  0  0  0  0  0  0
  152.0356  138.8053  156.5268 C   0  0  0  0  0  0  0  0  0  0  0  0
  152.2966  142.5842  159.6990 N   0  0  0  0  0  0  0  0  0  0  0  0
  152.1700  143.7500  160.4279 C   0  0  0  0  0  0  0  0  0  0  0  0
  152.1398  144.7891  159.5429 C   0  0  0  0  0  0  0  0  0  0  0  0
  152.2365  144.1536  158.2744 C   0  0  0  0  0  0  0  0  0  0  0  0
  152.3208  142.8369  158.3690 N   0  0  0  0  0  0  0  0  0  0  0  0
  153.3467  139.9784  161.6860 H   0  0  0  0  0  0  0  0  0  0  0  0
  153.2576  141.6784  162.1217 H   0  0  0  0  0  0  0  0  0  0  0  0
  154.4082  141.1419  160.9021 H   0  0  0  0  0  0  0  0  0  0  0  0
  151.3554  141.0375  160.6797 H   0  0  0  0  0  0  0  0  0  0  0  0
  150.5232  139.7927  159.3080 H   0  0  0  0  0  0  0  0  0  0  0  0
  148.7782  138.6416  157.7658 H   0  0  0  0  0  0  0  0  0  0  0  0
  149.4536  139.8243  156.6788 H   0  0  0  0  0  0  0  0  0  0  0  0
  149.3035  136.8352  156.1207 H   0  0  0  0  0  0  0  0  0  0  0  0
  148.3287  138.0845  155.3948 H   0  0  0  0  0  0  0  0  0  0  0  0
  150.2215  137.4014  153.9029 H   0  0  0  0  0  0  0  0  0  0  0  0
  150.2950  139.0969  154.3193 H   0  0  0  0  0  0  0  0  0  0  0  0
  151.9435  136.8522  155.5761 H   0  0  0  0  0  0  0  0  0  0  0  0
  152.5393  138.1161  154.5340 H   0  0  0  0  0  0  0  0  0  0  0  0
  152.0107  139.8443  156.1949 H   0  0  0  0  0  0  0  0  0  0  0  0
  153.0481  138.6499  156.9028 H   0  0  0  0  0  0  0  0  0  0  0  0
  152.1083  143.7423  161.5064 H   0  0  0  0  0  0  0  0  0  0  0  0
  152.0508  145.8414  159.7677 H   0  0  0  0  0  0  0  0  0  0  0  0
  152.2418  144.6062  157.2938 H   0  0  0  0  0  0  0  0  0  0  0  0
  1  2  1  0  0  0  0
  1 20  1  0  0  0  0
  1 21  1  0  0  0  0
  1 22  1  0  0  0  0
  2  3  1  0  0  0  0
  2 15  1  0  0  0  0
  2 23  1  0  0  0  0
  3  4  2  0  0  0  0
  3  5  1  0  0  0  0
  5  6  1  0  0  0  0
  5 24  1  0  0  0  0
  6 14  1  0  0  0  0
  6  7  1  0  0  0  0
  6 10  1  0  0  0  0
  7  8  2  0  0  0  0
  7  9  1  0  0  0  0
 10 11  1  0  0  0  0
 10 25  1  0  0  0  0
 10 26  1  0  0  0  0
 11 12  1  0  0  0  0
 11 27  1  0  0  0  0
 11 28  1  0  0  0  0
 12 13  1  0  0  0  0
 12 29  1  0  0  0  0
 12 30  1  0  0  0  0
 13 14  1  0  0  0  0
 13 31  1  0  0  0  0
 13 32  1  0  0  0  0
 14 33  1  0  0  0  0
 14 34  1  0  0  0  0
 15 19  1  0  0  0  0
 15 16  1  0  0  0  0
 16 17  2  0  0  0  0
 16 35  1  0  0  0  0
 17 18  1  0  0  0  0
 17 36  1  0  0  0  0
 18 19  2  0  0  0  0
 18 37  1  0  0  0  0
M  CHG  1   9  -1
M  END
> <s_m_source_file>
AV-unprocessed.smi

> <i_m_source_file_index>
777

> <i_lp_mmshare_version>
43012

> <i_f3d_flags>
0

> <s_epik_input>
bjFbY0hdW2NIXVtjSF1uMVtDQEhdKFtDSDNdKUMoPU8pW05IXUMyKEMoPU8pW09IXSlbQ0gyXVtDSDJdW0NIMl1bQ0gyXVtDSDJdMg==

> <s_epik_cmdline>
J2VwaWtfcHl0aG9uJywgJy1waCcsICc3LjAnLCAnLXRuJywgJzgnLCAnLW1hJywgJzIwMCcsICctbWV0YWxfYmluZGluZycsICctaW1hZScsICc8aW5maWxlLm1hZT4nLCAnLW9tYWUnLCAnPG91dGZpbGUubWFlPic=

> <r_lp_tautomer_probability>
1

> <r_epik_Ionization_Penalty>
0.000371068

> <r_epik_Ionization_Penalty_Charging>
0.000323848

> <r_epik_Ionization_Penalty_Neutral>
4.72198e-05

> <r_epik_State_Penalty>
0.000195685

> <r_epik_Charging_Adjusted_Penalty>
0.000519533

> <i_epik_Tot_Q>
-1

> <i_epik_Tot_abs_Q>
1

> <r_epik_Metal_State_Penalty>
-0

> <b_epik_Metal_Only>
0

> <s_lp_Force_Field>
OPLS_2005

> <r_lp_Energy>
8.44032

> <b_lp_Chiralities_Consistent>
1

> <s_lp_Variant>
AV-unprocessed.smi:777-1

> <Gold.Version>
5.8.1

> <Gold.Id.Protein>
6NUR|6NUR_protein|mol2

> <Gold.PLP.Fitness>
41.0451

> <Gold.PLP.PLP>
-33.6952

> <Gold.PLP.part.hbond>
-2.6851

> <Gold.PLP.part.metal>
0.0000

> <Gold.PLP.part.buried>
-2.0197

> <Gold.PLP.part.nonpolar>
-29.5957

> <Gold.PLP.part.repulsive>
0.1512

> <Gold.PLP.ligand.clash>
0.0000

> <Gold.PLP.ligand.torsion>
0.7955

> <Gold.PLP.Chemscore.Hbond>
2.9265

> <Gold.PLP.Chemscore.CHOScore>
0.0000

> <Gold.PLP.Chemscore.Metal>
0.0000

> <Gold.Chemscore.Hbonds>
donor molecule, donor type, donor heavy atom, donor atom, acceptor molecule, acceptor atom, score
      P1  H  6896  6907       L1     8  1.92
      P1  H  7997  8009       L1     4  0.99

> <Gold.PLP.Chemscore.Internal.Correction>
0.1614

> <Gold.Rescore>
     Score         DG    S(hbond)    S(metal)    S(lipo)     H(rot)  DE(clash)    DE(int)     intcor
     11.84     -16.82       1.95        0.00      84.57       1.98       0.09       4.88       ----

> <Gold.Chemscore.Fitness>
11.8388

> <Gold.Chemscore.DG>
-16.8151

> <Gold.Chemscore.ZeroCoef>
-5.4800

> <Gold.Chemscore.Hbond>
1.9468

> <Gold.Chemscore.Metal>
0.0000

> <Gold.Chemscore.Lipo>
84.5714

> <Gold.Chemscore.Internal_Hbond>
0.0000

> <Gold.Chemscore.DEClash>
0.0933

> <Gold.Chemscore.DEInternal>
4.8830

> <Gold.Chemscore.Rot>
1.9774

> <Gold.Chemscore.Internal.Correction>
   9.000000E+99

> <Gold.Chemscore.Hbonds>
donor molecule, donor type, donor heavy atom, donor atom, acceptor molecule, acceptor atom, score
      P1  H  6896  6907       L1     8  0.41
      P1  H  7997  8009       L1     4  0.94

> <Gold.Chemscore.Hbond.Weighted>
-6.5023

> <Gold.Chemscore.Metal.Weighted>
-0.0000

> <Gold.Chemscore.Lipo.Weighted>
-9.8948

> <Gold.Chemscore.Internal_Hbond.Weighted>
0.0000

> <Gold.Chemscore.DEClash.Weighted>
0.0933

> <Gold.Chemscore.DEInternal.Weighted>
4.8830

> <Gold.Chemscore.Rot.Weighted>
5.0620

> <Gold.Chemscore.Internal.Correction.Weighted>
   9.000000E+99

> <Gold.Protein.RotatedTorsions>
[ 6907 6896 6895 6894 ] final   -5.08 input  -60.11 | X-H torsion
[ 7974 7965 7964 7962 ] final  156.25 input  175.53 | X-H torsion
[ 8008 7997 7996 7995 ] final  150.23 input   59.86 | X-H torsion
[ 10167 10162 10161 10158 ] final  -41.00 input  -65.29 | X-H torsion
[ 10718 10713 10712 10709 ] final  142.80 input   66.30 | X-H torsion
[ 10763 10752 10751 10750 ] final -168.54 input  -60.55 | X-H torsion
[ 11005 11000 10999 10996 ] final  -88.92 input  -57.11 | X-H torsion

> <Gold.Protein.ActiveResidues>
 VAL166  LYS551  ARG553  GLY616  TRP617  ASP618  TYR619  PRO620  LYS621  CYS622 
 ASP623  PHE694  ASN695  SER759  ASP760  ASP761  ALA762  ILE779  LEU786  VAL792 
 PHE793  MET794  SER795  GLU796  ALA797  LYS798  CYS799  TRP800  GLU811  SER814 

> <Gold.Protein.RotatedAtoms>
  151.4873  135.1055  159.9793 H   0  0  0  0  0  0  0  0  0  0  0  0  # atno 6907 bound_to 6896
  152.4755  133.8124  159.7021 H   0  0  0  0  0  0  0  0  0  0  0  0  # atno 6908 bound_to 6896
  150.8790  133.7336  159.2964 H   0  0  0  0  0  0  0  0  0  0  0  0  # atno 6909 bound_to 6896
  144.7975  139.7178  143.6196 H   0  0  0  0  0  0  0  0  0  0  0  0  # atno 7974 bound_to 7965
  156.2724  140.2080  156.5984 H   0  0  0  0  0  0  0  0  0  0  0  0  # atno 8008 bound_to 7997
  154.6926  140.0528  157.0403 H   0  0  0  0  0  0  0  0  0  0  0  0  # atno 8009 bound_to 7997
  155.0845  140.3190  155.4595 H   0  0  0  0  0  0  0  0  0  0  0  0  # atno 8010 bound_to 7997
  140.7016  143.3120  151.3004 H   0  0  0  0  0  0  0  0  0  0  0  0  # atno 10167 bound_to 10162
  157.3764  131.0986  151.0780 H   0  0  0  0  0  0  0  0  0  0  0  0  # atno 10718 bound_to 10713
  154.6618  135.2926  154.9857 H   0  0  0  0  0  0  0  0  0  0  0  0  # atno 10763 bound_to 10752
  154.0914  135.6590  153.4857 H   0  0  0  0  0  0  0  0  0  0  0  0  # atno 10764 bound_to 10752
  153.0434  135.5221  154.7572 H   0  0  0  0  0  0  0  0  0  0  0  0  # atno 10765 bound_to 10752
  141.1594  133.7598  156.9520 H   0  0  0  0  0  0  0  0  0  0  0  0  # atno 11005 bound_to 11000
  146.2247  139.5700  142.9595 LP  0  0  0  0  0  0  0  0  0  0  0  0  # atno 17320 bound_to 7965
  145.5637  141.0401  143.2212 LP  0  0  0  0  0  0  0  0  0  0  0  0  # atno 17321 bound_to 7965
  139.6546  144.0300  152.2650 LP  0  0  0  0  0  0  0  0  0  0  0  0  # atno 17342 bound_to 10162
  139.9847  144.6404  150.7868 LP  0  0  0  0  0  0  0  0  0  0  0  0  # atno 17343 bound_to 10162
  157.1865  130.6333  149.5690 LP  0  0  0  0  0  0  0  0  0  0  0  0  # atno 17370 bound_to 10713
  155.9766  130.4736  150.6539 LP  0  0  0  0  0  0  0  0  0  0  0  0  # atno 17371 bound_to 10713
  140.1251  134.9392  157.2258 LP  0  0  0  0  0  0  0  0  0  0  0  0  # atno 17394 bound_to 11000
  140.3023  134.3117  155.7286 LP  0  0  0  0  0  0  0  0  0  0  0  0  # atno 17395 bound_to 11000

$$$$
