AV-unprocessed.smi:2837|AV-procd|sdf|10923|dock2
  -GOLD-   2272015373D 1   1.00000     0.00000
 Structure written by MMmdl.
 32 34  0  0  0  0  0  0  0  0  1 V2000
  153.4599  142.5292  163.2367 F   0  0  0  0  0  0  0  0  0  0  0  0
  152.7677  142.7170  162.0863 C   0  0  0  0  0  0  0  0  0  0  0  0
  152.8572  144.0305  161.7661 F   0  0  0  0  0  0  0  0  0  0  0  0
  153.2953  141.9631  161.0854 O   0  0  0  0  0  0  0  0  0  0  0  0
  152.7399  142.0287  159.8275 C   0  0  0  0  0  0  0  0  0  0  0  0
  153.0216  143.0553  158.8956 C   0  0  0  0  0  0  0  0  0  0  0  0
  152.3847  143.0338  157.6402 C   0  0  0  0  0  0  0  0  0  0  0  0
  151.4786  141.9923  157.3537 C   0  0  0  0  0  0  0  0  0  0  0  0
  150.8498  141.9777  156.1005 N   0  0  0  0  0  0  0  0  0  0  0  0
  149.8267  140.9898  155.7752 C   0  0  1  0  0  0  0  0  0  0  0  0
  148.5875  141.6029  155.1100 C   0  0  0  0  0  0  0  0  0  0  0  0
  148.5033  140.8078  153.8013 C   0  0  2  0  0  0  0  0  0  0  0  0
  148.1150  139.3414  154.0346 C   0  0  0  0  0  0  0  0  0  0  0  0
  149.4004  138.7696  154.6317 C   0  0  0  0  0  0  0  0  0  0  0  0
  150.3023  140.0102  154.6886 C   0  0  1  0  0  0  0  0  0  0  0  0
  149.8817  140.6707  153.5056 O   0  0  0  0  0  0  0  0  0  0  0  0
  151.1982  141.0111  158.2432 N   0  0  0  0  0  0  0  0  0  0  0  0
  151.8116  141.0390  159.4456 C   0  0  0  0  0  0  0  0  0  0  0  0
  151.7153  142.4862  162.2530 H   0  0  0  0  0  0  0  0  0  0  0  0
  153.7080  143.8556  159.1286 H   0  0  0  0  0  0  0  0  0  0  0  0
  152.5875  143.8078  156.9145 H   0  0  0  0  0  0  0  0  0  0  0  0
  150.9677  142.7648  155.4790 H   0  0  0  0  0  0  0  0  0  0  0  0
  149.5633  140.4373  156.6783 H   0  0  0  0  0  0  0  0  0  0  0  0
  147.6895  141.4988  155.7197 H   0  0  0  0  0  0  0  0  0  0  0  0
  148.7280  142.6636  154.8958 H   0  0  0  0  0  0  0  0  0  0  0  0
  147.9237  141.3014  153.0208 H   0  0  0  0  0  0  0  0  0  0  0  0
  147.2565  139.2415  154.6994 H   0  0  0  0  0  0  0  0  0  0  0  0
  147.8784  138.8464  153.0922 H   0  0  0  0  0  0  0  0  0  0  0  0
  149.2488  138.3169  155.6120 H   0  0  0  0  0  0  0  0  0  0  0  0
  149.8255  138.0145  153.9694 H   0  0  0  0  0  0  0  0  0  0  0  0
  151.3663  139.7737  154.7247 H   0  0  0  0  0  0  0  0  0  0  0  0
  151.5552  140.2413  160.1271 H   0  0  0  0  0  0  0  0  0  0  0  0
  1  2  1  0  0  0  0
  2  3  1  0  0  0  0
  2  4  1  0  0  0  0
  2 19  1  0  0  0  0
  4  5  1  0  0  0  0
  5 18  1  0  0  0  0
  5  6  2  0  0  0  0
  6  7  1  0  0  0  0
  6 20  1  0  0  0  0
  7  8  2  0  0  0  0
  7 21  1  0  0  0  0
  8  9  1  0  0  0  0
  8 17  1  0  0  0  0
  9 10  1  0  0  0  0
  9 22  1  0  0  0  0
 10 15  1  0  0  0  0
 10 11  1  0  0  0  0
 10 23  1  0  0  0  0
 11 12  1  0  0  0  0
 11 24  1  0  0  0  0
 11 25  1  0  0  0  0
 12 16  1  0  0  0  0
 12 13  1  0  0  0  0
 12 26  1  0  0  0  0
 13 14  1  0  0  0  0
 13 27  1  0  0  0  0
 13 28  1  0  0  0  0
 14 15  1  0  0  0  0
 14 29  1  0  0  0  0
 14 30  1  0  0  0  0
 15 16  1  0  0  0  0
 15 31  1  0  0  0  0
 17 18  2  0  0  0  0
 18 32  1  0  0  0  0
M  END
> <s_m_source_file>
AV-unprocessed.smi

> <i_m_source_file_index>
2837

> <i_lp_mmshare_version>
43012

> <i_f3d_flags>
0

> <s_epik_input>
RltDSF0oRilPYzFbY0hdW2NIXWMobltjSF0xKVtOSF1bQ0BIXShbQ0gyXVtDQEBIXTIzKVtDQEBIXShPMylbQ0gyXVtDSDJdMg==

> <s_epik_cmdline>
J2VwaWtfcHl0aG9uJywgJy1waCcsICc3LjAnLCAnLXRuJywgJzgnLCAnLW1hJywgJzIwMCcsICctbWV0YWxfYmluZGluZycsICctaW1hZScsICc8aW5maWxlLm1hZT4nLCAnLW9tYWUnLCAnPG91dGZpbGUubWFlPic=

> <r_lp_tautomer_probability>
1

> <r_epik_Ionization_Penalty>
0.0124072

> <r_epik_Ionization_Penalty_Charging>
0

> <r_epik_Ionization_Penalty_Neutral>
0.0124072

> <r_epik_State_Penalty>
0.00959565

> <r_epik_Charging_Adjusted_Penalty>
0.00959565

> <i_epik_Tot_Q>
0

> <i_epik_Tot_abs_Q>
0

> <r_epik_Metal_State_Penalty>
9.67369e-06

> <b_epik_Metal_Only>
0

> <s_lp_Force_Field>
OPLS_2005

> <r_lp_Energy>
39.7128

> <b_lp_Chiralities_Consistent>
1

> <s_lp_Variant>
AV-unprocessed.smi:2837-4

> <Gold.Version>
5.8.1

> <Gold.Id.Protein>
6NUR|6NUR_protein|mol2

> <Gold.PLP.Fitness>
47.2030

> <Gold.PLP.PLP>
-42.5517

> <Gold.PLP.part.hbond>
-3.0000

> <Gold.PLP.part.metal>
0.0000

> <Gold.PLP.part.buried>
-3.8683

> <Gold.PLP.part.nonpolar>
-36.5672

> <Gold.PLP.part.repulsive>
2.4098

> <Gold.PLP.ligand.clash>
0.0000

> <Gold.PLP.ligand.torsion>
0.4221

> <Gold.PLP.Chemscore.Hbond>
1.8240

> <Gold.PLP.Chemscore.CHOScore>
0.0000

> <Gold.PLP.Chemscore.Metal>
0.0000

> <Gold.Chemscore.Hbonds>
donor molecule, donor type, donor heavy atom, donor atom, acceptor molecule, acceptor atom, score
      P1  H  8011  8017       L1    16  0.41

> <Gold.PLP.Chemscore.Internal.Correction>
0.0236

> <Gold.Rescore>
     Score         DG    S(hbond)    S(metal)    S(lipo)     H(rot)  DE(clash)    DE(int)     intcor
     17.32     -18.10       1.84        0.00      84.13       1.32       0.21       0.56       ----

> <Gold.Chemscore.Fitness>
17.3243

> <Gold.Chemscore.DG>
-18.0996

> <Gold.Chemscore.ZeroCoef>
-5.4800

> <Gold.Chemscore.Hbond>
1.8439

> <Gold.Chemscore.Metal>
0.0000

> <Gold.Chemscore.Lipo>
84.1337

> <Gold.Chemscore.Internal_Hbond>
0.0000

> <Gold.Chemscore.DEClash>
0.2132

> <Gold.Chemscore.DEInternal>
0.5622

> <Gold.Chemscore.Rot>
1.3213

> <Gold.Chemscore.Internal.Correction>
   9.000000E+99

> <Gold.Chemscore.Hbonds>
donor molecule, donor type, donor heavy atom, donor atom, acceptor molecule, acceptor atom, score
      P1  H  8011  8017       L1    16  0.02

> <Gold.Chemscore.Hbond.Weighted>
-6.1585

> <Gold.Chemscore.Metal.Weighted>
-0.0000

> <Gold.Chemscore.Lipo.Weighted>
-9.8436

> <Gold.Chemscore.Internal_Hbond.Weighted>
0.0000

> <Gold.Chemscore.DEClash.Weighted>
0.2132

> <Gold.Chemscore.DEInternal.Weighted>
0.5622

> <Gold.Chemscore.Rot.Weighted>
3.3825

> <Gold.Chemscore.Internal.Correction.Weighted>
   9.000000E+99

> <Gold.Protein.RotatedTorsions>
[ 6907 6896 6895 6894 ] final   80.31 input  -60.11 | X-H torsion
[ 7974 7965 7964 7962 ] final  -35.63 input  175.53 | X-H torsion
[ 8008 7997 7996 7995 ] final -149.79 input   59.86 | X-H torsion
[ 10167 10162 10161 10158 ] final  -78.46 input  -65.29 | X-H torsion
[ 10718 10713 10712 10709 ] final -170.42 input   66.30 | X-H torsion
[ 10763 10752 10751 10750 ] final -108.70 input  -60.55 | X-H torsion
[ 11005 11000 10999 10996 ] final  -57.01 input  -57.11 | X-H torsion

> <Gold.Protein.ActiveResidues>
 VAL166  LYS551  ARG553  GLY616  TRP617  ASP618  TYR619  PRO620  LYS621  CYS622 
 ASP623  PHE694  ASN695  SER759  ASP760  ASP761  ALA762  ILE779  LEU786  VAL792 
 PHE793  MET794  SER795  GLU796  ALA797  LYS798  CYS799  TRP800  GLU811  SER814 

> <Gold.Protein.RotatedAtoms>
  152.5230  134.3376  159.9205 H   0  0  0  0  0  0  0  0  0  0  0  0  # atno 6907 bound_to 6896
  151.3326  133.3988  159.2671 H   0  0  0  0  0  0  0  0  0  0  0  0  # atno 6908 bound_to 6896
  150.9868  134.9229  159.7934 H   0  0  0  0  0  0  0  0  0  0  0  0  # atno 6909 bound_to 6896
  146.0730  140.6182  142.8944 H   0  0  0  0  0  0  0  0  0  0  0  0  # atno 7974 bound_to 7965
  155.6132  140.0674  157.2700 H   0  0  0  0  0  0  0  0  0  0  0  0  # atno 8008 bound_to 7997
  154.4248  140.1797  156.1342 H   0  0  0  0  0  0  0  0  0  0  0  0  # atno 8009 bound_to 7997
  156.0068  140.3330  155.6904 H   0  0  0  0  0  0  0  0  0  0  0  0  # atno 8010 bound_to 7997
  140.4680  143.2434  151.8249 H   0  0  0  0  0  0  0  0  0  0  0  0  # atno 10167 bound_to 10162
  156.7260  130.9288  151.3101 H   0  0  0  0  0  0  0  0  0  0  0  0  # atno 10718 bound_to 10713
  154.8150  135.4628  154.0620 H   0  0  0  0  0  0  0  0  0  0  0  0  # atno 10763 bound_to 10752
  153.2020  135.6870  153.8227 H   0  0  0  0  0  0  0  0  0  0  0  0  # atno 10764 bound_to 10752
  153.7708  135.3270  155.3328 H   0  0  0  0  0  0  0  0  0  0  0  0  # atno 10765 bound_to 10752
  141.1146  133.6610  156.4706 H   0  0  0  0  0  0  0  0  0  0  0  0  # atno 11005 bound_to 11000
  144.7243  140.4476  143.6984 LP  0  0  0  0  0  0  0  0  0  0  0  0  # atno 17320 bound_to 7965
  145.6357  139.1542  143.2944 LP  0  0  0  0  0  0  0  0  0  0  0  0  # atno 17321 bound_to 7965
  139.4814  144.4927  151.9164 LP  0  0  0  0  0  0  0  0  0  0  0  0  # atno 17342 bound_to 10162
  140.4012  144.2490  150.5893 LP  0  0  0  0  0  0  0  0  0  0  0  0  # atno 17343 bound_to 10162
  157.6878  130.9203  150.0434 LP  0  0  0  0  0  0  0  0  0  0  0  0  # atno 17370 bound_to 10713
  156.1562  130.3643  149.9366 LP  0  0  0  0  0  0  0  0  0  0  0  0  # atno 17371 bound_to 10713
  140.4682  134.6778  157.5117 LP  0  0  0  0  0  0  0  0  0  0  0  0  # atno 17394 bound_to 11000
  140.0060  134.6763  155.9455 LP  0  0  0  0  0  0  0  0  0  0  0  0  # atno 17395 bound_to 11000

$$$$
