AV-unprocessed.smi:1065|AV-procd|sdf|4666|dock10
  -GOLD-   22720 3183D 1   1.00000     0.00000
 Structure written by MMmdl.
 39 40  0  0  0  0  0  0  0  0  1 V2000
  152.9716  142.5388  162.5200 C   0  0  0  0  0  0  0  0  0  0  0  0
  152.5053  143.5543  161.4674 C   0  0  0  0  0  0  0  0  0  0  0  0
  152.5287  143.0188  160.0210 C   0  0  2  0  0  0  0  0  0  0  0  0
  151.4183  143.6737  159.1759 C   0  0  0  0  0  0  0  0  0  0  0  0
  151.4238  143.1645  157.7254 C   0  0  0  0  0  0  0  0  0  0  0  0
  151.2919  141.6278  157.6610 C   0  0  1  0  0  0  0  0  0  0  0  0
  151.3129  141.0913  156.2168 C   0  0  0  0  0  0  0  0  0  0  0  0
  151.3343  139.6351  156.1878 N   0  0  0  0  0  0  0  0  0  0  0  0
  151.0718  138.8917  155.1036 C   0  0  0  0  0  0  0  0  0  0  0  0
  150.8059  139.3695  154.0011 O   0  0  0  0  0  0  0  0  0  0  0  0
  151.1083  137.3754  155.2923 C   0  0  0  0  0  0  0  0  0  0  0  0
  151.3987  137.0342  156.6720 N   0  0  0  0  0  0  0  0  0  0  0  0
  150.6735  137.1816  157.7825 C   0  0  0  0  0  0  0  0  0  0  0  0
  151.3238  136.7479  158.8517 N   0  0  0  0  0  0  0  0  0  0  0  0
  152.5303  136.3102  158.3307 N   0  0  0  0  0  0  0  0  0  0  0  0
  152.5808  136.4778  157.0377 N   0  0  0  0  0  0  0  0  0  0  0  0
  152.4001  140.9714  158.5059 C   0  0  0  0  0  0  0  0  0  0  0  0
  152.3949  141.4827  159.9556 C   0  0  0  0  0  0  0  0  0  0  0  0
  153.0116  142.9995  163.5072 H   0  0  0  0  0  0  0  0  0  0  0  0
  153.9686  142.1618  162.2907 H   0  0  0  0  0  0  0  0  0  0  0  0
  152.2954  141.6871  162.5870 H   0  0  0  0  0  0  0  0  0  0  0  0
  151.5038  143.9058  161.7181 H   0  0  0  0  0  0  0  0  0  0  0  0
  153.1554  144.4277  161.5326 H   0  0  0  0  0  0  0  0  0  0  0  0
  153.4864  143.2959  159.5776 H   0  0  0  0  0  0  0  0  0  0  0  0
  150.4453  143.4724  159.6264 H   0  0  0  0  0  0  0  0  0  0  0  0
  151.5382  144.7576  159.1772 H   0  0  0  0  0  0  0  0  0  0  0  0
  150.6091  143.6414  157.1797 H   0  0  0  0  0  0  0  0  0  0  0  0
  152.3462  143.4765  157.2335 H   0  0  0  0  0  0  0  0  0  0  0  0
  150.3324  141.3538  158.1028 H   0  0  0  0  0  0  0  0  0  0  0  0
  150.4398  141.4516  155.6699 H   0  0  0  0  0  0  0  0  0  0  0  0
  152.1941  141.4661  155.6935 H   0  0  0  0  0  0  0  0  0  0  0  0
  151.5405  139.1612  157.0557 H   0  0  0  0  0  0  0  0  0  0  0  0
  150.1460  136.9406  155.0187 H   0  0  0  0  0  0  0  0  0  0  0  0
  151.8613  136.9306  154.6398 H   0  0  0  0  0  0  0  0  0  0  0  0
  149.6807  137.6063  157.8072 H   0  0  0  0  0  0  0  0  0  0  0  0
  152.2773  139.8877  158.5040 H   0  0  0  0  0  0  0  0  0  0  0  0
  153.3736  141.1705  158.0557 H   0  0  0  0  0  0  0  0  0  0  0  0
  153.2109  141.0056  160.4979 H   0  0  0  0  0  0  0  0  0  0  0  0
  151.4731  141.1706  160.4482 H   0  0  0  0  0  0  0  0  0  0  0  0
  1  2  1  0  0  0  0
  1 19  1  0  0  0  0
  1 20  1  0  0  0  0
  1 21  1  0  0  0  0
  2  3  1  0  0  0  0
  2 22  1  0  0  0  0
  2 23  1  0  0  0  0
  3 18  1  0  0  0  0
  3  4  1  0  0  0  0
  3 24  1  0  0  0  0
  4  5  1  0  0  0  0
  4 25  1  0  0  0  0
  4 26  1  0  0  0  0
  5  6  1  0  0  0  0
  5 27  1  0  0  0  0
  5 28  1  0  0  0  0
  6  7  1  0  0  0  0
  6 17  1  0  0  0  0
  6 29  1  0  0  0  0
  7  8  1  0  0  0  0
  7 30  1  0  0  0  0
  7 31  1  0  0  0  0
  8  9  1  0  0  0  0
  8 32  1  0  0  0  0
  9 10  2  0  0  0  0
  9 11  1  0  0  0  0
 11 12  1  0  0  0  0
 11 33  1  0  0  0  0
 11 34  1  0  0  0  0
 12 16  1  0  0  0  0
 12 13  1  0  0  0  0
 13 14  2  0  0  0  0
 13 35  1  0  0  0  0
 14 15  1  0  0  0  0
 15 16  2  0  0  0  0
 17 18  1  0  0  0  0
 17 36  1  0  0  0  0
 17 37  1  0  0  0  0
 18 38  1  0  0  0  0
 18 39  1  0  0  0  0
M  END
> <s_m_source_file>
AV-unprocessed.smi

> <i_m_source_file_index>
1065

> <i_lp_mmshare_version>
43012

> <i_f3d_flags>
0

> <s_epik_input>
W0NIM11bQ0gyXVtDQEBIXTFbQ0gyXVtDSDJdW0NASF0oW0NIMl1bQ0gyXTEpW0NIMl1bTkhdQyg9TylbQ0gyXW4yW2NIXW5ubjI=

> <s_epik_cmdline>
J2VwaWtfcHl0aG9uJywgJy1waCcsICc3LjAnLCAnLXRuJywgJzgnLCAnLW1hJywgJzIwMCcsICctbWV0YWxfYmluZGluZycsICctaW1hZScsICc8aW5maWxlLm1hZT4nLCAnLW9tYWUnLCAnPG91dGZpbGUubWFlPic=

> <r_lp_tautomer_probability>
1

> <r_epik_Ionization_Penalty>
4.54759e-07

> <r_epik_Ionization_Penalty_Charging>
0

> <r_epik_Ionization_Penalty_Neutral>
4.54759e-07

> <r_epik_State_Penalty>
-0

> <r_epik_Charging_Adjusted_Penalty>
0

> <i_epik_Tot_Q>
0

> <i_epik_Tot_abs_Q>
0

> <r_epik_Metal_State_Penalty>
-0

> <b_epik_Metal_Only>
0

> <s_lp_Force_Field>
OPLS_2005

> <r_lp_Energy>
13.9446

> <b_lp_Chiralities_Consistent>
1

> <s_lp_Variant>
AV-unprocessed.smi:1065-1

> <Gold.Version>
5.8.1

> <Gold.Id.Protein>
6NUR|6NUR_protein|mol2

> <Gold.PLP.Fitness>
44.0564

> <Gold.PLP.PLP>
-36.9277

> <Gold.PLP.part.hbond>
-3.1191

> <Gold.PLP.part.metal>
0.0000

> <Gold.PLP.part.buried>
-5.0927

> <Gold.PLP.part.nonpolar>
-28.5994

> <Gold.PLP.part.repulsive>
0.3036

> <Gold.PLP.ligand.clash>
0.0027

> <Gold.PLP.ligand.torsion>
0.6398

> <Gold.PLP.Chemscore.Hbond>
2.8000

> <Gold.PLP.Chemscore.CHOScore>
0.0000

> <Gold.PLP.Chemscore.Metal>
0.0000

> <Gold.Chemscore.Hbonds>
donor molecule, donor type, donor heavy atom, donor atom, acceptor molecule, acceptor atom, score
      P1  H  6896  6909       L1    14  0.08
      P1  H  7989  7998       L1    10  1.00
      P1  H 10752 10765       L1    16  0.52

> <Gold.PLP.Chemscore.Internal.Correction>
0.0109

> <Gold.Rescore>
     Score         DG    S(hbond)    S(metal)    S(lipo)     H(rot)  DE(clash)    DE(int)     intcor
     15.88     -17.69       2.30        0.00      92.23       2.45       0.01       1.81       ----

> <Gold.Chemscore.Fitness>
15.8752

> <Gold.Chemscore.DG>
-17.6930

> <Gold.Chemscore.ZeroCoef>
-5.4800

> <Gold.Chemscore.Hbond>
2.3045

> <Gold.Chemscore.Metal>
0.0000

> <Gold.Chemscore.Lipo>
92.2320

> <Gold.Chemscore.Internal_Hbond>
0.0000

> <Gold.Chemscore.DEClash>
0.0057

> <Gold.Chemscore.DEInternal>
1.8122

> <Gold.Chemscore.Rot>
2.4512

> <Gold.Chemscore.Internal.Correction>
   9.000000E+99

> <Gold.Chemscore.Hbonds>
donor molecule, donor type, donor heavy atom, donor atom, acceptor molecule, acceptor atom, score
      P1  H  7989  7998       L1    10  0.96
      P1  H 10752 10765       L1    16  0.34

> <Gold.Chemscore.Hbond.Weighted>
-7.6969

> <Gold.Chemscore.Metal.Weighted>
-0.0000

> <Gold.Chemscore.Lipo.Weighted>
-10.7911

> <Gold.Chemscore.Internal_Hbond.Weighted>
0.0000

> <Gold.Chemscore.DEClash.Weighted>
0.0057

> <Gold.Chemscore.DEInternal.Weighted>
1.8122

> <Gold.Chemscore.Rot.Weighted>
6.2750

> <Gold.Chemscore.Internal.Correction.Weighted>
   9.000000E+99

> <Gold.Protein.RotatedTorsions>
[ 6907 6896 6895 6894 ] final  119.22 input  -60.11 | X-H torsion
[ 7974 7965 7964 7962 ] final  140.04 input  175.53 | X-H torsion
[ 8008 7997 7996 7995 ] final -116.15 input   59.86 | X-H torsion
[ 10167 10162 10161 10158 ] final  125.75 input  -65.29 | X-H torsion
[ 10718 10713 10712 10709 ] final   70.18 input   66.30 | X-H torsion
[ 10763 10752 10751 10750 ] final -129.45 input  -60.55 | X-H torsion
[ 11005 11000 10999 10996 ] final  -10.41 input  -57.11 | X-H torsion

> <Gold.Protein.ActiveResidues>
 VAL166  LYS551  ARG553  GLY616  TRP617  ASP618  TYR619  PRO620  LYS621  CYS622 
 ASP623  PHE694  ASN695  SER759  ASP760  ASP761  ALA762  ILE779  LEU786  VAL792 
 PHE793  MET794  SER795  GLU796  ALA797  LYS798  CYS799  TRP800  GLU811  SER814 

> <Gold.Protein.RotatedAtoms>
  152.4487  133.7587  159.6734 H   0  0  0  0  0  0  0  0  0  0  0  0  # atno 6907 bound_to 6896
  150.8393  133.7951  159.3073 H   0  0  0  0  0  0  0  0  0  0  0  0  # atno 6908 bound_to 6896
  151.5581  135.1069  160.0018 H   0  0  0  0  0  0  0  0  0  0  0  0  # atno 6909 bound_to 6896
  144.9223  139.5152  143.5657 H   0  0  0  0  0  0  0  0  0  0  0  0  # atno 7974 bound_to 7965
  155.0633  140.0393  157.2584 H   0  0  0  0  0  0  0  0  0  0  0  0  # atno 8008 bound_to 7997
  154.7042  140.2679  155.6666 H   0  0  0  0  0  0  0  0  0  0  0  0  # atno 8009 bound_to 7997
  156.2770  140.2734  156.1663 H   0  0  0  0  0  0  0  0  0  0  0  0  # atno 8010 bound_to 7997
  139.5668  144.6916  151.3887 H   0  0  0  0  0  0  0  0  0  0  0  0  # atno 10167 bound_to 10162
  157.6386  130.9464  150.0615 H   0  0  0  0  0  0  0  0  0  0  0  0  # atno 10718 bound_to 10713
  154.8757  135.3895  154.3921 H   0  0  0  0  0  0  0  0  0  0  0  0  # atno 10763 bound_to 10752
  153.4656  135.7029  153.6029 H   0  0  0  0  0  0  0  0  0  0  0  0  # atno 10764 bound_to 10752
  153.4509  135.3834  155.2251 H   0  0  0  0  0  0  0  0  0  0  0  0  # atno 10765 bound_to 10752
  140.7444  133.8643  155.8994 H   0  0  0  0  0  0  0  0  0  0  0  0  # atno 11005 bound_to 11000
  146.3210  139.8111  142.8945 LP  0  0  0  0  0  0  0  0  0  0  0  0  # atno 17320 bound_to 7965
  145.3276  141.0259  143.3465 LP  0  0  0  0  0  0  0  0  0  0  0  0  # atno 17321 bound_to 7965
  140.6952  143.7766  150.7315 LP  0  0  0  0  0  0  0  0  0  0  0  0  # atno 17342 bound_to 10162
  140.1260  143.4568  152.2283 LP  0  0  0  0  0  0  0  0  0  0  0  0  # atno 17343 bound_to 10162
  156.1646  130.3644  149.9250 LP  0  0  0  0  0  0  0  0  0  0  0  0  # atno 17370 bound_to 10713
  156.7240  130.9018  151.3620 LP  0  0  0  0  0  0  0  0  0  0  0  0  # atno 17371 bound_to 10713
  140.9807  134.1409  157.4496 LP  0  0  0  0  0  0  0  0  0  0  0  0  # atno 17394 bound_to 11000
  139.8799  135.0009  156.6040 LP  0  0  0  0  0  0  0  0  0  0  0  0  # atno 17395 bound_to 11000

$$$$
