AV-unprocessed.smi:72|AV-procd|sdf|691|dock1
  -GOLD-   2262017 03D 1   1.00000     0.00000
 Structure written by MMmdl.
 29 30  0  0  0  0  0  0  0  0  1 V2000
  153.7108  138.5998  157.5513 N   0  0  0  0  0  0  0  0  0  0  0  0
  152.4914  138.9531  157.3538 C   0  0  0  0  0  0  0  0  0  0  0  0
  151.5493  139.2180  158.3594 N   0  0  0  0  0  0  0  0  0  0  0  0
  150.3518  139.5744  158.0093 C   0  0  0  0  0  0  0  0  0  0  0  0
  149.9577  139.7053  156.6149 N   0  0  0  0  0  0  0  0  0  0  0  0
  148.5513  140.1220  156.2381 C   0  0  2  0  0  0  0  0  0  0  0  0
  148.0707  139.2506  155.2592 O   0  0  0  0  0  0  0  0  0  0  0  0
  147.3070  139.9840  154.3080 C   0  0  2  0  0  0  0  0  0  0  0  0
  147.1804  139.2119  152.9827 C   0  0  0  0  0  0  0  0  0  0  0  0
  148.3603  138.4778  152.7333 O   0  0  0  0  0  0  0  0  0  0  0  0
  148.0464  141.3276  154.2259 C   0  0  2  0  0  0  0  0  0  0  0  0
  149.1553  141.2448  153.3454 O   0  0  0  0  0  0  0  0  0  0  0  0
  148.4670  141.5571  155.6751 C   0  0  2  0  0  0  0  0  0  0  0  0
  149.6402  142.3433  155.8024 O   0  0  0  0  0  0  0  0  0  0  0  0
  150.8928  139.4275  155.5878 C   0  0  0  0  0  0  0  0  0  0  0  0
  150.6081  139.4999  154.3927 O   0  0  0  0  0  0  0  0  0  0  0  0
  152.1253  139.0672  156.0064 N   0  0  0  0  0  0  0  0  0  0  0  0
  147.9362  139.9900  157.1293 H   0  0  0  0  0  0  0  0  0  0  0  0
  146.3170  140.1687  154.7301 H   0  0  0  0  0  0  0  0  0  0  0  0
  147.3920  142.1230  153.8678 H   0  0  0  0  0  0  0  0  0  0  0  0
  147.6575  142.0605  156.2054 H   0  0  0  0  0  0  0  0  0  0  0  0
  153.8983  138.5395  158.5420 H   0  0  0  0  0  0  0  0  0  0  0  0
  149.5666  139.7955  158.7332 H   0  0  0  0  0  0  0  0  0  0  0  0
  146.3595  138.4967  153.0420 H   0  0  0  0  0  0  0  0  0  0  0  0
  146.9686  139.8830  152.1496 H   0  0  0  0  0  0  0  0  0  0  0  0
  148.9917  139.0525  152.3281 H   0  0  0  0  0  0  0  0  0  0  0  0
  149.0176  140.5137  152.7625 H   0  0  0  0  0  0  0  0  0  0  0  0
  149.4334  143.2290  155.5457 H   0  0  0  0  0  0  0  0  0  0  0  0
  152.8186  138.8646  155.3010 H   0  0  0  0  0  0  0  0  0  0  0  0
  1  2  2  0  0  0  0
  1 22  1  0  0  0  0
  2 17  1  0  0  0  0
  2  3  1  0  0  0  0
  3  4  2  0  0  0  0
  4  5  1  0  0  0  0
  4 23  1  0  0  0  0
  5  6  1  0  0  0  0
  5 15  1  0  0  0  0
  6 18  1  0  0  0  0
  6 13  1  0  0  0  0
  6  7  1  0  0  0  0
  7  8  1  0  0  0  0
  8 19  1  0  0  0  0
  8  9  1  0  0  0  0
  8 11  1  0  0  0  0
  9 10  1  0  0  0  0
  9 24  1  0  0  0  0
  9 25  1  0  0  0  0
 10 26  1  0  0  0  0
 11 20  1  0  0  0  0
 11 12  1  0  0  0  0
 11 13  1  0  0  0  0
 12 27  1  0  0  0  0
 13 21  1  0  0  0  0
 13 14  1  0  0  0  0
 14 28  1  0  0  0  0
 15 16  2  0  0  0  0
 15 17  1  0  0  0  0
 17 29  1  0  0  0  0
M  END
> <s_m_source_file>
AV-unprocessed.smi

> <i_m_source_file_index>
72

> <i_lp_mmshare_version>
43012

> <i_f3d_flags>
0

> <s_epik_input>
W05IMl1jMW5bY0hdbihjKD1PKW4xKVtDQEBIXTJPW0NASF0oW0NIMl1bT0hdKVtDQEBIXShbT0hdKVtDQEhdMltPSF0=

> <s_epik_cmdline>
J2VwaWtfcHl0aG9uJywgJy1waCcsICc3LjAnLCAnLXRuJywgJzgnLCAnLW1hJywgJzIwMCcsICctbWV0YWxfYmluZGluZycsICctaW1hZScsICc8aW5maWxlLm1hZT4nLCAnLW9tYWUnLCAnPG91dGZpbGUubWFlPic=

> <r_lp_tautomer_probability>
7.17554e-07

> <r_epik_Ionization_Penalty>
0.0066451

> <r_epik_Ionization_Penalty_Charging>
0.00663793

> <r_epik_Ionization_Penalty_Neutral>
7.17052e-06

> <r_epik_State_Penalty>
0.419231

> <r_epik_Charging_Adjusted_Penalty>
0.425868

> <i_epik_Tot_Q>
0

> <i_epik_Tot_abs_Q>
0

> <r_epik_Metal_State_Penalty>
1.44144

> <b_epik_Metal_Only>
0

> <s_epik_Chemistry_Notes>
This compound contains an acetal/aminal-like group ( X-CH(R)-Y where X, Y are N, S, or O) that may be acid/base labile, releasing an aldehyde.

> <s_lp_Force_Field>
OPLS_2005

> <r_lp_Energy>
48.2087

> <b_lp_Chiralities_Consistent>
1

> <s_lp_Variant>
AV-unprocessed.smi:72-29

> <Gold.Version>
5.8.1

> <Gold.Id.Protein>
6NUR|6NUR_protein|mol2

> <Gold.PLP.Fitness>
38.6760

> <Gold.PLP.PLP>
-22.4822

> <Gold.PLP.part.hbond>
-7.4987

> <Gold.PLP.part.metal>
0.0000

> <Gold.PLP.part.buried>
-3.3319

> <Gold.PLP.part.nonpolar>
-12.0153

> <Gold.PLP.part.repulsive>
0.3606

> <Gold.PLP.ligand.clash>
0.0000

> <Gold.PLP.ligand.torsion>
0.5328

> <Gold.PLP.Chemscore.Hbond>
5.7520

> <Gold.PLP.Chemscore.CHOScore>
0.0000

> <Gold.PLP.Chemscore.Metal>
0.0000

> <Gold.Chemscore.Hbonds>
donor molecule, donor type, donor heavy atom, donor atom, acceptor molecule, acceptor atom, score
      L1  H    10    26       P1  7957  1.00
      L1  H    12    27       P1  7957  0.70
      L1  H    14    28       P1  8028  1.00
      P1  H  7989  7998       L1    16  1.00
      P1  H  7997  8010       L1     1  0.95
      P1  H  8011  8017       L1    12  1.00

> <Gold.PLP.Chemscore.Internal.Correction>
0.0034

> <Gold.Rescore>
     Score         DG    S(hbond)    S(metal)    S(lipo)     H(rot)  DE(clash)    DE(int)     intcor
      9.55     -13.36       4.62        0.00      24.43       4.06       0.01       3.80       ----

> <Gold.Chemscore.Fitness>
9.5503

> <Gold.Chemscore.DG>
-13.3639

> <Gold.Chemscore.ZeroCoef>
-5.4800

> <Gold.Chemscore.Hbond>
4.6165

> <Gold.Chemscore.Metal>
0.0000

> <Gold.Chemscore.Lipo>
24.4307

> <Gold.Chemscore.Internal_Hbond>
0.0000

> <Gold.Chemscore.DEClash>
0.0106

> <Gold.Chemscore.DEInternal>
3.8029

> <Gold.Chemscore.Rot>
4.0600

> <Gold.Chemscore.Internal.Correction>
   9.000000E+99

> <Gold.Chemscore.Hbonds>
donor molecule, donor type, donor heavy atom, donor atom, acceptor molecule, acceptor atom, score
      L1  H    10    26       P1  7957  0.96
      L1  H    12    27       P1  7957  0.70
      L1  H    14    28       P1  8028  0.98
      P1  H  7989  7998       L1    16  0.82
      P1  H  7997  8010       L1     1  0.15
      P1  H  8011  8017       L1    12  0.38

> <Gold.Chemscore.Hbond.Weighted>
-15.4191

> <Gold.Chemscore.Metal.Weighted>
-0.0000

> <Gold.Chemscore.Lipo.Weighted>
-2.8584

> <Gold.Chemscore.Internal_Hbond.Weighted>
0.0000

> <Gold.Chemscore.DEClash.Weighted>
0.0106

> <Gold.Chemscore.DEInternal.Weighted>
3.8029

> <Gold.Chemscore.Rot.Weighted>
10.3936

> <Gold.Chemscore.Internal.Correction.Weighted>
   9.000000E+99

> <Gold.Protein.RotatedTorsions>
[ 6907 6896 6895 6894 ] final  -56.42 input  -60.11 | X-H torsion
[ 7974 7965 7964 7962 ] final   18.34 input  175.53 | X-H torsion
[ 8008 7997 7996 7995 ] final   43.01 input   59.86 | X-H torsion
[ 10167 10162 10161 10158 ] final  -96.97 input  -65.29 | X-H torsion
[ 10718 10713 10712 10709 ] final  134.04 input   66.30 | X-H torsion
[ 10763 10752 10751 10750 ] final -110.42 input  -60.55 | X-H torsion
[ 11005 11000 10999 10996 ] final   60.19 input  -57.11 | X-H torsion

> <Gold.Protein.ActiveResidues>
 VAL166  LYS551  ARG553  GLY616  TRP617  ASP618  TYR619  PRO620  LYS621  CYS622 
 ASP623  PHE694  ASN695  SER759  ASP760  ASP761  ALA762  ILE779  LEU786  VAL792 
 PHE793  MET794  SER795  GLU796  ALA797  LYS798  CYS799  TRP800  GLU811  SER814 

> <Gold.Protein.RotatedAtoms>
  150.8169  134.7356  159.6737 H   0  0  0  0  0  0  0  0  0  0  0  0  # atno 6907 bound_to 6896
  152.4287  134.5815  159.9959 H   0  0  0  0  0  0  0  0  0  0  0  0  # atno 6908 bound_to 6896
  151.6009  133.3319  159.3083 H   0  0  0  0  0  0  0  0  0  0  0  0  # atno 6909 bound_to 6896
  146.2188  139.8472  142.8629 H   0  0  0  0  0  0  0  0  0  0  0  0  # atno 7974 bound_to 7965
  155.2956  140.3381  155.4250 H   0  0  0  0  0  0  0  0  0  0  0  0  # atno 8008 bound_to 7997
  156.2026  140.1738  156.7908 H   0  0  0  0  0  0  0  0  0  0  0  0  # atno 8009 bound_to 7997
  154.5578  140.0693  156.8755 H   0  0  0  0  0  0  0  0  0  0  0  0  # atno 8010 bound_to 7997
  140.2883  143.3238  152.0372 H   0  0  0  0  0  0  0  0  0  0  0  0  # atno 10167 bound_to 10162
  157.4713  131.1080  150.9799 H   0  0  0  0  0  0  0  0  0  0  0  0  # atno 10718 bound_to 10713
  154.8247  135.4565  154.0883 H   0  0  0  0  0  0  0  0  0  0  0  0  # atno 10763 bound_to 10752
  153.2207  135.6893  153.8010 H   0  0  0  0  0  0  0  0  0  0  0  0  # atno 10764 bound_to 10752
  153.7428  135.3310  155.3284 H   0  0  0  0  0  0  0  0  0  0  0  0  # atno 10765 bound_to 10752
  140.0249  134.6097  155.9587 H   0  0  0  0  0  0  0  0  0  0  0  0  # atno 11005 bound_to 11000
  145.2838  141.0147  143.3702 LP  0  0  0  0  0  0  0  0  0  0  0  0  # atno 17320 bound_to 7965
  144.9129  139.4506  143.6578 LP  0  0  0  0  0  0  0  0  0  0  0  0  # atno 17321 bound_to 7965
  139.4944  144.6543  151.6606 LP  0  0  0  0  0  0  0  0  0  0  0  0  # atno 17342 bound_to 10162
  140.5754  144.0037  150.6239 LP  0  0  0  0  0  0  0  0  0  0  0  0  # atno 17343 bound_to 10162
  157.0563  130.5807  149.5378 LP  0  0  0  0  0  0  0  0  0  0  0  0  # atno 17370 bound_to 10713
  156.0075  130.5163  150.7877 LP  0  0  0  0  0  0  0  0  0  0  0  0  # atno 17371 bound_to 10713
  141.1797  133.6544  156.4969 LP  0  0  0  0  0  0  0  0  0  0  0  0  # atno 17394 bound_to 11000
  140.4323  134.7090  157.4948 LP  0  0  0  0  0  0  0  0  0  0  0  0  # atno 17395 bound_to 11000

$$$$
