AV-unprocessed.smi:1041|AV-procd|sdf|4530|dock4
  -GOLD-   22720 2553D 1   1.00000     0.00000
 Structure written by MMmdl.
 53 54  0  0  0  0  0  0  0  0  2 V2000
  144.7409  131.8227  149.8451 C   0  0  0  0  0  0  0  0  0  0  0  0
  145.3389  133.0857  150.0804 O   0  0  0  0  0  0  0  0  0  0  0  0
  146.5263  132.9891  150.8493 C   0  0  0  0  0  0  0  0  0  0  0  0
  146.2427  133.4954  152.2721 C   0  0  0  0  0  0  0  0  0  0  0  0
  147.4481  134.0670  152.9251 N   0  3  2  0  0  0  0  0  0  0  0  0
  148.5394  133.0682  153.0588 C   0  0  0  0  0  0  0  0  0  0  0  0
  149.8234  133.7137  153.6050 C   0  0  0  0  0  0  0  0  0  0  0  0
  149.5716  134.4125  154.9563 C   0  0  1  0  0  0  0  0  0  0  0  0
  150.8316  135.1044  155.5098 C   0  0  0  0  0  0  0  0  0  0  0  0
  150.9475  136.4632  154.9985 N   0  0  0  0  0  0  0  0  0  0  0  0
  150.7399  137.5788  155.7117 C   0  0  0  0  0  0  0  0  0  0  0  0
  150.4817  137.5798  156.9147 O   0  0  0  0  0  0  0  0  0  0  0  0
  150.8271  138.8956  154.9397 C   0  0  0  0  0  0  0  0  0  0  0  0
  150.7416  140.1552  155.8003 C   0  0  0  0  0  0  0  0  0  0  0  0
  149.8411  141.1444  155.5701 C   0  0  0  0  0  0  0  0  0  0  0  0
  148.8158  141.1258  154.4501 C   0  0  0  0  0  0  0  0  0  0  0  0
  149.8009  142.2755  156.3657 N   0  0  0  0  0  0  0  0  0  0  0  0
  150.7103  142.3699  157.4057 C   0  0  0  0  0  0  0  0  0  0  0  0
  150.5803  143.6438  158.2117 C   0  0  0  0  0  0  0  0  0  0  0  0
  151.6105  141.4825  157.7026 N   0  0  0  0  0  0  0  0  0  0  0  0
  151.6945  140.3164  156.9245 C   0  0  0  0  0  0  0  0  0  0  0  0
  152.5476  139.4652  157.1721 O   0  0  0  0  0  0  0  0  0  0  0  0
  148.4136  135.4115  154.7920 C   0  0  0  0  0  0  0  0  0  0  0  0
  147.1574  134.7299  154.2240 C   0  0  0  0  0  0  0  0  0  0  0  0
  149.1128  142.9860  156.1607 H   0  0  0  0  0  0  0  0  0  0  0  0
  143.8346  131.9501  149.2531 H   0  0  0  0  0  0  0  0  0  0  0  0
  144.4653  131.3357  150.7815 H   0  0  0  0  0  0  0  0  0  0  0  0
  145.4129  131.1645  149.2931 H   0  0  0  0  0  0  0  0  0  0  0  0
  146.9004  131.9655  150.8536 H   0  0  0  0  0  0  0  0  0  0  0  0
  147.3019  133.6083  150.3960 H   0  0  0  0  0  0  0  0  0  0  0  0
  145.4454  134.2397  152.2599 H   0  0  0  0  0  0  0  0  0  0  0  0
  145.8678  132.6554  152.8587 H   0  0  0  0  0  0  0  0  0  0  0  0
  148.2161  132.2586  153.7151 H   0  0  0  0  0  0  0  0  0  0  0  0
  148.7530  132.6224  152.0866 H   0  0  0  0  0  0  0  0  0  0  0  0
  150.5915  132.9464  153.7079 H   0  0  0  0  0  0  0  0  0  0  0  0
  150.2051  134.4352  152.8814 H   0  0  0  0  0  0  0  0  0  0  0  0
  149.2608  133.6549  155.6779 H   0  0  0  0  0  0  0  0  0  0  0  0
  150.7996  135.1113  156.6010 H   0  0  0  0  0  0  0  0  0  0  0  0
  151.7254  134.5496  155.2214 H   0  0  0  0  0  0  0  0  0  0  0  0
  151.1655  136.5647  154.0177 H   0  0  0  0  0  0  0  0  0  0  0  0
  151.7667  138.9082  154.3866 H   0  0  0  0  0  0  0  0  0  0  0  0
  150.0560  138.9034  154.1686 H   0  0  0  0  0  0  0  0  0  0  0  0
  148.1361  140.2822  154.5690 H   0  0  0  0  0  0  0  0  0  0  0  0
  149.3097  141.0379  153.4822 H   0  0  0  0  0  0  0  0  0  0  0  0
  148.2174  142.0377  154.4374 H   0  0  0  0  0  0  0  0  0  0  0  0
  151.2747  143.6462  159.0528 H   0  0  0  0  0  0  0  0  0  0  0  0
  149.5685  143.7438  158.6059 H   0  0  0  0  0  0  0  0  0  0  0  0
  150.7970  144.5110  157.5874 H   0  0  0  0  0  0  0  0  0  0  0  0
  148.1772  135.8687  155.7536 H   0  0  0  0  0  0  0  0  0  0  0  0
  148.7166  136.2246  154.1305 H   0  0  0  0  0  0  0  0  0  0  0  0
  146.3773  135.4801  154.1025 H   0  0  0  0  0  0  0  0  0  0  0  0
  146.7776  133.9932  154.9338 H   0  0  0  0  0  0  0  0  0  0  0  0
  147.7964  134.7803  152.3000 H   0  0  0  0  0  0  0  0  0  0  0  0
  1  2  1  0  0  0  0
  1 26  1  0  0  0  0
  1 27  1  0  0  0  0
  1 28  1  0  0  0  0
  2  3  1  0  0  0  0
  3  4  1  0  0  0  0
  3 29  1  0  0  0  0
  3 30  1  0  0  0  0
  4  5  1  0  0  0  0
  4 31  1  0  0  0  0
  4 32  1  0  0  0  0
  5 24  1  0  0  0  0
  5  6  1  0  0  0  0
  5 53  1  0  0  0  0
  6  7  1  0  0  0  0
  6 33  1  0  0  0  0
  6 34  1  0  0  0  0
  7  8  1  0  0  0  0
  7 35  1  0  0  0  0
  7 36  1  0  0  0  0
  8  9  1  0  0  0  0
  8 23  1  0  0  0  0
  8 37  1  0  0  0  0
  9 10  1  0  0  0  0
  9 38  1  0  0  0  0
  9 39  1  0  0  0  0
 10 11  1  0  0  0  0
 10 40  1  0  0  0  0
 11 12  2  0  0  0  0
 11 13  1  0  0  0  0
 13 41  1  0  0  0  0
 13 42  1  0  0  0  0
 13 14  1  0  0  0  0
 14 21  1  0  0  0  0
 14 15  2  0  0  0  0
 15 16  1  0  0  0  0
 15 17  1  0  0  0  0
 16 43  1  0  0  0  0
 16 44  1  0  0  0  0
 16 45  1  0  0  0  0
 17 25  1  0  0  0  0
 17 18  1  0  0  0  0
 18 19  1  0  0  0  0
 18 20  2  0  0  0  0
 19 46  1  0  0  0  0
 19 47  1  0  0  0  0
 19 48  1  0  0  0  0
 20 21  1  0  0  0  0
 21 22  2  0  0  0  0
 23 24  1  0  0  0  0
 23 49  1  0  0  0  0
 23 50  1  0  0  0  0
 24 51  1  0  0  0  0
 24 52  1  0  0  0  0
M  CHG  1   5   1
M  END
> <s_m_source_file>
AV-unprocessed.smi

> <i_m_source_file_index>
1041

> <i_lp_mmshare_version>
43012

> <i_f3d_flags>
0

> <s_epik_input>
W0NIM11PW0NIMl1bQ0gyXU4xW0NIMl1bQ0gyXVtDSF0oW0NIMl1bQ0gyXTEpW0NIMl1bTkhdQyg9TylbQ0gyXWMyYyhbQ0gzXSluYyhbQ0gzXSlbbkhdYzI9Tw==

> <s_epik_cmdline>
J2VwaWtfcHl0aG9uJywgJy1waCcsICc3LjAnLCAnLXRuJywgJzgnLCAnLW1hJywgJzIwMCcsICctbWV0YWxfYmluZGluZycsICctaW1hZScsICc8aW5maWxlLm1hZT4nLCAnLW9tYWUnLCAnPG91dGZpbGUubWFlPic=

> <r_lp_tautomer_probability>
0.156392

> <r_epik_Ionization_Penalty>
0.0240251

> <r_epik_Ionization_Penalty_Charging>
0.0239146

> <r_epik_Ionization_Penalty_Neutral>
0.000110474

> <r_epik_State_Penalty>
1.15942

> <r_epik_Charging_Adjusted_Penalty>
1.18333

> <i_epik_Tot_Q>
1

> <i_epik_Tot_abs_Q>
1

> <r_epik_Metal_State_Penalty>
1.33297

> <b_epik_Metal_Only>
0

> <s_lp_Force_Field>
OPLS_2005

> <r_lp_Energy>
24.2188

> <b_lp_Chiralities_Consistent>
1

> <s_lp_Variant>
AV-unprocessed.smi:1041-3

> <Gold.Version>
5.8.1

> <Gold.Id.Protein>
6NUR|6NUR_protein|mol2

> <Gold.PLP.Fitness>
50.2726

> <Gold.PLP.PLP>
-40.1115

> <Gold.PLP.part.hbond>
-3.0000

> <Gold.PLP.part.metal>
0.0000

> <Gold.PLP.part.buried>
-4.3622

> <Gold.PLP.part.nonpolar>
-33.2039

> <Gold.PLP.part.repulsive>
0.3341

> <Gold.PLP.ligand.clash>
0.0000

> <Gold.PLP.ligand.torsion>
0.9655

> <Gold.PLP.Chemscore.Hbond>
4.0000

> <Gold.PLP.Chemscore.CHOScore>
0.0000

> <Gold.PLP.Chemscore.Metal>
0.0000

> <Gold.Chemscore.Hbonds>
donor molecule, donor type, donor heavy atom, donor atom, acceptor molecule, acceptor atom, score
      L1  H     5    53       P1  7948  2.00
      L1  H    17    25       P1  8028  0.90
      P1  H  7997  8009       L1    22  1.00

> <Gold.PLP.Chemscore.Internal.Correction>
0.0921

> <Gold.Rescore>
     Score         DG    S(hbond)    S(metal)    S(lipo)     H(rot)  DE(clash)    DE(int)     intcor
     17.59     -18.79       2.82        0.00      86.55       2.43       0.25       0.96       ----

> <Gold.Chemscore.Fitness>
17.5865

> <Gold.Chemscore.DG>
-18.7925

> <Gold.Chemscore.ZeroCoef>
-5.4800

> <Gold.Chemscore.Hbond>
2.8158

> <Gold.Chemscore.Metal>
0.0000

> <Gold.Chemscore.Lipo>
86.5495

> <Gold.Chemscore.Internal_Hbond>
0.0000

> <Gold.Chemscore.DEClash>
0.2464

> <Gold.Chemscore.DEInternal>
0.9596

> <Gold.Chemscore.Rot>
2.4291

> <Gold.Chemscore.Internal.Correction>
   9.000000E+99

> <Gold.Chemscore.Hbonds>
donor molecule, donor type, donor heavy atom, donor atom, acceptor molecule, acceptor atom, score
      L1  H     5    53       P1  7948  0.72
      L1  H    17    25       P1  8028  0.88
      P1  H  7997  8009       L1    22  0.75

> <Gold.Chemscore.Hbond.Weighted>
-9.4048

> <Gold.Chemscore.Metal.Weighted>
-0.0000

> <Gold.Chemscore.Lipo.Weighted>
-10.1263

> <Gold.Chemscore.Internal_Hbond.Weighted>
0.0000

> <Gold.Chemscore.DEClash.Weighted>
0.2464

> <Gold.Chemscore.DEInternal.Weighted>
0.9596

> <Gold.Chemscore.Rot.Weighted>
6.2186

> <Gold.Chemscore.Internal.Correction.Weighted>
   9.000000E+99

> <Gold.Protein.RotatedTorsions>
[ 6907 6896 6895 6894 ] final  -82.57 input  -60.11 | X-H torsion
[ 7974 7965 7964 7962 ] final  -72.57 input  175.53 | X-H torsion
[ 8008 7997 7996 7995 ] final -179.79 input   59.86 | X-H torsion
[ 10167 10162 10161 10158 ] final -120.46 input  -65.29 | X-H torsion
[ 10718 10713 10712 10709 ] final  108.67 input   66.30 | X-H torsion
[ 10763 10752 10751 10750 ] final  128.05 input  -60.55 | X-H torsion
[ 11005 11000 10999 10996 ] final -169.98 input  -57.11 | X-H torsion

> <Gold.Protein.ActiveResidues>
 VAL166  LYS551  ARG553  GLY616  TRP617  ASP618  TYR619  PRO620  LYS621  CYS622 
 ASP623  PHE694  ASN695  SER759  ASP760  ASP761  ALA762  ILE779  LEU786  VAL792 
 PHE793  MET794  SER795  GLU796  ALA797  LYS798  CYS799  TRP800  GLU811  SER814 

> <Gold.Protein.RotatedAtoms>
  150.6895  134.3644  159.4964 H   0  0  0  0  0  0  0  0  0  0  0  0  # atno 6907 bound_to 6896
  152.1468  134.9017  160.0559 H   0  0  0  0  0  0  0  0  0  0  0  0  # atno 6908 bound_to 6896
  152.0129  133.3834  159.4264 H   0  0  0  0  0  0  0  0  0  0  0  0  # atno 6909 bound_to 6896
  145.6635  140.9245  143.0921 H   0  0  0  0  0  0  0  0  0  0  0  0  # atno 7974 bound_to 7965
  156.0345  140.1289  157.0222 H   0  0  0  0  0  0  0  0  0  0  0  0  # atno 8008 bound_to 7997
  154.4364  140.1043  156.6218 H   0  0  0  0  0  0  0  0  0  0  0  0  # atno 8009 bound_to 7997
  155.5758  140.3467  155.4529 H   0  0  0  0  0  0  0  0  0  0  0  0  # atno 8010 bound_to 7997
  140.0356  143.5204  152.2155 H   0  0  0  0  0  0  0  0  0  0  0  0  # atno 10167 bound_to 10162
  157.6576  131.0898  150.6340 H   0  0  0  0  0  0  0  0  0  0  0  0  # atno 10718 bound_to 10713
  153.7192  135.3256  155.3263 H   0  0  0  0  0  0  0  0  0  0  0  0  # atno 10763 bound_to 10752
  154.8361  135.4495  154.1235 H   0  0  0  0  0  0  0  0  0  0  0  0  # atno 10764 bound_to 10752
  153.2350  135.6964  153.7926 H   0  0  0  0  0  0  0  0  0  0  0  0  # atno 10765 bound_to 10752
  140.5246  134.5676  157.5058 H   0  0  0  0  0  0  0  0  0  0  0  0  # atno 11005 bound_to 11000
  144.7081  139.8479  143.7423 LP  0  0  0  0  0  0  0  0  0  0  0  0  # atno 17320 bound_to 7965
  146.1105  139.4110  143.0290 LP  0  0  0  0  0  0  0  0  0  0  0  0  # atno 17321 bound_to 7965
  139.6047  144.7593  151.3089 LP  0  0  0  0  0  0  0  0  0  0  0  0  # atno 17342 bound_to 10162
  140.7283  143.6940  150.7899 LP  0  0  0  0  0  0  0  0  0  0  0  0  # atno 17343 bound_to 10162
  156.6645  130.4522  149.5677 LP  0  0  0  0  0  0  0  0  0  0  0  0  # atno 17370 bound_to 10713
  156.2042  130.6639  151.1200 LP  0  0  0  0  0  0  0  0  0  0  0  0  # atno 17371 bound_to 10713
  139.9587  134.7490  156.0284 LP  0  0  0  0  0  0  0  0  0  0  0  0  # atno 17394 bound_to 11000
  141.1315  133.6585  156.3478 LP  0  0  0  0  0  0  0  0  0  0  0  0  # atno 17395 bound_to 11000

$$$$
