#       Name:                AV-unprocessed.smi:1175
#       Creating user name   scv26
#       Creation time:       Fri Mar 27 03:53:59 2020


#       File generated by GOLD software.
#

@<TRIPOS>MOLECULE
AV-unprocessed.smi:1175
    42    43     1
SMALL
NO_CHARGES


@<TRIPOS>ATOM
      1 ****        -0.8006   0.8369  -0.2177 O.2            1 S1                 0.0000
      2 ****        -0.1136  -0.0129  -0.7868 C.2            1 S1                 0.0000
      3 ****         1.3968   0.1879  -0.9781 C.3            1 S1                 0.0000
      4 ****         1.9461   1.2993  -0.1832 N.am           1 S1                 0.0000
      5 ****         2.0610   2.5485  -0.8244 C.2            1 S1                 0.0000
      6 ****         2.5541   3.6433  -0.2142 C.2            1 S1                 0.0000
      7 ****         2.6070   4.9934  -0.9125 C.3            1 S1                 0.0000
      8 ****         2.4931   5.9917  -0.0361 F              1 S1                 0.0000
      9 ****         3.7707   5.1291  -1.5473 F              1 S1                 0.0000
     10 ****         1.6282   5.1105  -1.8110 F              1 S1                 0.0000
     11 ****         2.9428   3.4877   1.1738 C.2            1 S1                 0.0000
     12 ****         2.8254   2.3039   1.8065 C.2            1 S1                 0.0000
     13 ****         2.3016   1.1183   1.1240 C.2            1 S1                 0.0000
     14 ****         2.1879   0.0316   1.6916 O.2            1 S1                 0.0000
     15 ****        -0.6199  -1.1507  -1.2850 N.am           1 S1                 0.0000
     16 ****        -2.0229  -1.5445  -1.2143 C.3            1 S1                 0.0000
     17 ****        -2.3862  -2.1390   0.1593 C.3            1 S1                 0.0000
     18 ****        -1.6296  -3.4004   0.5270 C.3            1 S1                 0.0000
     19 ****        -2.5132  -3.9844   1.6244 C.3            1 S1                 0.0000
     20 ****        -3.8458  -3.6076   1.2903 O.3            1 S1                 0.0000
     21 ****        -3.8334  -2.6198   0.2634 C.3            1 S1                 0.0000
     22 ****         1.9144  -0.7422  -0.7360 H              1 S1                 0.0000
     23 ****         1.5878   0.3507  -2.0398 H              1 S1                 0.0000
     24 ****         1.7095   2.5620  -1.8460 H              1 S1                 0.0000
     25 ****         3.3382   4.3342   1.7157 H              1 S1                 0.0000
     26 ****         3.1258   2.2249   2.8410 H              1 S1                 0.0000
     27 ****         0.0121  -1.7938  -1.7400 H              1 S1                 0.0000
     28 ****        -2.6621  -0.6881  -1.4360 H              1 S1                 0.0000
     29 ****        -2.2076  -2.2763  -2.0013 H              1 S1                 0.0000
     30 ****        -2.2162  -1.3932   0.9380 H              1 S1                 0.0000
     31 ****        -1.5878  -4.0830  -0.3230 H              1 S1                 0.0000
     32 ****        -0.6098  -3.2086   0.8624 H              1 S1                 0.0000
     33 ****        -2.4130  -5.0667   1.7092 H              1 S1                 0.0000
     34 ****        -2.2608  -3.5438   2.5897 H              1 S1                 0.0000
     35 ****        -4.5264  -1.8076   0.4843 H              1 S1                 0.0000
     36 ****        -4.1534  -3.0917  -0.6666 H              1 S1                 0.0000
     37 ****        -0.3759   1.6736   0.1281 LP             1 S1                 0.0000
     38 ****        -1.7829   0.6900  -0.1017 LP             1 S1                 0.0000
     39 ****         1.8249  -0.7565   1.1945 LP             1 S1                 0.0000
     40 ****         2.4586  -0.0628   2.6496 LP             1 S1                 0.0000
     41 ****        -4.2974  -3.2357   2.1013 LP             1 S1                 0.0000
     42 ****        -4.3462  -4.4118   0.9694 LP             1 S1                 0.0000
@<TRIPOS>BOND
    1    1    2 2     
    2    2    3 1     
    3    2   15 am    
    4    3    4 1     
    5    3   22 1     
    6    3   23 1     
    7    4   13 am    
    8    4    5 1     
    9    5    6 2     
   10    5   24 1     
   11    6    7 1     
   12    6   11 1     
   13    7    8 1     
   14    7    9 1     
   15    7   10 1     
   16   11   12 2     
   17   11   25 1     
   18   12   13 1     
   19   12   26 1     
   20   13   14 2     
   21   15   16 1     
   22   15   27 1     
   23   16   17 1     
   24   16   28 1     
   25   16   29 1     
   26   17   21 1     
   27   17   18 1     
   28   17   30 1     
   29   18   19 1     
   30   18   31 1     
   31   18   32 1     
   32   19   20 1     
   33   19   33 1     
   34   19   34 1     
   35   20   21 1     
   36   21   35 1     
   37   21   36 1     
   38    1   37 1     
   39    1   38 1     
   40   14   39 1     
   41   14   40 1     
   42   20   41 1     
   43   20   42 1     
@<TRIPOS>SUBSTRUCTURE
      1 S1             1
@<TRIPOS>SET
LONE_PAIRS      STATIC     ATOMS    <user>   **** ""
6 37 38 39 40 41 42
DONOR_HYDROGENS      STATIC     ATOMS    <user>   **** ""
1 27
ATOM$BLUE        STATIC     ATOMS    COLORGROUP SYSTEM
6 37 38 39 40 41 42
ATOM$RED        STATIC     ATOMS    COLORGROUP SYSTEM
1 27
