AV-unprocessed.smi:3079|AV-procd|sdf|11737|dock10
  -GOLD-   2272017133D 1   1.00000     0.00000
 Structure written by MMmdl.
 24 25  0  0  0  0  0  0  0  0  2 V2000
  149.0156  138.6651  153.3334 N   0  3  0  0  0  0  0  0  0  0  0  0
  149.7816  138.7528  154.5875 C   0  0  0  0  0  0  0  0  0  0  0  0
  150.7418  139.9493  154.5747 C   0  0  0  0  0  0  0  0  0  0  0  0
  151.0776  140.4228  155.9489 C   0  0  0  0  0  0  0  0  0  0  0  0
  150.8892  141.6794  156.3592 N   0  0  0  0  0  0  0  0  0  0  0  0
  151.2484  141.8687  157.6967 C   0  0  0  0  0  0  0  0  0  0  0  0
  151.1171  143.2271  158.3136 C   0  0  0  0  0  0  0  0  0  0  0  0
  151.7983  144.4307  157.7038 C   0  0  0  0  0  0  0  0  0  0  0  0
  152.2885  143.8710  159.0172 C   0  0  0  0  0  0  0  0  0  0  0  0
  151.7074  140.7247  158.3010 C   0  0  0  0  0  0  0  0  0  0  0  0
  151.6943  139.3646  157.2125 S   0  0  0  0  0  0  0  0  0  0  0  0
  149.0721  137.7242  152.9701 H   0  0  0  0  0  0  0  0  0  0  0  0
  149.3992  139.3097  152.6569 H   0  0  0  0  0  0  0  0  0  0  0  0
  149.0814  138.8373  155.4193 H   0  0  0  0  0  0  0  0  0  0  0  0
  150.3357  137.8236  154.7250 H   0  0  0  0  0  0  0  0  0  0  0  0
  151.6688  139.6846  154.0648 H   0  0  0  0  0  0  0  0  0  0  0  0
  150.3045  140.7788  154.0171 H   0  0  0  0  0  0  0  0  0  0  0  0
  150.1301  143.3794  158.7456 H   0  0  0  0  0  0  0  0  0  0  0  0
  152.4273  144.2745  156.8295 H   0  0  0  0  0  0  0  0  0  0  0  0
  151.2616  145.3768  157.7292 H   0  0  0  0  0  0  0  0  0  0  0  0
  152.0788  144.4438  159.9182 H   0  0  0  0  0  0  0  0  0  0  0  0
  153.2382  143.3395  159.0122 H   0  0  0  0  0  0  0  0  0  0  0  0
  152.0476  140.5994  159.3184 H   0  0  0  0  0  0  0  0  0  0  0  0
  148.0490  138.8982  153.5113 H   0  0  0  0  0  0  0  0  0  0  0  0
  1  2  1  0  0  0  0
  1 12  1  0  0  0  0
  1 13  1  0  0  0  0
  1 24  1  0  0  0  0
  2  3  1  0  0  0  0
  2 14  1  0  0  0  0
  2 15  1  0  0  0  0
  3  4  1  0  0  0  0
  3 16  1  0  0  0  0
  3 17  1  0  0  0  0
  4 11  1  0  0  0  0
  4  5  2  0  0  0  0
  5  6  1  0  0  0  0
  6  7  1  0  0  0  0
  6 10  2  0  0  0  0
  7  9  1  0  0  0  0
  7  8  1  0  0  0  0
  7 18  1  0  0  0  0
  8  9  1  0  0  0  0
  8 19  1  0  0  0  0
  8 20  1  0  0  0  0
  9 21  1  0  0  0  0
  9 22  1  0  0  0  0
 10 11  1  0  0  0  0
 10 23  1  0  0  0  0
M  CHG  1   1   1
M  END
> <s_m_source_file>
AV-unprocessed.smi

> <i_m_source_file_index>
3079

> <i_lp_mmshare_version>
43012

> <i_f3d_flags>
0

> <s_epik_input>
W05IMl1bQ0gyXVtDSDJdYzFuYyhbY0hdczEpW0NIXTJbQ0gyXVtDSDJdMg==

> <s_epik_cmdline>
J2VwaWtfcHl0aG9uJywgJy1waCcsICc3LjAnLCAnLXRuJywgJzgnLCAnLW1hJywgJzIwMCcsICctbWV0YWxfYmluZGluZycsICctaW1hZScsICc8aW5maWxlLm1hZT4nLCAnLW9tYWUnLCAnPG91dGZpbGUubWFlPic=

> <r_lp_tautomer_probability>
1

> <r_epik_Ionization_Penalty>
0.00466735

> <r_epik_Ionization_Penalty_Charging>
0.00465044

> <r_epik_Ionization_Penalty_Neutral>
1.6915e-05

> <r_epik_State_Penalty>
-0

> <r_epik_Charging_Adjusted_Penalty>
0.00465044

> <i_epik_Tot_Q>
1

> <i_epik_Tot_abs_Q>
1

> <r_epik_Metal_State_Penalty>
-0

> <b_epik_Metal_Only>
0

> <s_lp_Force_Field>
OPLS_2005

> <r_lp_Energy>
-1.43879

> <b_lp_Chiralities_Consistent>
1

> <s_lp_Variant>
AV-unprocessed.smi:3079-1

> <Gold.Version>
5.8.1

> <Gold.Id.Protein>
6NUR|6NUR_protein|mol2

> <Gold.PLP.Fitness>
34.1924

> <Gold.PLP.PLP>
-25.5331

> <Gold.PLP.part.hbond>
-2.0000

> <Gold.PLP.part.metal>
0.0000

> <Gold.PLP.part.buried>
-0.6194

> <Gold.PLP.part.nonpolar>
-23.2767

> <Gold.PLP.part.repulsive>
0.1434

> <Gold.PLP.ligand.clash>
0.0000

> <Gold.PLP.ligand.torsion>
0.2356

> <Gold.PLP.Chemscore.Hbond>
3.0000

> <Gold.PLP.Chemscore.CHOScore>
0.0000

> <Gold.PLP.Chemscore.Metal>
0.0000

> <Gold.Chemscore.Hbonds>
donor molecule, donor type, donor heavy atom, donor atom, acceptor molecule, acceptor atom, score
      L1  H     1    12       P1  7948  2.00
      L1  H     1    13       P1  7957  1.00

> <Gold.PLP.Chemscore.Internal.Correction>
0.1304

> <Gold.Rescore>
     Score         DG    S(hbond)    S(metal)    S(lipo)     H(rot)  DE(clash)    DE(int)     intcor
     15.98     -17.59       1.99        0.00      78.83       1.47       1.38       0.23       ----

> <Gold.Chemscore.Fitness>
15.9828

> <Gold.Chemscore.DG>
-17.5942

> <Gold.Chemscore.ZeroCoef>
-5.4800

> <Gold.Chemscore.Hbond>
1.9932

> <Gold.Chemscore.Metal>
0.0000

> <Gold.Chemscore.Lipo>
78.8350

> <Gold.Chemscore.Internal_Hbond>
0.0000

> <Gold.Chemscore.DEClash>
1.3790

> <Gold.Chemscore.DEInternal>
0.2323

> <Gold.Chemscore.Rot>
1.4714

> <Gold.Chemscore.Internal.Correction>
   9.000000E+99

> <Gold.Chemscore.Hbonds>
donor molecule, donor type, donor heavy atom, donor atom, acceptor molecule, acceptor atom, score
      L1  H     1    12       P1  7948  1.00
      L1  H     1    13       P1  7957  0.99

> <Gold.Chemscore.Hbond.Weighted>
-6.6572

> <Gold.Chemscore.Metal.Weighted>
-0.0000

> <Gold.Chemscore.Lipo.Weighted>
-9.2237

> <Gold.Chemscore.Internal_Hbond.Weighted>
0.0000

> <Gold.Chemscore.DEClash.Weighted>
1.3790

> <Gold.Chemscore.DEInternal.Weighted>
0.2323

> <Gold.Chemscore.Rot.Weighted>
3.7668

> <Gold.Chemscore.Internal.Correction.Weighted>
   9.000000E+99

> <Gold.Protein.RotatedTorsions>
[ 6907 6896 6895 6894 ] final -107.03 input  -60.11 | X-H torsion
[ 7974 7965 7964 7962 ] final -156.41 input  175.53 | X-H torsion
[ 8008 7997 7996 7995 ] final   45.40 input   59.86 | X-H torsion
[ 10167 10162 10161 10158 ] final -147.83 input  -65.29 | X-H torsion
[ 10718 10713 10712 10709 ] final -103.61 input   66.30 | X-H torsion
[ 10763 10752 10751 10750 ] final  172.52 input  -60.55 | X-H torsion
[ 11005 11000 10999 10996 ] final  160.24 input  -57.11 | X-H torsion

> <Gold.Protein.ActiveResidues>
 VAL166  LYS551  ARG553  GLY616  TRP617  ASP618  TYR619  PRO620  LYS621  CYS622 
 ASP623  PHE694  ASN695  SER759  ASP760  ASP761  ALA762  ILE779  LEU786  VAL792 
 PHE793  MET794  SER795  GLU796  ALA797  LYS798  CYS799  TRP800  GLU811  SER814 

> <Gold.Protein.RotatedAtoms>
  150.7421  133.9888  159.3599 H   0  0  0  0  0  0  0  0  0  0  0  0  # atno 6907 bound_to 6896
  151.7834  135.0753  160.0386 H   0  0  0  0  0  0  0  0  0  0  0  0  # atno 6908 bound_to 6896
  152.3258  133.5867  159.5812 H   0  0  0  0  0  0  0  0  0  0  0  0  # atno 6909 bound_to 6896
  144.7595  140.4114  143.5987 H   0  0  0  0  0  0  0  0  0  0  0  0  # atno 7974 bound_to 7965
  155.3353  140.3405  155.4239 H   0  0  0  0  0  0  0  0  0  0  0  0  # atno 8008 bound_to 7997
  156.1841  140.1674  156.8256 H   0  0  0  0  0  0  0  0  0  0  0  0  # atno 8009 bound_to 7997
  154.5366  140.0734  156.8421 H   0  0  0  0  0  0  0  0  0  0  0  0  # atno 8010 bound_to 7997
  139.7587  143.8410  152.2602 H   0  0  0  0  0  0  0  0  0  0  0  0  # atno 10167 bound_to 10162
  156.0272  130.5476  150.7278 H   0  0  0  0  0  0  0  0  0  0  0  0  # atno 10718 bound_to 10713
  154.4272  135.2759  155.1937 H   0  0  0  0  0  0  0  0  0  0  0  0  # atno 10763 bound_to 10752
  154.3858  135.6077  153.5819 H   0  0  0  0  0  0  0  0  0  0  0  0  # atno 10764 bound_to 10752
  152.9835  135.5891  154.4577 H   0  0  0  0  0  0  0  0  0  0  0  0  # atno 10765 bound_to 10752
  140.2040  134.8317  157.3049 H   0  0  0  0  0  0  0  0  0  0  0  0  # atno 11005 bound_to 11000
  145.6668  139.1591  143.2777 LP  0  0  0  0  0  0  0  0  0  0  0  0  # atno 17320 bound_to 7965
  146.1642  140.6743  142.9263 LP  0  0  0  0  0  0  0  0  0  0  0  0  # atno 17321 bound_to 7965
  139.8409  144.7210  150.9332 LP  0  0  0  0  0  0  0  0  0  0  0  0  # atno 17342 bound_to 10162
  140.7805  143.3984  151.1191 LP  0  0  0  0  0  0  0  0  0  0  0  0  # atno 17343 bound_to 10162
  157.4878  131.0908  151.0462 LP  0  0  0  0  0  0  0  0  0  0  0  0  # atno 17370 bound_to 10713
  157.0877  130.5929  149.5433 LP  0  0  0  0  0  0  0  0  0  0  0  0  # atno 17371 bound_to 10713
  140.2023  134.4240  155.7656 LP  0  0  0  0  0  0  0  0  0  0  0  0  # atno 17394 bound_to 11000
  141.2227  133.7078  156.8203 LP  0  0  0  0  0  0  0  0  0  0  0  0  # atno 17395 bound_to 11000

$$$$
