AV-unprocessed.smi:1327|AV-procd|sdf|5478|dock8
  -GOLD-   22720 5 53D 1   1.00000     0.00000
 Structure written by MMmdl.
 39 40  0  0  0  0  0  0  0  0  2 V2000
  153.1767  139.0224  157.9071 O   0  0  0  0  0  0  0  0  0  0  0  0
  151.7196  139.2049  158.0055 S   0  0  0  0  0  0  0  0  0  0  0  0
  150.9512  139.2534  156.7500 O   0  0  0  0  0  0  0  0  0  0  0  0
  151.0484  138.2746  159.1536 N   0  5  0  0  0  0  0  0  0  0  0  0
  150.2389  137.1301  158.7681 C   0  0  0  0  0  0  0  0  0  0  0  0
  148.7498  137.3541  159.1300 C   0  0  0  0  0  0  0  0  0  0  0  0
  148.2088  136.4979  160.2729 C   0  0  0  0  0  0  0  0  0  0  0  0
  148.1725  135.0882  160.1690 C   0  0  0  0  0  0  0  0  0  0  0  0
  147.6475  134.3465  161.2445 C   0  0  0  0  0  0  0  0  0  0  0  0
  147.1890  135.0340  162.3844 C   0  0  0  0  0  0  0  0  0  0  0  0
  147.2789  136.4395  162.3990 C   0  0  0  0  0  0  0  0  0  0  0  0
  147.7819  137.1605  161.3753 N   0  0  0  0  0  0  0  0  0  0  0  0
  151.4680  140.7358  158.7960 N   0  0  0  0  0  0  0  0  0  0  0  0
  150.8069  141.8013  158.0087 C   0  0  0  0  0  0  0  0  0  0  0  0
  150.6920  143.1729  158.7030 C   0  0  0  0  0  0  0  0  0  0  0  0
  151.9804  144.0081  158.6369 C   0  0  0  0  0  0  0  0  0  0  0  0
  153.0528  143.5728  159.6409 C   0  0  0  0  0  0  0  0  0  0  0  0
  153.4732  142.1050  159.4967 C   0  0  0  0  0  0  0  0  0  0  0  0
  152.3665  141.1169  159.9085 C   0  0  0  0  0  0  0  0  0  0  0  0
  150.3191  136.9047  157.7038 H   0  0  0  0  0  0  0  0  0  0  0  0
  150.5816  136.2297  159.2784 H   0  0  0  0  0  0  0  0  0  0  0  0
  148.6061  138.4009  159.3992 H   0  0  0  0  0  0  0  0  0  0  0  0
  148.1330  137.1929  158.2443 H   0  0  0  0  0  0  0  0  0  0  0  0
  148.5244  134.5896  159.2779 H   0  0  0  0  0  0  0  0  0  0  0  0
  147.5947  133.2692  161.1946 H   0  0  0  0  0  0  0  0  0  0  0  0
  146.7773  134.4980  163.2264 H   0  0  0  0  0  0  0  0  0  0  0  0
  146.9369  137.0012  163.2556 H   0  0  0  0  0  0  0  0  0  0  0  0
  151.3218  141.9135  157.0538 H   0  0  0  0  0  0  0  0  0  0  0  0
  149.8029  141.4532  157.7656 H   0  0  0  0  0  0  0  0  0  0  0  0
  149.9184  143.7346  158.1787 H   0  0  0  0  0  0  0  0  0  0  0  0
  150.3312  143.0751  159.7273 H   0  0  0  0  0  0  0  0  0  0  0  0
  152.3868  143.9860  157.6249 H   0  0  0  0  0  0  0  0  0  0  0  0
  151.7325  145.0513  158.8355 H   0  0  0  0  0  0  0  0  0  0  0  0
  153.9305  144.2063  159.5097 H   0  0  0  0  0  0  0  0  0  0  0  0
  152.7015  143.7556  160.6570 H   0  0  0  0  0  0  0  0  0  0  0  0
  153.8330  141.9014  158.4882 H   0  0  0  0  0  0  0  0  0  0  0  0
  154.3298  141.9414  160.1510 H   0  0  0  0  0  0  0  0  0  0  0  0
  151.7763  141.5145  160.7340 H   0  0  0  0  0  0  0  0  0  0  0  0
  152.8363  140.2196  160.3075 H   0  0  0  0  0  0  0  0  0  0  0  0
  1  2  2  0  0  0  0
  2  3  2  0  0  0  0
  2  4  1  0  0  0  0
  2 13  1  0  0  0  0
  4  5  1  0  0  0  0
  5  6  1  0  0  0  0
  5 20  1  0  0  0  0
  5 21  1  0  0  0  0
  6  7  1  0  0  0  0
  6 22  1  0  0  0  0
  6 23  1  0  0  0  0
  7 12  1  0  0  0  0
  7  8  2  0  0  0  0
  8  9  1  0  0  0  0
  8 24  1  0  0  0  0
  9 10  2  0  0  0  0
  9 25  1  0  0  0  0
 10 11  1  0  0  0  0
 10 26  1  0  0  0  0
 11 12  2  0  0  0  0
 11 27  1  0  0  0  0
 13 19  1  0  0  0  0
 13 14  1  0  0  0  0
 14 15  1  0  0  0  0
 14 28  1  0  0  0  0
 14 29  1  0  0  0  0
 15 16  1  0  0  0  0
 15 30  1  0  0  0  0
 15 31  1  0  0  0  0
 16 17  1  0  0  0  0
 16 32  1  0  0  0  0
 16 33  1  0  0  0  0
 17 18  1  0  0  0  0
 17 34  1  0  0  0  0
 17 35  1  0  0  0  0
 18 19  1  0  0  0  0
 18 36  1  0  0  0  0
 18 37  1  0  0  0  0
 19 38  1  0  0  0  0
 19 39  1  0  0  0  0
M  CHG  1   4  -1
M  END
> <s_m_source_file>
AV-unprocessed.smi

> <i_m_source_file_index>
1327

> <i_lp_mmshare_version>
43012

> <i_f3d_flags>
0

> <s_epik_input>
W0NIMl0xW0NIMl1bQ0gyXVtDSDJdW0NIMl1bQ0gyXU4xUyg9TykoPU8pW05IXVtDSDJdW0NIMl1jMltjSF1bY0hdW2NIXVtjSF1uMg==

> <s_epik_cmdline>
J2VwaWtfcHl0aG9uJywgJy1waCcsICc3LjAnLCAnLXRuJywgJzgnLCAnLW1hJywgJzIwMCcsICctbWV0YWxfYmluZGluZycsICctaW1hZScsICc8aW5maWxlLm1hZT4nLCAnLW9tYWUnLCAnPG91dGZpbGUubWFlPic=

> <r_lp_tautomer_probability>
1

> <r_epik_Ionization_Penalty>
3.18796

> <r_epik_Ionization_Penalty_Charging>
3.10426

> <r_epik_Ionization_Penalty_Neutral>
0.0836926

> <r_epik_State_Penalty>
3.10111

> <r_epik_Charging_Adjusted_Penalty>
6.20538

> <i_epik_Tot_Q>
-1

> <i_epik_Tot_abs_Q>
1

> <r_epik_Metal_State_Penalty>
0.463976

> <b_epik_Metal_Only>
1

> <s_lp_Force_Field>
OPLS_2005

> <r_lp_Energy>
9.11233

> <b_lp_Chiralities_Consistent>
1

> <s_lp_Variant>
AV-unprocessed.smi:1327-2

> <Gold.Version>
5.8.1

> <Gold.Id.Protein>
6NUR|6NUR_protein|mol2

> <Gold.PLP.Fitness>
48.7447

> <Gold.PLP.PLP>
-41.5382

> <Gold.PLP.part.hbond>
-3.0293

> <Gold.PLP.part.metal>
0.0000

> <Gold.PLP.part.buried>
-4.6590

> <Gold.PLP.part.nonpolar>
-33.8092

> <Gold.PLP.part.repulsive>
0.0000

> <Gold.PLP.ligand.clash>
0.0000

> <Gold.PLP.ligand.torsion>
2.0449

> <Gold.PLP.Chemscore.Hbond>
2.7360

> <Gold.PLP.Chemscore.CHOScore>
0.0000

> <Gold.PLP.Chemscore.Metal>
0.0000

> <Gold.Chemscore.Hbonds>
donor molecule, donor type, donor heavy atom, donor atom, acceptor molecule, acceptor atom, score
      P1  H  6931  6943       L1    12  1.00
      P1  H  6934  6947       L1    12  0.77
      P1  H  7997  8008       L1     1  1.00

> <Gold.PLP.Chemscore.Internal.Correction>
3.0882

> <Gold.Rescore>
     Score         DG    S(hbond)    S(metal)    S(lipo)     H(rot)  DE(clash)    DE(int)     intcor
     19.75     -21.82       2.30        0.00     101.91       1.27       0.00       2.07       ----

> <Gold.Chemscore.Fitness>
19.7540

> <Gold.Chemscore.DG>
-21.8228

> <Gold.Chemscore.ZeroCoef>
-5.4800

> <Gold.Chemscore.Hbond>
2.2996

> <Gold.Chemscore.Metal>
0.0000

> <Gold.Chemscore.Lipo>
101.9088

> <Gold.Chemscore.Internal_Hbond>
0.0000

> <Gold.Chemscore.DEClash>
0.0009

> <Gold.Chemscore.DEInternal>
2.0679

> <Gold.Chemscore.Rot>
1.2738

> <Gold.Chemscore.Internal.Correction>
   9.000000E+99

> <Gold.Chemscore.Hbonds>
donor molecule, donor type, donor heavy atom, donor atom, acceptor molecule, acceptor atom, score
      P1  H  6931  6943       L1    12  0.55
      P1  H  6934  6947       L1    12  0.61
      P1  H  7997  8008       L1     1  0.99

> <Gold.Chemscore.Hbond.Weighted>
-7.6806

> <Gold.Chemscore.Metal.Weighted>
-0.0000

> <Gold.Chemscore.Lipo.Weighted>
-11.9233

> <Gold.Chemscore.Internal_Hbond.Weighted>
0.0000

> <Gold.Chemscore.DEClash.Weighted>
0.0009

> <Gold.Chemscore.DEInternal.Weighted>
2.0679

> <Gold.Chemscore.Rot.Weighted>
3.2610

> <Gold.Chemscore.Internal.Correction.Weighted>
   9.000000E+99

> <Gold.Protein.RotatedTorsions>
[ 6907 6896 6895 6894 ] final   21.62 input  -60.11 | X-H torsion
[ 7974 7965 7964 7962 ] final   24.08 input  175.53 | X-H torsion
[ 8008 7997 7996 7995 ] final  -78.37 input   59.86 | X-H torsion
[ 10167 10162 10161 10158 ] final  107.22 input  -65.29 | X-H torsion
[ 10718 10713 10712 10709 ] final  106.39 input   66.30 | X-H torsion
[ 10763 10752 10751 10750 ] final  -52.19 input  -60.55 | X-H torsion
[ 11005 11000 10999 10996 ] final  -60.21 input  -57.11 | X-H torsion

> <Gold.Protein.ActiveResidues>
 VAL166  LYS551  ARG553  GLY616  TRP617  ASP618  TYR619  PRO620  LYS621  CYS622 
 ASP623  PHE694  ASN695  SER759  ASP760  ASP761  ALA762  ILE779  LEU786  VAL792 
 PHE793  MET794  SER795  GLU796  ALA797  LYS798  CYS799  TRP800  GLU811  SER814 

> <Gold.Protein.RotatedAtoms>
  151.9147  135.0324  160.0516 H   0  0  0  0  0  0  0  0  0  0  0  0  # atno 6907 bound_to 6896
  152.2250  133.5009  159.5192 H   0  0  0  0  0  0  0  0  0  0  0  0  # atno 6908 bound_to 6896
  150.7010  134.1208  159.4077 H   0  0  0  0  0  0  0  0  0  0  0  0  # atno 6909 bound_to 6896
  146.1954  139.7655  142.8801 H   0  0  0  0  0  0  0  0  0  0  0  0  # atno 7974 bound_to 7965
  154.5683  140.0695  156.8925 H   0  0  0  0  0  0  0  0  0  0  0  0  # atno 8008 bound_to 7997
  155.2682  140.3363  155.4249 H   0  0  0  0  0  0  0  0  0  0  0  0  # atno 8009 bound_to 7997
  156.2098  140.1754  156.7706 H   0  0  0  0  0  0  0  0  0  0  0  0  # atno 8010 bound_to 7997
  139.6945  144.7103  151.1291 H   0  0  0  0  0  0  0  0  0  0  0  0  # atno 10167 bound_to 10162
  157.6670  131.0849  150.6000 H   0  0  0  0  0  0  0  0  0  0  0  0  # atno 10718 bound_to 10713
  154.1388  135.6508  153.4938 H   0  0  0  0  0  0  0  0  0  0  0  0  # atno 10763 bound_to 10752
  153.0172  135.5310  154.6926 H   0  0  0  0  0  0  0  0  0  0  0  0  # atno 10764 bound_to 10752
  154.6181  135.2961  155.0327 H   0  0  0  0  0  0  0  0  0  0  0  0  # atno 10765 bound_to 10752
  141.1278  133.6621  156.5189 H   0  0  0  0  0  0  0  0  0  0  0  0  # atno 11005 bound_to 11000
  145.3659  141.0334  143.3258 LP  0  0  0  0  0  0  0  0  0  0  0  0  # atno 17320 bound_to 7965
  144.8570  139.5234  143.6830 LP  0  0  0  0  0  0  0  0  0  0  0  0  # atno 17321 bound_to 7965
  140.7692  143.5512  150.9203 LP  0  0  0  0  0  0  0  0  0  0  0  0  # atno 17342 bound_to 10162
  139.9191  143.6628  152.3100 LP  0  0  0  0  0  0  0  0  0  0  0  0  # atno 17343 bound_to 10162
  156.6301  130.4429  149.5790 LP  0  0  0  0  0  0  0  0  0  0  0  0  # atno 17370 bound_to 10713
  156.2289  130.6782  151.1443 LP  0  0  0  0  0  0  0  0  0  0  0  0  # atno 17371 bound_to 10713
  140.4308  134.7103  157.4941 LP  0  0  0  0  0  0  0  0  0  0  0  0  # atno 17394 bound_to 11000
  140.0295  134.6427  155.9126 LP  0  0  0  0  0  0  0  0  0  0  0  0  # atno 17395 bound_to 11000

$$$$
