AV-unprocessed.smi:2708|AV-procd|sdf|10459|dock10
  -GOLD-   2272014503D 1   1.00000     0.00000
 Structure written by MMmdl.
 35 35  0  0  0  0  0  0  0  0  2 V2000
  147.5168  133.9097  161.6406 C   0  0  0  0  0  0  0  0  0  0  0  0
  148.0117  134.9470  160.6179 C   0  0  1  0  0  0  0  0  0  0  0  0
  147.3723  134.6628  159.3351 N   0  0  0  0  0  0  0  0  0  0  0  0
  148.0030  134.2912  158.2092 C   0  0  0  0  0  0  0  0  0  0  0  0
  149.2210  134.1290  158.1303 O   0  0  0  0  0  0  0  0  0  0  0  0
  147.1197  134.0602  156.9826 C   0  0  0  0  0  0  0  0  0  0  0  0
  147.8776  133.2911  155.9400 C   0  0  0  0  0  0  0  0  0  0  0  0
  148.2790  133.7478  154.7101 C   0  0  0  0  0  0  0  0  0  0  0  0
  149.1466  132.5304  153.8177 S   0  0  0  0  0  0  0  0  0  0  0  0
  148.9281  131.4118  155.1688 C   0  0  0  0  0  0  0  0  0  0  0  0
  149.4548  129.9978  155.2180 C   0  0  0  0  0  0  0  0  0  0  0  0
  149.0781  129.3490  156.5642 C   0  0  0  0  0  0  0  0  0  0  0  0
  150.9939  129.9678  155.0963 C   0  0  0  0  0  0  0  0  0  0  0  0
  148.8799  129.1832  154.0429 C   0  0  0  0  0  0  0  0  0  0  0  0
  148.2457  131.9631  156.1788 N   0  0  0  0  0  0  0  0  0  0  0  0
  147.6174  136.3472  161.1143 C   0  0  0  0  0  0  0  0  0  0  0  0
  148.1765  136.7561  162.1554 O   0  0  0  0  0  0  0  0  0  0  0  0
  146.7648  136.9828  160.4537 O   0  5  0  0  0  0  0  0  0  0  0  0
  149.0971  134.8765  160.5229 H   0  0  0  0  0  0  0  0  0  0  0  0
  147.9525  134.0858  162.6249 H   0  0  0  0  0  0  0  0  0  0  0  0
  147.7990  132.9011  161.3365 H   0  0  0  0  0  0  0  0  0  0  0  0
  146.4310  133.9280  161.7486 H   0  0  0  0  0  0  0  0  0  0  0  0
  146.3703  134.7796  159.2972 H   0  0  0  0  0  0  0  0  0  0  0  0
  146.2148  133.5276  157.2788 H   0  0  0  0  0  0  0  0  0  0  0  0
  146.7937  135.0239  156.5894 H   0  0  0  0  0  0  0  0  0  0  0  0
  148.1234  134.7263  154.2807 H   0  0  0  0  0  0  0  0  0  0  0  0
  149.4596  128.3301  156.6362 H   0  0  0  0  0  0  0  0  0  0  0  0
  147.9964  129.3009  156.6964 H   0  0  0  0  0  0  0  0  0  0  0  0
  149.4857  129.9139  157.4033 H   0  0  0  0  0  0  0  0  0  0  0  0
  151.4734  130.5100  155.9121 H   0  0  0  0  0  0  0  0  0  0  0  0
  151.3317  130.4095  154.1580 H   0  0  0  0  0  0  0  0  0  0  0  0
  151.3738  128.9458  155.1251 H   0  0  0  0  0  0  0  0  0  0  0  0
  149.2580  128.1602  154.0447 H   0  0  0  0  0  0  0  0  0  0  0  0
  149.1432  129.6308  153.0837 H   0  0  0  0  0  0  0  0  0  0  0  0
  147.7918  129.1254  154.0908 H   0  0  0  0  0  0  0  0  0  0  0  0
  1  2  1  0  0  0  0
  1 20  1  0  0  0  0
  1 21  1  0  0  0  0
  1 22  1  0  0  0  0
  2 19  1  0  0  0  0
  2  3  1  0  0  0  0
  2 16  1  0  0  0  0
  3  4  1  0  0  0  0
  3 23  1  0  0  0  0
  4  5  2  0  0  0  0
  4  6  1  0  0  0  0
  6  7  1  0  0  0  0
  6 24  1  0  0  0  0
  6 25  1  0  0  0  0
  7 15  1  0  0  0  0
  7  8  2  0  0  0  0
  8  9  1  0  0  0  0
  8 26  1  0  0  0  0
  9 10  1  0  0  0  0
 10 11  1  0  0  0  0
 10 15  2  0  0  0  0
 11 12  1  0  0  0  0
 11 13  1  0  0  0  0
 11 14  1  0  0  0  0
 12 27  1  0  0  0  0
 12 28  1  0  0  0  0
 12 29  1  0  0  0  0
 13 30  1  0  0  0  0
 13 31  1  0  0  0  0
 13 32  1  0  0  0  0
 14 33  1  0  0  0  0
 14 34  1  0  0  0  0
 14 35  1  0  0  0  0
 16 17  2  0  0  0  0
 16 18  1  0  0  0  0
M  CHG  1  18  -1
M  END
> <s_m_source_file>
AV-unprocessed.smi

> <i_m_source_file_index>
2708

> <i_lp_mmshare_version>
43012

> <i_f3d_flags>
0

> <s_epik_input>
Tz1DKFtPSF0pW0NASF0oW0NIM10pW05IXUMoPU8pW0NIMl1jMVtjSF1zYyhuMSlDKFtDSDNdKShbQ0gzXSlbQ0gzXQ==

> <s_epik_cmdline>
J2VwaWtfcHl0aG9uJywgJy1waCcsICc3LjAnLCAnLXRuJywgJzgnLCAnLW1hJywgJzIwMCcsICctbWV0YWxfYmluZGluZycsICctaW1hZScsICc8aW5maWxlLm1hZT4nLCAnLW9tYWUnLCAnPG91dGZpbGUubWFlPic=

> <r_lp_tautomer_probability>
1

> <r_epik_Ionization_Penalty>
0.000214174

> <r_epik_Ionization_Penalty_Charging>
0.000167453

> <r_epik_Ionization_Penalty_Neutral>
4.67216e-05

> <r_epik_State_Penalty>
-0

> <r_epik_Charging_Adjusted_Penalty>
0.000167453

> <i_epik_Tot_Q>
-1

> <i_epik_Tot_abs_Q>
1

> <r_epik_Metal_State_Penalty>
-0

> <b_epik_Metal_Only>
0

> <s_lp_Force_Field>
OPLS_2005

> <r_lp_Energy>
-5.21837

> <b_lp_Chiralities_Consistent>
1

> <s_lp_Variant>
AV-unprocessed.smi:2708-2

> <Gold.Version>
5.8.1

> <Gold.Id.Protein>
6NUR|6NUR_protein|mol2

> <Gold.PLP.Fitness>
41.0694

> <Gold.PLP.PLP>
-23.7631

> <Gold.PLP.part.hbond>
-3.0000

> <Gold.PLP.part.metal>
0.0000

> <Gold.PLP.part.buried>
-2.8302

> <Gold.PLP.part.nonpolar>
-17.2321

> <Gold.PLP.part.repulsive>
0.0412

> <Gold.PLP.ligand.clash>
0.0000

> <Gold.PLP.ligand.torsion>
0.3533

> <Gold.PLP.Chemscore.Hbond>
5.0000

> <Gold.PLP.Chemscore.CHOScore>
0.9961

> <Gold.PLP.Chemscore.Metal>
0.0000

> <Gold.Chemscore.Hbonds>
donor molecule, donor type, donor heavy atom, donor atom, acceptor molecule, acceptor atom, score
      P1  H  6896  6907       L1     5  1.00
      P1  H  6931  6943       L1    17  2.00
      P1  H  6934  6947       L1    18  1.50

> <Gold.PLP.Chemscore.Internal.Correction>
0.0247

> <Gold.Rescore>
     Score         DG    S(hbond)    S(metal)    S(lipo)     H(rot)  DE(clash)    DE(int)     intcor
     13.78     -14.34       2.66        0.00      49.00       2.25       0.00       0.56       ----

> <Gold.Chemscore.Fitness>
13.7834

> <Gold.Chemscore.DG>
-14.3442

> <Gold.Chemscore.ZeroCoef>
-5.4800

> <Gold.Chemscore.Hbond>
2.6603

> <Gold.Chemscore.Metal>
0.0000

> <Gold.Chemscore.Lipo>
49.0024

> <Gold.Chemscore.Internal_Hbond>
0.0000

> <Gold.Chemscore.DEClash>
0.0015

> <Gold.Chemscore.DEInternal>
0.5594

> <Gold.Chemscore.Rot>
2.2478

> <Gold.Chemscore.Internal.Correction>
   9.000000E+99

> <Gold.Chemscore.Hbonds>
donor molecule, donor type, donor heavy atom, donor atom, acceptor molecule, acceptor atom, score
      P1  H  6896  6907       L1     5  1.00
      P1  H  6931  6943       L1    17  0.85
      P1  H  6934  6947       L1    18  0.33

> <Gold.Chemscore.Hbond.Weighted>
-8.8854

> <Gold.Chemscore.Metal.Weighted>
-0.0000

> <Gold.Chemscore.Lipo.Weighted>
-5.7333

> <Gold.Chemscore.Internal_Hbond.Weighted>
0.0000

> <Gold.Chemscore.DEClash.Weighted>
0.0015

> <Gold.Chemscore.DEInternal.Weighted>
0.5594

> <Gold.Chemscore.Rot.Weighted>
5.7544

> <Gold.Chemscore.Internal.Correction.Weighted>
   9.000000E+99

> <Gold.Protein.RotatedTorsions>
[ 6907 6896 6895 6894 ] final  -93.54 input  -60.11 | X-H torsion
[ 7974 7965 7964 7962 ] final   56.44 input  175.53 | X-H torsion
[ 8008 7997 7996 7995 ] final  156.83 input   59.86 | X-H torsion
[ 10167 10162 10161 10158 ] final  131.93 input  -65.29 | X-H torsion
[ 10718 10713 10712 10709 ] final -126.11 input   66.30 | X-H torsion
[ 10763 10752 10751 10750 ] final   29.08 input  -60.55 | X-H torsion
[ 11005 11000 10999 10996 ] final   96.83 input  -57.11 | X-H torsion

> <Gold.Protein.ActiveResidues>
 VAL166  LYS551  ARG553  GLY616  TRP617  ASP618  TYR619  PRO620  LYS621  CYS622 
 ASP623  PHE694  ASN695  SER759  ASP760  ASP761  ALA762  ILE779  LEU786  VAL792 
 PHE793  MET794  SER795  GLU796  ALA797  LYS798  CYS799  TRP800  GLU811  SER814 

> <Gold.Protein.RotatedAtoms>
  150.6924  134.1952  159.4300 H   0  0  0  0  0  0  0  0  0  0  0  0  # atno 6907 bound_to 6896
  151.9921  134.9971  160.0571 H   0  0  0  0  0  0  0  0  0  0  0  0  # atno 6908 bound_to 6896
  152.1658  133.4576  159.4921 H   0  0  0  0  0  0  0  0  0  0  0  0  # atno 6909 bound_to 6896
  145.9398  139.3878  143.0370 H   0  0  0  0  0  0  0  0  0  0  0  0  # atno 7974 bound_to 7965
  156.2400  140.1902  156.7015 H   0  0  0  0  0  0  0  0  0  0  0  0  # atno 8008 bound_to 7997
  154.6179  140.0613  156.9604 H   0  0  0  0  0  0  0  0  0  0  0  0  # atno 8009 bound_to 7997
  155.1910  140.3284  155.4361 H   0  0  0  0  0  0  0  0  0  0  0  0  # atno 8010 bound_to 7997
  139.5362  144.6684  151.4779 H   0  0  0  0  0  0  0  0  0  0  0  0  # atno 10167 bound_to 10162
  156.1735  130.6684  151.0212 H   0  0  0  0  0  0  0  0  0  0  0  0  # atno 10718 bound_to 10713
  153.0452  135.6498  154.0835 H   0  0  0  0  0  0  0  0  0  0  0  0  # atno 10763 bound_to 10752
  154.0534  135.2894  155.3338 H   0  0  0  0  0  0  0  0  0  0  0  0  # atno 10764 bound_to 10752
  154.6705  135.5358  153.8197 H   0  0  0  0  0  0  0  0  0  0  0  0  # atno 10765 bound_to 10752
  139.8779  134.8970  156.4217 H   0  0  0  0  0  0  0  0  0  0  0  0  # atno 11005 bound_to 11000
  145.8315  140.9628  143.0846 LP  0  0  0  0  0  0  0  0  0  0  0  0  # atno 17320 bound_to 7965
  144.6777  140.0169  143.7484 LP  0  0  0  0  0  0  0  0  0  0  0  0  # atno 17321 bound_to 7965
  140.6569  143.8580  150.6845 LP  0  0  0  0  0  0  0  0  0  0  0  0  # atno 17342 bound_to 10162
  140.1963  143.3995  152.1825 LP  0  0  0  0  0  0  0  0  0  0  0  0  # atno 17343 bound_to 10162
  157.6819  131.0835  150.7346 LP  0  0  0  0  0  0  0  0  0  0  0  0  # atno 17370 bound_to 10713
  156.7404  130.4737  149.5479 LP  0  0  0  0  0  0  0  0  0  0  0  0  # atno 17371 bound_to 10713
  140.9129  133.7699  155.9813 LP  0  0  0  0  0  0  0  0  0  0  0  0  # atno 17394 bound_to 11000
  140.8526  134.2936  157.5269 LP  0  0  0  0  0  0  0  0  0  0  0  0  # atno 17395 bound_to 11000

$$$$
