#       Name:                AV-unprocessed.smi:2837
#       Creating user name   scv26
#       Creation time:       Fri Mar 27 15:37:22 2020


#       File generated by GOLD software.
#

@<TRIPOS>MOLECULE
AV-unprocessed.smi:2837
    37    39     1
SMALL
NO_CHARGES


@<TRIPOS>ATOM
      1 ****        -6.7777   0.8876  -0.6140 F              1 S1                 0.0000
      2 ****        -5.5130   1.3163  -0.3863 C.3            1 S1                 0.0000
      3 ****        -5.5776   2.3111   0.5322 F              1 S1                 0.0000
      4 ****        -4.7569   0.2872   0.0807 O.3            1 S1                 0.0000
      5 ****        -3.3995   0.2909  -0.1461 C.ar           1 S1                 0.0000
      6 ****        -2.7216  -0.9456  -0.1707 C.ar           1 S1                 0.0000
      7 ****        -1.3289  -0.9800  -0.3880 C.ar           1 S1                 0.0000
      8 ****        -0.6235   0.2332  -0.5693 C.ar           1 S1                 0.0000
      9 ****         0.7574   0.3249  -0.7923 N.pl3          1 S1                 0.0000
     10 ****         1.5951  -0.8673  -0.8555 C.3            1 S1                 0.0000
     11 ****         3.0359  -0.5652  -1.2749 C.3            1 S1                 0.0000
     12 ****         3.8387  -1.2266  -0.1457 C.3            1 S1                 0.0000
     13 ****         3.7784  -0.4014   1.1458 C.3            1 S1                 0.0000
     14 ****         2.3439  -0.6516   1.6066 C.3            1 S1                 0.0000
     15 ****         1.8088  -1.5747   0.4982 C.3            1 S1                 0.0000
     16 ****         2.9852  -2.3056   0.1978 O.3            1 S1                 0.0000
     17 ****        -1.3073   1.3980  -0.5283 N.pl3          1 S1                 1.0000
     18 ****        -2.6408   1.4727  -0.3249 C.ar           1 S1                 0.0000
     19 ****        -5.1210   1.7108  -1.3241 H              1 S1                 0.0000
     20 ****        -3.2688  -1.8658  -0.0269 H              1 S1                 0.0000
     21 ****        -0.8270  -1.9355  -0.4121 H              1 S1                 0.0000
     22 ****         1.2117   1.2242  -0.7262 H              1 S1                 0.0000
     23 ****         1.1716  -1.5695  -1.5745 H              1 S1                 0.0000
     24 ****         3.2556  -1.0345  -2.2346 H              1 S1                 0.0000
     25 ****         3.2572   0.4996  -1.3620 H              1 S1                 0.0000
     26 ****         4.8475  -1.5232  -0.4340 H              1 S1                 0.0000
     27 ****         4.4878  -0.7800   1.8826 H              1 S1                 0.0000
     28 ****         3.9922   0.6545   0.9762 H              1 S1                 0.0000
     29 ****         2.3417  -1.1678   2.5672 H              1 S1                 0.0000
     30 ****         1.7657   0.2657   1.7187 H              1 S1                 0.0000
     31 ****         0.9712  -2.1973   0.8127 H              1 S1                 0.0000
     32 ****        -3.0489   2.4729  -0.3073 H              1 S1                 0.0000
     33 ****        -0.7911   2.2690  -0.6545 H              1 S1                 0.0000
     34 ****        -5.1188  -0.5501  -0.3293 LP             1 S1                 0.0000
     35 ****        -4.8869   0.2561   1.0718 LP             1 S1                 0.0000
     36 ****         3.3235  -2.8131   0.9903 LP             1 S1                 0.0000
     37 ****         2.8501  -2.9346  -0.5678 LP             1 S1                 0.0000
@<TRIPOS>BOND
    1    1    2 1     
    2    2    3 1     
    3    2    4 1     
    4    2   19 1     
    5    4    5 1     
    6    5   18 ar    
    7    5    6 ar    
    8    6    7 ar    
    9    6   20 1     
   10    7    8 ar    
   11    7   21 1     
   12    8    9 1     
   13    8   17 ar    
   14    9   10 1     
   15    9   22 1     
   16   10   15 1     
   17   10   11 1     
   18   10   23 1     
   19   11   12 1     
   20   11   24 1     
   21   11   25 1     
   22   12   16 1     
   23   12   13 1     
   24   12   26 1     
   25   13   14 1     
   26   13   27 1     
   27   13   28 1     
   28   14   15 1     
   29   14   29 1     
   30   14   30 1     
   31   15   16 1     
   32   15   31 1     
   33   17   18 ar    
   34   17   33 1     
   35   18   32 1     
   36    4   34 1     
   37    4   35 1     
   38   16   36 1     
   39   16   37 1     
@<TRIPOS>SUBSTRUCTURE
      1 S1             1
@<TRIPOS>SET
LONE_PAIRS      STATIC     ATOMS    <user>   **** ""
4 34 35 36 37
DONOR_HYDROGENS      STATIC     ATOMS    <user>   **** ""
2 22 33
ATOM$BLUE        STATIC     ATOMS    COLORGROUP SYSTEM
4 34 35 36 37
ATOM$RED        STATIC     ATOMS    COLORGROUP SYSTEM
2 22 33
