AV-unprocessed.smi:1835|AV-procd|sdf|7474|dock3
  -GOLD-   22720 9173D 1   1.00000     0.00000
 Structure written by MMmdl.
 41 42  0  0  0  0  0  0  0  0  1 V2000
  150.8412  135.4515  156.2911 C   0  0  0  0  0  0  0  0  0  0  0  0
  150.0791  136.2513  155.2041 C   0  0  1  0  0  0  0  0  0  0  0  0
  148.6522  135.6485  155.0476 C   0  0  0  0  0  0  0  0  0  0  0  0
  148.5018  134.8072  153.8633 N   0  0  0  0  0  0  0  0  0  0  0  0
  147.8657  133.6265  153.8328 C   0  0  0  0  0  0  0  0  0  0  0  0
  147.3204  133.1300  154.8196 O   0  0  0  0  0  0  0  0  0  0  0  0
  147.8305  132.9175  152.4713 C   0  0  0  0  0  0  0  0  0  0  0  0
  146.5424  133.0597  151.7721 N   0  0  0  0  0  0  0  0  0  0  0  0
  146.1622  134.3610  151.3875 C   0  0  0  0  0  0  0  0  0  0  0  0
  145.0068  134.6035  150.7487 C   0  0  0  0  0  0  0  0  0  0  0  0
  144.1417  133.4857  150.4548 C   0  0  0  0  0  0  0  0  0  0  0  0
  144.4941  132.2373  150.8213 C   0  0  0  0  0  0  0  0  0  0  0  0
  145.7547  131.9681  151.5230 C   0  0  0  0  0  0  0  0  0  0  0  0
  146.0821  130.8314  151.8657 O   0  0  0  0  0  0  0  0  0  0  0  0
  150.0737  137.7103  155.4630 N   0  0  0  0  0  0  0  0  0  0  0  0
  151.4257  138.2804  155.4985 C   0  0  0  0  0  0  0  0  0  0  0  0
  151.4280  139.8000  155.7378 C   0  0  0  0  0  0  0  0  0  0  0  0
  150.6586  140.4431  154.7314 O   0  0  0  0  0  0  0  0  0  0  0  0
  149.3164  139.9780  154.7093 C   0  0  0  0  0  0  0  0  0  0  0  0
  149.2957  138.4585  154.4680 C   0  0  0  0  0  0  0  0  0  0  0  0
  150.7992  134.3761  156.1224 H   0  0  0  0  0  0  0  0  0  0  0  0
  150.4304  135.6438  157.2828 H   0  0  0  0  0  0  0  0  0  0  0  0
  151.9030  135.6921  156.3126 H   0  0  0  0  0  0  0  0  0  0  0  0
  150.6039  136.0841  154.2623 H   0  0  0  0  0  0  0  0  0  0  0  0
  148.4058  135.0477  155.9235 H   0  0  0  0  0  0  0  0  0  0  0  0
  147.8854  136.4186  154.9806 H   0  0  0  0  0  0  0  0  0  0  0  0
  148.9170  135.1459  153.0074 H   0  0  0  0  0  0  0  0  0  0  0  0
  148.6423  133.3155  151.8607 H   0  0  0  0  0  0  0  0  0  0  0  0
  148.0686  131.8607  152.6073 H   0  0  0  0  0  0  0  0  0  0  0  0
  146.8611  135.1416  151.6506 H   0  0  0  0  0  0  0  0  0  0  0  0
  144.7300  135.6083  150.4654 H   0  0  0  0  0  0  0  0  0  0  0  0
  143.2071  133.6515  149.9397 H   0  0  0  0  0  0  0  0  0  0  0  0
  143.8337  131.4132  150.5936 H   0  0  0  0  0  0  0  0  0  0  0  0
  152.0111  137.8318  156.2990 H   0  0  0  0  0  0  0  0  0  0  0  0
  151.9443  138.0609  154.5640 H   0  0  0  0  0  0  0  0  0  0  0  0
  151.0248  140.0370  156.7236 H   0  0  0  0  0  0  0  0  0  0  0  0
  152.4468  140.1862  155.7074 H   0  0  0  0  0  0  0  0  0  0  0  0
  148.8206  140.2271  155.6490 H   0  0  0  0  0  0  0  0  0  0  0  0
  148.7752  140.4937  153.9161 H   0  0  0  0  0  0  0  0  0  0  0  0
  149.6740  138.2459  153.4668 H   0  0  0  0  0  0  0  0  0  0  0  0
  148.2516  138.1539  154.4838 H   0  0  0  0  0  0  0  0  0  0  0  0
  1  2  1  0  0  0  0
  1 21  1  0  0  0  0
  1 22  1  0  0  0  0
  1 23  1  0  0  0  0
  2  3  1  0  0  0  0
  2 15  1  0  0  0  0
  2 24  1  0  0  0  0
  3  4  1  0  0  0  0
  3 25  1  0  0  0  0
  3 26  1  0  0  0  0
  4  5  1  0  0  0  0
  4 27  1  0  0  0  0
  5  6  2  0  0  0  0
  5  7  1  0  0  0  0
  7  8  1  0  0  0  0
  7 28  1  0  0  0  0
  7 29  1  0  0  0  0
  8 13  1  0  0  0  0
  8  9  1  0  0  0  0
  9 10  2  0  0  0  0
  9 30  1  0  0  0  0
 10 11  1  0  0  0  0
 10 31  1  0  0  0  0
 11 12  2  0  0  0  0
 11 32  1  0  0  0  0
 12 13  1  0  0  0  0
 12 33  1  0  0  0  0
 13 14  2  0  0  0  0
 15 20  1  0  0  0  0
 15 16  1  0  0  0  0
 16 17  1  0  0  0  0
 16 34  1  0  0  0  0
 16 35  1  0  0  0  0
 17 18  1  0  0  0  0
 17 36  1  0  0  0  0
 17 37  1  0  0  0  0
 18 19  1  0  0  0  0
 19 20  1  0  0  0  0
 19 38  1  0  0  0  0
 19 39  1  0  0  0  0
 20 40  1  0  0  0  0
 20 41  1  0  0  0  0
M  END
> <s_m_source_file>
AV-unprocessed.smi

> <i_m_source_file_index>
1835

> <i_lp_mmshare_version>
43012

> <i_f3d_flags>
0

> <s_epik_input>
W0NIMl0xW0NIMl1PW0NIMl1bQ0gyXU4xW0NASF0oW0NIM10pW0NIMl1bTkhdQyg9TylbQ0gyXW4yW2NIXVtjSF1bY0hdW2NIXWMyPU8=

> <s_epik_cmdline>
J2VwaWtfcHl0aG9uJywgJy1waCcsICc3LjAnLCAnLXRuJywgJzgnLCAnLW1hJywgJzIwMCcsICctbWV0YWxfYmluZGluZycsICctaW1hZScsICc8aW5maWxlLm1hZT4nLCAnLW9tYWUnLCAnPG91dGZpbGUubWFlPic=

> <r_lp_tautomer_probability>
1

> <r_epik_Ionization_Penalty>
0.237383

> <r_epik_Ionization_Penalty_Charging>
3.58805e-07

> <r_epik_Ionization_Penalty_Neutral>
0.237382

> <r_epik_State_Penalty>
0.228245

> <r_epik_Charging_Adjusted_Penalty>
0.228245

> <i_epik_Tot_Q>
0

> <i_epik_Tot_abs_Q>
0

> <r_epik_Metal_State_Penalty>
0.22822

> <b_epik_Metal_Only>
0

> <s_lp_Force_Field>
OPLS_2005

> <r_lp_Energy>
38.1368

> <b_lp_Chiralities_Consistent>
1

> <s_lp_Variant>
AV-unprocessed.smi:1835-2

> <Gold.Version>
5.8.1

> <Gold.Id.Protein>
6NUR|6NUR_protein|mol2

> <Gold.PLP.Fitness>
40.5592

> <Gold.PLP.PLP>
-33.6190

> <Gold.PLP.part.hbond>
-1.6004

> <Gold.PLP.part.metal>
0.0000

> <Gold.PLP.part.buried>
-3.0968

> <Gold.PLP.part.nonpolar>
-28.4684

> <Gold.PLP.part.repulsive>
0.3666

> <Gold.PLP.ligand.clash>
0.0000

> <Gold.PLP.ligand.torsion>
1.0404

> <Gold.PLP.Chemscore.Hbond>
1.9913

> <Gold.PLP.Chemscore.CHOScore>
1.0000

> <Gold.PLP.Chemscore.Metal>
0.0000

> <Gold.Chemscore.Hbonds>
donor molecule, donor type, donor heavy atom, donor atom, acceptor molecule, acceptor atom, score
      L1  H     4    27       P1  7948  1.00
      P1  H  7989  7998       L1    18  1.00
      L1  C     9    30       P1  7948  1.00

> <Gold.PLP.Chemscore.Internal.Correction>
0.0474

> <Gold.Rescore>
     Score         DG    S(hbond)    S(metal)    S(lipo)     H(rot)  DE(clash)    DE(int)     intcor
     12.56     -13.58       1.53        0.00      66.85       1.89       0.01       1.02       ----

> <Gold.Chemscore.Fitness>
12.5605

> <Gold.Chemscore.DG>
-13.5846

> <Gold.Chemscore.ZeroCoef>
-5.4800

> <Gold.Chemscore.Hbond>
1.5319

> <Gold.Chemscore.Metal>
0.0000

> <Gold.Chemscore.Lipo>
66.8549

> <Gold.Chemscore.Internal_Hbond>
0.0000

> <Gold.Chemscore.DEClash>
0.0069

> <Gold.Chemscore.DEInternal>
1.0172

> <Gold.Chemscore.Rot>
1.8882

> <Gold.Chemscore.Internal.Correction>
   9.000000E+99

> <Gold.Chemscore.Hbonds>
donor molecule, donor type, donor heavy atom, donor atom, acceptor molecule, acceptor atom, score
      L1  H     4    27       P1  7948  0.23
      P1  H  7989  7998       L1    18  0.72

> <Gold.Chemscore.Hbond.Weighted>
-5.1164

> <Gold.Chemscore.Metal.Weighted>
-0.0000

> <Gold.Chemscore.Lipo.Weighted>
-7.8220

> <Gold.Chemscore.Internal_Hbond.Weighted>
0.0000

> <Gold.Chemscore.DEClash.Weighted>
0.0069

> <Gold.Chemscore.DEInternal.Weighted>
1.0172

> <Gold.Chemscore.Rot.Weighted>
4.8338

> <Gold.Chemscore.Internal.Correction.Weighted>
   9.000000E+99

> <Gold.Protein.RotatedTorsions>
[ 6907 6896 6895 6894 ] final  -14.76 input  -60.11 | X-H torsion
[ 7974 7965 7964 7962 ] final  105.14 input  175.53 | X-H torsion
[ 8008 7997 7996 7995 ] final   68.40 input   59.86 | X-H torsion
[ 10167 10162 10161 10158 ] final  -30.64 input  -65.29 | X-H torsion
[ 10718 10713 10712 10709 ] final  128.75 input   66.30 | X-H torsion
[ 10763 10752 10751 10750 ] final  -76.36 input  -60.55 | X-H torsion
[ 11005 11000 10999 10996 ] final  155.11 input  -57.11 | X-H torsion

> <Gold.Protein.ActiveResidues>
 VAL166  LYS551  ARG553  GLY616  TRP617  ASP618  TYR619  PRO620  LYS621  CYS622 
 ASP623  PHE694  ASN695  SER759  ASP760  ASP761  ALA762  ILE779  LEU786  VAL792 
 PHE793  MET794  SER795  GLU796  ALA797  LYS798  CYS799  TRP800  GLU811  SER814 

> <Gold.Protein.RotatedAtoms>
  151.3343  135.0849  159.9349 H   0  0  0  0  0  0  0  0  0  0  0  0  # atno 6907 bound_to 6896
  152.5227  133.9511  159.7682 H   0  0  0  0  0  0  0  0  0  0  0  0  # atno 6908 bound_to 6896
  150.9855  133.6149  159.2746 H   0  0  0  0  0  0  0  0  0  0  0  0  # atno 6909 bound_to 6896
  145.3236  139.2506  143.3699 H   0  0  0  0  0  0  0  0  0  0  0  0  # atno 7974 bound_to 7965
  155.7077  140.3494  155.4960 H   0  0  0  0  0  0  0  0  0  0  0  0  # atno 8008 bound_to 7997
  155.9383  140.1097  157.1098 H   0  0  0  0  0  0  0  0  0  0  0  0  # atno 8009 bound_to 7997
  154.4098  140.1217  156.4880 H   0  0  0  0  0  0  0  0  0  0  0  0  # atno 8010 bound_to 7997
  140.7247  143.3833  151.1561 H   0  0  0  0  0  0  0  0  0  0  0  0  # atno 10167 bound_to 10162
  157.5216  131.1098  150.9145 H   0  0  0  0  0  0  0  0  0  0  0  0  # atno 10718 bound_to 10713
  154.4989  135.5800  153.6515 H   0  0  0  0  0  0  0  0  0  0  0  0  # atno 10763 bound_to 10752
  152.9875  135.6131  154.3029 H   0  0  0  0  0  0  0  0  0  0  0  0  # atno 10764 bound_to 10752
  154.2934  135.2848  155.2623 H   0  0  0  0  0  0  0  0  0  0  0  0  # atno 10765 bound_to 10752
  140.1551  134.8648  157.2504 H   0  0  0  0  0  0  0  0  0  0  0  0  # atno 11005 bound_to 11000
  146.3073  140.3798  142.8683 LP  0  0  0  0  0  0  0  0  0  0  0  0  # atno 17320 bound_to 7965
  144.8920  140.7535  143.5921 LP  0  0  0  0  0  0  0  0  0  0  0  0  # atno 17321 bound_to 7965
  139.7426  143.8901  152.3054 LP  0  0  0  0  0  0  0  0  0  0  0  0  # atno 17342 bound_to 10162
  139.8728  144.7059  150.8968 LP  0  0  0  0  0  0  0  0  0  0  0  0  # atno 17343 bound_to 10162
  156.9753  130.5506  149.5293 LP  0  0  0  0  0  0  0  0  0  0  0  0  # atno 17370 bound_to 10713
  156.0357  130.5445  150.8648 LP  0  0  0  0  0  0  0  0  0  0  0  0  # atno 17371 bound_to 10713
  140.2557  134.3630  155.7425 LP  0  0  0  0  0  0  0  0  0  0  0  0  # atno 17394 bound_to 11000
  141.2203  133.7341  156.9004 LP  0  0  0  0  0  0  0  0  0  0  0  0  # atno 17395 bound_to 11000

$$$$
