AV-unprocessed.smi:3291|AV-procd|sdf|12620|dock3
  -GOLD-   2272018553D 1   1.00000     0.00000
 Structure written by MMmdl.
 43 45  0  0  0  0  0  0  0  0  2 V2000
  151.3822  132.1512  156.0191 C   0  0  0  0  0  0  0  0  0  0  0  0
  150.0426  132.7752  156.2883 C   0  0  0  0  0  0  0  0  0  0  0  0
  149.7826  133.2641  157.4879 N   0  0  0  0  0  0  0  0  0  0  0  0
  148.4799  133.7637  157.4222 O   0  0  0  0  0  0  0  0  0  0  0  0
  147.9989  133.5549  156.1708 C   0  0  0  0  0  0  0  0  0  0  0  0
  146.6086  134.0352  155.9170 C   0  0  0  0  0  0  0  0  0  0  0  0
  148.9441  132.9351  155.3939 C   0  0  0  0  0  0  0  0  0  0  0  0
  148.8847  132.5085  153.9421 C   0  0  1  0  0  0  0  0  0  0  0  0
  149.2031  131.0129  153.7979 C   0  0  0  0  0  0  0  0  0  0  0  0
  147.5351  132.8622  153.2908 C   0  0  0  0  0  0  0  0  0  0  0  0
  147.7272  133.5288  151.9849 N   0  3  0  0  0  0  0  0  0  0  0  0
  146.5375  133.5574  151.1082 C   0  0  0  0  0  0  0  0  0  0  0  0
  145.5035  134.4870  151.7172 C   0  0  0  0  0  0  0  0  0  0  0  0
  144.4681  135.1769  150.8594 C   0  0  0  0  0  0  0  0  0  0  0  0
  145.5746  135.9805  151.5000 C   0  0  0  0  0  0  0  0  0  0  0  0
  145.9700  132.1570  150.9285 C   0  0  0  0  0  0  0  0  0  0  0  0
  144.7328  131.9068  150.0953 C   0  0  0  0  0  0  0  0  0  0  0  0
  144.6749  131.7490  151.5942 C   0  0  0  0  0  0  0  0  0  0  0  0
  151.2744  131.0996  155.7531 H   0  0  0  0  0  0  0  0  0  0  0  0
  152.0375  132.2066  156.8890 H   0  0  0  0  0  0  0  0  0  0  0  0
  151.8875  132.6531  155.1940 H   0  0  0  0  0  0  0  0  0  0  0  0
  146.0528  133.3264  155.3044 H   0  0  0  0  0  0  0  0  0  0  0  0
  146.6207  134.9943  155.4003 H   0  0  0  0  0  0  0  0  0  0  0  0
  146.0630  134.1653  156.8519 H   0  0  0  0  0  0  0  0  0  0  0  0
  149.6528  133.0405  153.3793 H   0  0  0  0  0  0  0  0  0  0  0  0
  150.1864  130.7817  154.2089 H   0  0  0  0  0  0  0  0  0  0  0  0
  149.2076  130.7117  152.7502 H   0  0  0  0  0  0  0  0  0  0  0  0
  148.4725  130.3919  154.3161 H   0  0  0  0  0  0  0  0  0  0  0  0
  146.9472  131.9561  153.1380 H   0  0  0  0  0  0  0  0  0  0  0  0
  146.9567  133.5016  153.9556 H   0  0  0  0  0  0  0  0  0  0  0  0
  148.0335  134.4782  152.1439 H   0  0  0  0  0  0  0  0  0  0  0  0
  146.8233  133.9562  150.1331 H   0  0  0  0  0  0  0  0  0  0  0  0
  145.1560  134.1679  152.6986 H   0  0  0  0  0  0  0  0  0  0  0  0
  144.5175  135.0374  149.7814 H   0  0  0  0  0  0  0  0  0  0  0  0
  143.4660  135.2826  151.2701 H   0  0  0  0  0  0  0  0  0  0  0  0
  145.3091  136.6232  152.3371 H   0  0  0  0  0  0  0  0  0  0  0  0
  146.3562  136.3641  150.8471 H   0  0  0  0  0  0  0  0  0  0  0  0
  146.7329  131.3807  150.8946 H   0  0  0  0  0  0  0  0  0  0  0  0
  144.2259  132.7676  149.6639 H   0  0  0  0  0  0  0  0  0  0  0  0
  144.7103  131.0020  149.4913 H   0  0  0  0  0  0  0  0  0  0  0  0
  144.6113  130.7379  151.9913 H   0  0  0  0  0  0  0  0  0  0  0  0
  144.1212  132.5027  152.1500 H   0  0  0  0  0  0  0  0  0  0  0  0
  148.4607  133.0346  151.4970 H   0  0  0  0  0  0  0  0  0  0  0  0
  1  2  1  0  0  0  0
  1 19  1  0  0  0  0
  1 20  1  0  0  0  0
  1 21  1  0  0  0  0
  2  7  1  0  0  0  0
  2  3  2  0  0  0  0
  3  4  1  0  0  0  0
  4  5  1  0  0  0  0
  5  6  1  0  0  0  0
  5  7  2  0  0  0  0
  6 22  1  0  0  0  0
  6 23  1  0  0  0  0
  6 24  1  0  0  0  0
  7  8  1  0  0  0  0
  8  9  1  0  0  0  0
  8 10  1  0  0  0  0
  8 25  1  0  0  0  0
  9 26  1  0  0  0  0
  9 27  1  0  0  0  0
  9 28  1  0  0  0  0
 10 11  1  0  0  0  0
 10 29  1  0  0  0  0
 10 30  1  0  0  0  0
 11 12  1  0  0  0  0
 11 31  1  0  0  0  0
 11 43  1  0  0  0  0
 12 13  1  0  0  0  0
 12 16  1  0  0  0  0
 12 32  1  0  0  0  0
 13 15  1  0  0  0  0
 13 14  1  0  0  0  0
 13 33  1  0  0  0  0
 14 15  1  0  0  0  0
 14 34  1  0  0  0  0
 14 35  1  0  0  0  0
 15 36  1  0  0  0  0
 15 37  1  0  0  0  0
 16 18  1  0  0  0  0
 16 17  1  0  0  0  0
 16 38  1  0  0  0  0
 17 18  1  0  0  0  0
 17 39  1  0  0  0  0
 17 40  1  0  0  0  0
 18 41  1  0  0  0  0
 18 42  1  0  0  0  0
M  CHG  1  11   1
M  END
> <s_m_source_file>
AV-unprocessed.smi

> <i_m_source_file_index>
3291

> <i_lp_mmshare_version>
43012

> <i_f3d_flags>
0

> <s_epik_input>
W0NIM11jMW5vYyhbQ0gzXSljMVtDQEhdKFtDSDNdKVtDSDJdW05IXVtDSF0oW0NIXTJbQ0gyXVtDSDJdMilbQ0hdM1tDSDJdW0NIMl0z

> <s_epik_cmdline>
J2VwaWtfcHl0aG9uJywgJy1waCcsICc3LjAnLCAnLXRuJywgJzgnLCAnLW1hJywgJzIwMCcsICctbWV0YWxfYmluZGluZycsICctaW1hZScsICc8aW5maWxlLm1hZT4nLCAnLW9tYWUnLCAnPG91dGZpbGUubWFlPic=

> <r_lp_tautomer_probability>
1

> <r_epik_Ionization_Penalty>
0.000158108

> <r_epik_Ionization_Penalty_Charging>
0.000158108

> <r_epik_Ionization_Penalty_Neutral>
1.14678e-10

> <r_epik_State_Penalty>
-0

> <r_epik_Charging_Adjusted_Penalty>
0.000158108

> <i_epik_Tot_Q>
1

> <i_epik_Tot_abs_Q>
1

> <r_epik_Metal_State_Penalty>
-0

> <b_epik_Metal_Only>
0

> <s_lp_Force_Field>
OPLS_2005

> <r_lp_Energy>
24.4944

> <b_lp_Chiralities_Consistent>
1

> <s_lp_Variant>
AV-unprocessed.smi:3291-2

> <Gold.Version>
5.8.1

> <Gold.Id.Protein>
6NUR|6NUR_protein|mol2

> <Gold.PLP.Fitness>
37.8088

> <Gold.PLP.PLP>
-30.5353

> <Gold.PLP.part.hbond>
-2.0000

> <Gold.PLP.part.metal>
0.0000

> <Gold.PLP.part.buried>
-2.8487

> <Gold.PLP.part.nonpolar>
-26.2247

> <Gold.PLP.part.repulsive>
0.0390

> <Gold.PLP.ligand.clash>
0.0000

> <Gold.PLP.ligand.torsion>
1.9659

> <Gold.PLP.Chemscore.Hbond>
3.0000

> <Gold.PLP.Chemscore.CHOScore>
0.0000

> <Gold.PLP.Chemscore.Metal>
0.0000

> <Gold.Chemscore.Hbonds>
donor molecule, donor type, donor heavy atom, donor atom, acceptor molecule, acceptor atom, score
      L1  H    11    31       P1  7948  1.80
      P1  H  6896  6909       L1     3  0.81

> <Gold.PLP.Chemscore.Internal.Correction>
2.2054

> <Gold.Rescore>
     Score         DG    S(hbond)    S(metal)    S(lipo)     H(rot)  DE(clash)    DE(int)     intcor
     13.39     -16.56       1.60        0.00      81.94       1.50       0.06       3.11       ----

> <Gold.Chemscore.Fitness>
13.3872

> <Gold.Chemscore.DG>
-16.5573

> <Gold.Chemscore.ZeroCoef>
-5.4800

> <Gold.Chemscore.Hbond>
1.5970

> <Gold.Chemscore.Metal>
0.0000

> <Gold.Chemscore.Lipo>
81.9407

> <Gold.Chemscore.Internal_Hbond>
0.0000

> <Gold.Chemscore.DEClash>
0.0611

> <Gold.Chemscore.DEInternal>
3.1090

> <Gold.Chemscore.Rot>
1.5015

> <Gold.Chemscore.Internal.Correction>
   9.000000E+99

> <Gold.Chemscore.Hbonds>
donor molecule, donor type, donor heavy atom, donor atom, acceptor molecule, acceptor atom, score
      L1  H    11    31       P1  7948  0.18
      L1  H    11    43       P1 10747  0.01
      P1  H  6896  6909       L1     3  0.69

> <Gold.Chemscore.Hbond.Weighted>
-5.3341

> <Gold.Chemscore.Metal.Weighted>
-0.0000

> <Gold.Chemscore.Lipo.Weighted>
-9.5871

> <Gold.Chemscore.Internal_Hbond.Weighted>
0.0000

> <Gold.Chemscore.DEClash.Weighted>
0.0611

> <Gold.Chemscore.DEInternal.Weighted>
3.1090

> <Gold.Chemscore.Rot.Weighted>
3.8438

> <Gold.Chemscore.Internal.Correction.Weighted>
   9.000000E+99

> <Gold.Protein.RotatedTorsions>
[ 6907 6896 6895 6894 ] final    1.58 input  -60.11 | X-H torsion
[ 7974 7965 7964 7962 ] final   32.47 input  175.53 | X-H torsion
[ 8008 7997 7996 7995 ] final -101.84 input   59.86 | X-H torsion
[ 10167 10162 10161 10158 ] final  -46.40 input  -65.29 | X-H torsion
[ 10718 10713 10712 10709 ] final  130.28 input   66.30 | X-H torsion
[ 10763 10752 10751 10750 ] final -153.02 input  -60.55 | X-H torsion
[ 11005 11000 10999 10996 ] final -140.00 input  -57.11 | X-H torsion

> <Gold.Protein.ActiveResidues>
 VAL166  LYS551  ARG553  GLY616  TRP617  ASP618  TYR619  PRO620  LYS621  CYS622 
 ASP623  PHE694  ASN695  SER759  ASP760  ASP761  ALA762  ILE779  LEU786  VAL792 
 PHE793  MET794  SER795  GLU796  ALA797  LYS798  CYS799  TRP800  GLU811  SER814 

> <Gold.Protein.RotatedAtoms>
  151.5950  135.1051  160.0047 H   0  0  0  0  0  0  0  0  0  0  0  0  # atno 6907 bound_to 6896
  152.4287  133.7235  159.6558 H   0  0  0  0  0  0  0  0  0  0  0  0  # atno 6908 bound_to 6896
  150.8177  133.8236  159.3175 H   0  0  0  0  0  0  0  0  0  0  0  0  # atno 6909 bound_to 6896
  146.1484  139.6522  142.9115 H   0  0  0  0  0  0  0  0  0  0  0  0  # atno 7974 bound_to 7965
  154.8482  140.0432  157.1586 H   0  0  0  0  0  0  0  0  0  0  0  0  # atno 8008 bound_to 7997
  154.8972  140.2995  155.5317 H   0  0  0  0  0  0  0  0  0  0  0  0  # atno 8009 bound_to 7997
  156.2995  140.2382  156.3995 H   0  0  0  0  0  0  0  0  0  0  0  0  # atno 8010 bound_to 7997
  140.6819  143.2833  151.3777 H   0  0  0  0  0  0  0  0  0  0  0  0  # atno 10167 bound_to 10162
  157.5077  131.1096  150.9338 H   0  0  0  0  0  0  0  0  0  0  0  0  # atno 10718 bound_to 10713
  154.7955  135.3222  154.7676 H   0  0  0  0  0  0  0  0  0  0  0  0  # atno 10763 bound_to 10752
  153.8355  135.6875  153.4813 H   0  0  0  0  0  0  0  0  0  0  0  0  # atno 10764 bound_to 10752
  153.1645  135.4647  154.9759 H   0  0  0  0  0  0  0  0  0  0  0  0  # atno 10765 bound_to 10752
  140.8465  134.2338  157.4783 H   0  0  0  0  0  0  0  0  0  0  0  0  # atno 11005 bound_to 11000
  145.4882  141.0438  143.2608 LP  0  0  0  0  0  0  0  0  0  0  0  0  # atno 17320 bound_to 7965
  144.7874  139.6398  143.7128 LP  0  0  0  0  0  0  0  0  0  0  0  0  # atno 17321 bound_to 7965
  139.6147  144.1026  152.2334 LP  0  0  0  0  0  0  0  0  0  0  0  0  # atno 17342 bound_to 10162
  140.0452  144.5976  150.7380 LP  0  0  0  0  0  0  0  0  0  0  0  0  # atno 17343 bound_to 10162
  156.9988  130.5592  149.5309 LP  0  0  0  0  0  0  0  0  0  0  0  0  # atno 17370 bound_to 10713
  156.0268  130.5362  150.8429 LP  0  0  0  0  0  0  0  0  0  0  0  0  # atno 17371 bound_to 10713
  139.8703  134.9662  156.4554 LP  0  0  0  0  0  0  0  0  0  0  0  0  # atno 17394 bound_to 11000
  140.8837  133.7899  155.9495 LP  0  0  0  0  0  0  0  0  0  0  0  0  # atno 17395 bound_to 11000

$$$$
