AV-unprocessed.smi:3064|AV-procd|sdf|11689|dock8
  -GOLD-   2272017 93D 1   1.00000     0.00000
 Structure written by MMmdl.
 21 22  0  0  0  0  0  0  0  0  1 V2000
  150.2909  144.1659  158.9658 C   0  0  0  0  0  0  0  0  0  0  0  0
  150.7059  144.9658  159.9997 C   0  0  0  0  0  0  0  0  0  0  0  0
  152.1707  144.3678  160.7296 S   0  0  0  0  0  0  0  0  0  0  0  0
  152.1531  143.0205  159.5953 C   0  0  0  0  0  0  0  0  0  0  0  0
  153.2221  141.9747  159.5631 C   0  0  2  0  0  0  0  0  0  0  0  0
  152.8118  140.7439  158.7315 C   0  0  0  0  0  0  0  0  0  0  0  0
  153.8544  139.7208  158.7938 N   0  0  0  0  0  0  0  0  0  0  0  0
  154.1673  139.3696  160.1782 C   0  0  0  0  0  0  0  0  0  0  0  0
  154.5377  140.6305  160.9801 C   0  0  0  0  0  0  0  0  0  0  0  0
  153.4735  141.5735  160.9083 O   0  0  0  0  0  0  0  0  0  0  0  0
  151.1270  143.0702  158.7388 N   0  0  0  0  0  0  0  0  0  0  0  0
  149.4213  144.3022  158.3401 H   0  0  0  0  0  0  0  0  0  0  0  0
  150.2434  145.8676  160.3719 H   0  0  0  0  0  0  0  0  0  0  0  0
  154.1234  142.4274  159.1454 H   0  0  0  0  0  0  0  0  0  0  0  0
  151.8732  140.3382  159.1115 H   0  0  0  0  0  0  0  0  0  0  0  0
  152.6323  141.0317  157.6955 H   0  0  0  0  0  0  0  0  0  0  0  0
  153.5484  138.8924  158.2935 H   0  0  0  0  0  0  0  0  0  0  0  0
  153.3088  138.8811  160.6407 H   0  0  0  0  0  0  0  0  0  0  0  0
  154.9882  138.6527  160.2061 H   0  0  0  0  0  0  0  0  0  0  0  0
  154.7103  140.3722  162.0250 H   0  0  0  0  0  0  0  0  0  0  0  0
  155.4614  141.0745  160.6057 H   0  0  0  0  0  0  0  0  0  0  0  0
  1 11  1  0  0  0  0
  1  2  2  0  0  0  0
  1 12  1  0  0  0  0
  2  3  1  0  0  0  0
  2 13  1  0  0  0  0
  3  4  1  0  0  0  0
  4  5  1  0  0  0  0
  4 11  2  0  0  0  0
  5 10  1  0  0  0  0
  5  6  1  0  0  0  0
  5 14  1  0  0  0  0
  6  7  1  0  0  0  0
  6 15  1  0  0  0  0
  6 16  1  0  0  0  0
  7  8  1  0  0  0  0
  7 17  1  0  0  0  0
  8  9  1  0  0  0  0
  8 18  1  0  0  0  0
  8 19  1  0  0  0  0
  9 10  1  0  0  0  0
  9 20  1  0  0  0  0
  9 21  1  0  0  0  0
M  END
> <s_m_source_file>
AV-unprocessed.smi

> <i_m_source_file_index>
3064

> <i_lp_mmshare_version>
43012

> <i_f3d_flags>
0

> <s_epik_input>
bjFbY0hdW2NIXXNjMVtDQEBIXTJbQ0gyXVtOSF1bQ0gyXVtDSDJdTzI=

> <s_epik_cmdline>
J2VwaWtfcHl0aG9uJywgJy1waCcsICc3LjAnLCAnLXRuJywgJzgnLCAnLW1hJywgJzIwMCcsICctbWV0YWxfYmluZGluZycsICctaW1hZScsICc8aW5maWxlLm1hZT4nLCAnLW9tYWUnLCAnPG91dGZpbGUubWFlPic=

> <r_epik_Ionization_Penalty>
0.980767

> <r_epik_Ionization_Penalty_Charging>
0

> <r_epik_Ionization_Penalty_Neutral>
0.980767

> <r_epik_State_Penalty>
1.0271

> <r_epik_Charging_Adjusted_Penalty>
1.0271

> <i_epik_Tot_Q>
0

> <i_epik_Tot_abs_Q>
0

> <r_epik_Metal_State_Penalty>
1.02673

> <b_epik_Metal_Only>
0

> <s_lp_Force_Field>
OPLS_2005

> <r_lp_Energy>
8.04051

> <b_lp_Chiralities_Consistent>
1

> <s_lp_Variant>
AV-unprocessed.smi:3064-3

> <Gold.Version>
5.8.1

> <Gold.Id.Protein>
6NUR|6NUR_protein|mol2

> <Gold.PLP.Fitness>
28.1151

> <Gold.PLP.PLP>
-23.8475

> <Gold.PLP.part.hbond>
-1.0000

> <Gold.PLP.part.metal>
0.0000

> <Gold.PLP.part.buried>
-4.5816

> <Gold.PLP.part.nonpolar>
-18.9213

> <Gold.PLP.part.repulsive>
0.0644

> <Gold.PLP.ligand.clash>
0.0000

> <Gold.PLP.ligand.torsion>
0.3933

> <Gold.PLP.Chemscore.Hbond>
0.5500

> <Gold.PLP.Chemscore.CHOScore>
1.1312

> <Gold.PLP.Chemscore.Metal>
0.0000

> <Gold.Chemscore.Hbonds>
donor molecule, donor type, donor heavy atom, donor atom, acceptor molecule, acceptor atom, score
      P1  H  7997  8010       L1     7  0.35
      L1  C     1    12       P1  8028  0.18
      L1  C     1    12       P1  8029  0.95

> <Gold.PLP.Chemscore.Internal.Correction>
0.0106

> <Gold.Rescore>
     Score         DG    S(hbond)    S(metal)    S(lipo)     H(rot)  DE(clash)    DE(int)     intcor
     12.54     -13.04       0.00        0.00      86.53       1.00       0.01       0.50       ----

> <Gold.Chemscore.Fitness>
12.5361

> <Gold.Chemscore.DG>
-13.0442

> <Gold.Chemscore.ZeroCoef>
-5.4800

> <Gold.Chemscore.Hbond>
0.0000

> <Gold.Chemscore.Metal>
0.0000

> <Gold.Chemscore.Lipo>
86.5320

> <Gold.Chemscore.Internal_Hbond>
0.0000

> <Gold.Chemscore.DEClash>
0.0089

> <Gold.Chemscore.DEInternal>
0.4993

> <Gold.Chemscore.Rot>
1.0000

> <Gold.Chemscore.Internal.Correction>
   9.000000E+99

> <Gold.Chemscore.Hbond.Weighted>
-0.0000

> <Gold.Chemscore.Metal.Weighted>
-0.0000

> <Gold.Chemscore.Lipo.Weighted>
-10.1242

> <Gold.Chemscore.Internal_Hbond.Weighted>
0.0000

> <Gold.Chemscore.DEClash.Weighted>
0.0089

> <Gold.Chemscore.DEInternal.Weighted>
0.4993

> <Gold.Chemscore.Rot.Weighted>
2.5600

> <Gold.Chemscore.Internal.Correction.Weighted>
   9.000000E+99

> <Gold.Protein.RotatedTorsions>
[ 6907 6896 6895 6894 ] final -173.86 input  -60.11 | X-H torsion
[ 7974 7965 7964 7962 ] final   62.37 input  175.53 | X-H torsion
[ 8008 7997 7996 7995 ] final    1.99 input   59.86 | X-H torsion
[ 10167 10162 10161 10158 ] final -133.69 input  -65.29 | X-H torsion
[ 10718 10713 10712 10709 ] final   -7.86 input   66.30 | X-H torsion
[ 10763 10752 10751 10750 ] final -178.98 input  -60.55 | X-H torsion
[ 11005 11000 10999 10996 ] final   38.27 input  -57.11 | X-H torsion

> <Gold.Protein.ActiveResidues>
 VAL166  LYS551  ARG553  GLY616  TRP617  ASP618  TYR619  PRO620  LYS621  CYS622 
 ASP623  PHE694  ASN695  SER759  ASP760  ASP761  ALA762  ILE779  LEU786  VAL792 
 PHE793  MET794  SER795  GLU796  ALA797  LYS798  CYS799  TRP800  GLU811  SER814 

> <Gold.Protein.RotatedAtoms>
  151.5630  133.3400  159.2974 H   0  0  0  0  0  0  0  0  0  0  0  0  # atno 6907 bound_to 6896
  150.8411  134.7707  159.6944 H   0  0  0  0  0  0  0  0  0  0  0  0  # atno 6908 bound_to 6896
  152.4479  134.5464  159.9905 H   0  0  0  0  0  0  0  0  0  0  0  0  # atno 6909 bound_to 6896
  145.8741  139.3398  143.0745 H   0  0  0  0  0  0  0  0  0  0  0  0  # atno 7974 bound_to 7965
  154.6862  140.2643  155.6858 H   0  0  0  0  0  0  0  0  0  0  0  0  # atno 8008 bound_to 7997
  156.2715  140.2800  156.1347 H   0  0  0  0  0  0  0  0  0  0  0  0  # atno 8009 bound_to 7997
  155.0961  140.0374  157.2673 H   0  0  0  0  0  0  0  0  0  0  0  0  # atno 8010 bound_to 7997
  139.8956  143.6669  152.2604 H   0  0  0  0  0  0  0  0  0  0  0  0  # atno 10167 bound_to 10162
  156.7111  130.5122  149.5892 H   0  0  0  0  0  0  0  0  0  0  0  0  # atno 10718 bound_to 10713
  154.5408  135.2806  155.1097 H   0  0  0  0  0  0  0  0  0  0  0  0  # atno 10763 bound_to 10752
  154.2580  135.6327  153.5268 H   0  0  0  0  0  0  0  0  0  0  0  0  # atno 10764 bound_to 10752
  152.9978  135.5599  154.5947 H   0  0  0  0  0  0  0  0  0  0  0  0  # atno 10765 bound_to 10752
  140.2143  134.3718  155.8034 H   0  0  0  0  0  0  0  0  0  0  0  0  # atno 11005 bound_to 11000
  145.9101  140.9185  143.0458 LP  0  0  0  0  0  0  0  0  0  0  0  0  # atno 17320 bound_to 7965
  144.6726  140.1149  143.7453 LP  0  0  0  0  0  0  0  0  0  0  0  0  # atno 17321 bound_to 7965
  139.7070  144.7626  151.1176 LP  0  0  0  0  0  0  0  0  0  0  0  0  # atno 17342 bound_to 10162
  140.7717  143.5381  150.9345 LP  0  0  0  0  0  0  0  0  0  0  0  0  # atno 17343 bound_to 10162
  156.1660  130.6406  151.0779 LP  0  0  0  0  0  0  0  0  0  0  0  0  # atno 17370 bound_to 10713
  157.6936  131.0802  150.7036 LP  0  0  0  0  0  0  0  0  0  0  0  0  # atno 17371 bound_to 10713
  141.2225  133.7159  156.8469 LP  0  0  0  0  0  0  0  0  0  0  0  0  # atno 17394 bound_to 11000
  140.1918  134.8960  157.3069 LP  0  0  0  0  0  0  0  0  0  0  0  0  # atno 17395 bound_to 11000

$$$$
