AV-unprocessed.smi:1066|AV-procd|sdf|4668|dock5
  -GOLD-   22720 3183D 1   1.00000     0.00000
 Structure written by MMmdl.
 38 40  0  0  0  0  0  0  0  0  2 V2000
  149.3894  132.7531  154.1225 C   0  0  0  0  0  0  0  0  0  0  0  0
  149.4633  133.4162  155.4679 C   0  0  0  0  0  0  0  0  0  0  0  0
  150.0233  132.7723  156.4837 N   0  0  0  0  0  0  0  0  0  0  0  0
  149.9435  133.6300  157.5868 O   0  0  0  0  0  0  0  0  0  0  0  0
  149.3324  134.7608  157.1655 C   0  0  0  0  0  0  0  0  0  0  0  0
  149.0187  136.0839  158.2180 Cl  0  0  0  0  0  0  0  0  0  0  0  0
  148.9958  134.7097  155.8431 C   0  0  0  0  0  0  0  0  0  0  0  0
  148.3053  135.7397  154.9858 C   0  0  0  0  0  0  0  0  0  0  0  0
  146.9818  135.1756  154.4693 C   0  0  0  0  0  0  0  0  0  0  0  0
  146.2293  134.5696  155.2312 O   0  0  0  0  0  0  0  0  0  0  0  0
  146.7071  135.3865  153.1732 N   0  0  0  0  0  0  0  0  0  0  0  0
  145.4868  134.9605  152.4999 C   0  0  2  0  0  0  0  0  0  0  0  0
  144.2134  135.6202  153.0184 C   0  0  0  0  0  0  0  0  0  0  0  0
  143.1209  134.6449  152.5626 C   0  0  0  0  0  0  0  0  0  0  0  0
  143.7562  133.3070  152.4550 N   0  3  1  0  0  0  0  0  0  0  0  0
  143.4807  132.6246  151.1717 C   0  0  0  0  0  0  0  0  0  0  0  0
  144.5806  131.6854  150.7379 C   0  0  0  0  0  0  0  0  0  0  0  0
  144.4189  133.0287  150.0597 C   0  0  0  0  0  0  0  0  0  0  0  0
  145.1990  133.4786  152.7322 C   0  0  0  0  0  0  0  0  0  0  0  0
  148.4538  132.9938  153.6175 H   0  0  0  0  0  0  0  0  0  0  0  0
  149.4476  131.6672  154.2049 H   0  0  0  0  0  0  0  0  0  0  0  0
  150.2069  133.0827  153.4815 H   0  0  0  0  0  0  0  0  0  0  0  0
  148.1105  136.6587  155.5398 H   0  0  0  0  0  0  0  0  0  0  0  0
  148.9263  136.0267  154.1363 H   0  0  0  0  0  0  0  0  0  0  0  0
  147.3851  135.8936  152.6222 H   0  0  0  0  0  0  0  0  0  0  0  0
  145.5760  135.1361  151.4255 H   0  0  0  0  0  0  0  0  0  0  0  0
  144.2318  135.6762  154.1082 H   0  0  0  0  0  0  0  0  0  0  0  0
  144.0678  136.6292  152.6311 H   0  0  0  0  0  0  0  0  0  0  0  0
  142.2800  134.6227  153.2562 H   0  0  0  0  0  0  0  0  0  0  0  0
  142.7349  134.9591  151.5914 H   0  0  0  0  0  0  0  0  0  0  0  0
  142.4382  132.3950  150.9578 H   0  0  0  0  0  0  0  0  0  0  0  0
  145.4379  131.5551  151.3958 H   0  0  0  0  0  0  0  0  0  0  0  0
  144.2917  130.8027  150.1709 H   0  0  0  0  0  0  0  0  0  0  0  0
  144.0256  133.0295  149.0451 H   0  0  0  0  0  0  0  0  0  0  0  0
  145.1663  133.7919  150.2692 H   0  0  0  0  0  0  0  0  0  0  0  0
  145.8298  132.8303  152.1217 H   0  0  0  0  0  0  0  0  0  0  0  0
  145.3729  133.2166  153.7770 H   0  0  0  0  0  0  0  0  0  0  0  0
  143.3796  132.7237  153.1885 H   0  0  0  0  0  0  0  0  0  0  0  0
  1  2  1  0  0  0  0
  1 20  1  0  0  0  0
  1 21  1  0  0  0  0
  1 22  1  0  0  0  0
  2  7  1  0  0  0  0
  2  3  2  0  0  0  0
  3  4  1  0  0  0  0
  4  5  1  0  0  0  0
  5  6  1  0  0  0  0
  5  7  2  0  0  0  0
  7  8  1  0  0  0  0
  8  9  1  0  0  0  0
  8 23  1  0  0  0  0
  8 24  1  0  0  0  0
  9 10  2  0  0  0  0
  9 11  1  0  0  0  0
 11 12  1  0  0  0  0
 11 25  1  0  0  0  0
 12 19  1  0  0  0  0
 12 13  1  0  0  0  0
 12 26  1  0  0  0  0
 13 14  1  0  0  0  0
 13 27  1  0  0  0  0
 13 28  1  0  0  0  0
 14 15  1  0  0  0  0
 14 29  1  0  0  0  0
 14 30  1  0  0  0  0
 15 16  1  0  0  0  0
 15 19  1  0  0  0  0
 15 38  1  0  0  0  0
 16 18  1  0  0  0  0
 16 17  1  0  0  0  0
 16 31  1  0  0  0  0
 17 18  1  0  0  0  0
 17 32  1  0  0  0  0
 17 33  1  0  0  0  0
 18 34  1  0  0  0  0
 18 35  1  0  0  0  0
 19 36  1  0  0  0  0
 19 37  1  0  0  0  0
M  CHG  1  15   1
M  END
> <s_m_source_file>
AV-unprocessed.smi

> <i_m_source_file_index>
1066

> <i_lp_mmshare_version>
43012

> <i_f3d_flags>
0

> <s_epik_input>
W0NIM11jMW5vYyhDbCljMVtDSDJdQyg9TylbTkhdW0NAQEhdMltDSDJdW0NIMl1OKFtDSDJdMilbQ0hdM1tDSDJdW0NIMl0z

> <s_epik_cmdline>
J2VwaWtfcHl0aG9uJywgJy1waCcsICc3LjAnLCAnLXRuJywgJzgnLCAnLW1hJywgJzIwMCcsICctbWV0YWxfYmluZGluZycsICctaW1hZScsICc8aW5maWxlLm1hZT4nLCAnLW9tYWUnLCAnPG91dGZpbGUubWFlPic=

> <r_epik_Ionization_Penalty>
0.00108138

> <r_epik_Ionization_Penalty_Charging>
0.00108128

> <r_epik_Ionization_Penalty_Neutral>
9.66632e-08

> <r_epik_State_Penalty>
0.000708577

> <r_epik_Charging_Adjusted_Penalty>
0.00178986

> <i_epik_Tot_Q>
1

> <i_epik_Tot_abs_Q>
1

> <r_epik_Metal_State_Penalty>
-0

> <b_epik_Metal_Only>
0

> <s_lp_Force_Field>
OPLS_2005

> <r_lp_Energy>
31.6954

> <b_lp_Chiralities_Consistent>
1

> <s_lp_Variant>
AV-unprocessed.smi:1066-1

> <Gold.Version>
5.8.1

> <Gold.Id.Protein>
6NUR|6NUR_protein|mol2

> <Gold.PLP.Fitness>
38.1941

> <Gold.PLP.PLP>
-26.7113

> <Gold.PLP.part.hbond>
-2.9796

> <Gold.PLP.part.metal>
0.0000

> <Gold.PLP.part.buried>
-4.7417

> <Gold.PLP.part.nonpolar>
-19.1219

> <Gold.PLP.part.repulsive>
0.0406

> <Gold.PLP.ligand.clash>
0.0000

> <Gold.PLP.ligand.torsion>
0.8686

> <Gold.PLP.Chemscore.Hbond>
3.9825

> <Gold.PLP.Chemscore.CHOScore>
0.0000

> <Gold.PLP.Chemscore.Metal>
0.0000

> <Gold.Chemscore.Hbonds>
donor molecule, donor type, donor heavy atom, donor atom, acceptor molecule, acceptor atom, score
      L1  H    11    25       P1  7948  1.00
      L1  H    15    38       P1 10957  2.00
      P1  H  6896  6908       L1     4  1.00

> <Gold.PLP.Chemscore.Internal.Correction>
1.2725

> <Gold.Rescore>
     Score         DG    S(hbond)    S(metal)    S(lipo)     H(rot)  DE(clash)    DE(int)     intcor
     16.08     -18.46       2.94        0.00      61.49       1.57       0.01       2.38       ----

> <Gold.Chemscore.Fitness>
16.0826

> <Gold.Chemscore.DG>
-18.4650

> <Gold.Chemscore.ZeroCoef>
-5.4800

> <Gold.Chemscore.Hbond>
2.9381

> <Gold.Chemscore.Metal>
0.0000

> <Gold.Chemscore.Lipo>
61.4857

> <Gold.Chemscore.Internal_Hbond>
0.0000

> <Gold.Chemscore.DEClash>
0.0063

> <Gold.Chemscore.DEInternal>
2.3761

> <Gold.Chemscore.Rot>
1.5711

> <Gold.Chemscore.Internal.Correction>
   9.000000E+99

> <Gold.Chemscore.Hbonds>
donor molecule, donor type, donor heavy atom, donor atom, acceptor molecule, acceptor atom, score
      L1  H    11    25       P1  7948  0.99
      L1  H    15    38       P1 10957  0.34
      P1  H  6896  6908       L1     4  0.93

> <Gold.Chemscore.Hbond.Weighted>
-9.8132

> <Gold.Chemscore.Metal.Weighted>
-0.0000

> <Gold.Chemscore.Lipo.Weighted>
-7.1938

> <Gold.Chemscore.Internal_Hbond.Weighted>
0.0000

> <Gold.Chemscore.DEClash.Weighted>
0.0063

> <Gold.Chemscore.DEInternal.Weighted>
2.3761

> <Gold.Chemscore.Rot.Weighted>
4.0221

> <Gold.Chemscore.Internal.Correction.Weighted>
   9.000000E+99

> <Gold.Protein.RotatedTorsions>
[ 6907 6896 6895 6894 ] final  105.85 input  -60.11 | X-H torsion
[ 7974 7965 7964 7962 ] final  -29.99 input  175.53 | X-H torsion
[ 8008 7997 7996 7995 ] final   -1.60 input   59.86 | X-H torsion
[ 10167 10162 10161 10158 ] final -108.96 input  -65.29 | X-H torsion
[ 10718 10713 10712 10709 ] final   40.01 input   66.30 | X-H torsion
[ 10763 10752 10751 10750 ] final   12.04 input  -60.55 | X-H torsion
[ 11005 11000 10999 10996 ] final -108.36 input  -57.11 | X-H torsion

> <Gold.Protein.ActiveResidues>
 VAL166  LYS551  ARG553  GLY616  TRP617  ASP618  TYR619  PRO620  LYS621  CYS622 
 ASP623  PHE694  ASN695  SER759  ASP760  ASP761  ALA762  ILE779  LEU786  VAL792 
 PHE793  MET794  SER795  GLU796  ALA797  LYS798  CYS799  TRP800  GLU811  SER814 

> <Gold.Protein.RotatedAtoms>
  152.5215  133.9467  159.7652 H   0  0  0  0  0  0  0  0  0  0  0  0  # atno 6907 bound_to 6896
  150.9786  133.6261  159.2733 H   0  0  0  0  0  0  0  0  0  0  0  0  # atno 6908 bound_to 6896
  151.3447  135.0877  159.9436 H   0  0  0  0  0  0  0  0  0  0  0  0  # atno 6909 bound_to 6896
  146.1176  140.5483  142.8750 H   0  0  0  0  0  0  0  0  0  0  0  0  # atno 7974 bound_to 7965
  154.6450  140.2555  155.7278 H   0  0  0  0  0  0  0  0  0  0  0  0  # atno 8008 bound_to 7997
  156.2547  140.2879  156.0781 H   0  0  0  0  0  0  0  0  0  0  0  0  # atno 8009 bound_to 7997
  155.1538  140.0383  157.2817 H   0  0  0  0  0  0  0  0  0  0  0  0  # atno 8010 bound_to 7997
  140.1605  143.4124  152.1429 H   0  0  0  0  0  0  0  0  0  0  0  0  # atno 10167 bound_to 10162
  157.3772  130.7734  149.7165 H   0  0  0  0  0  0  0  0  0  0  0  0  # atno 10718 bound_to 10713
  153.1864  135.6835  153.8410 H   0  0  0  0  0  0  0  0  0  0  0  0  # atno 10763 bound_to 10752
  153.7725  135.3194  155.3355 H   0  0  0  0  0  0  0  0  0  0  0  0  # atno 10764 bound_to 10752
  154.8091  135.4729  154.0565 H   0  0  0  0  0  0  0  0  0  0  0  0  # atno 10765 bound_to 10752
  141.0906  133.9062  157.2085 H   0  0  0  0  0  0  0  0  0  0  0  0  # atno 11005 bound_to 11000
  144.7567  140.5324  143.6764 LP  0  0  0  0  0  0  0  0  0  0  0  0  # atno 17320 bound_to 7965
  145.5534  139.1477  143.3381 LP  0  0  0  0  0  0  0  0  0  0  0  0  # atno 17321 bound_to 7965
  139.5383  144.7232  151.4818 LP  0  0  0  0  0  0  0  0  0  0  0  0  # atno 17342 bound_to 10162
  140.6646  143.8426  150.6927 LP  0  0  0  0  0  0  0  0  0  0  0  0  # atno 17343 bound_to 10162
  155.9768  130.4071  150.3756 LP  0  0  0  0  0  0  0  0  0  0  0  0  # atno 17370 bound_to 10713
  157.1855  131.0402  151.2727 LP  0  0  0  0  0  0  0  0  0  0  0  0  # atno 17371 bound_to 10713
  139.9731  135.0122  156.9563 LP  0  0  0  0  0  0  0  0  0  0  0  0  # atno 17394 bound_to 11000
  140.5261  134.0859  155.7304 LP  0  0  0  0  0  0  0  0  0  0  0  0  # atno 17395 bound_to 11000

$$$$
