AV-unprocessed.smi:66|AV-procd|sdf|627|dock3
  -GOLD-   2262016523D 1   1.00000     0.00000
 Structure written by MMmdl.
 27 29  0  0  0  0  0  0  0  0  3 V2000
  152.2011  138.3902  159.4089 O   0  0  0  0  0  0  0  0  0  0  0  0
  152.4537  139.3376  158.6329 C   0  0  0  0  0  0  0  0  0  0  0  0
  153.4818  139.4401  157.9267 O   0  5  0  0  0  0  0  0  0  0  0  0
  151.3997  140.4504  158.5351 C   0  0  2  0  0  0  0  0  0  0  0  0
  150.7667  140.5257  157.1380 C   0  0  0  0  0  0  0  0  0  0  0  0
  150.3351  141.9864  157.0502 C   0  0  2  0  0  0  0  0  0  0  0  0
  150.1711  142.4275  155.7185 O   0  0  0  0  0  0  0  0  0  0  0  0
  151.4513  142.7299  157.7875 C   0  0  0  0  0  0  0  0  0  0  0  0
  151.9586  141.7839  158.7745 N   0  0  0  0  0  0  0  0  0  0  0  0
  152.2856  142.2345  160.0734 C   0  0  0  0  0  0  0  0  0  0  0  0
  151.6428  143.3291  160.5557 N   0  0  0  0  0  0  0  0  0  0  0  0
  151.9603  143.7528  161.7837 C   0  0  0  0  0  0  0  0  0  0  0  0
  152.8605  143.2162  162.6127 N   0  0  0  0  0  0  0  0  0  0  0  0
  153.5049  142.1249  162.1514 C   0  0  0  0  0  0  0  0  0  0  0  0
  154.4300  141.3467  162.6899 N   0  5  0  0  0  0  0  0  0  0  0  0
  154.7193  140.3775  161.7844 C   0  0  0  0  0  0  0  0  0  0  0  0
  154.0123  140.4804  160.6408 N   0  0  0  0  0  0  0  0  0  0  0  0
  153.2557  141.5916  160.8870 C   0  0  0  0  0  0  0  0  0  0  0  0
  150.6090  140.2655  159.2638 H   0  0  0  0  0  0  0  0  0  0  0  0
  151.5025  140.3080  156.3610 H   0  0  0  0  0  0  0  0  0  0  0  0
  149.9336  139.8331  157.0159 H   0  0  0  0  0  0  0  0  0  0  0  0
  149.3955  142.1159  157.5893 H   0  0  0  0  0  0  0  0  0  0  0  0
  149.4627  143.0521  155.6973 H   0  0  0  0  0  0  0  0  0  0  0  0
  152.2685  142.9877  157.1126 H   0  0  0  0  0  0  0  0  0  0  0  0
  151.0718  143.6505  158.2324 H   0  0  0  0  0  0  0  0  0  0  0  0
  151.4364  144.6267  162.1419 H   0  0  0  0  0  0  0  0  0  0  0  0
  155.4571  139.6213  162.0230 H   0  0  0  0  0  0  0  0  0  0  0  0
  1  2  2  0  0  0  0
  2  3  1  0  0  0  0
  2  4  1  0  0  0  0
  4  5  1  0  0  0  0
  4 19  1  0  0  0  0
  4  9  1  0  0  0  0
  5  6  1  0  0  0  0
  5 20  1  0  0  0  0
  5 21  1  0  0  0  0
  6  7  1  0  0  0  0
  6  8  1  0  0  0  0
  6 22  1  0  0  0  0
  7 23  1  0  0  0  0
  8 24  1  0  0  0  0
  8 25  1  0  0  0  0
  8  9  1  0  0  0  0
  9 10  1  0  0  0  0
 10 11  1  0  0  0  0
 10 18  2  0  0  0  0
 11 12  2  0  0  0  0
 12 26  1  0  0  0  0
 12 13  1  0  0  0  0
 13 14  2  0  0  0  0
 14 15  1  0  0  0  0
 14 18  1  0  0  0  0
 15 16  1  0  0  0  0
 16 17  2  0  0  0  0
 16 27  1  0  0  0  0
 17 18  1  0  0  0  0
M  CHG  1   3  -1
M  CHG  1  15  -1
M  END
> <s_m_source_file>
AV-unprocessed.smi

> <i_m_source_file_index>
66

> <i_lp_mmshare_version>
43012

> <i_f3d_flags>
0

> <s_epik_input>
Tz1DKFtPSF0pW0NAQEhdMVtDSDJdW0NAQEhdKFtPSF0pW0NIMl1OMWMobltjSF1uMiljKGMyMylbbkhdW2NIXW4z

> <s_epik_cmdline>
J2VwaWtfcHl0aG9uJywgJy1waCcsICc3LjAnLCAnLXRuJywgJzgnLCAnLW1hJywgJzIwMCcsICctbWV0YWxfYmluZGluZycsICctaW1hZScsICc8aW5maWxlLm1hZT4nLCAnLW9tYWUnLCAnPG91dGZpbGUubWFlPic=

> <r_lp_tautomer_probability>
0.955585

> <r_epik_Ionization_Penalty>
7.65809

> <r_epik_Ionization_Penalty_Charging>
3.4974

> <r_epik_Ionization_Penalty_Neutral>
4.16069

> <r_epik_State_Penalty>
3.51624

> <r_epik_Charging_Adjusted_Penalty>
7.01364

> <i_epik_Tot_Q>
-2

> <i_epik_Tot_abs_Q>
2

> <r_epik_Metal_State_Penalty>
0.522662

> <b_epik_Metal_Only>
1

> <s_lp_Force_Field>
OPLS_2005

> <r_lp_Energy>
45.1142

> <b_lp_Chiralities_Consistent>
1

> <s_lp_Variant>
AV-unprocessed.smi:66-11

> <Gold.Version>
5.8.1

> <Gold.Id.Protein>
6NUR|6NUR_protein|mol2

> <Gold.PLP.Fitness>
42.3710

> <Gold.PLP.PLP>
-34.6863

> <Gold.PLP.part.hbond>
-3.0000

> <Gold.PLP.part.metal>
0.0000

> <Gold.PLP.part.buried>
-4.6619

> <Gold.PLP.part.nonpolar>
-25.8554

> <Gold.PLP.part.repulsive>
0.1731

> <Gold.PLP.ligand.clash>
0.0000

> <Gold.PLP.ligand.torsion>
0.7897

> <Gold.PLP.Chemscore.Hbond>
3.0000

> <Gold.PLP.Chemscore.CHOScore>
0.0000

> <Gold.PLP.Chemscore.Metal>
0.0000

> <Gold.Chemscore.Hbonds>
donor molecule, donor type, donor heavy atom, donor atom, acceptor molecule, acceptor atom, score
      L1  H     7    23       P1  8028  1.00
      P1  H  7997  8008       L1     3  2.00

> <Gold.PLP.Chemscore.Internal.Correction>
0.2642

> <Gold.Rescore>
     Score         DG    S(hbond)    S(metal)    S(lipo)     H(rot)  DE(clash)    DE(int)     intcor
      7.91     -11.65       2.00        0.00      34.53       1.78       0.01       3.73       ----

> <Gold.Chemscore.Fitness>
7.9135

> <Gold.Chemscore.DG>
-11.6486

> <Gold.Chemscore.ZeroCoef>
-5.4800

> <Gold.Chemscore.Hbond>
1.9981

> <Gold.Chemscore.Metal>
0.0000

> <Gold.Chemscore.Lipo>
34.5293

> <Gold.Chemscore.Internal_Hbond>
0.0000

> <Gold.Chemscore.DEClash>
0.0073

> <Gold.Chemscore.DEInternal>
3.7278

> <Gold.Chemscore.Rot>
1.7754

> <Gold.Chemscore.Internal.Correction>
   9.000000E+99

> <Gold.Chemscore.Hbonds>
donor molecule, donor type, donor heavy atom, donor atom, acceptor molecule, acceptor atom, score
      L1  H     7    23       P1  8028  0.95
      P1  H  7997  8008       L1     3  0.96

> <Gold.Chemscore.Hbond.Weighted>
-6.6737

> <Gold.Chemscore.Metal.Weighted>
-0.0000

> <Gold.Chemscore.Lipo.Weighted>
-4.0399

> <Gold.Chemscore.Internal_Hbond.Weighted>
0.0000

> <Gold.Chemscore.DEClash.Weighted>
0.0073

> <Gold.Chemscore.DEInternal.Weighted>
3.7278

> <Gold.Chemscore.Rot.Weighted>
4.5451

> <Gold.Chemscore.Internal.Correction.Weighted>
   9.000000E+99

> <Gold.Protein.RotatedTorsions>
[ 6907 6896 6895 6894 ] final  117.30 input  -60.11 | X-H torsion
[ 7974 7965 7964 7962 ] final  -68.34 input  175.53 | X-H torsion
[ 8008 7997 7996 7995 ] final  -77.31 input   59.86 | X-H torsion
[ 10167 10162 10161 10158 ] final  -54.34 input  -65.29 | X-H torsion
[ 10718 10713 10712 10709 ] final -124.61 input   66.30 | X-H torsion
[ 10763 10752 10751 10750 ] final  -43.80 input  -60.55 | X-H torsion
[ 11005 11000 10999 10996 ] final -176.90 input  -57.11 | X-H torsion

> <Gold.Protein.ActiveResidues>
 VAL166  LYS551  ARG553  GLY616  TRP617  ASP618  TYR619  PRO620  LYS621  CYS622 
 ASP623  PHE694  ASN695  SER759  ASP760  ASP761  ALA762  ILE779  LEU786  VAL792 
 PHE793  MET794  SER795  GLU796  ALA797  LYS798  CYS799  TRP800  GLU811  SER814 

> <Gold.Protein.RotatedAtoms>
  152.4621  133.7845  159.6868 H   0  0  0  0  0  0  0  0  0  0  0  0  # atno 6907 bound_to 6896
  150.8570  133.7691  159.3012 H   0  0  0  0  0  0  0  0  0  0  0  0  # atno 6908 bound_to 6896
  151.5269  135.1071  159.9944 H   0  0  0  0  0  0  0  0  0  0  0  0  # atno 6909 bound_to 6896
  145.7178  140.9051  143.0646 H   0  0  0  0  0  0  0  0  0  0  0  0  # atno 7974 bound_to 7965
  154.5584  140.0712  156.8780 H   0  0  0  0  0  0  0  0  0  0  0  0  # atno 8008 bound_to 7997
  155.2858  140.3374  155.4237 H   0  0  0  0  0  0  0  0  0  0  0  0  # atno 8009 bound_to 7997
  156.2022  140.1726  156.7862 H   0  0  0  0  0  0  0  0  0  0  0  0  # atno 8010 bound_to 7997
  140.6436  143.2522  151.4923 H   0  0  0  0  0  0  0  0  0  0  0  0  # atno 10167 bound_to 10162
  156.1603  130.6597  151.0039 H   0  0  0  0  0  0  0  0  0  0  0  0  # atno 10718 bound_to 10713
  154.0016  135.6693  153.4759 H   0  0  0  0  0  0  0  0  0  0  0  0  # atno 10763 bound_to 10752
  153.0660  135.5001  154.8197 H   0  0  0  0  0  0  0  0  0  0  0  0  # atno 10764 bound_to 10752
  154.7049  135.3086  154.9248 H   0  0  0  0  0  0  0  0  0  0  0  0  # atno 10765 bound_to 10752
  140.4469  134.6379  157.4783 H   0  0  0  0  0  0  0  0  0  0  0  0  # atno 11005 bound_to 11000
  144.6925  139.9161  143.7466 LP  0  0  0  0  0  0  0  0  0  0  0  0  # atno 17320 bound_to 7965
  146.0654  139.3645  143.0556 LP  0  0  0  0  0  0  0  0  0  0  0  0  # atno 17321 bound_to 7965
  139.5645  144.2075  152.1744 LP  0  0  0  0  0  0  0  0  0  0  0  0  # atno 17342 bound_to 10162
  140.1353  144.5251  150.6777 LP  0  0  0  0  0  0  0  0  0  0  0  0  # atno 17343 bound_to 10162
  157.6727  131.0858  150.7572 LP  0  0  0  0  0  0  0  0  0  0  0  0  # atno 17370 bound_to 10713
  156.7636  130.4806  149.5432 LP  0  0  0  0  0  0  0  0  0  0  0  0  # atno 17371 bound_to 10713
  140.0032  134.6804  155.9496 LP  0  0  0  0  0  0  0  0  0  0  0  0  # atno 17394 bound_to 11000
  141.1681  133.6537  156.4552 LP  0  0  0  0  0  0  0  0  0  0  0  0  # atno 17395 bound_to 11000

$$$$
