AV-unprocessed.smi:308|AV-procd|sdf|2287|dock6
  -GOLD-   2262022183D 1   1.00000     0.00000
 Structure written by MMmdl.
 50 51  0  0  0  0  0  0  0  0  2 V2000
  143.8891  133.9370  152.2034 C   0  0  0  0  0  0  0  0  0  0  0  0
  144.2355  135.4015  151.9013 C   0  0  2  0  0  0  0  0  0  0  0  0
  145.3040  135.5211  150.8019 C   0  0  0  0  0  0  0  0  0  0  0  0
  145.6621  136.9919  150.5294 C   0  0  0  0  0  0  0  0  0  0  0  0
  146.1145  137.6755  151.7683 N   0  3  1  0  0  0  0  0  0  0  0  0
  146.5856  139.0597  151.5055 C   0  0  0  0  0  0  0  0  0  0  0  0
  146.7024  139.9207  152.7820 C   0  0  0  0  0  0  0  0  0  0  0  0
  147.9694  139.7355  153.4853 N   0  0  0  0  0  0  0  0  0  0  0  0
  148.4289  140.5289  154.4633 C   0  0  0  0  0  0  0  0  0  0  0  0
  147.8267  141.5257  154.8591 O   0  0  0  0  0  0  0  0  0  0  0  0
  149.6077  140.0850  154.9321 N   0  0  0  0  0  0  0  0  0  0  0  0
  150.4290  140.6193  155.9634 C   0  0  0  0  0  0  0  0  0  0  0  0
  151.4117  139.8957  156.6789 C   0  0  0  0  0  0  0  0  0  0  0  0
  152.1517  140.5532  157.6806 C   0  0  0  0  0  0  0  0  0  0  0  0
  151.8939  141.9194  157.9537 C   0  0  0  0  0  0  0  0  0  0  0  0
  152.6116  142.6220  158.9487 N   0  0  0  0  0  0  0  0  0  0  0  0
  153.4121  141.8869  159.9228 C   0  0  0  0  0  0  0  0  0  0  0  0
  152.4677  144.0672  159.0719 C   0  0  0  0  0  0  0  0  0  0  0  0
  150.9440  142.6039  157.2714 N   0  0  0  0  0  0  0  0  0  0  0  0
  150.2393  141.9712  156.3112 C   0  0  0  0  0  0  0  0  0  0  0  0
  145.0885  137.6010  152.8414 C   0  0  0  0  0  0  0  0  0  0  0  0
  144.7205  136.1419  153.1584 C   0  0  0  0  0  0  0  0  0  0  0  0
  144.7596  133.3885  152.5642 H   0  0  0  0  0  0  0  0  0  0  0  0
  143.5214  133.4285  151.3118 H   0  0  0  0  0  0  0  0  0  0  0  0
  143.1123  133.8674  152.9653 H   0  0  0  0  0  0  0  0  0  0  0  0
  143.3263  135.8903  151.5472 H   0  0  0  0  0  0  0  0  0  0  0  0
  146.2024  134.9761  151.0960 H   0  0  0  0  0  0  0  0  0  0  0  0
  144.9483  135.0549  149.8824 H   0  0  0  0  0  0  0  0  0  0  0  0
  146.4517  137.0323  149.7780 H   0  0  0  0  0  0  0  0  0  0  0  0
  144.8012  137.5193  150.1151 H   0  0  0  0  0  0  0  0  0  0  0  0
  147.5717  139.0118  151.0415 H   0  0  0  0  0  0  0  0  0  0  0  0
  145.9350  139.5442  150.7763 H   0  0  0  0  0  0  0  0  0  0  0  0
  146.5697  140.9749  152.5338 H   0  0  0  0  0  0  0  0  0  0  0  0
  145.8982  139.6760  153.4755 H   0  0  0  0  0  0  0  0  0  0  0  0
  148.5215  138.9297  153.2284 H   0  0  0  0  0  0  0  0  0  0  0  0
  149.9492  139.2292  154.5195 H   0  0  0  0  0  0  0  0  0  0  0  0
  151.6160  138.8536  156.4940 H   0  0  0  0  0  0  0  0  0  0  0  0
  152.8992  139.9938  158.2222 H   0  0  0  0  0  0  0  0  0  0  0  0
  152.7765  141.2458  160.5342 H   0  0  0  0  0  0  0  0  0  0  0  0
  153.9467  142.5635  160.5895 H   0  0  0  0  0  0  0  0  0  0  0  0
  154.1528  141.2640  159.4203 H   0  0  0  0  0  0  0  0  0  0  0  0
  152.8542  144.5676  158.1837 H   0  0  0  0  0  0  0  0  0  0  0  0
  153.0155  144.4483  159.9341 H   0  0  0  0  0  0  0  0  0  0  0  0
  151.4194  144.3396  159.1990 H   0  0  0  0  0  0  0  0  0  0  0  0
  149.4978  142.5694  155.8019 H   0  0  0  0  0  0  0  0  0  0  0  0
  145.4591  138.0750  153.7497 H   0  0  0  0  0  0  0  0  0  0  0  0
  144.1988  138.1546  152.5361 H   0  0  0  0  0  0  0  0  0  0  0  0
  143.9476  136.1176  153.9276 H   0  0  0  0  0  0  0  0  0  0  0  0
  145.5888  135.6309  153.5777 H   0  0  0  0  0  0  0  0  0  0  0  0
  146.9200  137.1606  152.0945 H   0  0  0  0  0  0  0  0  0  0  0  0
  1  2  1  0  0  0  0
  1 23  1  0  0  0  0
  1 24  1  0  0  0  0
  1 25  1  0  0  0  0
  2 22  1  0  0  0  0
  2  3  1  0  0  0  0
  2 26  1  0  0  0  0
  3  4  1  0  0  0  0
  3 27  1  0  0  0  0
  3 28  1  0  0  0  0
  4  5  1  0  0  0  0
  4 29  1  0  0  0  0
  4 30  1  0  0  0  0
  5  6  1  0  0  0  0
  5 21  1  0  0  0  0
  5 50  1  0  0  0  0
  6  7  1  0  0  0  0
  6 31  1  0  0  0  0
  6 32  1  0  0  0  0
  7  8  1  0  0  0  0
  7 33  1  0  0  0  0
  7 34  1  0  0  0  0
  8  9  1  0  0  0  0
  8 35  1  0  0  0  0
  9 10  2  0  0  0  0
  9 11  1  0  0  0  0
 11 12  1  0  0  0  0
 11 36  1  0  0  0  0
 12 20  1  0  0  0  0
 12 13  2  0  0  0  0
 13 14  1  0  0  0  0
 13 37  1  0  0  0  0
 14 15  2  0  0  0  0
 14 38  1  0  0  0  0
 15 16  1  0  0  0  0
 15 19  1  0  0  0  0
 16 17  1  0  0  0  0
 16 18  1  0  0  0  0
 17 39  1  0  0  0  0
 17 40  1  0  0  0  0
 17 41  1  0  0  0  0
 18 42  1  0  0  0  0
 18 43  1  0  0  0  0
 18 44  1  0  0  0  0
 19 20  2  0  0  0  0
 20 45  1  0  0  0  0
 21 22  1  0  0  0  0
 21 46  1  0  0  0  0
 21 47  1  0  0  0  0
 22 48  1  0  0  0  0
 22 49  1  0  0  0  0
M  CHG  1   5   1
M  END
> <s_m_source_file>
AV-unprocessed.smi

> <i_m_source_file_index>
308

> <i_lp_mmshare_version>
43012

> <i_f3d_flags>
0

> <s_epik_input>
W0NIM11bQ0hdMVtDSDJdW0NIMl1OKFtDSDJdW0NIMl0xKVtDSDJdW0NIMl1bTkhdQyg9TylbTkhdYzJbY0hdW2NIXWMoTihbQ0gzXSlbQ0gzXSluW2NIXTI=

> <s_epik_cmdline>
J2VwaWtfcHl0aG9uJywgJy1waCcsICc3LjAnLCAnLXRuJywgJzgnLCAnLW1hJywgJzIwMCcsICctbWV0YWxfYmluZGluZycsICctaW1hZScsICc8aW5maWxlLm1hZT4nLCAnLW9tYWUnLCAnPG91dGZpbGUubWFlPic=

> <r_lp_tautomer_probability>
1

> <r_epik_Ionization_Penalty>
0.536661

> <r_epik_Ionization_Penalty_Charging>
0.00139388

> <r_epik_Ionization_Penalty_Neutral>
0.535267

> <r_epik_State_Penalty>
0.543381

> <r_epik_Charging_Adjusted_Penalty>
0.544775

> <i_epik_Tot_Q>
1

> <i_epik_Tot_abs_Q>
1

> <r_epik_Metal_State_Penalty>
0.284523

> <b_epik_Metal_Only>
0

> <s_lp_Force_Field>
OPLS_2005

> <r_lp_Energy>
27.2838

> <b_lp_Chiralities_Consistent>
1

> <s_lp_Variant>
AV-unprocessed.smi:308-3

> <Gold.Version>
5.8.1

> <Gold.Id.Protein>
6NUR|6NUR_protein|mol2

> <Gold.PLP.Fitness>
50.9944

> <Gold.PLP.PLP>
-43.0422

> <Gold.PLP.part.hbond>
-2.2358

> <Gold.PLP.part.metal>
0.0000

> <Gold.PLP.part.buried>
0.6896

> <Gold.PLP.part.nonpolar>
-41.5755

> <Gold.PLP.part.repulsive>
0.4993

> <Gold.PLP.ligand.clash>
0.0000

> <Gold.PLP.ligand.torsion>
0.5433

> <Gold.PLP.Chemscore.Hbond>
2.0000

> <Gold.PLP.Chemscore.CHOScore>
1.0000

> <Gold.PLP.Chemscore.Metal>
0.0000

> <Gold.Chemscore.Hbonds>
donor molecule, donor type, donor heavy atom, donor atom, acceptor molecule, acceptor atom, score
      L1  H     5    50       P1  7948  1.01
      L1  C    20    45       P1  8028  1.00

> <Gold.PLP.Chemscore.Internal.Correction>
0.0388

> <Gold.Rescore>
     Score         DG    S(hbond)    S(metal)    S(lipo)     H(rot)  DE(clash)    DE(int)     intcor
     12.80     -16.71       1.00        0.00      98.70       1.42       1.94       1.98       ----

> <Gold.Chemscore.Fitness>
12.7982

> <Gold.Chemscore.DG>
-16.7112

> <Gold.Chemscore.ZeroCoef>
-5.4800

> <Gold.Chemscore.Hbond>
0.9967

> <Gold.Chemscore.Metal>
0.0000

> <Gold.Chemscore.Lipo>
98.7001

> <Gold.Chemscore.Internal_Hbond>
0.0000

> <Gold.Chemscore.DEClash>
1.9359

> <Gold.Chemscore.DEInternal>
1.9771

> <Gold.Chemscore.Rot>
1.4241

> <Gold.Chemscore.Internal.Correction>
   9.000000E+99

> <Gold.Chemscore.Hbonds>
donor molecule, donor type, donor heavy atom, donor atom, acceptor molecule, acceptor atom, score
      L1  H     5    50       P1  7948  0.48

> <Gold.Chemscore.Hbond.Weighted>
-3.3289

> <Gold.Chemscore.Metal.Weighted>
-0.0000

> <Gold.Chemscore.Lipo.Weighted>
-11.5479

> <Gold.Chemscore.Internal_Hbond.Weighted>
0.0000

> <Gold.Chemscore.DEClash.Weighted>
1.9359

> <Gold.Chemscore.DEInternal.Weighted>
1.9771

> <Gold.Chemscore.Rot.Weighted>
3.6456

> <Gold.Chemscore.Internal.Correction.Weighted>
   9.000000E+99

> <Gold.Protein.RotatedTorsions>
[ 6907 6896 6895 6894 ] final -108.95 input  -60.11 | X-H torsion
[ 7974 7965 7964 7962 ] final  -52.70 input  175.53 | X-H torsion
[ 8008 7997 7996 7995 ] final -176.61 input   59.86 | X-H torsion
[ 10167 10162 10161 10158 ] final  -60.64 input  -65.29 | X-H torsion
[ 10718 10713 10712 10709 ] final -146.55 input   66.30 | X-H torsion
[ 10763 10752 10751 10750 ] final  -30.69 input  -60.55 | X-H torsion
[ 11005 11000 10999 10996 ] final  -95.85 input  -57.11 | X-H torsion

> <Gold.Protein.ActiveResidues>
 VAL166  LYS551  ARG553  GLY616  TRP617  ASP618  TYR619  PRO620  LYS621  CYS622 
 ASP623  PHE694  ASN695  SER759  ASP760  ASP761  ALA762  ILE779  LEU786  VAL792 
 PHE793  MET794  SER795  GLU796  ALA797  LYS798  CYS799  TRP800  GLU811  SER814 

> <Gold.Protein.RotatedAtoms>
  150.7532  133.9601  159.3512 H   0  0  0  0  0  0  0  0  0  0  0  0  # atno 6907 bound_to 6896
  151.7526  135.0827  160.0342 H   0  0  0  0  0  0  0  0  0  0  0  0  # atno 6908 bound_to 6896
  152.3456  133.6081  159.5943 H   0  0  0  0  0  0  0  0  0  0  0  0  # atno 6909 bound_to 6896
  145.9050  140.7962  142.9724 H   0  0  0  0  0  0  0  0  0  0  0  0  # atno 7974 bound_to 7965
  155.9970  140.1212  157.0584 H   0  0  0  0  0  0  0  0  0  0  0  0  # atno 8008 bound_to 7997
  154.4230  140.1114  156.5712 H   0  0  0  0  0  0  0  0  0  0  0  0  # atno 8009 bound_to 7997
  155.6265  140.3472  155.4671 H   0  0  0  0  0  0  0  0  0  0  0  0  # atno 8010 bound_to 7997
  140.6058  143.2373  151.5824 H   0  0  0  0  0  0  0  0  0  0  0  0  # atno 10167 bound_to 10162
  156.3964  130.7911  151.2118 H   0  0  0  0  0  0  0  0  0  0  0  0  # atno 10718 bound_to 10713
  153.7851  135.6902  153.4881 H   0  0  0  0  0  0  0  0  0  0  0  0  # atno 10763 bound_to 10752
  153.1786  135.4515  154.9996 H   0  0  0  0  0  0  0  0  0  0  0  0  # atno 10764 bound_to 10752
  154.8066  135.3359  154.7352 H   0  0  0  0  0  0  0  0  0  0  0  0  # atno 10765 bound_to 10752
  141.1429  133.8056  157.0492 H   0  0  0  0  0  0  0  0  0  0  0  0  # atno 11005 bound_to 11000
  144.6738  140.1737  143.7412 LP  0  0  0  0  0  0  0  0  0  0  0  0  # atno 17320 bound_to 7965
  145.8743  139.2288  143.1643 LP  0  0  0  0  0  0  0  0  0  0  0  0  # atno 17321 bound_to 7965
  139.5324  144.2877  152.1177 LP  0  0  0  0  0  0  0  0  0  0  0  0  # atno 17342 bound_to 10162
  140.2067  144.4604  150.6405 LP  0  0  0  0  0  0  0  0  0  0  0  0  # atno 17343 bound_to 10162
  157.7502  131.0300  150.4118 LP  0  0  0  0  0  0  0  0  0  0  0  0  # atno 17370 bound_to 10713
  156.4389  130.3987  149.6710 LP  0  0  0  0  0  0  0  0  0  0  0  0  # atno 17371 bound_to 10713
  140.0643  134.9738  157.1358 LP  0  0  0  0  0  0  0  0  0  0  0  0  # atno 17394 bound_to 11000
  140.3803  134.2294  155.7171 LP  0  0  0  0  0  0  0  0  0  0  0  0  # atno 17395 bound_to 11000

$$$$
