#       Name:                AV-unprocessed.smi:1978
#       Creating user name   scv26
#       Creation time:       Fri Mar 27 10:17:41 2020


#       File generated by GOLD software.
#

@<TRIPOS>MOLECULE
AV-unprocessed.smi:1978
    50    51     1
SMALL
NO_CHARGES


@<TRIPOS>ATOM
      1 ****        -3.9238   6.8267  -2.0427 C.3            1 S1                 0.0000
      2 ****        -3.3783   5.4752  -1.7311 C.2            1 S1                 0.0000
      3 ****        -3.2930   4.7497  -0.5761 C.2            1 S1                 0.0000
      4 ****        -2.6579   3.5512  -0.9973 C.2            1 S1                 0.0000
      5 ****        -2.3724   2.5139  -0.0730 N.am           1 S1                 0.0000
      6 ****        -1.7849   1.3323  -0.3269 C.2            1 S1                 0.0000
      7 ****        -1.4239   0.9421  -1.4377 O.2            1 S1                 0.0000
      8 ****        -1.6306   0.6100   0.7925 N.am           1 S1                 0.0000
      9 ****        -1.0212  -0.7166   0.8482 C.3            1 S1                 0.0000
     10 ****         0.5268  -0.6912   0.6828 C.3            1 S1                 0.0000
     11 ****         1.1366   0.2342   1.7680 C.3            1 S1                 0.0000
     12 ****         1.1088  -2.0788   0.7044 N.4            1 S1                 1.0000
     13 ****         0.6660  -2.9393  -0.4358 C.3            1 S1                 0.0000
     14 ****         1.0805  -4.4065  -0.2360 C.3            1 S1                 0.0000
     15 ****         2.5911  -4.5387  -0.0345 C.3            1 S1                 0.0000
     16 ****         3.0361  -3.6286   1.1156 C.3            1 S1                 0.0000
     17 ****         2.5951  -2.1647   0.9050 C.3            1 S1                 0.0000
     18 ****         3.4099  -1.4724  -0.2121 C.3            1 S1                 0.0000
     19 ****        -2.3819   3.5450  -2.2925 N.2            1 S1                 0.0000
     20 ****        -2.8422   4.7780  -2.7694 O.3            1 S1                 0.0000
     21 ****        -4.4100   7.2617  -1.1694 H              1 S1                 0.0000
     22 ****        -4.6586   6.7717  -2.8460 H              1 S1                 0.0000
     23 ****        -3.1274   7.5011  -2.3574 H              1 S1                 0.0000
     24 ****        -3.6299   5.0349   0.4094 H              1 S1                 0.0000
     25 ****        -2.6318   2.6982   0.8848 H              1 S1                 0.0000
     26 ****        -1.9556   1.0020   1.6644 H              1 S1                 0.0000
     27 ****        -1.2832  -1.1671   1.8060 H              1 S1                 0.0000
     28 ****        -1.5173  -1.3139   0.0864 H              1 S1                 0.0000
     29 ****         0.7625  -0.2583  -0.2902 H              1 S1                 0.0000
     30 ****         0.6743   1.2208   1.7710 H              1 S1                 0.0000
     31 ****         2.1982   0.4215   1.6148 H              1 S1                 0.0000
     32 ****         1.0084  -0.1880   2.7652 H              1 S1                 0.0000
     33 ****        -0.4143  -2.9399  -0.5469 H              1 S1                 0.0000
     34 ****         1.0639  -2.5534  -1.3747 H              1 S1                 0.0000
     35 ****         0.5596  -4.8167   0.6301 H              1 S1                 0.0000
     36 ****         0.7680  -5.0022  -1.0943 H              1 S1                 0.0000
     37 ****         2.8522  -5.5747   0.1833 H              1 S1                 0.0000
     38 ****         3.1150  -4.2745  -0.9535 H              1 S1                 0.0000
     39 ****         2.6095  -4.0004   2.0484 H              1 S1                 0.0000
     40 ****         4.1185  -3.6845   1.2369 H              1 S1                 0.0000
     41 ****         2.8452  -1.6722   1.8433 H              1 S1                 0.0000
     42 ****         4.4772  -1.5261   0.0044 H              1 S1                 0.0000
     43 ****         3.1608  -0.4169  -0.3115 H              1 S1                 0.0000
     44 ****         3.2580  -1.9340  -1.1867 H              1 S1                 0.0000
     45 ****         0.7160  -2.5086   1.5297 H              1 S1                 0.0000
     46 ****        -1.5615   1.5222  -2.2405 LP             1 S1                 0.0000
     47 ****        -0.9931   0.0451  -1.5369 LP             1 S1                 0.0000
     48 ****        -1.9401   2.8168  -2.8166 LP             1 S1                 0.0000
     49 ****        -2.0800   5.2925  -3.1623 LP             1 S1                 0.0000
     50 ****        -3.5398   4.6285  -3.4701 LP             1 S1                 0.0000
@<TRIPOS>BOND
    1    1    2 1     
    2    1   21 1     
    3    1   22 1     
    4    1   23 1     
    5    2   20 1     
    6    2    3 2     
    7    3    4 1     
    8    3   24 1     
    9    4    5 1     
   10    4   19 2     
   11    5    6 am    
   12    5   25 1     
   13    6    7 2     
   14    6    8 am    
   15    8    9 1     
   16    8   26 1     
   17    9   10 1     
   18    9   27 1     
   19    9   28 1     
   20   10   11 1     
   21   10   12 1     
   22   10   29 1     
   23   11   30 1     
   24   11   31 1     
   25   11   32 1     
   26   12   17 1     
   27   12   13 1     
   28   12   45 1     
   29   13   14 1     
   30   13   33 1     
   31   13   34 1     
   32   14   15 1     
   33   14   35 1     
   34   14   36 1     
   35   15   16 1     
   36   15   37 1     
   37   15   38 1     
   38   16   17 1     
   39   16   39 1     
   40   16   40 1     
   41   17   18 1     
   42   17   41 1     
   43   18   42 1     
   44   18   43 1     
   45   18   44 1     
   46   19   20 1     
   47    7   46 1     
   48    7   47 1     
   49   19   48 1     
   50   20   49 1     
   51   20   50 1     
@<TRIPOS>SUBSTRUCTURE
      1 S1             1
@<TRIPOS>SET
LONE_PAIRS      STATIC     ATOMS    <user>   **** ""
5 46 47 48 49 50
DONOR_HYDROGENS      STATIC     ATOMS    <user>   **** ""
3 25 26 45
ATOM$BLUE        STATIC     ATOMS    COLORGROUP SYSTEM
5 46 47 48 49 50
ATOM$RED        STATIC     ATOMS    COLORGROUP SYSTEM
3 25 26 45
