#       Name:                AV-unprocessed.smi:829
#       Creating user name   scv26
#       Creation time:       Fri Mar 27 01:32:14 2020


#       File generated by GOLD software.
#

@<TRIPOS>MOLECULE
AV-unprocessed.smi:829
    52    54     1
SMALL
NO_CHARGES


@<TRIPOS>ATOM
      1 ****        -0.8407   3.6677   0.4713 O.2            1 S1                 0.0000
      2 ****        -1.1474   2.9099  -0.4481 C.2            1 S1                 0.0000
      3 ****        -2.3439   2.8761  -1.0609 N.am           1 S1                 0.0000
      4 ****        -3.4887   3.6832  -0.8138 C.ar           1 S1                 0.0000
      5 ****        -4.7406   3.1915  -1.2466 C.ar           1 S1                 0.0000
      6 ****        -5.9025   3.9613  -1.0337 C.ar           1 S1                 0.0000
      7 ****        -5.8103   5.1647  -0.4285 N.pl3          1 S1                 1.0000
      8 ****        -4.6357   5.6833  -0.0110 C.ar           1 S1                 0.0000
      9 ****        -3.4402   4.9594  -0.1963 C.ar           1 S1                 0.0000
     10 ****        -0.3138   1.9869  -0.9512 N.am           1 S1                 0.0000
     11 ****         1.0652   1.7681  -0.5128 C.3            1 S1                 0.0000
     12 ****         1.8532   0.9820  -1.5755 C.3            1 S1                 0.0000
     13 ****         1.4296  -0.4976  -1.6408 C.3            1 S1                 0.0000
     14 ****         1.5371  -1.1494  -0.3099 N.4            1 S1                 1.0000
     15 ****         1.2787  -2.6122  -0.3587 C.3            1 S1                 0.0000
     16 ****         2.3203  -3.4111   0.4487 C.3            1 S1                 0.0000
     17 ****         2.2176  -4.9225   0.2297 C.3            1 S1                 0.0000
     18 ****         2.9832  -5.5426   1.4013 C.3            1 S1                 0.0000
     19 ****         2.9095  -4.5199   2.5442 C.3            1 S1                 0.0000
     20 ****         2.2073  -3.2823   1.9721 C.3            1 S1                 0.0000
     21 ****         0.7123  -0.4465   0.7070 C.3            1 S1                 0.0000
     22 ****         1.1342   1.0267   0.8380 C.3            1 S1                 0.0000
     23 ****        -2.4699   2.1465  -1.7470 H              1 S1                 0.0000
     24 ****        -4.8161   2.2293  -1.7324 H              1 S1                 0.0000
     25 ****        -6.8951   3.6530  -1.3281 H              1 S1                 0.0000
     26 ****        -4.6851   6.6583   0.4513 H              1 S1                 0.0000
     27 ****        -2.5120   5.4038   0.1287 H              1 S1                 0.0000
     28 ****        -0.6485   1.4070  -1.7067 H              1 S1                 0.0000
     29 ****         1.5360   2.7466  -0.4004 H              1 S1                 0.0000
     30 ****         1.7400   1.4490  -2.5547 H              1 S1                 0.0000
     31 ****         2.9168   1.0339  -1.3384 H              1 S1                 0.0000
     32 ****         0.4065  -0.5859  -2.0096 H              1 S1                 0.0000
     33 ****         2.0700  -1.0163  -2.3556 H              1 S1                 0.0000
     34 ****         0.2633  -2.8393  -0.0296 H              1 S1                 0.0000
     35 ****         1.3337  -2.9553  -1.3931 H              1 S1                 0.0000
     36 ****         3.3217  -3.0991   0.1470 H              1 S1                 0.0000
     37 ****         1.1731  -5.2350   0.2730 H              1 S1                 0.0000
     38 ****         2.6154  -5.2341  -0.7367 H              1 S1                 0.0000
     39 ****         2.5703  -6.5106   1.6869 H              1 S1                 0.0000
     40 ****         4.0250  -5.7025   1.1203 H              1 S1                 0.0000
     41 ****         2.3665  -4.9146   3.4036 H              1 S1                 0.0000
     42 ****         3.9150  -4.2675   2.8832 H              1 S1                 0.0000
     43 ****         2.6440  -2.3556   2.3457 H              1 S1                 0.0000
     44 ****         1.1578  -3.2980   2.2697 H              1 S1                 0.0000
     45 ****        -0.3421  -0.5142   0.4343 H              1 S1                 0.0000
     46 ****         0.8136  -0.9321   1.6765 H              1 S1                 0.0000
     47 ****         2.1566   1.0693   1.2158 H              1 S1                 0.0000
     48 ****         0.5190   1.5266   1.5868 H              1 S1                 0.0000
     49 ****         2.5017  -1.0456  -0.0283 H              1 S1                 0.0000
     50 ****        -6.6628   5.7070  -0.2846 H              1 S1                 0.0000
     51 ****        -1.5073   4.3267   0.8196 LP             1 S1                 0.0000
     52 ****         0.0753   3.6246   0.8703 LP             1 S1                 0.0000
@<TRIPOS>BOND
    1    1    2 2     
    2    2    3 am    
    3    2   10 am    
    4    3    4 1     
    5    3   23 1     
    6    4    9 ar    
    7    4    5 ar    
    8    5    6 ar    
    9    5   24 1     
   10    6    7 ar    
   11    6   25 1     
   12    7    8 ar    
   13    7   50 1     
   14    8    9 ar    
   15    8   26 1     
   16    9   27 1     
   17   10   11 1     
   18   10   28 1     
   19   11   22 1     
   20   11   12 1     
   21   11   29 1     
   22   12   13 1     
   23   12   30 1     
   24   12   31 1     
   25   13   14 1     
   26   13   32 1     
   27   13   33 1     
   28   14   15 1     
   29   14   21 1     
   30   14   49 1     
   31   15   16 1     
   32   15   34 1     
   33   15   35 1     
   34   16   20 1     
   35   16   17 1     
   36   16   36 1     
   37   17   18 1     
   38   17   37 1     
   39   17   38 1     
   40   18   19 1     
   41   18   39 1     
   42   18   40 1     
   43   19   20 1     
   44   19   41 1     
   45   19   42 1     
   46   20   43 1     
   47   20   44 1     
   48   21   22 1     
   49   21   45 1     
   50   21   46 1     
   51   22   47 1     
   52   22   48 1     
   53    1   51 1     
   54    1   52 1     
@<TRIPOS>SUBSTRUCTURE
      1 S1             1
@<TRIPOS>SET
LONE_PAIRS      STATIC     ATOMS    <user>   **** ""
2 51 52
DONOR_HYDROGENS      STATIC     ATOMS    <user>   **** ""
4 23 50 28 49
ATOM$BLUE        STATIC     ATOMS    COLORGROUP SYSTEM
2 51 52
ATOM$RED        STATIC     ATOMS    COLORGROUP SYSTEM
4 23 50 28 49
