AV-unprocessed.smi:1534|AV-procd|sdf|6167|dock1
  -GOLD-   22720 6313D 1   1.00000     0.00000
 Structure written by MMmdl.
 36 37  0  0  0  0  0  0  0  0  1 V2000
  148.9441  135.0398  156.1694 O   0  0  0  0  0  0  0  0  0  0  0  0
  148.9834  135.3167  154.9723 C   0  0  0  0  0  0  0  0  0  0  0  0
  148.4907  134.5176  154.0110 N   0  0  0  0  0  0  0  0  0  0  0  0
  147.9000  133.2040  154.2357 C   0  0  0  0  0  0  0  0  0  0  0  0
  147.8598  132.3817  152.9370 C   0  0  0  0  0  0  0  0  0  0  0  0
  146.6191  132.6648  152.1120 C   0  0  0  0  0  0  0  0  0  0  0  0
  146.3018  133.9819  151.7164 C   0  0  0  0  0  0  0  0  0  0  0  0
  145.1378  134.1906  150.9517 C   0  0  0  0  0  0  0  0  0  0  0  0
  144.3414  133.0801  150.6119 C   0  0  0  0  0  0  0  0  0  0  0  0
  144.7464  131.8047  151.0537 C   0  0  0  0  0  0  0  0  0  0  0  0
  145.8600  131.5936  151.7883 N   0  0  0  0  0  0  0  0  0  0  0  0
  149.5370  136.4587  154.5266 N   0  0  0  0  0  0  0  0  0  0  0  0
  150.1554  137.5295  155.3097 C   0  0  1  0  0  0  0  0  0  0  0  0
  151.3594  136.9976  156.1097 C   0  0  0  0  0  0  0  0  0  0  0  0
  152.1848  138.1880  156.6137 C   0  0  0  0  0  0  0  0  0  0  0  0
  151.9702  139.5202  155.3735 S   0  0  0  0  0  0  0  0  0  0  0  0
  151.4057  140.7035  156.0396 O   0  0  0  0  0  0  0  0  0  0  0  0
  153.1789  139.6228  154.5422 O   0  0  0  0  0  0  0  0  0  0  0  0
  150.6570  138.6766  154.4156 C   0  0  0  0  0  0  0  0  0  0  0  0
  148.5565  134.8292  153.0530 H   0  0  0  0  0  0  0  0  0  0  0  0
  148.4513  132.6694  155.0112 H   0  0  0  0  0  0  0  0  0  0  0  0
  146.8888  133.3499  154.6169 H   0  0  0  0  0  0  0  0  0  0  0  0
  148.7419  132.5963  152.3319 H   0  0  0  0  0  0  0  0  0  0  0  0
  147.8983  131.3156  153.1653 H   0  0  0  0  0  0  0  0  0  0  0  0
  146.9338  134.8136  151.9918 H   0  0  0  0  0  0  0  0  0  0  0  0
  144.8613  135.1843  150.6316 H   0  0  0  0  0  0  0  0  0  0  0  0
  143.4422  133.2024  150.0266 H   0  0  0  0  0  0  0  0  0  0  0  0
  144.1601  130.9309  150.8106 H   0  0  0  0  0  0  0  0  0  0  0  0
  149.5040  136.6109  153.5288 H   0  0  0  0  0  0  0  0  0  0  0  0
  149.4351  137.9277  156.0268 H   0  0  0  0  0  0  0  0  0  0  0  0
  151.0474  136.3522  156.9313 H   0  0  0  0  0  0  0  0  0  0  0  0
  151.9880  136.3939  155.4533 H   0  0  0  0  0  0  0  0  0  0  0  0
  151.7985  138.5509  157.5663 H   0  0  0  0  0  0  0  0  0  0  0  0
  153.2420  137.9516  156.7345 H   0  0  0  0  0  0  0  0  0  0  0  0
  151.1091  138.2939  153.4999 H   0  0  0  0  0  0  0  0  0  0  0  0
  149.8763  139.3882  154.1460 H   0  0  0  0  0  0  0  0  0  0  0  0
  1  2  2  0  0  0  0
  2  3  1  0  0  0  0
  2 12  1  0  0  0  0
  3  4  1  0  0  0  0
  3 20  1  0  0  0  0
  4  5  1  0  0  0  0
  4 21  1  0  0  0  0
  4 22  1  0  0  0  0
  5  6  1  0  0  0  0
  5 23  1  0  0  0  0
  5 24  1  0  0  0  0
  6 11  1  0  0  0  0
  6  7  2  0  0  0  0
  7  8  1  0  0  0  0
  7 25  1  0  0  0  0
  8  9  2  0  0  0  0
  8 26  1  0  0  0  0
  9 10  1  0  0  0  0
  9 27  1  0  0  0  0
 10 11  2  0  0  0  0
 10 28  1  0  0  0  0
 12 13  1  0  0  0  0
 12 29  1  0  0  0  0
 13 19  1  0  0  0  0
 13 14  1  0  0  0  0
 13 30  1  0  0  0  0
 14 15  1  0  0  0  0
 14 31  1  0  0  0  0
 14 32  1  0  0  0  0
 15 16  1  0  0  0  0
 15 33  1  0  0  0  0
 15 34  1  0  0  0  0
 16 17  2  0  0  0  0
 16 18  2  0  0  0  0
 16 19  1  0  0  0  0
 19 35  1  0  0  0  0
 19 36  1  0  0  0  0
M  END
> <s_m_source_file>
AV-unprocessed.smi

> <i_m_source_file_index>
1534

> <i_lp_mmshare_version>
43012

> <i_f3d_flags>
0

> <s_epik_input>
Tz1TMSg9TylbQ0gyXVtDSDJdW0NASF0oW0NIMl0xKVtOSF1DKD1PKVtOSF1bQ0gyXVtDSDJdYzJbY0hdW2NIXVtjSF1bY0hdbjI=

> <s_epik_cmdline>
J2VwaWtfcHl0aG9uJywgJy1waCcsICc3LjAnLCAnLXRuJywgJzgnLCAnLW1hJywgJzIwMCcsICctbWV0YWxfYmluZGluZycsICctaW1hZScsICc8aW5maWxlLm1hZT4nLCAnLW9tYWUnLCAnPG91dGZpbGUubWFlPic=

> <r_epik_Ionization_Penalty>
0.0423605

> <r_epik_Ionization_Penalty_Charging>
0

> <r_epik_Ionization_Penalty_Neutral>
0.0423605

> <r_epik_State_Penalty>
0.0357408

> <r_epik_Charging_Adjusted_Penalty>
0.0357408

> <i_epik_Tot_Q>
0

> <i_epik_Tot_abs_Q>
0

> <r_epik_Metal_State_Penalty>
0.033344

> <b_epik_Metal_Only>
0

> <s_lp_Force_Field>
OPLS_2005

> <r_lp_Energy>
9.82399

> <b_lp_Chiralities_Consistent>
1

> <s_lp_Variant>
AV-unprocessed.smi:1534-2

> <Gold.Version>
5.8.1

> <Gold.Id.Protein>
6NUR|6NUR_protein|mol2

> <Gold.PLP.Fitness>
39.6848

> <Gold.PLP.PLP>
-31.2433

> <Gold.PLP.part.hbond>
-4.0000

> <Gold.PLP.part.metal>
0.0000

> <Gold.PLP.part.buried>
-4.8226

> <Gold.PLP.part.nonpolar>
-22.7033

> <Gold.PLP.part.repulsive>
0.2144

> <Gold.PLP.ligand.clash>
0.0000

> <Gold.PLP.ligand.torsion>
0.2989

> <Gold.PLP.Chemscore.Hbond>
3.0000

> <Gold.PLP.Chemscore.CHOScore>
0.0000

> <Gold.PLP.Chemscore.Metal>
0.0000

> <Gold.Chemscore.Hbonds>
donor molecule, donor type, donor heavy atom, donor atom, acceptor molecule, acceptor atom, score
      L1  H     3    20       P1  7948  0.98
      L1  H    12    29       P1  7948  1.00
      P1  H  7997  8009       L1    18  1.00

> <Gold.PLP.Chemscore.Internal.Correction>
0.0394

> <Gold.Rescore>
     Score         DG    S(hbond)    S(metal)    S(lipo)     H(rot)  DE(clash)    DE(int)     intcor
     17.26     -17.63       2.76        0.00      62.85       1.73       0.03       0.33       ----

> <Gold.Chemscore.Fitness>
17.2648

> <Gold.Chemscore.DG>
-17.6266

> <Gold.Chemscore.ZeroCoef>
-5.4800

> <Gold.Chemscore.Hbond>
2.7646

> <Gold.Chemscore.Metal>
0.0000

> <Gold.Chemscore.Lipo>
62.8540

> <Gold.Chemscore.Internal_Hbond>
0.0000

> <Gold.Chemscore.DEClash>
0.0281

> <Gold.Chemscore.DEInternal>
0.3336

> <Gold.Chemscore.Rot>
1.7348

> <Gold.Chemscore.Internal.Correction>
   9.000000E+99

> <Gold.Chemscore.Hbonds>
donor molecule, donor type, donor heavy atom, donor atom, acceptor molecule, acceptor atom, score
      L1  H     3    20       P1  7948  0.47
      L1  H    12    29       P1  7948  0.73
      P1  H  7997  8009       L1    18  0.55

> <Gold.Chemscore.Hbond.Weighted>
-9.2336

> <Gold.Chemscore.Metal.Weighted>
-0.0000

> <Gold.Chemscore.Lipo.Weighted>
-7.3539

> <Gold.Chemscore.Internal_Hbond.Weighted>
0.0000

> <Gold.Chemscore.DEClash.Weighted>
0.0281

> <Gold.Chemscore.DEInternal.Weighted>
0.3336

> <Gold.Chemscore.Rot.Weighted>
4.4410

> <Gold.Chemscore.Internal.Correction.Weighted>
   9.000000E+99

> <Gold.Protein.RotatedTorsions>
[ 6907 6896 6895 6894 ] final   77.50 input  -60.11 | X-H torsion
[ 7974 7965 7964 7962 ] final -141.46 input  175.53 | X-H torsion
[ 8008 7997 7996 7995 ] final -123.24 input   59.86 | X-H torsion
[ 10167 10162 10161 10158 ] final  -58.01 input  -65.29 | X-H torsion
[ 10718 10713 10712 10709 ] final  100.34 input   66.30 | X-H torsion
[ 10763 10752 10751 10750 ] final  -60.65 input  -60.55 | X-H torsion
[ 11005 11000 10999 10996 ] final  118.13 input  -57.11 | X-H torsion

> <Gold.Protein.ActiveResidues>
 VAL166  LYS551  ARG553  GLY616  TRP617  ASP618  TYR619  PRO620  LYS621  CYS622 
 ASP623  PHE694  ASN695  SER759  ASP760  ASP761  ALA762  ILE779  LEU786  VAL792 
 PHE793  MET794  SER795  GLU796  ALA797  LYS798  CYS799  TRP800  GLU811  SER814 

> <Gold.Protein.RotatedAtoms>
  152.5120  134.3807  159.9349 H   0  0  0  0  0  0  0  0  0  0  0  0  # atno 6907 bound_to 6896
  151.3764  133.3830  159.2713 H   0  0  0  0  0  0  0  0  0  0  0  0  # atno 6908 bound_to 6896
  150.9538  134.8955  159.7747 H   0  0  0  0  0  0  0  0  0  0  0  0  # atno 6909 bound_to 6896
  144.8518  140.6077  143.5385 H   0  0  0  0  0  0  0  0  0  0  0  0  # atno 7974 bound_to 7965
  155.1774  140.0409  157.2875 H   0  0  0  0  0  0  0  0  0  0  0  0  # atno 8008 bound_to 7997
  154.6227  140.2505  155.7502 H   0  0  0  0  0  0  0  0  0  0  0  0  # atno 8009 bound_to 7997
  156.2442  140.2891  156.0543 H   0  0  0  0  0  0  0  0  0  0  0  0  # atno 8010 bound_to 7997
  140.6223  143.2424  151.5449 H   0  0  0  0  0  0  0  0  0  0  0  0  # atno 10167 bound_to 10162
  157.6856  131.0695  150.5085 H   0  0  0  0  0  0  0  0  0  0  0  0  # atno 10718 bound_to 10713
  154.2725  135.6287  153.5316 H   0  0  0  0  0  0  0  0  0  0  0  0  # atno 10763 bound_to 10752
  152.9878  135.5613  154.5584 H   0  0  0  0  0  0  0  0  0  0  0  0  # atno 10764 bound_to 10752
  154.5157  135.2879  155.1280 H   0  0  0  0  0  0  0  0  0  0  0  0  # atno 10765 bound_to 10752
  139.9098  134.9617  156.7456 H   0  0  0  0  0  0  0  0  0  0  0  0  # atno 11005 bound_to 11000
  145.4485  139.1526  143.3931 LP  0  0  0  0  0  0  0  0  0  0  0  0  # atno 17320 bound_to 7965
  146.2791  140.4610  142.8783 LP  0  0  0  0  0  0  0  0  0  0  0  0  # atno 17321 bound_to 7965
  139.5450  144.2546  152.1424 LP  0  0  0  0  0  0  0  0  0  0  0  0  # atno 17342 bound_to 10162
  140.1769  144.4881  150.6549 LP  0  0  0  0  0  0  0  0  0  0  0  0  # atno 17343 bound_to 10162
  156.5403  130.4206  149.6157 LP  0  0  0  0  0  0  0  0  0  0  0  0  # atno 17370 bound_to 10713
  156.2991  130.7167  151.2034 LP  0  0  0  0  0  0  0  0  0  0  0  0  # atno 17371 bound_to 10713
  140.6815  133.9470  155.7913 LP  0  0  0  0  0  0  0  0  0  0  0  0  # atno 17394 bound_to 11000
  141.0507  134.0489  157.3787 LP  0  0  0  0  0  0  0  0  0  0  0  0  # atno 17395 bound_to 11000

$$$$
