AV-unprocessed.smi:610|AV-procd|sdf|3059|dock8
  -GOLD-   2262023583D 1   1.00000     0.00000
 Structure written by MMmdl.
 37 38  0  0  0  0  0  0  0  0  1 V2000
  151.3367  139.8135  156.7315 C   0  0  0  0  0  0  0  0  0  0  0  0
  150.6519  141.1849  156.6302 C   0  0  2  0  0  0  0  0  0  0  0  0
  150.3891  141.7911  158.0217 C   0  0  0  0  0  0  0  0  0  0  0  0
  151.3133  142.8651  158.3364 N   0  0  0  0  0  0  0  0  0  0  0  0
  151.4343  144.0864  157.6859 C   0  0  0  0  0  0  0  0  0  0  0  0
  152.4401  144.7744  158.3263 C   0  0  0  0  0  0  0  0  0  0  0  0
  152.9480  144.0010  159.3675 N   0  0  0  0  0  0  0  0  0  0  0  0
  152.2316  142.8856  159.3120 C   0  0  0  0  0  0  0  0  0  0  0  0
  149.3943  141.0587  155.8974 N   0  0  0  0  0  0  0  0  0  0  0  0
  149.2410  140.5014  154.6837 C   0  0  0  0  0  0  0  0  0  0  0  0
  150.1821  139.9984  154.0682 O   0  0  0  0  0  0  0  0  0  0  0  0
  147.8226  140.4962  154.0575 C   0  0  0  0  0  0  0  0  0  0  0  0
  147.7774  139.7372  152.8134 N   0  0  0  0  0  0  0  0  0  0  0  0
  146.7676  139.9121  155.0371 C   0  0  0  0  0  0  0  0  0  0  0  0
  145.7484  141.0238  155.3170 C   0  0  0  0  0  0  0  0  0  0  0  0
  146.4646  142.3233  154.9653 C   0  0  0  0  0  0  0  0  0  0  0  0
  147.3484  141.9419  153.7788 C   0  0  0  0  0  0  0  0  0  0  0  0
  152.2856  139.8886  157.2629 H   0  0  0  0  0  0  0  0  0  0  0  0
  151.5468  139.4026  155.7434 H   0  0  0  0  0  0  0  0  0  0  0  0
  150.7123  139.0961  157.2650 H   0  0  0  0  0  0  0  0  0  0  0  0
  151.3209  141.8581  156.0905 H   0  0  0  0  0  0  0  0  0  0  0  0
  149.3692  142.1725  158.0913 H   0  0  0  0  0  0  0  0  0  0  0  0
  150.4896  141.0246  158.7913 H   0  0  0  0  0  0  0  0  0  0  0  0
  150.8142  144.3560  156.8436 H   0  0  0  0  0  0  0  0  0  0  0  0
  152.8344  145.7585  158.1192 H   0  0  0  0  0  0  0  0  0  0  0  0
  152.3805  142.0621  159.9951 H   0  0  0  0  0  0  0  0  0  0  0  0
  148.5688  141.4375  156.3392 H   0  0  0  0  0  0  0  0  0  0  0  0
  146.9834  140.0429  152.2692 H   0  0  0  0  0  0  0  0  0  0  0  0
  148.5959  139.9549  152.2633 H   0  0  0  0  0  0  0  0  0  0  0  0
  146.2640  139.0277  154.6432 H   0  0  0  0  0  0  0  0  0  0  0  0
  147.2222  139.5985  155.9783 H   0  0  0  0  0  0  0  0  0  0  0  0
  144.8849  140.8987  154.6627 H   0  0  0  0  0  0  0  0  0  0  0  0
  145.3875  141.0113  156.3460 H   0  0  0  0  0  0  0  0  0  0  0  0
  145.7743  143.1341  154.7317 H   0  0  0  0  0  0  0  0  0  0  0  0
  147.0841  142.6440  155.8038 H   0  0  0  0  0  0  0  0  0  0  0  0
  148.1695  142.6490  153.6485 H   0  0  0  0  0  0  0  0  0  0  0  0
  146.7503  141.9876  152.8668 H   0  0  0  0  0  0  0  0  0  0  0  0
  1  2  1  0  0  0  0
  1 18  1  0  0  0  0
  1 19  1  0  0  0  0
  1 20  1  0  0  0  0
  2  3  1  0  0  0  0
  2  9  1  0  0  0  0
  2 21  1  0  0  0  0
  3  4  1  0  0  0  0
  3 22  1  0  0  0  0
  3 23  1  0  0  0  0
  4  8  1  0  0  0  0
  4  5  1  0  0  0  0
  5  6  2  0  0  0  0
  5 24  1  0  0  0  0
  6  7  1  0  0  0  0
  6 25  1  0  0  0  0
  7  8  2  0  0  0  0
  8 26  1  0  0  0  0
  9 10  1  0  0  0  0
  9 27  1  0  0  0  0
 10 11  2  0  0  0  0
 10 12  1  0  0  0  0
 12 17  1  0  0  0  0
 12 13  1  0  0  0  0
 12 14  1  0  0  0  0
 13 28  1  0  0  0  0
 13 29  1  0  0  0  0
 14 15  1  0  0  0  0
 14 30  1  0  0  0  0
 14 31  1  0  0  0  0
 15 16  1  0  0  0  0
 15 32  1  0  0  0  0
 15 33  1  0  0  0  0
 16 17  1  0  0  0  0
 16 34  1  0  0  0  0
 16 35  1  0  0  0  0
 17 36  1  0  0  0  0
 17 37  1  0  0  0  0
M  END
> <s_m_source_file>
AV-unprocessed.smi

> <i_m_source_file_index>
610

> <i_lp_mmshare_version>
43012

> <i_f3d_flags>
0

> <s_epik_input>
W2NIXTFuW2NIXVtjSF1uMVtDSDJdW0NAQEhdKFtDSDNdKVtOSF1DKD1PKUMyKFtOSDJdKVtDSDJdW0NIMl1bQ0gyXVtDSDJdMg==

> <s_epik_cmdline>
J2VwaWtfcHl0aG9uJywgJy1waCcsICc3LjAnLCAnLXRuJywgJzgnLCAnLW1hJywgJzIwMCcsICctbWV0YWxfYmluZGluZycsICctaW1hZScsICc8aW5maWxlLm1hZT4nLCAnLW9tYWUnLCAnPG91dGZpbGUubWFlPic=

> <r_lp_tautomer_probability>
1

> <r_epik_Ionization_Penalty>
1.91974

> <r_epik_Ionization_Penalty_Charging>
0.644069

> <r_epik_Ionization_Penalty_Neutral>
1.27567

> <r_epik_State_Penalty>
1.9806

> <r_epik_Charging_Adjusted_Penalty>
2.62467

> <i_epik_Tot_Q>
0

> <i_epik_Tot_abs_Q>
0

> <r_epik_Metal_State_Penalty>
1.61835

> <b_epik_Metal_Only>
0

> <s_lp_Force_Field>
OPLS_2005

> <r_lp_Energy>
21.9363

> <b_lp_Chiralities_Consistent>
1

> <s_lp_Variant>
AV-unprocessed.smi:610-7

> <Gold.Version>
5.8.1

> <Gold.Id.Protein>
6NUR|6NUR_protein|mol2

> <Gold.PLP.Fitness>
42.2053

> <Gold.PLP.PLP>
-34.8208

> <Gold.PLP.part.hbond>
-1.9560

> <Gold.PLP.part.metal>
0.0000

> <Gold.PLP.part.buried>
-6.0341

> <Gold.PLP.part.nonpolar>
-28.4920

> <Gold.PLP.part.repulsive>
1.1378

> <Gold.PLP.ligand.clash>
0.0000

> <Gold.PLP.ligand.torsion>
0.8238

> <Gold.PLP.Chemscore.Hbond>
2.0000

> <Gold.PLP.Chemscore.CHOScore>
1.0000

> <Gold.PLP.Chemscore.Metal>
0.0000

> <Gold.Chemscore.Hbonds>
donor molecule, donor type, donor heavy atom, donor atom, acceptor molecule, acceptor atom, score
      L1  H    13    29       P1  7957  0.89
      P1  H  7989  7998       L1    11  0.99
      L1  C     5    24       P1  8028  1.00

> <Gold.PLP.Chemscore.Internal.Correction>
0.0321

> <Gold.Rescore>
     Score         DG    S(hbond)    S(metal)    S(lipo)     H(rot)  DE(clash)    DE(int)     intcor
     12.64     -14.84       1.95        0.00      66.99       1.95       0.05       2.14       ----

> <Gold.Chemscore.Fitness>
12.6425

> <Gold.Chemscore.DG>
-14.8353

> <Gold.Chemscore.ZeroCoef>
-5.4800

> <Gold.Chemscore.Hbond>
1.9474

> <Gold.Chemscore.Metal>
0.0000

> <Gold.Chemscore.Lipo>
66.9906

> <Gold.Chemscore.Internal_Hbond>
0.0000

> <Gold.Chemscore.DEClash>
0.0544

> <Gold.Chemscore.DEInternal>
2.1383

> <Gold.Chemscore.Rot>
1.9480

> <Gold.Chemscore.Internal.Correction>
   9.000000E+99

> <Gold.Chemscore.Hbonds>
donor molecule, donor type, donor heavy atom, donor atom, acceptor molecule, acceptor atom, score
      L1  H    13    29       P1  7957  0.87
      P1  H  7989  7998       L1    11  0.94

> <Gold.Chemscore.Hbond.Weighted>
-6.5043

> <Gold.Chemscore.Metal.Weighted>
-0.0000

> <Gold.Chemscore.Lipo.Weighted>
-7.8379

> <Gold.Chemscore.Internal_Hbond.Weighted>
0.0000

> <Gold.Chemscore.DEClash.Weighted>
0.0544

> <Gold.Chemscore.DEInternal.Weighted>
2.1383

> <Gold.Chemscore.Rot.Weighted>
4.9869

> <Gold.Chemscore.Internal.Correction.Weighted>
   9.000000E+99

> <Gold.Protein.RotatedTorsions>
[ 6907 6896 6895 6894 ] final  -31.91 input  -60.11 | X-H torsion
[ 7974 7965 7964 7962 ] final  -15.92 input  175.53 | X-H torsion
[ 8008 7997 7996 7995 ] final   69.43 input   59.86 | X-H torsion
[ 10167 10162 10161 10158 ] final -151.66 input  -65.29 | X-H torsion
[ 10718 10713 10712 10709 ] final  125.98 input   66.30 | X-H torsion
[ 10763 10752 10751 10750 ] final  130.72 input  -60.55 | X-H torsion
[ 11005 11000 10999 10996 ] final -159.86 input  -57.11 | X-H torsion

> <Gold.Protein.ActiveResidues>
 VAL166  LYS551  ARG553  GLY616  TRP617  ASP618  TYR619  PRO620  LYS621  CYS622 
 ASP623  PHE694  ASN695  SER759  ASP760  ASP761  ALA762  ILE779  LEU786  VAL792 
 PHE793  MET794  SER795  GLU796  ALA797  LYS798  CYS799  TRP800  GLU811  SER814 

> <Gold.Protein.RotatedAtoms>
  151.0857  134.9886  159.8377 H   0  0  0  0  0  0  0  0  0  0  0  0  # atno 6907 bound_to 6896
  152.5424  134.2126  159.8766 H   0  0  0  0  0  0  0  0  0  0  0  0  # atno 6908 bound_to 6896
  151.2159  133.4485  159.2633 H   0  0  0  0  0  0  0  0  0  0  0  0  # atno 6909 bound_to 6896
  146.2011  140.3562  142.8423 H   0  0  0  0  0  0  0  0  0  0  0  0  # atno 7974 bound_to 7965
  155.7234  140.3493  155.5026 H   0  0  0  0  0  0  0  0  0  0  0  0  # atno 8008 bound_to 7997
  155.9248  140.1073  157.1200 H   0  0  0  0  0  0  0  0  0  0  0  0  # atno 8009 bound_to 7997
  154.4075  140.1242  156.4713 H   0  0  0  0  0  0  0  0  0  0  0  0  # atno 8010 bound_to 7997
  139.7248  143.8901  152.2515 H   0  0  0  0  0  0  0  0  0  0  0  0  # atno 10167 bound_to 10162
  157.5457  131.1095  150.8785 H   0  0  0  0  0  0  0  0  0  0  0  0  # atno 10718 bound_to 10713
  153.7626  135.3193  155.3339 H   0  0  0  0  0  0  0  0  0  0  0  0  # atno 10763 bound_to 10752
  154.8225  135.4593  154.0823 H   0  0  0  0  0  0  0  0  0  0  0  0  # atno 10764 bound_to 10752
  153.2058  135.6929  153.8258 H   0  0  0  0  0  0  0  0  0  0  0  0  # atno 10765 bound_to 10752
  140.6379  134.4582  157.5232 H   0  0  0  0  0  0  0  0  0  0  0  0  # atno 11005 bound_to 11000
  144.8685  140.7240  143.6062 LP  0  0  0  0  0  0  0  0  0  0  0  0  # atno 17320 bound_to 7965
  145.3481  139.1713  143.4449 LP  0  0  0  0  0  0  0  0  0  0  0  0  # atno 17321 bound_to 7965
  139.8807  144.7019  150.8881 LP  0  0  0  0  0  0  0  0  0  0  0  0  # atno 17342 bound_to 10162
  140.7760  143.3663  151.1732 LP  0  0  0  0  0  0  0  0  0  0  0  0  # atno 17343 bound_to 10162
  156.9325  130.5355  149.5279 LP  0  0  0  0  0  0  0  0  0  0  0  0  # atno 17370 bound_to 10713
  156.0534  130.5599  150.9038 LP  0  0  0  0  0  0  0  0  0  0  0  0  # atno 17371 bound_to 10713
  139.9091  134.8383  156.1594 LP  0  0  0  0  0  0  0  0  0  0  0  0  # atno 17394 bound_to 11000
  141.0628  133.6833  156.1986 LP  0  0  0  0  0  0  0  0  0  0  0  0  # atno 17395 bound_to 11000

$$$$
