AV-unprocessed.smi:242|AV-procd|sdf|1846|dock10
  -GOLD-   2262020463D 1   1.00000     0.00000
 Structure written by MMmdl.
 58 61  0  0  0  0  0  0  0  0  2 V2000
  145.5837  129.1103  152.0691 C   0  0  0  0  0  0  0  0  0  0  0  0
  146.3055  130.4648  152.1982 C   0  0  0  0  0  0  0  0  0  0  0  0
  147.1283  130.4862  153.5010 C   0  0  0  0  0  0  0  0  0  0  0  0
  145.3355  131.5944  152.1343 N   0  3  2  0  0  0  0  0  0  0  0  0
  144.5040  131.6436  150.9041 C   0  0  0  0  0  0  0  0  0  0  0  0
  144.4400  133.1113  150.4616 C   0  0  0  0  0  0  0  0  0  0  0  0
  144.8797  133.8962  151.6961 C   0  0  2  0  0  0  0  0  0  0  0  0
  145.3928  135.2342  151.3944 N   0  0  0  0  0  0  0  0  0  0  0  0
  144.7247  135.9616  150.3214 C   0  0  0  0  0  0  0  0  0  0  0  0
  145.5705  136.0216  152.4787 C   0  0  0  0  0  0  0  0  0  0  0  0
  145.2023  135.5753  153.7084 N   0  0  0  0  0  0  0  0  0  0  0  0
  145.3719  136.3594  154.7779 C   0  0  0  0  0  0  0  0  0  0  0  0
  145.8793  137.5930  154.8369 N   0  0  0  0  0  0  0  0  0  0  0  0
  146.2494  138.0386  153.6016 C   0  0  0  0  0  0  0  0  0  0  0  0
  146.1359  137.3189  152.3803 C   0  0  0  0  0  0  0  0  0  0  0  0
  146.6273  138.0788  151.3273 N   0  0  0  0  0  0  0  0  0  0  0  0
  147.0040  139.1929  151.8941 C   0  0  0  0  0  0  0  0  0  0  0  0
  146.7996  139.2600  153.2548 N   0  0  0  0  0  0  0  0  0  0  0  0
  147.1084  140.3816  154.1284 C   0  0  0  0  0  0  0  0  0  0  0  0
  148.6190  140.5410  154.4350 C   0  0  0  0  0  0  0  0  0  0  0  0
  149.2347  141.1154  153.2953 O   0  0  0  0  0  0  0  0  0  0  0  0
  148.8267  141.4931  155.6298 C   0  0  0  0  0  0  0  0  0  0  0  0
  150.2974  141.5482  156.0796 C   0  0  0  0  0  0  0  0  0  0  0  0
  150.7644  140.2378  156.3763 O   0  0  0  0  0  0  0  0  0  0  0  0
  150.7520  139.3799  155.2419 C   0  0  0  0  0  0  0  0  0  0  0  0
  149.3115  139.1928  154.7338 C   0  0  0  0  0  0  0  0  0  0  0  0
  145.9135  132.9447  152.3065 C   0  0  0  0  0  0  0  0  0  0  0  0
  146.2924  128.2833  152.1237 H   0  0  0  0  0  0  0  0  0  0  0  0
  145.0563  129.0126  151.1205 H   0  0  0  0  0  0  0  0  0  0  0  0
  144.8557  128.9730  152.8695 H   0  0  0  0  0  0  0  0  0  0  0  0
  146.9991  130.5665  151.3617 H   0  0  0  0  0  0  0  0  0  0  0  0
  147.7959  129.6257  153.5536 H   0  0  0  0  0  0  0  0  0  0  0  0
  146.4833  130.4561  154.3798 H   0  0  0  0  0  0  0  0  0  0  0  0
  147.7562  131.3741  153.5750 H   0  0  0  0  0  0  0  0  0  0  0  0
  144.9163  131.0327  150.0999 H   0  0  0  0  0  0  0  0  0  0  0  0
  143.5105  131.2599  151.1374 H   0  0  0  0  0  0  0  0  0  0  0  0
  145.1461  133.2734  149.6454 H   0  0  0  0  0  0  0  0  0  0  0  0
  143.4501  133.3997  150.1068 H   0  0  0  0  0  0  0  0  0  0  0  0
  144.0305  133.9822  152.3765 H   0  0  0  0  0  0  0  0  0  0  0  0
  145.0761  136.9928  150.2589 H   0  0  0  0  0  0  0  0  0  0  0  0
  143.6452  135.9769  150.4761 H   0  0  0  0  0  0  0  0  0  0  0  0
  144.9256  135.4884  149.3604 H   0  0  0  0  0  0  0  0  0  0  0  0
  145.0527  135.9405  155.7208 H   0  0  0  0  0  0  0  0  0  0  0  0
  147.4338  140.0078  151.3297 H   0  0  0  0  0  0  0  0  0  0  0  0
  146.7159  141.2911  153.6714 H   0  0  0  0  0  0  0  0  0  0  0  0
  146.5520  140.2451  155.0568 H   0  0  0  0  0  0  0  0  0  0  0  0
  149.4055  140.4302  152.6674 H   0  0  0  0  0  0  0  0  0  0  0  0
  148.4721  142.4955  155.3865 H   0  0  0  0  0  0  0  0  0  0  0  0
  148.2225  141.1530  156.4721 H   0  0  0  0  0  0  0  0  0  0  0  0
  150.9266  142.0079  155.3160 H   0  0  0  0  0  0  0  0  0  0  0  0
  150.3897  142.1632  156.9748 H   0  0  0  0  0  0  0  0  0  0  0  0
  151.3956  139.7834  154.4589 H   0  0  0  0  0  0  0  0  0  0  0  0
  151.1726  138.4157  155.5278 H   0  0  0  0  0  0  0  0  0  0  0  0
  148.7420  138.6577  155.4947 H   0  0  0  0  0  0  0  0  0  0  0  0
  149.3193  138.5540  153.8499 H   0  0  0  0  0  0  0  0  0  0  0  0
  146.1104  133.1647  153.3565 H   0  0  0  0  0  0  0  0  0  0  0  0
  146.8557  133.0133  151.7590 H   0  0  0  0  0  0  0  0  0  0  0  0
  144.6896  131.4731  152.9014 H   0  0  0  0  0  0  0  0  0  0  0  0
  1  2  1  0  0  0  0
  1 28  1  0  0  0  0
  1 29  1  0  0  0  0
  1 30  1  0  0  0  0
  2  3  1  0  0  0  0
  2  4  1  0  0  0  0
  2 31  1  0  0  0  0
  3 32  1  0  0  0  0
  3 33  1  0  0  0  0
  3 34  1  0  0  0  0
  4 27  1  0  0  0  0
  4  5  1  0  0  0  0
  4 58  1  0  0  0  0
  5  6  1  0  0  0  0
  5 35  1  0  0  0  0
  5 36  1  0  0  0  0
  6  7  1  0  0  0  0
  6 37  1  0  0  0  0
  6 38  1  0  0  0  0
  7  8  1  0  0  0  0
  7 27  1  0  0  0  0
  7 39  1  0  0  0  0
  8  9  1  0  0  0  0
  8 10  1  0  0  0  0
  9 40  1  0  0  0  0
  9 41  1  0  0  0  0
  9 42  1  0  0  0  0
 10 15  1  0  0  0  0
 10 11  2  0  0  0  0
 11 12  1  0  0  0  0
 12 13  2  0  0  0  0
 12 43  1  0  0  0  0
 13 14  1  0  0  0  0
 14 18  1  0  0  0  0
 14 15  2  0  0  0  0
 15 16  1  0  0  0  0
 16 17  2  0  0  0  0
 17 18  1  0  0  0  0
 17 44  1  0  0  0  0
 18 19  1  0  0  0  0
 19 20  1  0  0  0  0
 19 45  1  0  0  0  0
 19 46  1  0  0  0  0
 20 26  1  0  0  0  0
 20 21  1  0  0  0  0
 20 22  1  0  0  0  0
 21 47  1  0  0  0  0
 22 23  1  0  0  0  0
 22 48  1  0  0  0  0
 22 49  1  0  0  0  0
 23 24  1  0  0  0  0
 23 50  1  0  0  0  0
 23 51  1  0  0  0  0
 24 25  1  0  0  0  0
 25 26  1  0  0  0  0
 25 52  1  0  0  0  0
 25 53  1  0  0  0  0
 26 54  1  0  0  0  0
 26 55  1  0  0  0  0
 27 56  1  0  0  0  0
 27 57  1  0  0  0  0
M  CHG  1   4   1
M  END
> <s_m_source_file>
AV-unprocessed.smi

> <i_m_source_file_index>
242

> <i_lp_mmshare_version>
43012

> <i_f3d_flags>
0

> <s_epik_input>
W0NIM11bQ0hdKFtDSDNdKU4xW0NIMl1bQ0gyXVtDQEhdKFtDSDJdMSlOKFtDSDNdKWMobltjSF1uMiljKGMyMyluW2NIXW4zW0NIMl1DNChbT0hdKVtDSDJdW0NIMl1PW0NIMl1bQ0gyXTQ=

> <s_epik_cmdline>
J2VwaWtfcHl0aG9uJywgJy1waCcsICc3LjAnLCAnLXRuJywgJzgnLCAnLW1hJywgJzIwMCcsICctbWV0YWxfYmluZGluZycsICctaW1hZScsICc8aW5maWxlLm1hZT4nLCAnLW9tYWUnLCAnPG91dGZpbGUubWFlPic=

> <r_lp_tautomer_probability>
1

> <r_epik_Ionization_Penalty>
0.000825961

> <r_epik_Ionization_Penalty_Charging>
0.00034898

> <r_epik_Ionization_Penalty_Neutral>
0.000476981

> <r_epik_State_Penalty>
-0

> <r_epik_Charging_Adjusted_Penalty>
0.00034898

> <i_epik_Tot_Q>
1

> <i_epik_Tot_abs_Q>
1

> <r_epik_Metal_State_Penalty>
-0

> <b_epik_Metal_Only>
0

> <s_lp_Force_Field>
OPLS_2005

> <r_lp_Energy>
47.5475

> <b_lp_Chiralities_Consistent>
1

> <s_lp_Variant>
AV-unprocessed.smi:242-3

> <Gold.Version>
5.8.1

> <Gold.Id.Protein>
6NUR|6NUR_protein|mol2

> <Gold.PLP.Fitness>
50.3535

> <Gold.PLP.PLP>
-42.0034

> <Gold.PLP.part.hbond>
-3.0963

> <Gold.PLP.part.metal>
0.0000

> <Gold.PLP.part.buried>
-1.5220

> <Gold.PLP.part.nonpolar>
-39.9731

> <Gold.PLP.part.repulsive>
1.3973

> <Gold.PLP.ligand.clash>
0.0000

> <Gold.PLP.ligand.torsion>
0.8666

> <Gold.PLP.Chemscore.Hbond>
2.5445

> <Gold.PLP.Chemscore.CHOScore>
0.6990

> <Gold.PLP.Chemscore.Metal>
0.0000

> <Gold.Chemscore.Hbonds>
donor molecule, donor type, donor heavy atom, donor atom, acceptor molecule, acceptor atom, score
      L1  H    21    47       P1  7957  0.93
      P1  H  7954  7966       L1    16  0.80
      P1  H  8011  8017       L1    21  0.80
      L1  C    17    44       P1  7957  0.75

> <Gold.PLP.Chemscore.Internal.Correction>
0.3527

> <Gold.Rescore>
     Score         DG    S(hbond)    S(metal)    S(lipo)     H(rot)  DE(clash)    DE(int)     intcor
     11.10     -16.45       1.55        0.00     104.15       2.50       3.76       1.58       ----

> <Gold.Chemscore.Fitness>
11.1019

> <Gold.Chemscore.DG>
-16.4493

> <Gold.Chemscore.ZeroCoef>
-5.4800

> <Gold.Chemscore.Hbond>
1.5518

> <Gold.Chemscore.Metal>
0.0000

> <Gold.Chemscore.Lipo>
104.1480

> <Gold.Chemscore.Internal_Hbond>
0.0000

> <Gold.Chemscore.DEClash>
3.7636

> <Gold.Chemscore.DEInternal>
1.5838

> <Gold.Chemscore.Rot>
2.4996

> <Gold.Chemscore.Internal.Correction>
   9.000000E+99

> <Gold.Chemscore.Hbonds>
donor molecule, donor type, donor heavy atom, donor atom, acceptor molecule, acceptor atom, score
      L1  H    21    47       P1  7957  0.88
      P1  H  7954  7966       L1    16  0.20
      P1  H  8011  8017       L1    21  0.12

> <Gold.Chemscore.Hbond.Weighted>
-5.1829

> <Gold.Chemscore.Metal.Weighted>
-0.0000

> <Gold.Chemscore.Lipo.Weighted>
-12.1853

> <Gold.Chemscore.Internal_Hbond.Weighted>
0.0000

> <Gold.Chemscore.DEClash.Weighted>
3.7636

> <Gold.Chemscore.DEInternal.Weighted>
1.5838

> <Gold.Chemscore.Rot.Weighted>
6.3990

> <Gold.Chemscore.Internal.Correction.Weighted>
   9.000000E+99

> <Gold.Protein.RotatedTorsions>
[ 6907 6896 6895 6894 ] final  159.15 input  -60.11 | X-H torsion
[ 7974 7965 7964 7962 ] final  156.50 input  175.53 | X-H torsion
[ 8008 7997 7996 7995 ] final   45.08 input   59.86 | X-H torsion
[ 10167 10162 10161 10158 ] final -124.67 input  -65.29 | X-H torsion
[ 10718 10713 10712 10709 ] final  -71.58 input   66.30 | X-H torsion
[ 10763 10752 10751 10750 ] final  118.42 input  -60.55 | X-H torsion
[ 11005 11000 10999 10996 ] final  153.35 input  -57.11 | X-H torsion

> <Gold.Protein.ActiveResidues>
 VAL166  LYS551  ARG553  GLY616  TRP617  ASP618  TYR619  PRO620  LYS621  CYS622 
 ASP623  PHE694  ASN695  SER759  ASP760  ASP761  ALA762  ILE779  LEU786  VAL792 
 PHE793  MET794  SER795  GLU796  ALA797  LYS798  CYS799  TRP800  GLU811  SER814 

> <Gold.Protein.RotatedAtoms>
  151.9899  133.3787  159.4139 H   0  0  0  0  0  0  0  0  0  0  0  0  # atno 6907 bound_to 6896
  150.6923  134.3948  159.5102 H   0  0  0  0  0  0  0  0  0  0  0  0  # atno 6908 bound_to 6896
  152.1680  134.8857  160.0587 H   0  0  0  0  0  0  0  0  0  0  0  0  # atno 6909 bound_to 6896
  144.7959  139.7212  143.6202 H   0  0  0  0  0  0  0  0  0  0  0  0  # atno 7974 bound_to 7965
  155.3300  140.3402  155.4239 H   0  0  0  0  0  0  0  0  0  0  0  0  # atno 8008 bound_to 7997
  156.1866  140.1683  156.8209 H   0  0  0  0  0  0  0  0  0  0  0  0  # atno 8009 bound_to 7997
  154.5394  140.0728  156.8466 H   0  0  0  0  0  0  0  0  0  0  0  0  # atno 8010 bound_to 7997
  139.9903  143.5648  152.2344 H   0  0  0  0  0  0  0  0  0  0  0  0  # atno 10167 bound_to 10162
  156.0357  130.4354  150.2465 H   0  0  0  0  0  0  0  0  0  0  0  0  # atno 10718 bound_to 10713
  153.5674  135.3509  155.2824 H   0  0  0  0  0  0  0  0  0  0  0  0  # atno 10763 bound_to 10752
  154.8687  135.4151  154.2763 H   0  0  0  0  0  0  0  0  0  0  0  0  # atno 10764 bound_to 10752
  153.3522  135.7055  153.6849 H   0  0  0  0  0  0  0  0  0  0  0  0  # atno 10765 bound_to 10752
  140.1390  134.8752  157.2305 H   0  0  0  0  0  0  0  0  0  0  0  0  # atno 11005 bound_to 11000
  146.2227  139.5666  142.9607 LP  0  0  0  0  0  0  0  0  0  0  0  0  # atno 17320 bound_to 7965
  145.5674  141.0398  143.2193 LP  0  0  0  0  0  0  0  0  0  0  0  0  # atno 17321 bound_to 7965
  139.6345  144.7648  151.2467 LP  0  0  0  0  0  0  0  0  0  0  0  0  # atno 17342 bound_to 10162
  140.7457  143.6422  150.8324 LP  0  0  0  0  0  0  0  0  0  0  0  0  # atno 17343 bound_to 10162
  157.0565  131.0077  151.3237 LP  0  0  0  0  0  0  0  0  0  0  0  0  # atno 17370 bound_to 10713
  157.5102  130.7934  149.7697 LP  0  0  0  0  0  0  0  0  0  0  0  0  # atno 17371 bound_to 10713
  140.2746  134.3420  155.7362 LP  0  0  0  0  0  0  0  0  0  0  0  0  # atno 17394 bound_to 11000
  141.2183  133.7443  156.9274 LP  0  0  0  0  0  0  0  0  0  0  0  0  # atno 17395 bound_to 11000

$$$$
