AV-unprocessed.smi:2279|AV-procd|sdf|9184|dock8
  -GOLD-   2272012403D 1   1.00000     0.00000
 Structure written by MMmdl.
 58 60  0  0  0  0  0  0  0  0  3 V2000
  152.7996  143.8881  161.2568 C   0  0  0  0  0  0  0  0  0  0  0  0
  153.1252  142.6515  160.4457 C   0  0  0  0  0  0  0  0  0  0  0  0
  154.2352  141.8474  160.7684 C   0  0  0  0  0  0  0  0  0  0  0  0
  154.4864  140.7117  159.9742 C   0  0  0  0  0  0  0  0  0  0  0  0
  155.6588  139.7996  160.2679 C   0  0  0  0  0  0  0  0  0  0  0  0
  153.7167  140.3644  158.9206 N   0  0  0  0  0  0  0  0  0  0  0  0
  152.6449  141.1310  158.6006 C   0  0  0  0  0  0  0  0  0  0  0  0
  151.7669  140.8432  157.5216 N   0  0  0  0  0  0  0  0  0  0  0  0
  150.5080  141.2800  157.3399 C   0  0  0  0  0  0  0  0  0  0  0  0
  149.8728  141.9720  158.1363 O   0  0  0  0  0  0  0  0  0  0  0  0
  150.0053  140.8517  156.1722 N   0  0  0  0  0  0  0  0  0  0  0  0
  148.6565  141.1331  155.6886 C   0  0  2  0  0  0  0  0  0  0  0  0
  147.6399  140.1621  156.3200 C   0  0  0  0  0  0  0  0  0  0  0  0
  146.2357  140.3438  155.7082 C   0  0  0  0  0  0  0  0  0  0  0  0
  146.2450  140.2031  154.2225 N   0  3  2  0  0  0  0  0  0  0  0  0
  146.4088  138.7953  153.7200 C   0  0  2  0  0  0  0  0  0  0  0  0
  146.4565  138.7078  152.1729 C   0  0  0  0  0  0  0  0  0  0  0  0
  146.5385  137.2578  151.6658 C   0  0  0  0  0  0  0  0  0  0  0  0
  145.4095  136.4470  152.1763 N   0  3  1  0  0  0  0  0  0  0  0  0
  145.3954  135.0803  151.6109 C   0  0  0  0  0  0  0  0  0  0  0  0
  145.3700  136.4480  153.6568 C   0  0  0  0  0  0  0  0  0  0  0  0
  145.2585  137.8796  154.2087 C   0  0  0  0  0  0  0  0  0  0  0  0
  147.1723  141.2154  153.6396 C   0  0  0  0  0  0  0  0  0  0  0  0
  148.6123  141.0315  154.1544 C   0  0  0  0  0  0  0  0  0  0  0  0
  152.3193  142.2845  159.3491 C   0  0  0  0  0  0  0  0  0  0  0  0
  153.4311  143.9577  162.1429 H   0  0  0  0  0  0  0  0  0  0  0  0
  151.7593  143.8664  161.5819 H   0  0  0  0  0  0  0  0  0  0  0  0
  152.9542  144.7843  160.6555 H   0  0  0  0  0  0  0  0  0  0  0  0
  154.8761  142.0940  161.6024 H   0  0  0  0  0  0  0  0  0  0  0  0
  156.1293  140.0547  161.2180 H   0  0  0  0  0  0  0  0  0  0  0  0
  156.4089  139.8833  159.4812 H   0  0  0  0  0  0  0  0  0  0  0  0
  155.3298  138.7614  160.3214 H   0  0  0  0  0  0  0  0  0  0  0  0
  152.1443  140.2412  156.8050 H   0  0  0  0  0  0  0  0  0  0  0  0
  150.5974  140.2900  155.5780 H   0  0  0  0  0  0  0  0  0  0  0  0
  148.3782  142.1537  155.9601 H   0  0  0  0  0  0  0  0  0  0  0  0
  147.9737  139.1319  156.1928 H   0  0  0  0  0  0  0  0  0  0  0  0
  147.5904  140.3295  157.3967 H   0  0  0  0  0  0  0  0  0  0  0  0
  145.5228  139.6727  156.1816 H   0  0  0  0  0  0  0  0  0  0  0  0
  145.8758  141.3453  155.9491 H   0  0  0  0  0  0  0  0  0  0  0  0
  147.3498  138.3957  154.0985 H   0  0  0  0  0  0  0  0  0  0  0  0
  145.5784  139.1944  151.7453 H   0  0  0  0  0  0  0  0  0  0  0  0
  147.3291  139.2285  151.7801 H   0  0  0  0  0  0  0  0  0  0  0  0
  146.5258  137.2537  150.5751 H   0  0  0  0  0  0  0  0  0  0  0  0
  147.4831  136.8055  151.9732 H   0  0  0  0  0  0  0  0  0  0  0  0
  146.2866  134.5246  151.9057 H   0  0  0  0  0  0  0  0  0  0  0  0
  145.3583  135.1146  150.5214 H   0  0  0  0  0  0  0  0  0  0  0  0
  144.5191  134.5296  151.9549 H   0  0  0  0  0  0  0  0  0  0  0  0
  144.5170  135.8600  153.9981 H   0  0  0  0  0  0  0  0  0  0  0  0
  146.2657  135.9627  154.0483 H   0  0  0  0  0  0  0  0  0  0  0  0
  145.2467  137.8036  155.2944 H   0  0  0  0  0  0  0  0  0  0  0  0
  144.2978  138.3074  153.9179 H   0  0  0  0  0  0  0  0  0  0  0  0
  147.1388  141.2289  152.5519 H   0  0  0  0  0  0  0  0  0  0  0  0
  146.8183  142.2051  153.9323 H   0  0  0  0  0  0  0  0  0  0  0  0
  149.2578  141.7937  153.7163 H   0  0  0  0  0  0  0  0  0  0  0  0
  149.0079  140.0698  153.8254 H   0  0  0  0  0  0  0  0  0  0  0  0
  151.4617  142.8864  159.0847 H   0  0  0  0  0  0  0  0  0  0  0  0
  145.3235  140.4823  153.9161 H   0  0  0  0  0  0  0  0  0  0  0  0
  144.5605  136.8942  151.8600 H   0  0  0  0  0  0  0  0  0  0  0  0
  1  2  1  0  0  0  0
  1 26  1  0  0  0  0
  1 27  1  0  0  0  0
  1 28  1  0  0  0  0
  2 25  1  0  0  0  0
  2  3  2  0  0  0  0
  3  4  1  0  0  0  0
  3 29  1  0  0  0  0
  4  5  1  0  0  0  0
  4  6  2  0  0  0  0
  5 30  1  0  0  0  0
  5 31  1  0  0  0  0
  5 32  1  0  0  0  0
  6  7  1  0  0  0  0
  7  8  1  0  0  0  0
  7 25  2  0  0  0  0
  8  9  1  0  0  0  0
  8 33  1  0  0  0  0
  9 10  2  0  0  0  0
  9 11  1  0  0  0  0
 11 12  1  0  0  0  0
 11 34  1  0  0  0  0
 12 24  1  0  0  0  0
 12 13  1  0  0  0  0
 12 35  1  0  0  0  0
 13 14  1  0  0  0  0
 13 36  1  0  0  0  0
 13 37  1  0  0  0  0
 14 15  1  0  0  0  0
 14 38  1  0  0  0  0
 14 39  1  0  0  0  0
 15 16  1  0  0  0  0
 15 23  1  0  0  0  0
 15 57  1  0  0  0  0
 16 22  1  0  0  0  0
 16 17  1  0  0  0  0
 16 40  1  0  0  0  0
 17 18  1  0  0  0  0
 17 41  1  0  0  0  0
 17 42  1  0  0  0  0
 18 19  1  0  0  0  0
 18 43  1  0  0  0  0
 18 44  1  0  0  0  0
 19 20  1  0  0  0  0
 19 21  1  0  0  0  0
 19 58  1  0  0  0  0
 20 45  1  0  0  0  0
 20 46  1  0  0  0  0
 20 47  1  0  0  0  0
 21 22  1  0  0  0  0
 21 48  1  0  0  0  0
 21 49  1  0  0  0  0
 22 50  1  0  0  0  0
 22 51  1  0  0  0  0
 23 24  1  0  0  0  0
 23 52  1  0  0  0  0
 23 53  1  0  0  0  0
 24 54  1  0  0  0  0
 24 55  1  0  0  0  0
 25 56  1  0  0  0  0
M  CHG  1  15   1
M  CHG  1  19   1
M  END
> <s_m_source_file>
AV-unprocessed.smi

> <i_m_source_file_index>
2279

> <i_lp_mmshare_version>
43012

> <i_f3d_flags>
0

> <s_epik_input>
W0NIM11jMVtjSF1jKFtDSDNdKW5jKFtjSF0xKVtOSF1DKD1PKVtOSF1bQ0hdMltDSDJdW0NIMl1OKFtDSDJdW0NIMl0yKVtDSF0zW0NIMl1bQ0gyXU4oW0NIM10pW0NIMl1bQ0gyXTM=

> <s_epik_cmdline>
J2VwaWtfcHl0aG9uJywgJy1waCcsICc3LjAnLCAnLXRuJywgJzgnLCAnLW1hJywgJzIwMCcsICctbWV0YWxfYmluZGluZycsICctaW1hZScsICc8aW5maWxlLm1hZT4nLCAnLW9tYWUnLCAnPG91dGZpbGUubWFlPic=

> <r_epik_Ionization_Penalty>
0.180973

> <r_epik_Ionization_Penalty_Charging>
0.180787

> <r_epik_Ionization_Penalty_Neutral>
0.000186186

> <r_epik_State_Penalty>
0.153592

> <r_epik_Charging_Adjusted_Penalty>
0.334379

> <i_epik_Tot_Q>
2

> <i_epik_Tot_abs_Q>
2

> <r_epik_Metal_State_Penalty>
0.153604

> <b_epik_Metal_Only>
0

> <s_lp_Force_Field>
OPLS_2005

> <r_lp_Energy>
44.6219

> <b_lp_Chiralities_Consistent>
1

> <s_lp_Variant>
AV-unprocessed.smi:2279-2

> <Gold.Version>
5.8.1

> <Gold.Id.Protein>
6NUR|6NUR_protein|mol2

> <Gold.PLP.Fitness>
51.5330

> <Gold.PLP.PLP>
-40.9964

> <Gold.PLP.part.hbond>
-3.0000

> <Gold.PLP.part.metal>
0.0000

> <Gold.PLP.part.buried>
2.8491

> <Gold.PLP.part.nonpolar>
-40.6119

> <Gold.PLP.part.repulsive>
0.2600

> <Gold.PLP.ligand.clash>
0.0578

> <Gold.PLP.ligand.torsion>
0.4647

> <Gold.PLP.Chemscore.Hbond>
3.8240

> <Gold.PLP.Chemscore.CHOScore>
0.0000

> <Gold.PLP.Chemscore.Metal>
0.0000

> <Gold.Chemscore.Hbonds>
donor molecule, donor type, donor heavy atom, donor atom, acceptor molecule, acceptor atom, score
      L1  H    15    57       P1 10175  1.27
      P1  H  7997  8008       L1     6  0.81

> <Gold.PLP.Chemscore.Internal.Correction>
0.0520

> <Gold.Rescore>
     Score         DG    S(hbond)    S(metal)    S(lipo)     H(rot)  DE(clash)    DE(int)     intcor
     20.50     -25.19       2.50        0.00     123.49       1.21       2.75       1.94       ----

> <Gold.Chemscore.Fitness>
20.4964

> <Gold.Chemscore.DG>
-25.1899

> <Gold.Chemscore.ZeroCoef>
-5.4800

> <Gold.Chemscore.Hbond>
2.5025

> <Gold.Chemscore.Metal>
0.0000

> <Gold.Chemscore.Lipo>
123.4864

> <Gold.Chemscore.Internal_Hbond>
0.0000

> <Gold.Chemscore.DEClash>
2.7539

> <Gold.Chemscore.DEInternal>
1.9397

> <Gold.Chemscore.Rot>
1.2095

> <Gold.Chemscore.Internal.Correction>
   9.000000E+99

> <Gold.Chemscore.Hbonds>
donor molecule, donor type, donor heavy atom, donor atom, acceptor molecule, acceptor atom, score
      L1  H    15    57       P1 10175  0.60
      P1  H  7997  8008       L1     6  0.41

> <Gold.Chemscore.Hbond.Weighted>
-8.3583

> <Gold.Chemscore.Metal.Weighted>
-0.0000

> <Gold.Chemscore.Lipo.Weighted>
-14.4479

> <Gold.Chemscore.Internal_Hbond.Weighted>
0.0000

> <Gold.Chemscore.DEClash.Weighted>
2.7539

> <Gold.Chemscore.DEInternal.Weighted>
1.9397

> <Gold.Chemscore.Rot.Weighted>
3.0963

> <Gold.Chemscore.Internal.Correction.Weighted>
   9.000000E+99

> <Gold.Protein.RotatedTorsions>
[ 6907 6896 6895 6894 ] final   25.83 input  -60.11 | X-H torsion
[ 7974 7965 7964 7962 ] final  101.94 input  175.53 | X-H torsion
[ 8008 7997 7996 7995 ] final  -99.22 input   59.86 | X-H torsion
[ 10167 10162 10161 10158 ] final   29.85 input  -65.29 | X-H torsion
[ 10718 10713 10712 10709 ] final   50.61 input   66.30 | X-H torsion
[ 10763 10752 10751 10750 ] final  -51.27 input  -60.55 | X-H torsion
[ 11005 11000 10999 10996 ] final  -14.10 input  -57.11 | X-H torsion

> <Gold.Protein.ActiveResidues>
 VAL166  LYS551  ARG553  GLY616  TRP617  ASP618  TYR619  PRO620  LYS621  CYS622 
 ASP623  PHE694  ASN695  SER759  ASP760  ASP761  ALA762  ILE779  LEU786  VAL792 
 PHE793  MET794  SER795  GLU796  ALA797  LYS798  CYS799  TRP800  GLU811  SER814 

> <Gold.Protein.RotatedAtoms>
  151.9785  135.0041  160.0556 H   0  0  0  0  0  0  0  0  0  0  0  0  # atno 6907 bound_to 6896
  152.1718  133.4644  159.4921 H   0  0  0  0  0  0  0  0  0  0  0  0  # atno 6908 bound_to 6896
  150.6903  134.1860  159.4310 H   0  0  0  0  0  0  0  0  0  0  0  0  # atno 6909 bound_to 6896
  145.3657  139.2408  143.3482 H   0  0  0  0  0  0  0  0  0  0  0  0  # atno 7974 bound_to 7965
  154.8118  140.0449  157.1348 H   0  0  0  0  0  0  0  0  0  0  0  0  # atno 8008 bound_to 7997
  154.9359  140.3046  155.5124 H   0  0  0  0  0  0  0  0  0  0  0  0  # atno 8009 bound_to 7997
  156.2972  140.2314  156.4424 H   0  0  0  0  0  0  0  0  0  0  0  0  # atno 8010 bound_to 7997
  140.4729  144.0734  150.6242 H   0  0  0  0  0  0  0  0  0  0  0  0  # atno 10167 bound_to 10162
  157.4901  130.8370  149.8193 H   0  0  0  0  0  0  0  0  0  0  0  0  # atno 10718 bound_to 10713
  154.1238  135.6530  153.4908 H   0  0  0  0  0  0  0  0  0  0  0  0  # atno 10763 bound_to 10752
  153.0217  135.5276  154.7070 H   0  0  0  0  0  0  0  0  0  0  0  0  # atno 10764 bound_to 10752
  154.6285  135.2973  155.0214 H   0  0  0  0  0  0  0  0  0  0  0  0  # atno 10765 bound_to 10752
  140.7829  133.8348  155.9309 H   0  0  0  0  0  0  0  0  0  0  0  0  # atno 11005 bound_to 11000
  146.2907  140.4299  142.8740 LP  0  0  0  0  0  0  0  0  0  0  0  0  # atno 17320 bound_to 7965
  144.8613  140.7143  143.6105 LP  0  0  0  0  0  0  0  0  0  0  0  0  # atno 17321 bound_to 7965
  140.3954  143.2731  152.0011 LP  0  0  0  0  0  0  0  0  0  0  0  0  # atno 17342 bound_to 10162
  139.4821  144.6042  151.7551 LP  0  0  0  0  0  0  0  0  0  0  0  0  # atno 17343 bound_to 10162
  156.0169  130.3810  150.2084 LP  0  0  0  0  0  0  0  0  0  0  0  0  # atno 17370 bound_to 10713
  157.0272  130.9997  151.3322 LP  0  0  0  0  0  0  0  0  0  0  0  0  # atno 17371 bound_to 10713
  140.9465  134.1834  157.4760 LP  0  0  0  0  0  0  0  0  0  0  0  0  # atno 17394 bound_to 11000
  139.8740  134.9892  156.5447 LP  0  0  0  0  0  0  0  0  0  0  0  0  # atno 17395 bound_to 11000

$$$$
