#       Name:                AV-unprocessed.smi:1800
#       Creating user name   scv26
#       Creation time:       Fri Mar 27 08:51:46 2020


#       File generated by GOLD software.
#

@<TRIPOS>MOLECULE
AV-unprocessed.smi:1800
    38    39     1
SMALL
NO_CHARGES


@<TRIPOS>ATOM
      1 ****        -2.2422  -0.1495  -2.1649 C.3            1 S1                 0.0000
      2 ****        -1.5460   0.0086  -0.8039 C.3            1 S1                 0.0000
      3 ****        -1.8666  -1.1237   0.1924 C.3            1 S1                 0.0000
      4 ****        -3.2847  -1.2225   0.4864 N.pl3          1 S1                 0.0000
      5 ****        -4.0377  -0.4332   1.3298 C.2            1 S1                 0.0000
      6 ****        -5.3206  -0.8984   1.2843 C.2            1 S1                 0.0000
      7 ****        -5.2517  -1.9904   0.3746 C.2            1 S1                 0.0000
      8 ****        -4.0317  -2.1831  -0.1002 N.2            1 S1                 0.0000
      9 ****        -0.0984   0.0834  -1.0104 N.3            1 S1                 0.0000
     10 ****         0.8085   1.2363  -0.1021 S.o2           1 S1                 0.0000
     11 ****         0.6772   2.5276  -0.7941 O.2            1 S1                 0.0000
     12 ****         0.3943   1.1116   1.3041 O.2            1 S1                 0.0000
     13 ****         2.5413   0.6066  -0.2976 C.3            1 S1                 0.0000
     14 ****         2.9714  -0.3458   0.8256 C.3            1 S1                 0.0000
     15 ****         4.4906  -0.2085   0.8633 C.3            1 S1                 0.0000
     16 ****         4.7356   1.2782   0.6034 C.3            1 S1                 0.0000
     17 ****         3.5798   1.7432  -0.2945 C.3            1 S1                 0.0000
     18 ****        -3.3273  -0.1231  -2.0635 H              1 S1                 0.0000
     19 ****        -1.9751  -1.0945  -2.6392 H              1 S1                 0.0000
     20 ****        -1.9621   0.6560  -2.8444 H              1 S1                 0.0000
     21 ****        -1.8769   0.9556  -0.3746 H              1 S1                 0.0000
     22 ****        -1.5165  -2.0817  -0.1960 H              1 S1                 0.0000
     23 ****        -1.3412  -0.9625   1.1344 H              1 S1                 0.0000
     24 ****        -3.6021   0.3854   1.8836 H              1 S1                 0.0000
     25 ****        -6.1776  -0.5168   1.8191 H              1 S1                 0.0000
     26 ****        -6.0468  -2.6441   0.0475 H              1 S1                 0.0000
     27 ****         0.1275   0.1397  -2.0032 H              1 S1                 0.0000
     28 ****         2.6040   0.0904  -1.2562 H              1 S1                 0.0000
     29 ****         2.5704  -0.0269   1.7875 H              1 S1                 0.0000
     30 ****         2.6445  -1.3713   0.6513 H              1 S1                 0.0000
     31 ****         4.9204  -0.5459   1.8070 H              1 S1                 0.0000
     32 ****         4.9338  -0.8022   0.0627 H              1 S1                 0.0000
     33 ****         4.7034   1.8223   1.5483 H              1 S1                 0.0000
     34 ****         5.7117   1.4621   0.1534 H              1 S1                 0.0000
     35 ****         3.9251   1.9440  -1.3092 H              1 S1                 0.0000
     36 ****         3.1655   2.6735   0.0948 H              1 S1                 0.0000
     37 ****        -3.7303  -2.8828  -0.7479 LP             1 S1                 0.0000
     38 ****         0.2123  -0.7817  -0.6166 LP             1 S1                 0.0000
@<TRIPOS>BOND
    1    1    2 1     
    2    1   18 1     
    3    1   19 1     
    4    1   20 1     
    5    2    3 1     
    6    2    9 1     
    7    2   21 1     
    8    3    4 1     
    9    3   22 1     
   10    3   23 1     
   11    4    8 1     
   12    4    5 1     
   13    5    6 2     
   14    5   24 1     
   15    6    7 1     
   16    6   25 1     
   17    7    8 2     
   18    7   26 1     
   19    9   10 1     
   20    9   27 1     
   21   10   11 2     
   22   10   12 2     
   23   10   13 1     
   24   13   17 1     
   25   13   14 1     
   26   13   28 1     
   27   14   15 1     
   28   14   29 1     
   29   14   30 1     
   30   15   16 1     
   31   15   31 1     
   32   15   32 1     
   33   16   17 1     
   34   16   33 1     
   35   16   34 1     
   36   17   35 1     
   37   17   36 1     
   38    8   37 1     
   39    9   38 1     
@<TRIPOS>SUBSTRUCTURE
      1 S1             1
@<TRIPOS>SET
LONE_PAIRS      STATIC     ATOMS    <user>   **** ""
4 37 38 11 12
DONOR_HYDROGENS      STATIC     ATOMS    <user>   **** ""
1 27
ATOM$BLUE        STATIC     ATOMS    COLORGROUP SYSTEM
4 37 38 11 12
ATOM$RED        STATIC     ATOMS    COLORGROUP SYSTEM
1 27
