#       Name:                AV-unprocessed.smi:982
#       Creating user name   scv26
#       Creation time:       Fri Mar 27 02:22:13 2020


#       File generated by GOLD software.
#

@<TRIPOS>MOLECULE
AV-unprocessed.smi:982
    34    35     1
SMALL
NO_CHARGES


@<TRIPOS>ATOM
      1 ****        -4.5114   1.2138   0.4289 N.4            1 S1                 1.0000
      2 ****        -3.9901  -0.1629   0.4514 C.3            1 S1                 0.0000
      3 ****        -2.4761  -0.1710   0.3847 C.ar           1 S1                 0.0000
      4 ****        -1.6968  -0.1709   1.5597 C.ar           1 S1                 0.0000
      5 ****        -0.2935  -0.1748   1.4442 C.ar           1 S1                 0.0000
      6 ****         0.2826  -0.1794   0.1564 C.ar           1 S1                 0.0000
      7 ****         1.6795  -0.1801   0.0365 N.3            1 S1                 0.0000
      8 ****         2.2102  -1.4024  -0.5546 C.3            1 S1                 0.0000
      9 ****         3.7485  -1.3729  -0.5344 C.3            1 S1                 0.0000
     10 ****         4.2131  -0.2020  -1.2001 O.3            1 S1                 0.0000
     11 ****         3.7503   0.9901  -0.5717 C.3            1 S1                 0.0000
     12 ****         2.2123   1.0210  -0.5957 C.3            1 S1                 0.0000
     13 ****        -0.4627  -0.1824  -0.9753 N.ar           1 S1                 0.0000
     14 ****        -1.8071  -0.1807  -0.8572 C.ar           1 S1                 0.0000
     15 ****        -5.5205   1.1937   0.4677 H              1 S1                 0.0000
     16 ****        -4.2170   1.6715  -0.4220 H              1 S1                 0.0000
     17 ****        -4.3270  -0.6618   1.3608 H              1 S1                 0.0000
     18 ****        -4.4015  -0.7176  -0.3924 H              1 S1                 0.0000
     19 ****        -2.1632  -0.1666   2.5341 H              1 S1                 0.0000
     20 ****         0.3281  -0.1746   2.3280 H              1 S1                 0.0000
     21 ****         1.8445  -2.2697  -0.0033 H              1 S1                 0.0000
     22 ****         1.8566  -1.4995  -1.5820 H              1 S1                 0.0000
     23 ****         4.1255  -1.3956   0.4895 H              1 S1                 0.0000
     24 ****         4.1483  -2.2512  -1.0410 H              1 S1                 0.0000
     25 ****         4.1258   1.0439   0.4517 H              1 S1                 0.0000
     26 ****         4.1527   1.8514  -1.1046 H              1 S1                 0.0000
     27 ****         1.8615   1.0830  -1.6268 H              1 S1                 0.0000
     28 ****         1.8465   1.9071  -0.0756 H              1 S1                 0.0000
     29 ****        -2.3656  -0.1813  -1.7817 H              1 S1                 0.0000
     30 ****        -4.1540   1.7230   1.2246 H              1 S1                 0.0000
     31 ****         2.0133  -0.1623   0.9790 LP             1 S1                 0.0000
     32 ****         3.8857  -0.2167  -2.1449 LP             1 S1                 0.0000
     33 ****         5.2131  -0.2027  -1.1938 LP             1 S1                 0.0000
     34 ****        -0.0274  -0.1858  -1.8756 LP             1 S1                 0.0000
@<TRIPOS>BOND
    1    1    2 1     
    2    1   15 1     
    3    1   16 1     
    4    1   30 1     
    5    2    3 1     
    6    2   17 1     
    7    2   18 1     
    8    3   14 ar    
    9    3    4 ar    
   10    4    5 ar    
   11    4   19 1     
   12    5    6 ar    
   13    5   20 1     
   14    6    7 1     
   15    6   13 ar    
   16    7   12 1     
   17    7    8 1     
   18    8    9 1     
   19    8   21 1     
   20    8   22 1     
   21    9   10 1     
   22    9   23 1     
   23    9   24 1     
   24   10   11 1     
   25   11   12 1     
   26   11   25 1     
   27   11   26 1     
   28   12   27 1     
   29   12   28 1     
   30   13   14 ar    
   31   14   29 1     
   32    7   31 1     
   33   10   32 1     
   34   10   33 1     
   35   13   34 1     
@<TRIPOS>SUBSTRUCTURE
      1 S1             1
@<TRIPOS>SET
LONE_PAIRS      STATIC     ATOMS    <user>   **** ""
4 31 32 33 34
DONOR_HYDROGENS      STATIC     ATOMS    <user>   **** ""
3 15 16 30
ATOM$BLUE        STATIC     ATOMS    COLORGROUP SYSTEM
4 31 32 33 34
ATOM$RED        STATIC     ATOMS    COLORGROUP SYSTEM
3 15 16 30
