AV-unprocessed.smi:541|AV-procd|sdf|2871|dock5
  -GOLD-   2262023363D 1   1.00000     0.00000
 Structure written by MMmdl.
 43 45  0  0  0  0  0  0  0  0  1 V2000
  146.9349  142.5256  153.9924 C   0  0  0  0  0  0  0  0  0  0  0  0
  147.8679  141.4031  153.5326 C   0  0  0  0  0  0  0  0  0  0  0  0
  149.1874  141.6983  153.9582 O   0  0  0  0  0  0  0  0  0  0  0  0
  149.3598  141.5369  155.3557 C   0  0  0  0  0  0  0  0  0  0  0  0
  150.7428  142.0748  155.7489 C   0  0  0  0  0  0  0  0  0  0  0  0
  151.4024  141.2140  156.7262 N   0  0  0  0  0  0  0  0  0  0  0  0
  151.9046  141.5035  157.9657 C   0  0  0  0  0  0  0  0  0  0  0  0
  151.9003  142.7775  158.5574 N   0  0  0  0  0  0  0  0  0  0  0  0
  151.6526  144.1058  157.9945 C   0  0  0  0  0  0  0  0  0  0  0  0
  152.1648  145.1485  158.9827 C   0  0  0  0  0  0  0  0  0  0  0  0
  151.9213  144.4623  160.3078 C   0  0  0  0  0  0  0  0  0  0  0  0
  152.2284  143.0078  159.9654 C   0  0  0  0  0  0  0  0  0  0  0  0
  152.4236  140.4443  158.5976 N   0  0  0  0  0  0  0  0  0  0  0  0
  152.2606  139.4077  157.6963 C   0  0  0  0  0  0  0  0  0  0  0  0
  151.6599  139.8491  156.5644 C   0  0  0  0  0  0  0  0  0  0  0  0
  151.3815  138.9578  155.4273 C   0  0  0  0  0  0  0  0  0  0  0  0
  150.8482  139.3304  154.3847 O   0  0  0  0  0  0  0  0  0  0  0  0
  151.7819  137.6807  155.6403 N   0  0  0  0  0  0  0  0  0  0  0  0
  152.3900  137.1749  156.7557 C   0  0  0  0  0  0  0  0  0  0  0  0
  152.7059  135.9859  156.7984 O   0  0  0  0  0  0  0  0  0  0  0  0
  152.6275  138.0354  157.7965 N   0  0  0  0  0  0  0  0  0  0  0  0
  153.2787  137.5523  159.0157 C   0  0  0  0  0  0  0  0  0  0  0  0
  151.6165  137.0289  154.8872 H   0  0  0  0  0  0  0  0  0  0  0  0
  145.9080  142.3293  153.6840 H   0  0  0  0  0  0  0  0  0  0  0  0
  147.2352  143.4834  153.5668 H   0  0  0  0  0  0  0  0  0  0  0  0
  146.9451  142.6227  155.0783 H   0  0  0  0  0  0  0  0  0  0  0  0
  147.5406  140.4519  153.9547 H   0  0  0  0  0  0  0  0  0  0  0  0
  147.8335  141.3125  152.4458 H   0  0  0  0  0  0  0  0  0  0  0  0
  148.5799  142.0786  155.8927 H   0  0  0  0  0  0  0  0  0  0  0  0
  149.2641  140.4846  155.6248 H   0  0  0  0  0  0  0  0  0  0  0  0
  151.3772  142.2173  154.8802 H   0  0  0  0  0  0  0  0  0  0  0  0
  150.6470  143.0755  156.1678 H   0  0  0  0  0  0  0  0  0  0  0  0
  152.1369  144.2356  157.0287 H   0  0  0  0  0  0  0  0  0  0  0  0
  150.5780  144.2323  157.8604 H   0  0  0  0  0  0  0  0  0  0  0  0
  153.2331  145.3135  158.8364 H   0  0  0  0  0  0  0  0  0  0  0  0
  151.6539  146.1076  158.8943 H   0  0  0  0  0  0  0  0  0  0  0  0
  152.5429  144.8512  161.1149 H   0  0  0  0  0  0  0  0  0  0  0  0
  150.8749  144.5682  160.5978 H   0  0  0  0  0  0  0  0  0  0  0  0
  151.6748  142.3283  160.6139 H   0  0  0  0  0  0  0  0  0  0  0  0
  153.2908  142.8053  160.1068 H   0  0  0  0  0  0  0  0  0  0  0  0
  152.7909  136.6507  159.3891 H   0  0  0  0  0  0  0  0  0  0  0  0
  153.2516  138.2859  159.8212 H   0  0  0  0  0  0  0  0  0  0  0  0
  154.3249  137.3170  158.8173 H   0  0  0  0  0  0  0  0  0  0  0  0
  1  2  1  0  0  0  0
  1 24  1  0  0  0  0
  1 25  1  0  0  0  0
  1 26  1  0  0  0  0
  2  3  1  0  0  0  0
  2 27  1  0  0  0  0
  2 28  1  0  0  0  0
  3  4  1  0  0  0  0
  4  5  1  0  0  0  0
  4 29  1  0  0  0  0
  4 30  1  0  0  0  0
  5  6  1  0  0  0  0
  5 31  1  0  0  0  0
  5 32  1  0  0  0  0
  6 15  1  0  0  0  0
  6  7  1  0  0  0  0
  7  8  1  0  0  0  0
  7 13  2  0  0  0  0
  8 12  1  0  0  0  0
  8  9  1  0  0  0  0
  9 10  1  0  0  0  0
  9 33  1  0  0  0  0
  9 34  1  0  0  0  0
 10 11  1  0  0  0  0
 10 35  1  0  0  0  0
 10 36  1  0  0  0  0
 11 12  1  0  0  0  0
 11 37  1  0  0  0  0
 11 38  1  0  0  0  0
 12 39  1  0  0  0  0
 12 40  1  0  0  0  0
 13 14  1  0  0  0  0
 14 21  1  0  0  0  0
 14 15  2  0  0  0  0
 15 16  1  0  0  0  0
 16 17  2  0  0  0  0
 16 18  1  0  0  0  0
 18 23  1  0  0  0  0
 18 19  1  0  0  0  0
 19 20  2  0  0  0  0
 19 21  1  0  0  0  0
 21 22  1  0  0  0  0
 22 41  1  0  0  0  0
 22 42  1  0  0  0  0
 22 43  1  0  0  0  0
M  END
> <s_m_source_file>
AV-unprocessed.smi

> <i_m_source_file_index>
541

> <i_lp_mmshare_version>
43012

> <i_f3d_flags>
0

> <s_epik_input>
W0NIM11uMWMoPU8pW25IXWMoPU8pYyhjMTIpbihbQ0gyXVtDSDJdT1tDSDJdW0NIM10pYyhuMilOM1tDSDJdW0NIMl1bQ0gyXVtDSDJdMw==

> <s_epik_cmdline>
J2VwaWtfcHl0aG9uJywgJy1waCcsICc3LjAnLCAnLXRuJywgJzgnLCAnLW1hJywgJzIwMCcsICctbWV0YWxfYmluZGluZycsICctaW1hZScsICc8aW5maWxlLm1hZT4nLCAnLW9tYWUnLCAnPG91dGZpbGUubWFlPic=

> <r_lp_tautomer_probability>
1

> <r_epik_Ionization_Penalty>
0.00016913

> <r_epik_Ionization_Penalty_Charging>
2.12732e-05

> <r_epik_Ionization_Penalty_Neutral>
0.000147857

> <r_epik_State_Penalty>
-0

> <r_epik_Charging_Adjusted_Penalty>
2.12732e-05

> <i_epik_Tot_Q>
0

> <i_epik_Tot_abs_Q>
0

> <r_epik_Metal_State_Penalty>
0.0201837

> <b_epik_Metal_Only>
0

> <s_lp_Force_Field>
OPLS_2005

> <r_lp_Energy>
45.5158

> <b_lp_Chiralities_Consistent>
1

> <s_lp_Variant>
AV-unprocessed.smi:541-1

> <Gold.Version>
5.8.1

> <Gold.Id.Protein>
6NUR|6NUR_protein|mol2

> <Gold.PLP.Fitness>
52.3689

> <Gold.PLP.PLP>
-45.2535

> <Gold.PLP.part.hbond>
-3.7200

> <Gold.PLP.part.metal>
0.0000

> <Gold.PLP.part.buried>
-7.0938

> <Gold.PLP.part.nonpolar>
-35.9749

> <Gold.PLP.part.repulsive>
0.4435

> <Gold.PLP.ligand.clash>
0.0000

> <Gold.PLP.ligand.torsion>
0.4350

> <Gold.PLP.Chemscore.Hbond>
2.6560

> <Gold.PLP.Chemscore.CHOScore>
0.0000

> <Gold.PLP.Chemscore.Metal>
0.0000

> <Gold.Chemscore.Hbonds>
donor molecule, donor type, donor heavy atom, donor atom, acceptor molecule, acceptor atom, score
      P1  H  7989  7998       L1    17  1.00
      P1  H  8011  8017       L1     3  0.50
      P1  H 10752 10764       L1    20  1.00

> <Gold.PLP.Chemscore.Internal.Correction>
0.0173

> <Gold.Rescore>
     Score         DG    S(hbond)    S(metal)    S(lipo)     H(rot)  DE(clash)    DE(int)     intcor
     16.70     -18.62       2.15        0.00      87.47       1.67       0.46       1.46       ----

> <Gold.Chemscore.Fitness>
16.6951

> <Gold.Chemscore.DG>
-18.6188

> <Gold.Chemscore.ZeroCoef>
-5.4800

> <Gold.Chemscore.Hbond>
2.1476

> <Gold.Chemscore.Metal>
0.0000

> <Gold.Chemscore.Lipo>
87.4749

> <Gold.Chemscore.Internal_Hbond>
0.0000

> <Gold.Chemscore.DEClash>
0.4588

> <Gold.Chemscore.DEInternal>
1.4648

> <Gold.Chemscore.Rot>
1.6675

> <Gold.Chemscore.Internal.Correction>
   9.000000E+99

> <Gold.Chemscore.Hbonds>
donor molecule, donor type, donor heavy atom, donor atom, acceptor molecule, acceptor atom, score
      P1  H  7989  7998       L1    17  0.94
      P1  H  8011  8017       L1     3  0.09
      P1  H 10752 10764       L1    20  0.88

> <Gold.Chemscore.Hbond.Weighted>
-7.1731

> <Gold.Chemscore.Metal.Weighted>
-0.0000

> <Gold.Chemscore.Lipo.Weighted>
-10.2346

> <Gold.Chemscore.Internal_Hbond.Weighted>
0.0000

> <Gold.Chemscore.DEClash.Weighted>
0.4588

> <Gold.Chemscore.DEInternal.Weighted>
1.4648

> <Gold.Chemscore.Rot.Weighted>
4.2689

> <Gold.Chemscore.Internal.Correction.Weighted>
   9.000000E+99

> <Gold.Protein.RotatedTorsions>
[ 6907 6896 6895 6894 ] final   -0.25 input  -60.11 | X-H torsion
[ 7974 7965 7964 7962 ] final   52.11 input  175.53 | X-H torsion
[ 8008 7997 7996 7995 ] final -105.87 input   59.86 | X-H torsion
[ 10167 10162 10161 10158 ] final   -8.96 input  -65.29 | X-H torsion
[ 10718 10713 10712 10709 ] final   36.63 input   66.30 | X-H torsion
[ 10763 10752 10751 10750 ] final   -7.45 input  -60.55 | X-H torsion
[ 11005 11000 10999 10996 ] final -164.66 input  -57.11 | X-H torsion

> <Gold.Protein.ActiveResidues>
 VAL166  LYS551  ARG553  GLY616  TRP617  ASP618  TYR619  PRO620  LYS621  CYS622 
 ASP623  PHE694  ASN695  SER759  ASP760  ASP761  ALA762  ILE779  LEU786  VAL792 
 PHE793  MET794  SER795  GLU796  ALA797  LYS798  CYS799  TRP800  GLU811  SER814 

> <Gold.Protein.RotatedAtoms>
  151.5653  135.1064  159.9982 H   0  0  0  0  0  0  0  0  0  0  0  0  # atno 6907 bound_to 6896
  152.4427  133.7473  159.6685 H   0  0  0  0  0  0  0  0  0  0  0  0  # atno 6908 bound_to 6896
  150.8335  133.7983  159.3112 H   0  0  0  0  0  0  0  0  0  0  0  0  # atno 6909 bound_to 6896
  145.9846  139.4277  143.0111 H   0  0  0  0  0  0  0  0  0  0  0  0  # atno 7974 bound_to 7965
  154.9062  140.0411  157.1921 H   0  0  0  0  0  0  0  0  0  0  0  0  # atno 8008 bound_to 7997
  154.8394  140.2912  155.5648 H   0  0  0  0  0  0  0  0  0  0  0  0  # atno 8009 bound_to 7997
  156.2991  140.2485  156.3333 H   0  0  0  0  0  0  0  0  0  0  0  0  # atno 8010 bound_to 7997
  140.7074  143.5911  150.8893 H   0  0  0  0  0  0  0  0  0  0  0  0  # atno 10167 bound_to 10162
  157.3372  130.7529  149.6887 H   0  0  0  0  0  0  0  0  0  0  0  0  # atno 10718 bound_to 10713
  153.4265  135.7011  153.6259 H   0  0  0  0  0  0  0  0  0  0  0  0  # atno 10763 bound_to 10752
  153.4691  135.3719  155.2381 H   0  0  0  0  0  0  0  0  0  0  0  0  # atno 10764 bound_to 10752
  154.8724  135.4038  154.3642 H   0  0  0  0  0  0  0  0  0  0  0  0  # atno 10765 bound_to 10752
  140.5844  134.5109  157.5183 H   0  0  0  0  0  0  0  0  0  0  0  0  # atno 11005 bound_to 11000
  145.7719  140.9893  143.1145 LP  0  0  0  0  0  0  0  0  0  0  0  0  # atno 17320 bound_to 7965
  144.6871  139.9458  143.7476 LP  0  0  0  0  0  0  0  0  0  0  0  0  # atno 17321 bound_to 7965
  139.9636  143.6136  152.2995 LP  0  0  0  0  0  0  0  0  0  0  0  0  # atno 17342 bound_to 10162
  139.6697  144.7661  151.1806 LP  0  0  0  0  0  0  0  0  0  0  0  0  # atno 17343 bound_to 10162
  155.9703  130.4178  150.4297 LP  0  0  0  0  0  0  0  0  0  0  0  0  # atno 17370 bound_to 10713
  157.2339  131.0510  151.2476 LP  0  0  0  0  0  0  0  0  0  0  0  0  # atno 17371 bound_to 10713
  139.9302  134.7977  156.0951 LP  0  0  0  0  0  0  0  0  0  0  0  0  # atno 17394 bound_to 11000
  141.0976  133.6690  156.2679 LP  0  0  0  0  0  0  0  0  0  0  0  0  # atno 17395 bound_to 11000

$$$$
