AV-unprocessed.smi:2996|AV-procd|sdf|11410|dock4
  -GOLD-   2272016333D 1   1.00000     0.00000
 Structure written by MMmdl.
 46 47  0  0  0  0  0  0  0  0  1 V2000
  152.1479  138.0828  154.3821 C   0  0  0  0  0  0  0  0  0  0  0  0
  150.8003  137.5258  154.8541 C   0  0  0  0  0  0  0  0  0  0  0  0
  150.9357  136.1520  155.4510 C   0  0  0  0  0  0  0  0  0  0  0  0
  151.7922  135.9365  156.4366 N   0  0  0  0  0  0  0  0  0  0  0  0
  151.6958  134.5725  156.7507 O   0  0  0  0  0  0  0  0  0  0  0  0
  150.7772  133.9873  155.9351 C   0  0  0  0  0  0  0  0  0  0  0  0
  150.5981  132.5139  156.0983 C   0  0  0  0  0  0  0  0  0  0  0  0
  150.2554  134.9522  155.1150 C   0  0  0  0  0  0  0  0  0  0  0  0
  149.2986  134.8375  154.0744 N   0  0  0  0  0  0  0  0  0  0  0  0
  148.3250  133.9217  153.9599 C   0  0  0  0  0  0  0  0  0  0  0  0
  148.0962  133.0283  154.7740 O   0  0  0  0  0  0  0  0  0  0  0  0
  147.6025  134.1185  152.8492 N   0  0  0  0  0  0  0  0  0  0  0  0
  146.4439  133.3240  152.4465 C   0  0  2  0  0  0  0  0  0  0  0  0
  146.7596  132.4448  151.2527 C   0  0  0  0  0  0  0  0  0  0  0  0
  145.3806  132.1923  150.6306 C   0  0  0  0  0  0  0  0  0  0  0  0
  145.4338  132.1422  149.0960 C   0  0  0  0  0  0  0  0  0  0  0  0
  144.7168  130.9270  151.2001 C   0  0  0  0  0  0  0  0  0  0  0  0
  144.5764  133.3050  151.0201 O   0  0  0  0  0  0  0  0  0  0  0  0
  145.2553  134.1655  151.9336 C   0  0  0  0  0  0  0  0  0  0  0  0
  144.2700  134.5320  153.0548 C   0  0  0  0  0  0  0  0  0  0  0  0
  145.6631  135.4213  151.1345 C   0  0  0  0  0  0  0  0  0  0  0  0
  152.0283  139.0780  153.9537 H   0  0  0  0  0  0  0  0  0  0  0  0
  152.5918  137.4423  153.6195 H   0  0  0  0  0  0  0  0  0  0  0  0
  152.8547  138.1593  155.2089 H   0  0  0  0  0  0  0  0  0  0  0  0
  150.3629  138.2076  155.5840 H   0  0  0  0  0  0  0  0  0  0  0  0
  150.1055  137.5011  154.0143 H   0  0  0  0  0  0  0  0  0  0  0  0
  150.4206  132.0338  155.1360 H   0  0  0  0  0  0  0  0  0  0  0  0
  149.7528  132.2969  156.7513 H   0  0  0  0  0  0  0  0  0  0  0  0
  151.4865  132.0590  156.5371 H   0  0  0  0  0  0  0  0  0  0  0  0
  149.3001  135.5814  153.3922 H   0  0  0  0  0  0  0  0  0  0  0  0
  147.8609  134.8828  152.2426 H   0  0  0  0  0  0  0  0  0  0  0  0
  146.1221  132.6781  153.2660 H   0  0  0  0  0  0  0  0  0  0  0  0
  147.3986  132.9840  150.5513 H   0  0  0  0  0  0  0  0  0  0  0  0
  147.2812  131.5275  151.5282 H   0  0  0  0  0  0  0  0  0  0  0  0
  146.0565  131.3168  148.7501 H   0  0  0  0  0  0  0  0  0  0  0  0
  145.8441  133.0643  148.6833 H   0  0  0  0  0  0  0  0  0  0  0  0
  144.4382  132.0091  148.6719 H   0  0  0  0  0  0  0  0  0  0  0  0
  145.2901  130.0342  150.9489 H   0  0  0  0  0  0  0  0  0  0  0  0
  143.7105  130.7977  150.8006 H   0  0  0  0  0  0  0  0  0  0  0  0
  144.6333  130.9729  152.2862 H   0  0  0  0  0  0  0  0  0  0  0  0
  144.7295  135.1992  153.7841 H   0  0  0  0  0  0  0  0  0  0  0  0
  143.9271  133.6437  153.5855 H   0  0  0  0  0  0  0  0  0  0  0  0
  143.3891  135.0353  152.6555 H   0  0  0  0  0  0  0  0  0  0  0  0
  146.1533  136.1601  151.7690 H   0  0  0  0  0  0  0  0  0  0  0  0
  144.7892  135.9020  150.6937 H   0  0  0  0  0  0  0  0  0  0  0  0
  146.3445  135.1774  150.3193 H   0  0  0  0  0  0  0  0  0  0  0  0
  1  2  1  0  0  0  0
  1 22  1  0  0  0  0
  1 23  1  0  0  0  0
  1 24  1  0  0  0  0
  2  3  1  0  0  0  0
  2 25  1  0  0  0  0
  2 26  1  0  0  0  0
  3  8  1  0  0  0  0
  3  4  2  0  0  0  0
  4  5  1  0  0  0  0
  5  6  1  0  0  0  0
  6  7  1  0  0  0  0
  6  8  2  0  0  0  0
  7 27  1  0  0  0  0
  7 28  1  0  0  0  0
  7 29  1  0  0  0  0
  8  9  1  0  0  0  0
  9 10  1  0  0  0  0
  9 30  1  0  0  0  0
 10 11  2  0  0  0  0
 10 12  1  0  0  0  0
 12 13  1  0  0  0  0
 12 31  1  0  0  0  0
 13 19  1  0  0  0  0
 13 14  1  0  0  0  0
 13 32  1  0  0  0  0
 14 15  1  0  0  0  0
 14 33  1  0  0  0  0
 14 34  1  0  0  0  0
 15 16  1  0  0  0  0
 15 17  1  0  0  0  0
 15 18  1  0  0  0  0
 16 35  1  0  0  0  0
 16 36  1  0  0  0  0
 16 37  1  0  0  0  0
 17 38  1  0  0  0  0
 17 39  1  0  0  0  0
 17 40  1  0  0  0  0
 18 19  1  0  0  0  0
 19 20  1  0  0  0  0
 19 21  1  0  0  0  0
 20 41  1  0  0  0  0
 20 42  1  0  0  0  0
 20 43  1  0  0  0  0
 21 44  1  0  0  0  0
 21 45  1  0  0  0  0
 21 46  1  0  0  0  0
M  END
> <s_m_source_file>
AV-unprocessed.smi

> <i_m_source_file_index>
2996

> <i_lp_mmshare_version>
43012

> <i_f3d_flags>
0

> <s_epik_input>
W0NIM11bQ0gyXWMxbm9jKFtDSDNdKWMxW05IXUMoPU8pW05IXVtDQEBIXShDKE8yKShbQ0gzXSlbQ0gzXSlbQ0gyXUMyKFtDSDNdKVtDSDNd

> <s_epik_cmdline>
J2VwaWtfcHl0aG9uJywgJy1waCcsICc3LjAnLCAnLXRuJywgJzgnLCAnLW1hJywgJzIwMCcsICctbWV0YWxfYmluZGluZycsICctaW1hZScsICc8aW5maWxlLm1hZT4nLCAnLW9tYWUnLCAnPG91dGZpbGUubWFlPic=

> <r_lp_tautomer_probability>
1

> <r_epik_Ionization_Penalty>
3.17207e-05

> <r_epik_Ionization_Penalty_Charging>
0

> <r_epik_Ionization_Penalty_Neutral>
3.17207e-05

> <r_epik_State_Penalty>
-0

> <r_epik_Charging_Adjusted_Penalty>
0

> <i_epik_Tot_Q>
0

> <i_epik_Tot_abs_Q>
0

> <r_epik_Metal_State_Penalty>
-0

> <b_epik_Metal_Only>
0

> <s_lp_Force_Field>
OPLS_2005

> <r_lp_Energy>
17.7476

> <b_lp_Chiralities_Consistent>
1

> <s_lp_Variant>
AV-unprocessed.smi:2996-1

> <Gold.Version>
5.8.1

> <Gold.Id.Protein>
6NUR|6NUR_protein|mol2

> <Gold.PLP.Fitness>
40.5517

> <Gold.PLP.PLP>
-34.5688

> <Gold.PLP.part.hbond>
-3.5285

> <Gold.PLP.part.metal>
0.0000

> <Gold.PLP.part.buried>
-0.9575

> <Gold.PLP.part.nonpolar>
-29.0739

> <Gold.PLP.part.repulsive>
0.1770

> <Gold.PLP.ligand.clash>
0.0000

> <Gold.PLP.ligand.torsion>
0.3330

> <Gold.PLP.Chemscore.Hbond>
2.1638

> <Gold.PLP.Chemscore.CHOScore>
0.0000

> <Gold.PLP.Chemscore.Metal>
0.0000

> <Gold.Chemscore.Hbonds>
donor molecule, donor type, donor heavy atom, donor atom, acceptor molecule, acceptor atom, score
      L1  H     9    30       P1  7948  1.00
      L1  H    12    31       P1  7948  0.99
      P1  H 10752 10763       L1     4  0.18

> <Gold.PLP.Chemscore.Internal.Correction>
0.1574

> <Gold.Rescore>
     Score         DG    S(hbond)    S(metal)    S(lipo)     H(rot)  DE(clash)    DE(int)     intcor
     16.22     -18.38       1.70        0.00      86.98       1.16       0.04       2.11       ----

> <Gold.Chemscore.Fitness>
16.2200

> <Gold.Chemscore.DG>
-18.3780

> <Gold.Chemscore.ZeroCoef>
-5.4800

> <Gold.Chemscore.Hbond>
1.7032

> <Gold.Chemscore.Metal>
0.0000

> <Gold.Chemscore.Lipo>
86.9780

> <Gold.Chemscore.Internal_Hbond>
0.0000

> <Gold.Chemscore.DEClash>
0.0431

> <Gold.Chemscore.DEInternal>
2.1149

> <Gold.Chemscore.Rot>
1.1590

> <Gold.Chemscore.Internal.Correction>
   9.000000E+99

> <Gold.Chemscore.Hbonds>
donor molecule, donor type, donor heavy atom, donor atom, acceptor molecule, acceptor atom, score
      L1  H     9    30       P1  7948  0.34
      L1  H    12    31       P1  7948  0.70

> <Gold.Chemscore.Hbond.Weighted>
-5.6886

> <Gold.Chemscore.Metal.Weighted>
-0.0000

> <Gold.Chemscore.Lipo.Weighted>
-10.1764

> <Gold.Chemscore.Internal_Hbond.Weighted>
0.0000

> <Gold.Chemscore.DEClash.Weighted>
0.0431

> <Gold.Chemscore.DEInternal.Weighted>
2.1149

> <Gold.Chemscore.Rot.Weighted>
2.9671

> <Gold.Chemscore.Internal.Correction.Weighted>
   9.000000E+99

> <Gold.Protein.RotatedTorsions>
[ 6907 6896 6895 6894 ] final   58.68 input  -60.11 | X-H torsion
[ 7974 7965 7964 7962 ] final  -84.65 input  175.53 | X-H torsion
[ 8008 7997 7996 7995 ] final  -87.38 input   59.86 | X-H torsion
[ 10167 10162 10161 10158 ] final   98.27 input  -65.29 | X-H torsion
[ 10718 10713 10712 10709 ] final  129.58 input   66.30 | X-H torsion
[ 10763 10752 10751 10750 ] final   92.34 input  -60.55 | X-H torsion
[ 11005 11000 10999 10996 ] final  110.60 input  -57.11 | X-H torsion

> <Gold.Protein.ActiveResidues>
 VAL166  LYS551  ARG553  GLY616  TRP617  ASP618  TYR619  PRO620  LYS621  CYS622 
 ASP623  PHE694  ASN695  SER759  ASP760  ASP761  ALA762  ILE779  LEU786  VAL792 
 PHE793  MET794  SER795  GLU796  ALA797  LYS798  CYS799  TRP800  GLU811  SER814 

> <Gold.Protein.RotatedAtoms>
  152.3846  134.6537  160.0129 H   0  0  0  0  0  0  0  0  0  0  0  0  # atno 6907 bound_to 6896
  151.6789  133.3307  159.3222 H   0  0  0  0  0  0  0  0  0  0  0  0  # atno 6908 bound_to 6896
  150.7775  134.6734  159.6449 H   0  0  0  0  0  0  0  0  0  0  0  0  # atno 6909 bound_to 6896
  145.5038  140.9545  143.1745 H   0  0  0  0  0  0  0  0  0  0  0  0  # atno 7974 bound_to 7965
  154.6626  140.0566  157.0079 H   0  0  0  0  0  0  0  0  0  0  0  0  # atno 8008 bound_to 7997
  155.1206  140.3247  155.4480 H   0  0  0  0  0  0  0  0  0  0  0  0  # atno 8009 bound_to 7997
  156.2624  140.1998  156.6328 H   0  0  0  0  0  0  0  0  0  0  0  0  # atno 8010 bound_to 7997
  139.7724  144.6918  151.0137 H   0  0  0  0  0  0  0  0  0  0  0  0  # atno 10167 bound_to 10162
  157.5141  131.1097  150.9250 H   0  0  0  0  0  0  0  0  0  0  0  0  # atno 10718 bound_to 10713
  153.2181  135.4365  155.0458 H   0  0  0  0  0  0  0  0  0  0  0  0  # atno 10763 bound_to 10752
  154.8236  135.3349  154.6967 H   0  0  0  0  0  0  0  0  0  0  0  0  # atno 10764 bound_to 10752
  153.7401  135.7005  153.5025 H   0  0  0  0  0  0  0  0  0  0  0  0  # atno 10765 bound_to 10752
  139.8885  134.9488  156.6304 H   0  0  0  0  0  0  0  0  0  0  0  0  # atno 11005 bound_to 11000
  144.7765  139.6619  143.7172 LP  0  0  0  0  0  0  0  0  0  0  0  0  # atno 17320 bound_to 7965
  146.2209  139.5634  142.9619 LP  0  0  0  0  0  0  0  0  0  0  0  0  # atno 17321 bound_to 7965
  140.7814  143.4574  151.0326 LP  0  0  0  0  0  0  0  0  0  0  0  0  # atno 17342 bound_to 10162
  139.8257  143.7759  152.3178 LP  0  0  0  0  0  0  0  0  0  0  0  0  # atno 17343 bound_to 10162
  156.9881  130.5553  149.5301 LP  0  0  0  0  0  0  0  0  0  0  0  0  # atno 17370 bound_to 10713
  156.0308  130.5400  150.8530 LP  0  0  0  0  0  0  0  0  0  0  0  0  # atno 17371 bound_to 10713
  140.7671  133.8769  155.8463 LP  0  0  0  0  0  0  0  0  0  0  0  0  # atno 17394 bound_to 11000
  140.9873  134.1325  157.4440 LP  0  0  0  0  0  0  0  0  0  0  0  0  # atno 17395 bound_to 11000

$$$$
