#       Name:                AV-unprocessed.smi:47
#       Creating user name   scv26
#       Creation time:       Thu Mar 26 16:30:47 2020


#       File generated by GOLD software.
#

@<TRIPOS>MOLECULE
AV-unprocessed.smi:47
    36    38     1
SMALL
NO_CHARGES


@<TRIPOS>ATOM
      1 ****        -4.4974  -0.9503  -1.7000 O.3            1 S1                 0.0000
      2 ****        -3.4113  -0.4960  -0.9209 C.3            1 S1                 0.0000
      3 ****        -3.8547   0.3934   0.2333 C.3            1 S1                 0.0000
      4 ****        -2.7374   0.3623   1.1658 N.3            1 S1                 0.0000
      5 ****        -2.1032  -0.9575   1.0615 C.3            1 S1                 0.0000
      6 ****        -0.6080  -0.8770   1.0100 C.2            1 S1                 0.0000
      7 ****         0.1435  -1.8273   1.5568 N.2            1 S1                 0.0000
      8 ****         1.3879  -1.4087   1.2473 N.pl3          1 S1                 0.0000
      9 ****         1.3345  -0.2754   0.5359 C.2            1 S1                 0.0000
     10 ****         2.5020   0.4452   0.0231 C.ar           1 S1                 0.0000
     11 ****         3.8077  -0.0456   0.2571 C.ar           1 S1                 0.0000
     12 ****         4.9302   0.6454  -0.2394 C.ar           1 S1                 0.0000
     13 ****         4.7595   1.8332  -0.9746 C.ar           1 S1                 0.0000
     14 ****         3.4646   2.3305  -1.2121 C.ar           1 S1                 0.0000
     15 ****         2.3414   1.6405  -0.7160 C.ar           1 S1                 0.0000
     16 ****         0.0718   0.1080   0.3486 N.2            1 S1                 0.0000
     17 ****        -2.6839  -1.6265  -0.1993 C.3            1 S1                 0.0000
     18 ****        -2.7107   0.0472  -1.5573 H              1 S1                 0.0000
     19 ****        -2.3825  -1.5568   1.9293 H              1 S1                 0.0000
     20 ****         2.2187  -1.9128   1.5222 H              1 S1                 0.0000
     21 ****        -4.9097  -0.2022  -2.1043 H              1 S1                 0.0000
     22 ****        -4.0949   1.4087  -0.0828 H              1 S1                 0.0000
     23 ****        -4.7407  -0.0283   0.7101 H              1 S1                 0.0000
     24 ****        -3.0906   0.5027   2.1068 H              1 S1                 0.0000
     25 ****         3.9625  -0.9556   0.8176 H              1 S1                 0.0000
     26 ****         5.9235   0.2626  -0.0566 H              1 S1                 0.0000
     27 ****         5.6205   2.3623  -1.3557 H              1 S1                 0.0000
     28 ****         3.3315   3.2419  -1.7762 H              1 S1                 0.0000
     29 ****         1.3567   2.0394  -0.9105 H              1 S1                 0.0000
     30 ****        -3.3981  -2.3935   0.1047 H              1 S1                 0.0000
     31 ****        -1.9335  -2.1109  -0.8259 H              1 S1                 0.0000
     32 ****        -5.1565  -1.4242  -1.1161 LP             1 S1                 0.0000
     33 ****        -4.1673  -1.5764  -2.4064 LP             1 S1                 0.0000
     34 ****        -2.0736   1.0803   0.9565 LP             1 S1                 0.0000
     35 ****        -0.1398  -2.6405   2.0652 LP             1 S1                 0.0000
     36 ****        -0.2832   0.9028  -0.1435 LP             1 S1                 0.0000
@<TRIPOS>BOND
    1    1    2 1     
    2    1   21 1     
    3    2   18 1     
    4    2   17 1     
    5    2    3 1     
    6    3    4 1     
    7    3   22 1     
    8    3   23 1     
    9    4    5 1     
   10    4   24 1     
   11    5   19 1     
   12    5    6 1     
   13    5   17 1     
   14    6   16 1     
   15    6    7 2     
   16    7    8 1     
   17    8   20 1     
   18    8    9 1     
   19    9   10 1     
   20    9   16 2     
   21   10   15 ar    
   22   10   11 ar    
   23   11   12 ar    
   24   11   25 1     
   25   12   13 ar    
   26   12   26 1     
   27   13   14 ar    
   28   13   27 1     
   29   14   15 ar    
   30   14   28 1     
   31   15   29 1     
   32   17   30 1     
   33   17   31 1     
   34    1   32 1     
   35    1   33 1     
   36    4   34 1     
   37    7   35 1     
   38   16   36 1     
@<TRIPOS>SUBSTRUCTURE
      1 S1             1
@<TRIPOS>SET
LONE_PAIRS      STATIC     ATOMS    <user>   **** ""
5 32 33 34 35 36
DONOR_HYDROGENS      STATIC     ATOMS    <user>   **** ""
3 21 24 20
ATOM$BLUE        STATIC     ATOMS    COLORGROUP SYSTEM
5 32 33 34 35 36
ATOM$RED        STATIC     ATOMS    COLORGROUP SYSTEM
3 21 24 20
