AV-unprocessed.smi:2966|AV-procd|sdf|11324|dock10
  -GOLD-   2272016233D 1   1.00000     0.00000
 Structure written by MMmdl.
 40 42  0  0  0  0  0  0  0  0  1 V2000
  155.4852  138.7454  159.0400 C   0  0  0  0  0  0  0  0  0  0  0  0
  155.5089  140.0300  159.6359 O   0  0  0  0  0  0  0  0  0  0  0  0
  154.2106  140.5690  159.8221 C   0  0  0  0  0  0  0  0  0  0  0  0
  154.1180  141.2438  161.1978 C   0  0  0  0  0  0  0  0  0  0  0  0
  152.9535  142.1107  161.3052 N   0  0  0  0  0  0  0  0  0  0  0  0
  151.9699  142.0858  162.2385 C   0  0  0  0  0  0  0  0  0  0  0  0
  151.9519  140.9211  163.5581 S   0  0  0  0  0  0  0  0  0  0  0  0
  151.7427  142.1079  164.9179 C   0  0  0  0  0  0  0  0  0  0  0  0
  152.2747  141.6197  166.2671 C   0  0  0  0  0  0  0  0  0  0  0  0
  153.4826  141.4713  166.4572 O   0  0  0  0  0  0  0  0  0  0  0  0
  151.3467  141.3681  167.2019 N   0  0  0  0  0  0  0  0  0  0  0  0
  151.6090  140.9007  168.5251 C   0  0  0  0  0  0  0  0  0  0  0  0
  150.4251  140.4913  169.3743 C   0  0  0  0  0  0  0  0  0  0  0  0
  151.1582  141.7680  169.6806 C   0  0  0  0  0  0  0  0  0  0  0  0
  151.0136  143.0031  162.0967 N   0  0  0  0  0  0  0  0  0  0  0  0
  151.4186  143.6938  160.9713 C   0  0  0  0  0  0  0  0  0  0  0  0
  150.8296  144.7929  160.3057 C   0  0  0  0  0  0  0  0  0  0  0  0
  151.4372  145.3409  159.1570 C   0  0  0  0  0  0  0  0  0  0  0  0
  152.6390  144.7984  158.6574 C   0  0  0  0  0  0  0  0  0  0  0  0
  153.2417  143.7024  159.3043 C   0  0  0  0  0  0  0  0  0  0  0  0
  152.6312  143.1598  160.4509 C   0  0  0  0  0  0  0  0  0  0  0  0
  156.5050  138.3813  158.9160 H   0  0  0  0  0  0  0  0  0  0  0  0
  155.0164  138.7760  158.0556 H   0  0  0  0  0  0  0  0  0  0  0  0
  154.9460  138.0312  159.6636 H   0  0  0  0  0  0  0  0  0  0  0  0
  153.9928  141.2945  159.0365 H   0  0  0  0  0  0  0  0  0  0  0  0
  153.4638  139.7771  159.7503 H   0  0  0  0  0  0  0  0  0  0  0  0
  154.0573  140.4856  161.9791 H   0  0  0  0  0  0  0  0  0  0  0  0
  155.0220  141.8170  161.4023 H   0  0  0  0  0  0  0  0  0  0  0  0
  152.2458  143.0374  164.6495 H   0  0  0  0  0  0  0  0  0  0  0  0
  150.6813  142.3350  165.0232 H   0  0  0  0  0  0  0  0  0  0  0  0
  150.3786  141.5183  166.9573 H   0  0  0  0  0  0  0  0  0  0  0  0
  152.5274  140.3369  168.6836 H   0  0  0  0  0  0  0  0  0  0  0  0
  149.4315  140.5755  168.9381 H   0  0  0  0  0  0  0  0  0  0  0  0
  150.5639  139.6555  170.0570 H   0  0  0  0  0  0  0  0  0  0  0  0
  151.7870  141.7859  170.5686 H   0  0  0  0  0  0  0  0  0  0  0  0
  150.6541  142.7044  169.4492 H   0  0  0  0  0  0  0  0  0  0  0  0
  149.9096  145.2163  160.6809 H   0  0  0  0  0  0  0  0  0  0  0  0
  150.9797  146.1824  158.6577 H   0  0  0  0  0  0  0  0  0  0  0  0
  153.0986  145.2249  157.7777 H   0  0  0  0  0  0  0  0  0  0  0  0
  154.1628  143.2854  158.9249 H   0  0  0  0  0  0  0  0  0  0  0  0
  1  2  1  0  0  0  0
  1 22  1  0  0  0  0
  1 23  1  0  0  0  0
  1 24  1  0  0  0  0
  2  3  1  0  0  0  0
  3  4  1  0  0  0  0
  3 25  1  0  0  0  0
  3 26  1  0  0  0  0
  4  5  1  0  0  0  0
  4 27  1  0  0  0  0
  4 28  1  0  0  0  0
  5 21  1  0  0  0  0
  5  6  1  0  0  0  0
  6  7  1  0  0  0  0
  6 15  2  0  0  0  0
  7  8  1  0  0  0  0
  8  9  1  0  0  0  0
  8 29  1  0  0  0  0
  8 30  1  0  0  0  0
  9 10  2  0  0  0  0
  9 11  1  0  0  0  0
 11 12  1  0  0  0  0
 11 31  1  0  0  0  0
 12 14  1  0  0  0  0
 12 13  1  0  0  0  0
 12 32  1  0  0  0  0
 13 14  1  0  0  0  0
 13 33  1  0  0  0  0
 13 34  1  0  0  0  0
 14 35  1  0  0  0  0
 14 36  1  0  0  0  0
 15 16  1  0  0  0  0
 16 21  2  0  0  0  0
 16 17  1  0  0  0  0
 17 18  2  0  0  0  0
 17 37  1  0  0  0  0
 18 19  1  0  0  0  0
 18 38  1  0  0  0  0
 19 20  2  0  0  0  0
 19 39  1  0  0  0  0
 20 21  1  0  0  0  0
 20 40  1  0  0  0  0
M  END
> <s_m_source_file>
AV-unprocessed.smi

> <i_m_source_file_index>
2966

> <i_lp_mmshare_version>
43012

> <i_f3d_flags>
0

> <s_epik_input>
W2NIXTFbY0hdW2NIXVtjSF1jKGMxMiluKFtDSDJdW0NIMl1PW0NIM10pYyhuMilTW0NIMl1DKD1PKVtOSF1bQ0hdM1tDSDJdW0NIMl0z

> <s_epik_cmdline>
J2VwaWtfcHl0aG9uJywgJy1waCcsICc3LjAnLCAnLXRuJywgJzgnLCAnLW1hJywgJzIwMCcsICctbWV0YWxfYmluZGluZycsICctaW1hZScsICc8aW5maWxlLm1hZT4nLCAnLW9tYWUnLCAnPG91dGZpbGUubWFlPic=

> <r_epik_Ionization_Penalty>
0.0369383

> <r_epik_Ionization_Penalty_Charging>
0

> <r_epik_Ionization_Penalty_Neutral>
0.0369383

> <r_epik_State_Penalty>
0.0308874

> <r_epik_Charging_Adjusted_Penalty>
0.0308874

> <i_epik_Tot_Q>
0

> <i_epik_Tot_abs_Q>
0

> <r_epik_Metal_State_Penalty>
0.0290633

> <b_epik_Metal_Only>
0

> <s_lp_Force_Field>
OPLS_2005

> <r_lp_Energy>
20.8616

> <b_lp_Chiralities_Consistent>
1

> <s_lp_Variant>
AV-unprocessed.smi:2966-1

> <Gold.Version>
5.8.1

> <Gold.Id.Protein>
6NUR|6NUR_protein|mol2

> <Gold.PLP.Fitness>
58.2058

> <Gold.PLP.PLP>
-56.4453

> <Gold.PLP.part.hbond>
-2.0000

> <Gold.PLP.part.metal>
0.0000

> <Gold.PLP.part.buried>
-7.6581

> <Gold.PLP.part.nonpolar>
-45.1007

> <Gold.PLP.part.repulsive>
0.2617

> <Gold.PLP.ligand.clash>
0.0000

> <Gold.PLP.ligand.torsion>
0.6893

> <Gold.PLP.Chemscore.Hbond>
1.0000

> <Gold.PLP.Chemscore.CHOScore>
0.0000

> <Gold.PLP.Chemscore.Metal>
0.0000

> <Gold.Chemscore.Hbonds>
donor molecule, donor type, donor heavy atom, donor atom, acceptor molecule, acceptor atom, score
      P1  H  6933  6945       L1    15  0.16

> <Gold.PLP.Chemscore.Internal.Correction>
0.1392

> <Gold.Rescore>
     Score         DG    S(hbond)    S(metal)    S(lipo)     H(rot)  DE(clash)    DE(int)     intcor
     17.72     -19.36       0.85        0.00     141.02       2.13       0.86       0.78       ----

> <Gold.Chemscore.Fitness>
17.7186

> <Gold.Chemscore.DG>
-19.3578

> <Gold.Chemscore.ZeroCoef>
-5.4800

> <Gold.Chemscore.Hbond>
0.8504

> <Gold.Chemscore.Metal>
0.0000

> <Gold.Chemscore.Lipo>
141.0247

> <Gold.Chemscore.Internal_Hbond>
0.0000

> <Gold.Chemscore.DEClash>
0.8561

> <Gold.Chemscore.DEInternal>
0.7831

> <Gold.Chemscore.Rot>
2.1338

> <Gold.Chemscore.Internal.Correction>
   9.000000E+99

> <Gold.Chemscore.Hbond.Weighted>
-2.8404

> <Gold.Chemscore.Metal.Weighted>
-0.0000

> <Gold.Chemscore.Lipo.Weighted>
-16.4999

> <Gold.Chemscore.Internal_Hbond.Weighted>
0.0000

> <Gold.Chemscore.DEClash.Weighted>
0.8561

> <Gold.Chemscore.DEInternal.Weighted>
0.7831

> <Gold.Chemscore.Rot.Weighted>
5.4626

> <Gold.Chemscore.Internal.Correction.Weighted>
   9.000000E+99

> <Gold.Protein.RotatedTorsions>
[ 6907 6896 6895 6894 ] final  127.06 input  -60.11 | X-H torsion
[ 7974 7965 7964 7962 ] final  -62.27 input  175.53 | X-H torsion
[ 8008 7997 7996 7995 ] final  119.32 input   59.86 | X-H torsion
[ 10167 10162 10161 10158 ] final   57.24 input  -65.29 | X-H torsion
[ 10718 10713 10712 10709 ] final  -58.51 input   66.30 | X-H torsion
[ 10763 10752 10751 10750 ] final   32.64 input  -60.55 | X-H torsion
[ 11005 11000 10999 10996 ] final  -22.80 input  -57.11 | X-H torsion

> <Gold.Protein.ActiveResidues>
 VAL166  LYS551  ARG553  GLY616  TRP617  ASP618  TYR619  PRO620  LYS621  CYS622 
 ASP623  PHE694  ASN695  SER759  ASP760  ASP761  ALA762  ILE779  LEU786  VAL792 
 PHE793  MET794  SER795  GLU796  ALA797  LYS798  CYS799  TRP800  GLU811  SER814 

> <Gold.Protein.RotatedAtoms>
  152.3847  133.6595  159.6189 H   0  0  0  0  0  0  0  0  0  0  0  0  # atno 6907 bound_to 6896
  150.7769  133.9055  159.3362 H   0  0  0  0  0  0  0  0  0  0  0  0  # atno 6908 bound_to 6896
  151.6854  135.0956  160.0275 H   0  0  0  0  0  0  0  0  0  0  0  0  # atno 6909 bound_to 6896
  145.7933  140.8697  143.0269 H   0  0  0  0  0  0  0  0  0  0  0  0  # atno 7974 bound_to 7965
  156.2590  140.2855  156.0974 H   0  0  0  0  0  0  0  0  0  0  0  0  # atno 8008 bound_to 7997
  155.1397  140.0395  157.2813 H   0  0  0  0  0  0  0  0  0  0  0  0  # atno 8009 bound_to 7997
  154.6538  140.2551  155.7190 H   0  0  0  0  0  0  0  0  0  0  0  0  # atno 8010 bound_to 7997
  140.2001  144.3996  150.6532 H   0  0  0  0  0  0  0  0  0  0  0  0  # atno 10167 bound_to 10162
  156.1130  130.4173  150.0587 H   0  0  0  0  0  0  0  0  0  0  0  0  # atno 10718 bound_to 10713
  153.0252  135.6408  154.1387 H   0  0  0  0  0  0  0  0  0  0  0  0  # atno 10763 bound_to 10752
  154.1117  135.2852  155.3230 H   0  0  0  0  0  0  0  0  0  0  0  0  # atno 10764 bound_to 10752
  154.6327  135.5487  153.7761 H   0  0  0  0  0  0  0  0  0  0  0  0  # atno 10765 bound_to 10752
  140.8691  133.7733  156.0165 H   0  0  0  0  0  0  0  0  0  0  0  0  # atno 11005 bound_to 11000
  144.6778  140.0155  143.7484 LP  0  0  0  0  0  0  0  0  0  0  0  0  # atno 17320 bound_to 7965
  145.9954  139.3048  143.0960 LP  0  0  0  0  0  0  0  0  0  0  0  0  # atno 17321 bound_to 7965
  140.6396  143.2201  151.6319 LP  0  0  0  0  0  0  0  0  0  0  0  0  # atno 17342 bound_to 10162
  139.5220  144.3174  152.0940 LP  0  0  0  0  0  0  0  0  0  0  0  0  # atno 17343 bound_to 10162
  156.8545  130.9470  151.3623 LP  0  0  0  0  0  0  0  0  0  0  0  0  # atno 17370 bound_to 10713
  157.6312  130.8730  149.9277 LP  0  0  0  0  0  0  0  0  0  0  0  0  # atno 17371 bound_to 10713
  140.8594  134.2859  157.5241 LP  0  0  0  0  0  0  0  0  0  0  0  0  # atno 17394 bound_to 11000
  139.8711  134.9510  156.4072 LP  0  0  0  0  0  0  0  0  0  0  0  0  # atno 17395 bound_to 11000

$$$$
