#       Name:                AV-unprocessed.smi:2255
#       Creating user name   scv26
#       Creation time:       Fri Mar 27 12:33:00 2020


#       File generated by GOLD software.
#

@<TRIPOS>MOLECULE
AV-unprocessed.smi:2255
    51    52     1
SMALL
NO_CHARGES


@<TRIPOS>ATOM
      1 ****        -4.3746   4.6867  -1.7859 C.3            1 S1                 0.0000
      2 ****        -4.5586   3.2017  -2.0178 C.ar           1 S1                 0.0000
      3 ****        -5.8413   2.6493  -2.2013 C.ar           1 S1                 0.0000
      4 ****        -5.9421   1.2615  -2.4055 C.ar           1 S1                 0.0000
      5 ****        -4.7650   0.4887  -2.4165 C.ar           1 S1                 0.0000
      6 ****        -3.5161   1.1217  -2.2258 C.ar           1 S1                 0.0000
      7 ****        -2.3917   0.2546  -2.2475 N.am           1 S1                 0.0000
      8 ****        -1.0912   0.5765  -2.1314 C.2            1 S1                 0.0000
      9 ****        -0.6477   1.7210  -2.0332 O.2            1 S1                 0.0000
     10 ****        -0.3209  -0.5214  -2.1409 N.am           1 S1                 0.0000
     11 ****         1.1360  -0.5447  -2.0222 C.3            1 S1                 0.0000
     12 ****         1.6056  -1.4210  -0.8415 C.3            1 S1                 0.0000
     13 ****         1.3311  -0.8395   0.5603 C.2            1 S1                 0.0000
     14 ****         0.7586   0.2467   0.6607 O.2            1 S1                 0.0000
     15 ****         1.7399  -1.5330   1.6517 N.am           1 S1                 0.0000
     16 ****         1.5466  -1.0062   3.0087 C.3            1 S1                 0.0000
     17 ****         2.6430   0.0053   3.4017 C.3            1 S1                 0.0000
     18 ****         4.0587  -0.2861   2.8566 C.3            1 S1                 0.0000
     19 ****         4.4850  -1.7674   2.8839 C.3            1 S1                 0.0000
     20 ****         3.9976  -2.5770   1.6637 C.3            1 S1                 0.0000
     21 ****         2.4755  -2.8056   1.6175 C.3            1 S1                 0.0000
     22 ****        -3.4296   2.4611  -2.0301 N.ar           1 S1                 0.0000
     23 ****        -5.3091   5.2288  -1.9324 H              1 S1                 0.0000
     24 ****        -3.6352   5.0922  -2.4770 H              1 S1                 0.0000
     25 ****        -4.0300   4.8687  -0.7675 H              1 S1                 0.0000
     26 ****        -6.7255   3.2696  -2.1848 H              1 S1                 0.0000
     27 ****        -6.9058   0.7958  -2.5494 H              1 S1                 0.0000
     28 ****        -4.8252  -0.5790  -2.5702 H              1 S1                 0.0000
     29 ****        -2.6033  -0.7268  -2.3471 H              1 S1                 0.0000
     30 ****        -0.7790  -1.4167  -2.2287 H              1 S1                 0.0000
     31 ****         1.5319  -0.9559  -2.9509 H              1 S1                 0.0000
     32 ****         1.5564   0.4591  -1.9381 H              1 S1                 0.0000
     33 ****         1.1330  -2.4001  -0.9234 H              1 S1                 0.0000
     34 ****         2.6797  -1.5792  -0.9380 H              1 S1                 0.0000
     35 ****         0.5610  -0.5490   3.1126 H              1 S1                 0.0000
     36 ****         1.5470  -1.8197   3.7346 H              1 S1                 0.0000
     37 ****         2.3486   1.0006   3.0668 H              1 S1                 0.0000
     38 ****         2.6804   0.0633   4.4899 H              1 S1                 0.0000
     39 ****         4.1450   0.0936   1.8377 H              1 S1                 0.0000
     40 ****         4.7696   0.2979   3.4420 H              1 S1                 0.0000
     41 ****         5.5749  -1.8048   2.8896 H              1 S1                 0.0000
     42 ****         4.1675  -2.2404   3.8138 H              1 S1                 0.0000
     43 ****         4.3283  -2.0870   0.7475 H              1 S1                 0.0000
     44 ****         4.4897  -3.5501   1.6707 H              1 S1                 0.0000
     45 ****         2.1806  -3.4350   2.4579 H              1 S1                 0.0000
     46 ****         2.2206  -3.4000   0.7413 H              1 S1                 0.0000
     47 ****        -1.2729   2.5015  -2.0361 LP             1 S1                 0.0000
     48 ****         0.3377   1.8700  -1.9507 LP             1 S1                 0.0000
     49 ****         0.4772   0.7415  -0.1616 LP             1 S1                 0.0000
     50 ****         0.5753   0.6336   1.5644 LP             1 S1                 0.0000
     51 ****        -2.5389   2.8956  -1.8964 LP             1 S1                 0.0000
@<TRIPOS>BOND
    1    1    2 1     
    2    1   23 1     
    3    1   24 1     
    4    1   25 1     
    5    2   22 ar    
    6    2    3 ar    
    7    3    4 ar    
    8    3   26 1     
    9    4    5 ar    
   10    4   27 1     
   11    5    6 ar    
   12    5   28 1     
   13    6    7 1     
   14    6   22 ar    
   15    7    8 am    
   16    7   29 1     
   17    8    9 2     
   18    8   10 am    
   19   10   11 1     
   20   10   30 1     
   21   11   12 1     
   22   11   31 1     
   23   11   32 1     
   24   12   13 1     
   25   12   33 1     
   26   12   34 1     
   27   13   14 2     
   28   13   15 am    
   29   15   21 1     
   30   15   16 1     
   31   16   17 1     
   32   16   35 1     
   33   16   36 1     
   34   17   18 1     
   35   17   37 1     
   36   17   38 1     
   37   18   19 1     
   38   18   39 1     
   39   18   40 1     
   40   19   20 1     
   41   19   41 1     
   42   19   42 1     
   43   20   21 1     
   44   20   43 1     
   45   20   44 1     
   46   21   45 1     
   47   21   46 1     
   48    9   47 1     
   49    9   48 1     
   50   14   49 1     
   51   14   50 1     
   52   22   51 1     
@<TRIPOS>SUBSTRUCTURE
      1 S1             1
@<TRIPOS>SET
LONE_PAIRS      STATIC     ATOMS    <user>   **** ""
5 47 48 49 50 51
DONOR_HYDROGENS      STATIC     ATOMS    <user>   **** ""
2 29 30
ATOM$BLUE        STATIC     ATOMS    COLORGROUP SYSTEM
5 47 48 49 50 51
ATOM$RED        STATIC     ATOMS    COLORGROUP SYSTEM
2 29 30
