AV-unprocessed.smi:2124|AV-procd|sdf|8650|dock8
  -GOLD-   2272011393D 1   1.00000     0.00000
 Structure written by MMmdl.
 47 49  0  0  0  0  0  0  0  0  1 V2000
  154.1204  142.7463  164.1268 C   0  0  0  0  0  0  0  0  0  0  0  0
  153.8188  142.2830  162.7173 C   0  0  0  0  0  0  0  0  0  0  0  0
  154.4215  141.2973  162.1385 N   0  0  0  0  0  0  0  0  0  0  0  0
  154.0544  140.9581  160.8289 C   0  0  0  0  0  0  0  0  0  0  0  0
  154.8069  139.7871  160.2209 C   0  0  0  0  0  0  0  0  0  0  0  0
  153.0820  141.6426  160.1576 C   0  0  0  0  0  0  0  0  0  0  0  0
  152.6577  141.2949  158.7318 C   0  0  0  0  0  0  0  0  0  0  0  0
  151.3523  140.5063  158.6100 C   0  0  0  0  0  0  0  0  0  0  0  0
  151.2104  139.4522  159.2289 O   0  0  0  0  0  0  0  0  0  0  0  0
  150.4083  141.0325  157.8142 N   0  0  0  0  0  0  0  0  0  0  0  0
  149.0850  140.4647  157.5653 C   0  0  2  0  0  0  0  0  0  0  0  0
  149.2123  138.9462  157.3580 C   0  0  0  0  0  0  0  0  0  0  0  0
  148.4468  141.1780  156.3499 C   0  0  2  0  0  0  0  0  0  0  0  0
  147.1557  140.5153  155.8158 C   0  0  0  0  0  0  0  0  0  0  0  0
  147.4117  140.4258  154.3000 C   0  0  2  0  0  0  0  0  0  0  0  0
  148.4281  139.3017  154.0294 C   0  0  0  0  0  0  0  0  0  0  0  0
  149.7469  139.9103  154.5395 C   0  0  0  0  0  0  0  0  0  0  0  0
  149.3068  141.2922  155.0662 C   0  0  1  0  0  0  0  0  0  0  0  0
  148.2465  141.6739  154.0377 C   0  0  0  0  0  0  0  0  0  0  0  0
  152.4021  142.7685  160.8278 C   0  0  0  0  0  0  0  0  0  0  0  0
  151.5190  143.4551  160.3162 O   0  0  0  0  0  0  0  0  0  0  0  0
  152.8186  143.0225  162.0886 N   0  0  0  0  0  0  0  0  0  0  0  0
  152.3838  143.7836  162.5894 H   0  0  0  0  0  0  0  0  0  0  0  0
  155.1596  143.0667  164.2023 H   0  0  0  0  0  0  0  0  0  0  0  0
  153.9612  141.9299  164.8318 H   0  0  0  0  0  0  0  0  0  0  0  0
  153.4828  143.5810  164.4222 H   0  0  0  0  0  0  0  0  0  0  0  0
  154.1230  138.9738  159.9785 H   0  0  0  0  0  0  0  0  0  0  0  0
  155.5574  139.3979  160.9099 H   0  0  0  0  0  0  0  0  0  0  0  0
  155.3209  140.0931  159.3106 H   0  0  0  0  0  0  0  0  0  0  0  0
  152.5761  142.2193  158.1589 H   0  0  0  0  0  0  0  0  0  0  0  0
  153.4412  140.7296  158.2259 H   0  0  0  0  0  0  0  0  0  0  0  0
  150.6197  141.9031  157.3485 H   0  0  0  0  0  0  0  0  0  0  0  0
  148.4629  140.6430  158.4428 H   0  0  0  0  0  0  0  0  0  0  0  0
  148.2366  138.4811  157.2179 H   0  0  0  0  0  0  0  0  0  0  0  0
  149.6755  138.4686  158.2220 H   0  0  0  0  0  0  0  0  0  0  0  0
  149.8208  138.7143  156.4834 H   0  0  0  0  0  0  0  0  0  0  0  0
  148.1967  142.1944  156.6606 H   0  0  0  0  0  0  0  0  0  0  0  0
  146.9722  139.5306  156.2478 H   0  0  0  0  0  0  0  0  0  0  0  0
  146.2873  141.1382  156.0334 H   0  0  0  0  0  0  0  0  0  0  0  0
  146.5010  140.3443  153.7060 H   0  0  0  0  0  0  0  0  0  0  0  0
  148.1695  138.3761  154.5449 H   0  0  0  0  0  0  0  0  0  0  0  0
  148.4942  139.0836  152.9627 H   0  0  0  0  0  0  0  0  0  0  0  0
  150.2357  139.2929  155.2915 H   0  0  0  0  0  0  0  0  0  0  0  0
  150.4498  140.0271  153.7137 H   0  0  0  0  0  0  0  0  0  0  0  0
  150.1259  142.0071  155.1511 H   0  0  0  0  0  0  0  0  0  0  0  0
  148.6311  141.7309  153.0177 H   0  0  0  0  0  0  0  0  0  0  0  0
  147.7232  142.6022  154.2743 H   0  0  0  0  0  0  0  0  0  0  0  0
  1  2  1  0  0  0  0
  1 24  1  0  0  0  0
  1 25  1  0  0  0  0
  1 26  1  0  0  0  0
  2 22  1  0  0  0  0
  2  3  2  0  0  0  0
  3  4  1  0  0  0  0
  4  5  1  0  0  0  0
  4  6  2  0  0  0  0
  5 27  1  0  0  0  0
  5 28  1  0  0  0  0
  5 29  1  0  0  0  0
  6  7  1  0  0  0  0
  6 20  1  0  0  0  0
  7  8  1  0  0  0  0
  7 30  1  0  0  0  0
  7 31  1  0  0  0  0
  8  9  2  0  0  0  0
  8 10  1  0  0  0  0
 10 11  1  0  0  0  0
 10 32  1  0  0  0  0
 11 12  1  0  0  0  0
 11 13  1  0  0  0  0
 11 33  1  0  0  0  0
 12 34  1  0  0  0  0
 12 35  1  0  0  0  0
 12 36  1  0  0  0  0
 13 18  1  0  0  0  0
 13 14  1  0  0  0  0
 13 37  1  0  0  0  0
 14 15  1  0  0  0  0
 14 38  1  0  0  0  0
 14 39  1  0  0  0  0
 15 19  1  0  0  0  0
 15 16  1  0  0  0  0
 15 40  1  0  0  0  0
 16 17  1  0  0  0  0
 16 41  1  0  0  0  0
 16 42  1  0  0  0  0
 17 18  1  0  0  0  0
 17 43  1  0  0  0  0
 17 44  1  0  0  0  0
 18 19  1  0  0  0  0
 18 45  1  0  0  0  0
 19 46  1  0  0  0  0
 19 47  1  0  0  0  0
 20 21  2  0  0  0  0
 20 22  1  0  0  0  0
 22 23  1  0  0  0  0
M  END
> <s_m_source_file>
AV-unprocessed.smi

> <i_m_source_file_index>
2124

> <i_lp_mmshare_version>
43012

> <i_f3d_flags>
0

> <s_epik_input>
W0NIM11jMW5jKFtDSDNdKWMoYyg9TylbbkhdMSlbQ0gyXUMoPU8pW05IXVtDQEhdKFtDSDNdKVtDQEhdKFtDSDJdW0NASF0yMylbQ0BIXShbQ0gyXTMpW0NIMl1bQ0gyXTI=

> <s_epik_cmdline>
J2VwaWtfcHl0aG9uJywgJy1waCcsICc3LjAnLCAnLXRuJywgJzgnLCAnLW1hJywgJzIwMCcsICctbWV0YWxfYmluZGluZycsICctaW1hZScsICc8aW5maWxlLm1hZT4nLCAnLW9tYWUnLCAnPG91dGZpbGUubWFlPic=

> <r_lp_tautomer_probability>
0.839158

> <r_epik_Ionization_Penalty>
0.000383628

> <r_epik_Ionization_Penalty_Charging>
0.00035045

> <r_epik_Ionization_Penalty_Neutral>
3.31781e-05

> <r_epik_State_Penalty>
0.09125

> <r_epik_Charging_Adjusted_Penalty>
0.0916005

> <i_epik_Tot_Q>
0

> <i_epik_Tot_abs_Q>
0

> <r_epik_Metal_State_Penalty>
0.255229

> <b_epik_Metal_Only>
0

> <s_lp_Force_Field>
OPLS_2005

> <r_lp_Energy>
53.1602

> <b_lp_Chiralities_Consistent>
1

> <s_lp_Variant>
AV-unprocessed.smi:2124-1

> <Gold.Version>
5.8.1

> <Gold.Id.Protein>
6NUR|6NUR_protein|mol2

> <Gold.PLP.Fitness>
40.6319

> <Gold.PLP.PLP>
-41.8057

> <Gold.PLP.part.hbond>
-1.3583

> <Gold.PLP.part.metal>
0.0000

> <Gold.PLP.part.buried>
-4.0762

> <Gold.PLP.part.nonpolar>
-34.3563

> <Gold.PLP.part.repulsive>
0.2632

> <Gold.PLP.ligand.clash>
0.0000

> <Gold.PLP.ligand.torsion>
0.5925

> <Gold.PLP.Chemscore.Hbond>
0.0000

> <Gold.PLP.Chemscore.CHOScore>
0.0000

> <Gold.PLP.Chemscore.Metal>
0.0000

> <Gold.PLP.Chemscore.Internal.Correction>
0.0112

> <Gold.Rescore>
     Score         DG    S(hbond)    S(metal)    S(lipo)     H(rot)  DE(clash)    DE(int)     intcor
      8.73     -11.82       0.00        0.00      90.38       1.65       0.03       3.06       ----

> <Gold.Chemscore.Fitness>
8.7281

> <Gold.Chemscore.DG>
-11.8223

> <Gold.Chemscore.ZeroCoef>
-5.4800

> <Gold.Chemscore.Hbond>
0.0000

> <Gold.Chemscore.Metal>
0.0000

> <Gold.Chemscore.Lipo>
90.3840

> <Gold.Chemscore.Internal_Hbond>
0.0000

> <Gold.Chemscore.DEClash>
0.0297

> <Gold.Chemscore.DEInternal>
3.0645

> <Gold.Chemscore.Rot>
1.6534

> <Gold.Chemscore.Internal.Correction>
   9.000000E+99

> <Gold.Chemscore.Hbond.Weighted>
-0.0000

> <Gold.Chemscore.Metal.Weighted>
-0.0000

> <Gold.Chemscore.Lipo.Weighted>
-10.5749

> <Gold.Chemscore.Internal_Hbond.Weighted>
0.0000

> <Gold.Chemscore.DEClash.Weighted>
0.0297

> <Gold.Chemscore.DEInternal.Weighted>
3.0645

> <Gold.Chemscore.Rot.Weighted>
4.2326

> <Gold.Chemscore.Internal.Correction.Weighted>
   9.000000E+99

> <Gold.Protein.RotatedTorsions>
[ 6907 6896 6895 6894 ] final -142.82 input  -60.11 | X-H torsion
[ 7974 7965 7964 7962 ] final  151.25 input  175.53 | X-H torsion
[ 8008 7997 7996 7995 ] final  167.52 input   59.86 | X-H torsion
[ 10167 10162 10161 10158 ] final  -47.14 input  -65.29 | X-H torsion
[ 10718 10713 10712 10709 ] final -136.95 input   66.30 | X-H torsion
[ 10763 10752 10751 10750 ] final -179.77 input  -60.55 | X-H torsion
[ 11005 11000 10999 10996 ] final  -26.99 input  -57.11 | X-H torsion

> <Gold.Protein.ActiveResidues>
 VAL166  LYS551  ARG553  GLY616  TRP617  ASP618  TYR619  PRO620  LYS621  CYS622 
 ASP623  PHE694  ASN695  SER759  ASP760  ASP761  ALA762  ILE779  LEU786  VAL792 
 PHE793  MET794  SER795  GLU796  ALA797  LYS798  CYS799  TRP800  GLU811  SER814 

> <Gold.Protein.RotatedAtoms>
  151.0922  133.5307  159.2614 H   0  0  0  0  0  0  0  0  0  0  0  0  # atno 6907 bound_to 6896
  151.2170  135.0503  159.8944 H   0  0  0  0  0  0  0  0  0  0  0  0  # atno 6908 bound_to 6896
  152.5435  134.0730  159.8256 H   0  0  0  0  0  0  0  0  0  0  0  0  # atno 6909 bound_to 6896
  144.8306  139.6513  143.6060 H   0  0  0  0  0  0  0  0  0  0  0  0  # atno 7974 bound_to 7965
  156.1627  140.1615  156.8585 H   0  0  0  0  0  0  0  0  0  0  0  0  # atno 8008 bound_to 7997
  154.5176  140.0786  156.8147 H   0  0  0  0  0  0  0  0  0  0  0  0  # atno 8009 bound_to 7997
  155.3675  140.3398  155.4244 H   0  0  0  0  0  0  0  0  0  0  0  0  # atno 8010 bound_to 7997
  140.6788  143.2798  151.3883 H   0  0  0  0  0  0  0  0  0  0  0  0  # atno 10167 bound_to 10162
  156.2828  130.7330  151.1332 H   0  0  0  0  0  0  0  0  0  0  0  0  # atno 10718 bound_to 10713
  154.5309  135.2799  155.1181 H   0  0  0  0  0  0  0  0  0  0  0  0  # atno 10763 bound_to 10752
  154.2702  135.6305  153.5311 H   0  0  0  0  0  0  0  0  0  0  0  0  # atno 10764 bound_to 10752
  152.9956  135.5626  154.5822 H   0  0  0  0  0  0  0  0  0  0  0  0  # atno 10765 bound_to 10752
  140.9079  133.7480  156.0631 H   0  0  0  0  0  0  0  0  0  0  0  0  # atno 11005 bound_to 11000
  146.2609  139.6408  142.9363 LP  0  0  0  0  0  0  0  0  0  0  0  0  # atno 17320 bound_to 7965
  145.4904  141.0438  143.2596 LP  0  0  0  0  0  0  0  0  0  0  0  0  # atno 17321 bound_to 7965
  139.6097  144.1124  152.2286 LP  0  0  0  0  0  0  0  0  0  0  0  0  # atno 17342 bound_to 10162
  140.0534  144.5914  150.7318 LP  0  0  0  0  0  0  0  0  0  0  0  0  # atno 17343 bound_to 10162
  157.7319  131.0604  150.5653 LP  0  0  0  0  0  0  0  0  0  0  0  0  # atno 17370 bound_to 10713
  156.5761  130.4292  149.5998 LP  0  0  0  0  0  0  0  0  0  0  0  0  # atno 17371 bound_to 10713
  140.8147  134.3358  157.5401 LP  0  0  0  0  0  0  0  0  0  0  0  0  # atno 17394 bound_to 11000
  139.8752  134.9274  156.3426 LP  0  0  0  0  0  0  0  0  0  0  0  0  # atno 17395 bound_to 11000

$$$$
