AV-unprocessed.smi:2569|AV-procd|sdf|10102|dock2
  -GOLD-   2272014113D 1   1.00000     0.00000
 Structure written by MMmdl.
 39 41  0  0  0  0  0  0  0  0  1 V2000
  152.8151  143.1435  161.4576 C   0  0  0  0  0  0  0  0  0  0  0  0
  152.2507  142.7344  160.1084 C   0  0  0  0  0  0  0  0  0  0  0  0
  152.7219  141.5517  159.4957 C   0  0  0  0  0  0  0  0  0  0  0  0
  152.2245  141.1380  158.2405 C   0  0  0  0  0  0  0  0  0  0  0  0
  152.5413  140.0336  157.4686 N   0  0  0  0  0  0  0  0  0  0  0  0
  151.7491  140.2069  156.4149 C   0  0  0  0  0  0  0  0  0  0  0  0
  150.9616  141.2998  156.4078 N   0  0  0  0  0  0  0  0  0  0  0  0
  150.0318  141.7010  155.3663 C   0  0  0  0  0  0  0  0  0  0  0  0
  149.3105  140.5011  154.7211 C   0  0  2  0  0  0  0  0  0  0  0  0
  150.2051  139.8705  153.8268 O   0  0  0  0  0  0  0  0  0  0  0  0
  148.0081  140.8765  153.9824 C   0  0  0  0  0  0  0  0  0  0  0  0
  146.9681  141.3092  154.8987 N   0  0  0  0  0  0  0  0  0  0  0  0
  146.7753  140.6916  156.0898 N   0  0  0  0  0  0  0  0  0  0  0  0
  145.7912  141.3112  156.6761 N   0  0  0  0  0  0  0  0  0  0  0  0
  145.3115  142.3469  155.8949 N   0  0  0  0  0  0  0  0  0  0  0  0
  146.0730  142.3015  154.8097 C   0  0  0  0  0  0  0  0  0  0  0  0
  145.9716  143.2209  153.6364 C   0  0  0  0  0  0  0  0  0  0  0  0
  151.2337  141.9458  157.6096 C   0  0  0  0  0  0  0  0  0  0  0  0
  150.7519  143.1211  158.2133 C   0  0  0  0  0  0  0  0  0  0  0  0
  151.2629  143.5223  159.4650 C   0  0  0  0  0  0  0  0  0  0  0  0
  150.7434  144.7992  160.1013 C   0  0  0  0  0  0  0  0  0  0  0  0
  153.5466  142.4206  161.8202 H   0  0  0  0  0  0  0  0  0  0  0  0
  152.0194  143.2134  162.1995 H   0  0  0  0  0  0  0  0  0  0  0  0
  153.3094  144.1127  161.3869 H   0  0  0  0  0  0  0  0  0  0  0  0
  153.4732  140.9503  159.9859 H   0  0  0  0  0  0  0  0  0  0  0  0
  151.7485  139.5033  155.5949 H   0  0  0  0  0  0  0  0  0  0  0  0
  149.3036  142.3900  155.7972 H   0  0  0  0  0  0  0  0  0  0  0  0
  150.5863  142.2614  154.6122 H   0  0  0  0  0  0  0  0  0  0  0  0
  149.0762  139.7764  155.5004 H   0  0  0  0  0  0  0  0  0  0  0  0
  150.5840  139.1197  154.2587 H   0  0  0  0  0  0  0  0  0  0  0  0
  148.1788  141.6893  153.2768 H   0  0  0  0  0  0  0  0  0  0  0  0
  147.6422  140.0337  153.3939 H   0  0  0  0  0  0  0  0  0  0  0  0
  145.1606  143.9350  153.7819 H   0  0  0  0  0  0  0  0  0  0  0  0
  145.7737  142.6523  152.7275 H   0  0  0  0  0  0  0  0  0  0  0  0
  146.9023  143.7738  153.5092 H   0  0  0  0  0  0  0  0  0  0  0  0
  149.9970  143.7118  157.7167 H   0  0  0  0  0  0  0  0  0  0  0  0
  150.0013  145.2853  159.4672 H   0  0  0  0  0  0  0  0  0  0  0  0
  151.5587  145.5049  160.2624 H   0  0  0  0  0  0  0  0  0  0  0  0
  150.2744  144.5851  161.0620 H   0  0  0  0  0  0  0  0  0  0  0  0
  1  2  1  0  0  0  0
  1 22  1  0  0  0  0
  1 23  1  0  0  0  0
  1 24  1  0  0  0  0
  2 20  1  0  0  0  0
  2  3  2  0  0  0  0
  3  4  1  0  0  0  0
  3 25  1  0  0  0  0
  4 18  2  0  0  0  0
  4  5  1  0  0  0  0
  5  6  2  0  0  0  0
  6  7  1  0  0  0  0
  6 26  1  0  0  0  0
  7  8  1  0  0  0  0
  7 18  1  0  0  0  0
  8  9  1  0  0  0  0
  8 27  1  0  0  0  0
  8 28  1  0  0  0  0
  9 10  1  0  0  0  0
  9 11  1  0  0  0  0
  9 29  1  0  0  0  0
 10 30  1  0  0  0  0
 11 12  1  0  0  0  0
 11 31  1  0  0  0  0
 11 32  1  0  0  0  0
 12 16  1  0  0  0  0
 12 13  1  0  0  0  0
 13 14  2  0  0  0  0
 14 15  1  0  0  0  0
 15 16  2  0  0  0  0
 16 17  1  0  0  0  0
 17 33  1  0  0  0  0
 17 34  1  0  0  0  0
 17 35  1  0  0  0  0
 18 19  1  0  0  0  0
 19 20  2  0  0  0  0
 19 36  1  0  0  0  0
 20 21  1  0  0  0  0
 21 37  1  0  0  0  0
 21 38  1  0  0  0  0
 21 39  1  0  0  0  0
M  END
> <s_m_source_file>
AV-unprocessed.smi

> <i_m_source_file_index>
2569

> <i_lp_mmshare_version>
43012

> <i_f3d_flags>
0

> <s_epik_input>
W0NIM11jKFtjSF0xKWMoW0NIM10pW2NIXWMoYzEyKW4oW2NIXW4yKVtDSDJdW0NASF0oW09IXSlbQ0gyXW4zbm5uYzNbQ0gzXQ==

> <s_epik_cmdline>
J2VwaWtfcHl0aG9uJywgJy1waCcsICc3LjAnLCAnLXRuJywgJzgnLCAnLW1hJywgJzIwMCcsICctbWV0YWxfYmluZGluZycsICctaW1hZScsICc8aW5maWxlLm1hZT4nLCAnLW9tYWUnLCAnPG91dGZpbGUubWFlPic=

> <r_lp_tautomer_probability>
1

> <r_epik_Ionization_Penalty>
0.0946713

> <r_epik_Ionization_Penalty_Charging>
0

> <r_epik_Ionization_Penalty_Neutral>
0.0946713

> <r_epik_State_Penalty>
0.0848712

> <r_epik_Charging_Adjusted_Penalty>
0.0848712

> <i_epik_Tot_Q>
0

> <i_epik_Tot_abs_Q>
0

> <r_epik_Metal_State_Penalty>
0.0730911

> <b_epik_Metal_Only>
0

> <s_lp_Force_Field>
OPLS_2005

> <r_lp_Energy>
9.8023

> <b_lp_Chiralities_Consistent>
1

> <s_lp_Variant>
AV-unprocessed.smi:2569-1

> <Gold.Version>
5.8.1

> <Gold.Id.Protein>
6NUR|6NUR_protein|mol2

> <Gold.PLP.Fitness>
49.0927

> <Gold.PLP.PLP>
-44.8664

> <Gold.PLP.part.hbond>
-3.0000

> <Gold.PLP.part.metal>
0.0000

> <Gold.PLP.part.buried>
-5.8788

> <Gold.PLP.part.nonpolar>
-36.0497

> <Gold.PLP.part.repulsive>
0.1741

> <Gold.PLP.ligand.clash>
0.0000

> <Gold.PLP.ligand.torsion>
0.8007

> <Gold.PLP.Chemscore.Hbond>
1.9280

> <Gold.PLP.Chemscore.CHOScore>
0.0000

> <Gold.PLP.Chemscore.Metal>
0.0000

> <Gold.Chemscore.Hbonds>
donor molecule, donor type, donor heavy atom, donor atom, acceptor molecule, acceptor atom, score
      P1  H  7989  7998       L1    10  0.93
      P1  H  7997  8010       L1     5  1.00

> <Gold.PLP.Chemscore.Internal.Correction>
0.0437

> <Gold.Rescore>
     Score         DG    S(hbond)    S(metal)    S(lipo)     H(rot)  DE(clash)    DE(int)     intcor
     14.40     -15.95       1.45        0.00     103.48       2.53       0.00       1.54       ----

> <Gold.Chemscore.Fitness>
14.4017

> <Gold.Chemscore.DG>
-15.9480

> <Gold.Chemscore.ZeroCoef>
-5.4800

> <Gold.Chemscore.Hbond>
1.4462

> <Gold.Chemscore.Metal>
0.0000

> <Gold.Chemscore.Lipo>
103.4759

> <Gold.Chemscore.Internal_Hbond>
0.0000

> <Gold.Chemscore.DEClash>
0.0021

> <Gold.Chemscore.DEInternal>
1.5441

> <Gold.Chemscore.Rot>
2.5270

> <Gold.Chemscore.Internal.Correction>
   9.000000E+99

> <Gold.Chemscore.Hbonds>
donor molecule, donor type, donor heavy atom, donor atom, acceptor molecule, acceptor atom, score
      P1  H  7989  7998       L1    10  0.30
      P1  H  7997  8010       L1     5  0.52

> <Gold.Chemscore.Hbond.Weighted>
-4.8305

> <Gold.Chemscore.Metal.Weighted>
-0.0000

> <Gold.Chemscore.Lipo.Weighted>
-12.1067

> <Gold.Chemscore.Internal_Hbond.Weighted>
0.0000

> <Gold.Chemscore.DEClash.Weighted>
0.0021

> <Gold.Chemscore.DEInternal.Weighted>
1.5441

> <Gold.Chemscore.Rot.Weighted>
6.4691

> <Gold.Chemscore.Internal.Correction.Weighted>
   9.000000E+99

> <Gold.Protein.RotatedTorsions>
[ 6907 6896 6895 6894 ] final  -59.65 input  -60.11 | X-H torsion
[ 7974 7965 7964 7962 ] final -147.10 input  175.53 | X-H torsion
[ 8008 7997 7996 7995 ] final   44.10 input   59.86 | X-H torsion
[ 10167 10162 10161 10158 ] final -162.19 input  -65.29 | X-H torsion
[ 10718 10713 10712 10709 ] final  -47.39 input   66.30 | X-H torsion
[ 10763 10752 10751 10750 ] final    5.39 input  -60.55 | X-H torsion
[ 11005 11000 10999 10996 ] final -101.04 input  -57.11 | X-H torsion

> <Gold.Protein.ActiveResidues>
 VAL166  LYS551  ARG553  GLY616  TRP617  ASP618  TYR619  PRO620  LYS621  CYS622 
 ASP623  PHE694  ASN695  SER759  ASP760  ASP761  ALA762  ILE779  LEU786  VAL792 
 PHE793  MET794  SER795  GLU796  ALA797  LYS798  CYS799  TRP800  GLU811  SER814 

> <Gold.Protein.RotatedAtoms>
  150.7914  134.6940  159.6512 H   0  0  0  0  0  0  0  0  0  0  0  0  # atno 6907 bound_to 6896
  152.4020  134.6267  160.0074 H   0  0  0  0  0  0  0  0  0  0  0  0  # atno 6908 bound_to 6896
  151.6536  133.3283  159.3193 H   0  0  0  0  0  0  0  0  0  0  0  0  # atno 6909 bound_to 6896
  144.8115  140.5370  143.5639 H   0  0  0  0  0  0  0  0  0  0  0  0  # atno 7974 bound_to 7965
  155.3137  140.3392  155.4243 H   0  0  0  0  0  0  0  0  0  0  0  0  # atno 8008 bound_to 7997
  156.1943  140.1709  156.8067 H   0  0  0  0  0  0  0  0  0  0  0  0  # atno 8009 bound_to 7997
  154.5480  140.0711  156.8604 H   0  0  0  0  0  0  0  0  0  0  0  0  # atno 8010 bound_to 7997
  139.6410  144.0259  152.2092 H   0  0  0  0  0  0  0  0  0  0  0  0  # atno 10167 bound_to 10162
  156.2089  130.4159  149.9141 H   0  0  0  0  0  0  0  0  0  0  0  0  # atno 10718 bound_to 10713
  153.2600  135.6922  153.7588 H   0  0  0  0  0  0  0  0  0  0  0  0  # atno 10763 bound_to 10752
  153.6651  135.3354  155.3139 H   0  0  0  0  0  0  0  0  0  0  0  0  # atno 10764 bound_to 10752
  154.8427  135.4486  154.1587 H   0  0  0  0  0  0  0  0  0  0  0  0  # atno 10765 bound_to 10752
  141.1247  133.8446  157.1180 H   0  0  0  0  0  0  0  0  0  0  0  0  # atno 11005 bound_to 11000
  145.5312  139.1475  143.3498 LP  0  0  0  0  0  0  0  0  0  0  0  0  # atno 17320 bound_to 7965
  146.2414  140.5453  142.8932 LP  0  0  0  0  0  0  0  0  0  0  0  0  # atno 17321 bound_to 7965
  139.9949  144.6335  150.7781 LP  0  0  0  0  0  0  0  0  0  0  0  0  # atno 17342 bound_to 10162
  140.7491  143.2933  151.3273 LP  0  0  0  0  0  0  0  0  0  0  0  0  # atno 17343 bound_to 10162
  156.6825  130.8864  151.3578 LP  0  0  0  0  0  0  0  0  0  0  0  0  # atno 17370 bound_to 10713
  157.7028  130.9351  150.0837 LP  0  0  0  0  0  0  0  0  0  0  0  0  # atno 17371 bound_to 10713
  140.0234  134.9935  157.0638 LP  0  0  0  0  0  0  0  0  0  0  0  0  # atno 17394 bound_to 11000
  140.4402  134.1689  155.7173 LP  0  0  0  0  0  0  0  0  0  0  0  0  # atno 17395 bound_to 11000

$$$$
