#       Name:                AV-unprocessed.smi:2543
#       Creating user name   scv26
#       Creation time:       Fri Mar 27 14:04:34 2020


#       File generated by GOLD software.
#

@<TRIPOS>MOLECULE
AV-unprocessed.smi:2543
    43    44     1
SMALL
NO_CHARGES


@<TRIPOS>ATOM
      1 ****        -6.4204   2.3264  -0.9749 C.2            1 S1                 0.0000
      2 ****        -5.4899   2.3160  -1.9409 C.2            1 S1                 0.0000
      3 ****        -5.0098   1.0677  -2.6544 C.3            1 S1                 0.0000
      4 ****        -3.5598   0.9364  -2.5843 N.am           1 S1                 0.0000
      5 ****        -2.8802   0.4747  -1.5246 C.2            1 S1                 0.0000
      6 ****        -3.4206   0.0950  -0.4860 O.2            1 S1                 0.0000
      7 ****        -1.5570   0.4715  -1.7619 N.am           1 S1                 0.0000
      8 ****        -0.4972   0.0790  -0.8992 C.ar           1 S1                 0.0000
      9 ****        -0.6078  -0.0421   0.5056 C.ar           1 S1                 0.0000
     10 ****         0.5255  -0.4238   1.2490 C.ar           1 S1                 0.0000
     11 ****         1.7469  -0.6672   0.5775 C.ar           1 S1                 0.0000
     12 ****         2.8960  -1.0492   1.3044 N.3            1 S1                 0.0000
     13 ****         3.2441  -0.1961   2.4384 C.3            1 S1                 0.0000
     14 ****         4.3050  -0.8796   3.3184 C.3            1 S1                 0.0000
     15 ****         5.4339  -1.2339   2.5268 O.3            1 S1                 0.0000
     16 ****         5.0896  -2.1560   1.4984 C.3            1 S1                 0.0000
     17 ****         4.0597  -1.5160   0.5523 C.3            1 S1                 0.0000
     18 ****         1.8492  -0.5455  -0.7688 N.ar           1 S1                 0.0000
     19 ****         0.7613  -0.1786  -1.4775 C.ar           1 S1                 0.0000
     20 ****        -6.8912   1.4136  -0.6401 H              1 S1                 0.0000
     21 ****        -6.7224   3.2507  -0.5052 H              1 S1                 0.0000
     22 ****        -5.0419   3.2489  -2.2511 H              1 S1                 0.0000
     23 ****        -5.4962   0.1795  -2.2473 H              1 S1                 0.0000
     24 ****        -5.2993   1.1341  -3.7031 H              1 S1                 0.0000
     25 ****        -3.0369   1.2203  -3.3998 H              1 S1                 0.0000
     26 ****        -1.2749   0.7452  -2.6917 H              1 S1                 0.0000
     27 ****        -1.5281   0.1574   1.0311 H              1 S1                 0.0000
     28 ****         0.4395  -0.5344   2.3195 H              1 S1                 0.0000
     29 ****         3.6292   0.7515   2.0595 H              1 S1                 0.0000
     30 ****         2.3756   0.0381   3.0520 H              1 S1                 0.0000
     31 ****         4.6259  -0.2035   4.1109 H              1 S1                 0.0000
     32 ****         3.8945  -1.7664   3.8039 H              1 S1                 0.0000
     33 ****         5.9900  -2.4247   0.9459 H              1 S1                 0.0000
     34 ****         4.6977  -3.0760   1.9354 H              1 S1                 0.0000
     35 ****         3.7568  -2.2480  -0.1976 H              1 S1                 0.0000
     36 ****         4.5103  -0.6743   0.0246 H              1 S1                 0.0000
     37 ****         0.9023  -0.0919  -2.5450 H              1 S1                 0.0000
     38 ****        -4.4167   0.1218  -0.4020 LP             1 S1                 0.0000
     39 ****        -2.8635  -0.2402   0.2738 LP             1 S1                 0.0000
     40 ****         2.5468  -1.8963   1.7049 LP             1 S1                 0.0000
     41 ****         6.1253  -1.6505   3.1170 LP             1 S1                 0.0000
     42 ****         5.8081  -0.4065   2.1078 LP             1 S1                 0.0000
     43 ****         2.7182  -0.7250  -1.2299 LP             1 S1                 0.0000
@<TRIPOS>BOND
    1    1    2 2     
    2    1   20 1     
    3    1   21 1     
    4    2    3 1     
    5    2   22 1     
    6    3    4 1     
    7    3   23 1     
    8    3   24 1     
    9    4    5 am    
   10    4   25 1     
   11    5    6 2     
   12    5    7 am    
   13    7    8 1     
   14    7   26 1     
   15    8   19 ar    
   16    8    9 ar    
   17    9   10 ar    
   18    9   27 1     
   19   10   11 ar    
   20   10   28 1     
   21   11   12 1     
   22   11   18 ar    
   23   12   17 1     
   24   12   13 1     
   25   13   14 1     
   26   13   29 1     
   27   13   30 1     
   28   14   15 1     
   29   14   31 1     
   30   14   32 1     
   31   15   16 1     
   32   16   17 1     
   33   16   33 1     
   34   16   34 1     
   35   17   35 1     
   36   17   36 1     
   37   18   19 ar    
   38   19   37 1     
   39    6   38 1     
   40    6   39 1     
   41   12   40 1     
   42   15   41 1     
   43   15   42 1     
   44   18   43 1     
@<TRIPOS>SUBSTRUCTURE
      1 S1             1
@<TRIPOS>SET
LONE_PAIRS      STATIC     ATOMS    <user>   **** ""
6 38 39 40 41 42 43
DONOR_HYDROGENS      STATIC     ATOMS    <user>   **** ""
2 25 26
ATOM$BLUE        STATIC     ATOMS    COLORGROUP SYSTEM
6 38 39 40 41 42 43
ATOM$RED        STATIC     ATOMS    COLORGROUP SYSTEM
2 25 26
