AV-unprocessed.smi:1487|AV-procd|sdf|6009|dock5
  -GOLD-   22720 6103D 1   1.00000     0.00000
 Structure written by MMmdl.
 48 50  0  0  0  0  0  0  0  0  2 V2000
  153.0386  139.4256  159.1418 C   0  0  0  0  0  0  0  0  0  0  0  0
  152.0941  139.6301  157.9705 C   0  0  0  0  0  0  0  0  0  0  0  0
  152.0089  138.6312  156.9746 C   0  0  0  0  0  0  0  0  0  0  0  0
  151.1426  138.7820  155.8701 C   0  0  0  0  0  0  0  0  0  0  0  0
  150.9035  137.9438  154.7949 N   0  0  0  0  0  0  0  0  0  0  0  0
  149.9980  138.6361  154.1106 C   0  0  0  0  0  0  0  0  0  0  0  0
  149.6322  139.8336  154.6080 N   0  0  0  0  0  0  0  0  0  0  0  0
  148.6760  140.7636  154.0339 C   0  0  0  0  0  0  0  0  0  0  0  0
  147.4522  140.0566  153.4169 C   0  0  2  0  0  0  0  0  0  0  0  0
  146.3947  140.9938  153.3786 O   0  0  0  0  0  0  0  0  0  0  0  0
  146.9952  138.8092  154.2074 C   0  0  0  0  0  0  0  0  0  0  0  0
  146.6253  137.6782  153.3190 N   0  3  2  0  0  0  0  0  0  0  0  0
  146.0447  138.1353  152.0308 C   0  0  0  0  0  0  0  0  0  0  0  0
  145.8449  136.9541  151.0684 C   0  0  0  0  0  0  0  0  0  0  0  0
  144.9625  135.8698  151.7022 C   0  0  0  0  0  0  0  0  0  0  0  0
  145.5048  135.4480  153.0782 C   0  0  1  0  0  0  0  0  0  0  0  0
  146.6976  134.7020  152.9332 O   0  0  0  0  0  0  0  0  0  0  0  0
  145.7597  136.6666  153.9866 C   0  0  0  0  0  0  0  0  0  0  0  0
  150.3582  139.9696  155.7870 C   0  0  0  0  0  0  0  0  0  0  0  0
  150.4316  140.9688  156.7738 C   0  0  0  0  0  0  0  0  0  0  0  0
  151.3040  140.8033  157.8698 C   0  0  0  0  0  0  0  0  0  0  0  0
  151.3778  141.8895  158.9284 C   0  0  0  0  0  0  0  0  0  0  0  0
  153.5143  138.4451  159.1034 H   0  0  0  0  0  0  0  0  0  0  0  0
  152.4996  139.4971  160.0868 H   0  0  0  0  0  0  0  0  0  0  0  0
  153.8249  140.1806  159.1324 H   0  0  0  0  0  0  0  0  0  0  0  0
  152.6096  137.7366  157.0519 H   0  0  0  0  0  0  0  0  0  0  0  0
  149.5834  138.2542  153.1890 H   0  0  0  0  0  0  0  0  0  0  0  0
  148.3576  141.4576  154.8137 H   0  0  0  0  0  0  0  0  0  0  0  0
  149.1921  141.3576  153.2786 H   0  0  0  0  0  0  0  0  0  0  0  0
  147.6927  139.7896  152.3892 H   0  0  0  0  0  0  0  0  0  0  0  0
  145.6235  140.5757  153.0276 H   0  0  0  0  0  0  0  0  0  0  0  0
  147.7712  138.4648  154.8920 H   0  0  0  0  0  0  0  0  0  0  0  0
  146.1481  139.0912  154.8348 H   0  0  0  0  0  0  0  0  0  0  0  0
  145.0959  138.6427  152.2142 H   0  0  0  0  0  0  0  0  0  0  0  0
  146.7094  138.8628  151.5634 H   0  0  0  0  0  0  0  0  0  0  0  0
  145.3938  137.3029  150.1388 H   0  0  0  0  0  0  0  0  0  0  0  0
  146.8143  136.5317  150.8001 H   0  0  0  0  0  0  0  0  0  0  0  0
  143.9508  136.2598  151.8214 H   0  0  0  0  0  0  0  0  0  0  0  0
  144.8825  135.0072  151.0390 H   0  0  0  0  0  0  0  0  0  0  0  0
  144.7785  134.7902  153.5567 H   0  0  0  0  0  0  0  0  0  0  0  0
  147.4208  135.3027  152.8332 H   0  0  0  0  0  0  0  0  0  0  0  0
  146.2022  136.3337  154.9253 H   0  0  0  0  0  0  0  0  0  0  0  0
  144.8070  137.1322  154.2453 H   0  0  0  0  0  0  0  0  0  0  0  0
  149.8202  141.8548  156.6909 H   0  0  0  0  0  0  0  0  0  0  0  0
  150.7653  142.7504  158.6587 H   0  0  0  0  0  0  0  0  0  0  0  0
  152.4037  142.2364  159.0527 H   0  0  0  0  0  0  0  0  0  0  0  0
  151.0211  141.5108  159.8866 H   0  0  0  0  0  0  0  0  0  0  0  0
  147.4882  137.2110  153.0798 H   0  0  0  0  0  0  0  0  0  0  0  0
  1  2  1  0  0  0  0
  1 23  1  0  0  0  0
  1 24  1  0  0  0  0
  1 25  1  0  0  0  0
  2 21  1  0  0  0  0
  2  3  2  0  0  0  0
  3  4  1  0  0  0  0
  3 26  1  0  0  0  0
  4 19  2  0  0  0  0
  4  5  1  0  0  0  0
  5  6  2  0  0  0  0
  6  7  1  0  0  0  0
  6 27  1  0  0  0  0
  7  8  1  0  0  0  0
  7 19  1  0  0  0  0
  8  9  1  0  0  0  0
  8 28  1  0  0  0  0
  8 29  1  0  0  0  0
  9 10  1  0  0  0  0
  9 11  1  0  0  0  0
  9 30  1  0  0  0  0
 10 31  1  0  0  0  0
 11 12  1  0  0  0  0
 11 32  1  0  0  0  0
 11 33  1  0  0  0  0
 12 18  1  0  0  0  0
 12 13  1  0  0  0  0
 12 48  1  0  0  0  0
 13 14  1  0  0  0  0
 13 34  1  0  0  0  0
 13 35  1  0  0  0  0
 14 15  1  0  0  0  0
 14 36  1  0  0  0  0
 14 37  1  0  0  0  0
 15 16  1  0  0  0  0
 15 38  1  0  0  0  0
 15 39  1  0  0  0  0
 16 17  1  0  0  0  0
 16 18  1  0  0  0  0
 16 40  1  0  0  0  0
 17 41  1  0  0  0  0
 18 42  1  0  0  0  0
 18 43  1  0  0  0  0
 19 20  1  0  0  0  0
 20 21  2  0  0  0  0
 20 44  1  0  0  0  0
 21 22  1  0  0  0  0
 22 45  1  0  0  0  0
 22 46  1  0  0  0  0
 22 47  1  0  0  0  0
M  CHG  1  12   1
M  END
> <s_m_source_file>
AV-unprocessed.smi

> <i_m_source_file_index>
1487

> <i_lp_mmshare_version>
43012

> <i_f3d_flags>
0

> <s_epik_input>
W0NIM11jKFtjSF0xKWMoW0NIM10pW2NIXWMoYzEyKW4oW2NIXW4yKVtDSDJdW0NASF0oW09IXSlbQ0gyXU4zW0NIMl1bQ0gyXVtDSDJdW0NAQEhdKFtPSF0pW0NIMl0z

> <s_epik_cmdline>
J2VwaWtfcHl0aG9uJywgJy1waCcsICc3LjAnLCAnLXRuJywgJzgnLCAnLW1hJywgJzIwMCcsICctbWV0YWxfYmluZGluZycsICctaW1hZScsICc8aW5maWxlLm1hZT4nLCAnLW9tYWUnLCAnPG91dGZpbGUubWFlPic=

> <r_epik_Ionization_Penalty>
0.0940186

> <r_epik_Ionization_Penalty_Charging>
0.00679686

> <r_epik_Ionization_Penalty_Neutral>
0.0872218

> <r_epik_State_Penalty>
0.0799311

> <r_epik_Charging_Adjusted_Penalty>
0.086728

> <i_epik_Tot_Q>
1

> <i_epik_Tot_abs_Q>
1

> <r_epik_Metal_State_Penalty>
7.95545e-05

> <b_epik_Metal_Only>
0

> <s_lp_Force_Field>
OPLS_2005

> <r_lp_Energy>
25.8202

> <b_lp_Chiralities_Consistent>
1

> <s_lp_Variant>
AV-unprocessed.smi:1487-3

> <Gold.Version>
5.8.1

> <Gold.Id.Protein>
6NUR|6NUR_protein|mol2

> <Gold.PLP.Fitness>
49.1170

> <Gold.PLP.PLP>
-34.7636

> <Gold.PLP.part.hbond>
-2.9746

> <Gold.PLP.part.metal>
0.0000

> <Gold.PLP.part.buried>
1.7604

> <Gold.PLP.part.nonpolar>
-34.6427

> <Gold.PLP.part.repulsive>
0.1836

> <Gold.PLP.ligand.clash>
0.0000

> <Gold.PLP.ligand.torsion>
1.3793

> <Gold.PLP.Chemscore.Hbond>
3.9833

> <Gold.PLP.Chemscore.CHOScore>
1.7099

> <Gold.PLP.Chemscore.Metal>
0.0000

> <Gold.Chemscore.Hbonds>
donor molecule, donor type, donor heavy atom, donor atom, acceptor molecule, acceptor atom, score
      L1  H    10    31       P1 10175  1.00
      L1  H    12    48       P1  7948  1.46
      L1  H    17    41       P1  7948  1.00
      L1  C     6    27       P1  7948  1.00
      L1  C     6    27       P1  7957  0.42

> <Gold.PLP.Chemscore.Internal.Correction>
0.0322

> <Gold.Rescore>
     Score         DG    S(hbond)    S(metal)    S(lipo)     H(rot)  DE(clash)    DE(int)     intcor
     15.77     -18.23       2.70        0.00      90.42       2.67       0.53       1.93       ----

> <Gold.Chemscore.Fitness>
15.7705

> <Gold.Chemscore.DG>
-18.2322

> <Gold.Chemscore.ZeroCoef>
-5.4800

> <Gold.Chemscore.Hbond>
2.6981

> <Gold.Chemscore.Metal>
0.0000

> <Gold.Chemscore.Lipo>
90.4188

> <Gold.Chemscore.Internal_Hbond>
0.0000

> <Gold.Chemscore.DEClash>
0.5294

> <Gold.Chemscore.DEInternal>
1.9322

> <Gold.Chemscore.Rot>
2.6712

> <Gold.Chemscore.Internal.Correction>
   9.000000E+99

> <Gold.Chemscore.Hbonds>
donor molecule, donor type, donor heavy atom, donor atom, acceptor molecule, acceptor atom, score
      L1  H    10    31       P1 10175  0.73
      L1  H    12    48       P1  7948  0.72
      L1  H    17    41       P1  7948  0.93

> <Gold.Chemscore.Hbond.Weighted>
-9.0115

> <Gold.Chemscore.Metal.Weighted>
-0.0000

> <Gold.Chemscore.Lipo.Weighted>
-10.5790

> <Gold.Chemscore.Internal_Hbond.Weighted>
0.0000

> <Gold.Chemscore.DEClash.Weighted>
0.5294

> <Gold.Chemscore.DEInternal.Weighted>
1.9322

> <Gold.Chemscore.Rot.Weighted>
6.8383

> <Gold.Chemscore.Internal.Correction.Weighted>
   9.000000E+99

> <Gold.Protein.RotatedTorsions>
[ 6907 6896 6895 6894 ] final   34.06 input  -60.11 | X-H torsion
[ 7974 7965 7964 7962 ] final  -40.45 input  175.53 | X-H torsion
[ 8008 7997 7996 7995 ] final  -31.89 input   59.86 | X-H torsion
[ 10167 10162 10161 10158 ] final  -34.38 input  -65.29 | X-H torsion
[ 10718 10713 10712 10709 ] final -144.86 input   66.30 | X-H torsion
[ 10763 10752 10751 10750 ] final  107.43 input  -60.55 | X-H torsion
[ 11005 11000 10999 10996 ] final   54.31 input  -57.11 | X-H torsion

> <Gold.Protein.ActiveResidues>
 VAL166  LYS551  ARG553  GLY616  TRP617  ASP618  TYR619  PRO620  LYS621  CYS622 
 ASP623  PHE694  ASN695  SER759  ASP760  ASP761  ALA762  ILE779  LEU786  VAL792 
 PHE793  MET794  SER795  GLU796  ALA797  LYS798  CYS799  TRP800  GLU811  SER814 

> <Gold.Protein.RotatedAtoms>
  152.0972  134.9367  160.0570 H   0  0  0  0  0  0  0  0  0  0  0  0  # atno 6907 bound_to 6896
  152.0595  133.4051  159.4420 H   0  0  0  0  0  0  0  0  0  0  0  0  # atno 6908 bound_to 6896
  150.6838  134.3136  159.4800 H   0  0  0  0  0  0  0  0  0  0  0  0  # atno 6909 bound_to 6896
  146.0303  140.6739  142.9136 H   0  0  0  0  0  0  0  0  0  0  0  0  # atno 7974 bound_to 7965
  154.4198  140.1752  156.1640 H   0  0  0  0  0  0  0  0  0  0  0  0  # atno 8008 bound_to 7997
  155.9815  140.3377  155.6643 H   0  0  0  0  0  0  0  0  0  0  0  0  # atno 8009 bound_to 7997
  155.6494  140.0688  157.2583 H   0  0  0  0  0  0  0  0  0  0  0  0  # atno 8010 bound_to 7997
  140.7187  143.3552  151.2074 H   0  0  0  0  0  0  0  0  0  0  0  0  # atno 10167 bound_to 10162
  156.3753  130.7809  151.1995 H   0  0  0  0  0  0  0  0  0  0  0  0  # atno 10718 bound_to 10713
  153.4067  135.3844  155.2023 H   0  0  0  0  0  0  0  0  0  0  0  0  # atno 10763 bound_to 10752
  154.8734  135.3784  154.4552 H   0  0  0  0  0  0  0  0  0  0  0  0  # atno 10764 bound_to 10752
  153.5055  135.7088  153.5871 H   0  0  0  0  0  0  0  0  0  0  0  0  # atno 10765 bound_to 10752
  140.0697  134.5487  155.9060 H   0  0  0  0  0  0  0  0  0  0  0  0  # atno 11005 bound_to 11000
  144.7027  140.3724  143.7142 LP  0  0  0  0  0  0  0  0  0  0  0  0  # atno 17320 bound_to 7965
  145.7051  139.1670  143.2571 LP  0  0  0  0  0  0  0  0  0  0  0  0  # atno 17321 bound_to 7965
  139.7092  143.9405  152.2940 LP  0  0  0  0  0  0  0  0  0  0  0  0  # atno 17342 bound_to 10162
  139.9124  144.6848  150.8548 LP  0  0  0  0  0  0  0  0  0  0  0  0  # atno 17343 bound_to 10162
  157.7488  131.0360  150.4389 LP  0  0  0  0  0  0  0  0  0  0  0  0  # atno 17370 bound_to 10713
  156.4623  130.4034  149.6568 LP  0  0  0  0  0  0  0  0  0  0  0  0  # atno 17371 bound_to 10713
  141.2007  133.6614  156.5909 LP  0  0  0  0  0  0  0  0  0  0  0  0  # atno 17394 bound_to 11000
  140.3646  134.7658  157.4557 LP  0  0  0  0  0  0  0  0  0  0  0  0  # atno 17395 bound_to 11000

$$$$
