#       Name:                AV-unprocessed.smi:435
#       Creating user name   scv26
#       Creation time:       Thu Mar 26 22:52:30 2020


#       File generated by GOLD software.
#

@<TRIPOS>MOLECULE
AV-unprocessed.smi:435
    50    51     1
SMALL
NO_CHARGES


@<TRIPOS>ATOM
      1 ****        -4.8150   2.5530   1.3422 C.3            1 S1                 0.0000
      2 ****        -4.1638   1.2124   1.1331 C.2            1 S1                 0.0000
      3 ****        -2.8721   1.1826   1.1703 N.2            1 S1                 0.0000
      4 ****        -2.1741   0.0048   0.9847 N.am           1 S1                 0.0000
      5 ****        -0.7128   0.1551   1.0442 C.3            1 S1                 0.0000
      6 ****        -0.0553   0.1902  -0.3427 C.2            1 S1                 0.0000
      7 ****        -0.6439   0.6880  -1.3035 O.2            1 S1                 0.0000
      8 ****         1.1814  -0.3239  -0.4209 N.am           1 S1                 0.0000
      9 ****         2.0041  -0.3833  -1.6278 C.3            1 S1                 0.0000
     10 ****         2.9485  -1.5994  -1.5710 C.3            1 S1                 0.0000
     11 ****         4.0624  -1.4269  -0.5227 C.3            1 S1                 0.0000
     12 ****         4.8588  -0.1269  -0.7447 C.3            1 S1                 0.0000
     13 ****         5.9624   0.0401   0.3093 C.3            1 S1                 0.0000
     14 ****         3.9113   1.0880  -0.7675 C.3            1 S1                 0.0000
     15 ****         2.8018   0.9228  -1.8215 C.3            1 S1                 0.0000
     16 ****        -2.7493  -1.2114   0.7579 C.2            1 S1                 0.0000
     17 ****        -2.0870  -2.2388   0.6031 O.2            1 S1                 0.0000
     18 ****        -4.2127  -1.1703   0.7182 C.2            1 S1                 0.0000
     19 ****        -4.8545  -2.4222   0.4769 C.1            1 S1                 0.0000
     20 ****        -5.3930  -3.4281   0.2809 N.1            1 S1                 0.0000
     21 ****        -4.9093  -0.0202   0.8976 C.2            1 S1                 0.0000
     22 ****        -6.4286   0.0748   0.8652 C.3            1 S1                 0.0000
     23 ****        -5.4102   2.5550   2.2555 H              1 S1                 0.0000
     24 ****        -5.4728   2.7990   0.5084 H              1 S1                 0.0000
     25 ****        -4.0787   3.3541   1.4261 H              1 S1                 0.0000
     26 ****        -0.4471   1.0773   1.5640 H              1 S1                 0.0000
     27 ****        -0.2807  -0.6508   1.6408 H              1 S1                 0.0000
     28 ****         1.5875  -0.7050   0.4214 H              1 S1                 0.0000
     29 ****         1.3448  -0.5180  -2.4873 H              1 S1                 0.0000
     30 ****         2.3815  -2.5087  -1.3672 H              1 S1                 0.0000
     31 ****         3.4041  -1.7419  -2.5516 H              1 S1                 0.0000
     32 ****         3.6282  -1.4272   0.4779 H              1 S1                 0.0000
     33 ****         4.7339  -2.2852  -0.5637 H              1 S1                 0.0000
     34 ****         5.3439  -0.1925  -1.7198 H              1 S1                 0.0000
     35 ****         5.5439   0.1116   1.3137 H              1 S1                 0.0000
     36 ****         6.5466   0.9423   0.1273 H              1 S1                 0.0000
     37 ****         6.6503  -0.8057   0.2943 H              1 S1                 0.0000
     38 ****         3.4632   1.2262   0.2176 H              1 S1                 0.0000
     39 ****         4.4766   1.9971  -0.9757 H              1 S1                 0.0000
     40 ****         3.2537   0.9197  -2.8142 H              1 S1                 0.0000
     41 ****         2.1337   1.7845  -1.7991 H              1 S1                 0.0000
     42 ****        -6.9011  -0.9025   0.7716 H              1 S1                 0.0000
     43 ****        -6.7537   0.6808   0.0189 H              1 S1                 0.0000
     44 ****        -6.8066   0.5306   1.7809 H              1 S1                 0.0000
     45 ****        -2.3675   2.0297   1.3369 LP             1 S1                 0.0000
     46 ****        -1.5586   1.0741  -1.1842 LP             1 S1                 0.0000
     47 ****        -0.2070   0.7060  -2.2029 LP             1 S1                 0.0000
     48 ****        -1.0885  -2.2006   0.6416 LP             1 S1                 0.0000
     49 ****        -2.5480  -3.1109   0.4389 LP             1 S1                 0.0000
     50 ****        -5.8582  -4.2970   0.1116 LP             1 S1                 0.0000
@<TRIPOS>BOND
    1    1    2 1     
    2    1   23 1     
    3    1   24 1     
    4    1   25 1     
    5    2   21 1     
    6    2    3 2     
    7    3    4 1     
    8    4    5 1     
    9    4   16 am    
   10    5    6 1     
   11    5   26 1     
   12    5   27 1     
   13    6    7 2     
   14    6    8 am    
   15    8    9 1     
   16    8   28 1     
   17    9   15 1     
   18    9   10 1     
   19    9   29 1     
   20   10   11 1     
   21   10   30 1     
   22   10   31 1     
   23   11   12 1     
   24   11   32 1     
   25   11   33 1     
   26   12   13 1     
   27   12   14 1     
   28   12   34 1     
   29   13   35 1     
   30   13   36 1     
   31   13   37 1     
   32   14   15 1     
   33   14   38 1     
   34   14   39 1     
   35   15   40 1     
   36   15   41 1     
   37   16   17 2     
   38   16   18 1     
   39   18   19 1     
   40   18   21 2     
   41   19   20 3     
   42   21   22 1     
   43   22   42 1     
   44   22   43 1     
   45   22   44 1     
   46    3   45 1     
   47    7   46 1     
   48    7   47 1     
   49   17   48 1     
   50   17   49 1     
   51   20   50 1     
@<TRIPOS>SUBSTRUCTURE
      1 S1             1
@<TRIPOS>SET
LONE_PAIRS      STATIC     ATOMS    <user>   **** ""
6 45 46 47 48 49 50
DONOR_HYDROGENS      STATIC     ATOMS    <user>   **** ""
1 28
ATOM$BLUE        STATIC     ATOMS    COLORGROUP SYSTEM
6 45 46 47 48 49 50
ATOM$RED        STATIC     ATOMS    COLORGROUP SYSTEM
1 28
