AV-unprocessed.smi:1033|AV-procd|sdf|4495|dock9
  -GOLD-   22720 2483D 1   1.00000     0.00000
 Structure written by MMmdl.
 56 58  0  0  0  0  0  0  0  0  2 V2000
  153.0835  142.9402  161.4401 C   0  0  0  0  0  0  0  0  0  0  0  0
  152.4665  142.5777  160.1005 C   0  0  0  0  0  0  0  0  0  0  0  0
  152.8370  141.3636  159.4798 C   0  0  0  0  0  0  0  0  0  0  0  0
  152.2888  140.9908  158.2331 C   0  0  0  0  0  0  0  0  0  0  0  0
  152.5068  139.8667  157.4551 N   0  0  0  0  0  0  0  0  0  0  0  0
  151.7105  140.1010  156.4162 C   0  0  0  0  0  0  0  0  0  0  0  0
  151.0038  141.2480  156.4272 N   0  0  0  0  0  0  0  0  0  0  0  0
  150.0796  141.7177  155.4110 C   0  0  0  0  0  0  0  0  0  0  0  0
  148.6111  141.4470  155.7914 C   0  0  1  0  0  0  0  0  0  0  0  0
  147.7431  142.2630  155.0300 O   0  0  0  0  0  0  0  0  0  0  0  0
  148.1349  139.9794  155.7039 C   0  0  0  0  0  0  0  0  0  0  0  0
  148.2470  139.3295  154.3893 N   0  0  0  0  0  0  0  0  0  0  0  0
  149.6208  139.0450  153.9573 C   0  0  0  0  0  0  0  0  0  0  0  0
  150.2972  137.8993  154.7404 C   0  0  0  0  0  0  0  0  0  0  0  0
  149.4743  136.6629  154.6700 N   0  3  0  0  0  0  0  0  0  0  0  0
  150.0819  135.4999  155.3649 C   0  0  0  0  0  0  0  0  0  0  0  0
  149.2437  134.2132  155.2253 C   0  0  2  0  0  0  0  0  0  0  0  0
  150.0625  132.9326  155.4451 C   0  0  0  0  0  0  0  0  0  0  0  0
  148.7052  134.1725  153.9210 O   0  0  0  0  0  0  0  0  0  0  0  0
  148.0891  136.9369  155.1278 C   0  0  0  0  0  0  0  0  0  0  0  0
  147.4787  138.0873  154.3048 C   0  0  0  0  0  0  0  0  0  0  0  0
  151.3521  141.8731  157.6194 C   0  0  0  0  0  0  0  0  0  0  0  0
  150.9736  143.0826  158.2280 C   0  0  0  0  0  0  0  0  0  0  0  0
  151.5317  143.4402  159.4732 C   0  0  0  0  0  0  0  0  0  0  0  0
  151.1184  144.7495  160.1215 C   0  0  0  0  0  0  0  0  0  0  0  0
  153.7528  142.1559  161.7951 H   0  0  0  0  0  0  0  0  0  0  0  0
  152.3082  143.0833  162.1932 H   0  0  0  0  0  0  0  0  0  0  0  0
  153.6611  143.8610  161.3572 H   0  0  0  0  0  0  0  0  0  0  0  0
  153.5491  140.7063  159.9572 H   0  0  0  0  0  0  0  0  0  0  0  0
  151.6393  139.4003  155.5969 H   0  0  0  0  0  0  0  0  0  0  0  0
  150.2508  142.7852  155.2713 H   0  0  0  0  0  0  0  0  0  0  0  0
  150.3270  141.2224  154.4713 H   0  0  0  0  0  0  0  0  0  0  0  0
  148.4772  141.7526  156.8298 H   0  0  0  0  0  0  0  0  0  0  0  0
  147.8873  143.1647  155.2740 H   0  0  0  0  0  0  0  0  0  0  0  0
  148.6426  139.3885  156.4651 H   0  0  0  0  0  0  0  0  0  0  0  0
  147.0872  139.9822  156.0083 H   0  0  0  0  0  0  0  0  0  0  0  0
  149.6053  138.7789  152.8994 H   0  0  0  0  0  0  0  0  0  0  0  0
  150.2434  139.9330  154.0209 H   0  0  0  0  0  0  0  0  0  0  0  0
  151.2820  137.7197  154.3112 H   0  0  0  0  0  0  0  0  0  0  0  0
  150.4609  138.1797  155.7813 H   0  0  0  0  0  0  0  0  0  0  0  0
  151.0923  135.3433  154.9829 H   0  0  0  0  0  0  0  0  0  0  0  0
  150.1897  135.7281  156.4266 H   0  0  0  0  0  0  0  0  0  0  0  0
  148.3997  134.2278  155.9140 H   0  0  0  0  0  0  0  0  0  0  0  0
  150.4669  132.8897  156.4566 H   0  0  0  0  0  0  0  0  0  0  0  0
  150.8998  132.8695  154.7491 H   0  0  0  0  0  0  0  0  0  0  0  0
  149.4456  132.0443  155.3039 H   0  0  0  0  0  0  0  0  0  0  0  0
  148.8285  135.0161  153.5126 H   0  0  0  0  0  0  0  0  0  0  0  0
  147.4777  136.0426  155.0019 H   0  0  0  0  0  0  0  0  0  0  0  0
  148.0873  137.1757  156.1925 H   0  0  0  0  0  0  0  0  0  0  0  0
  146.4497  138.2648  154.6200 H   0  0  0  0  0  0  0  0  0  0  0  0
  147.4155  137.7792  153.2599 H   0  0  0  0  0  0  0  0  0  0  0  0
  150.2609  143.7302  157.7392 H   0  0  0  0  0  0  0  0  0  0  0  0
  150.4078  145.2944  159.4994 H   0  0  0  0  0  0  0  0  0  0  0  0
  151.9862  145.3905  160.2778 H   0  0  0  0  0  0  0  0  0  0  0  0
  150.6450  144.5647  161.0858 H   0  0  0  0  0  0  0  0  0  0  0  0
  149.4015  136.4113  153.6945 H   0  0  0  0  0  0  0  0  0  0  0  0
  1  2  1  0  0  0  0
  1 26  1  0  0  0  0
  1 27  1  0  0  0  0
  1 28  1  0  0  0  0
  2 24  1  0  0  0  0
  2  3  2  0  0  0  0
  3  4  1  0  0  0  0
  3 29  1  0  0  0  0
  4 22  2  0  0  0  0
  4  5  1  0  0  0  0
  5  6  2  0  0  0  0
  6  7  1  0  0  0  0
  6 30  1  0  0  0  0
  7  8  1  0  0  0  0
  7 22  1  0  0  0  0
  8  9  1  0  0  0  0
  8 31  1  0  0  0  0
  8 32  1  0  0  0  0
  9 10  1  0  0  0  0
  9 11  1  0  0  0  0
  9 33  1  0  0  0  0
 10 34  1  0  0  0  0
 11 12  1  0  0  0  0
 11 35  1  0  0  0  0
 11 36  1  0  0  0  0
 12 21  1  0  0  0  0
 12 13  1  0  0  0  0
 13 14  1  0  0  0  0
 13 37  1  0  0  0  0
 13 38  1  0  0  0  0
 14 15  1  0  0  0  0
 14 39  1  0  0  0  0
 14 40  1  0  0  0  0
 15 16  1  0  0  0  0
 15 20  1  0  0  0  0
 15 56  1  0  0  0  0
 16 17  1  0  0  0  0
 16 41  1  0  0  0  0
 16 42  1  0  0  0  0
 17 18  1  0  0  0  0
 17 19  1  0  0  0  0
 17 43  1  0  0  0  0
 18 44  1  0  0  0  0
 18 45  1  0  0  0  0
 18 46  1  0  0  0  0
 19 47  1  0  0  0  0
 20 21  1  0  0  0  0
 20 48  1  0  0  0  0
 20 49  1  0  0  0  0
 21 50  1  0  0  0  0
 21 51  1  0  0  0  0
 22 23  1  0  0  0  0
 23 24  2  0  0  0  0
 23 52  1  0  0  0  0
 24 25  1  0  0  0  0
 25 53  1  0  0  0  0
 25 54  1  0  0  0  0
 25 55  1  0  0  0  0
M  CHG  1  15   1
M  END
> <s_m_source_file>
AV-unprocessed.smi

> <i_m_source_file_index>
1033

> <i_lp_mmshare_version>
43012

> <i_f3d_flags>
0

> <s_epik_input>
W0NIM11jKFtjSF0xKWMoW0NIM10pW2NIXWMoYzEyKW4oW2NIXW4yKVtDSDJdW0NASF0oW09IXSlbQ0gyXU4zW0NIMl1bQ0gyXU4oW0NIMl1bQ0gyXTMpW0NIMl1bQ0BIXShbQ0gzXSlbT0hd

> <s_epik_cmdline>
J2VwaWtfcHl0aG9uJywgJy1waCcsICc3LjAnLCAnLXRuJywgJzgnLCAnLW1hJywgJzIwMCcsICctbWV0YWxfYmluZGluZycsICctaW1hZScsICc8aW5maWxlLm1hZT4nLCAnLW9tYWUnLCAnPG91dGZpbGUubWFlPic=

> <r_epik_Ionization_Penalty>
0.129152

> <r_epik_Ionization_Penalty_Charging>
0.00083231

> <r_epik_Ionization_Penalty_Neutral>
0.128319

> <r_epik_State_Penalty>
0.556973

> <r_epik_Charging_Adjusted_Penalty>
0.557805

> <i_epik_Tot_Q>
1

> <i_epik_Tot_abs_Q>
1

> <r_epik_Metal_State_Penalty>
0.490047

> <b_epik_Metal_Only>
0

> <s_lp_Force_Field>
OPLS_2005

> <r_lp_Energy>
40.305

> <b_lp_Chiralities_Consistent>
1

> <s_lp_Variant>
AV-unprocessed.smi:1033-6

> <Gold.Version>
5.8.1

> <Gold.Id.Protein>
6NUR|6NUR_protein|mol2

> <Gold.PLP.Fitness>
59.7426

> <Gold.PLP.PLP>
-45.9190

> <Gold.PLP.part.hbond>
-4.0000

> <Gold.PLP.part.metal>
0.0000

> <Gold.PLP.part.buried>
-3.9849

> <Gold.PLP.part.nonpolar>
-36.6416

> <Gold.PLP.part.repulsive>
0.1565

> <Gold.PLP.ligand.clash>
0.0000

> <Gold.PLP.ligand.torsion>
0.7268

> <Gold.PLP.Chemscore.Hbond>
5.0000

> <Gold.PLP.Chemscore.CHOScore>
0.0000

> <Gold.PLP.Chemscore.Metal>
0.0000

> <Gold.Chemscore.Hbonds>
donor molecule, donor type, donor heavy atom, donor atom, acceptor molecule, acceptor atom, score
      L1  H    10    34       P1  8028  1.00
      L1  H    15    56       P1  7948  2.00
      L1  H    19    47       P1  7948  1.00
      P1  H  7997  8008       L1     5  0.98

> <Gold.PLP.Chemscore.Internal.Correction>
0.2771

> <Gold.Rescore>
     Score         DG    S(hbond)    S(metal)    S(lipo)     H(rot)  DE(clash)    DE(int)     intcor
     20.18     -21.66       2.91        0.00     122.27       3.07       0.71       0.78       ----

> <Gold.Chemscore.Fitness>
20.1752

> <Gold.Chemscore.DG>
-21.6644

> <Gold.Chemscore.ZeroCoef>
-5.4800

> <Gold.Chemscore.Hbond>
2.9119

> <Gold.Chemscore.Metal>
0.0000

> <Gold.Chemscore.Lipo>
122.2653

> <Gold.Chemscore.Internal_Hbond>
0.0000

> <Gold.Chemscore.DEClash>
0.7103

> <Gold.Chemscore.DEInternal>
0.7789

> <Gold.Chemscore.Rot>
3.0650

> <Gold.Chemscore.Internal.Correction>
   9.000000E+99

> <Gold.Chemscore.Hbonds>
donor molecule, donor type, donor heavy atom, donor atom, acceptor molecule, acceptor atom, score
      L1  H    10    34       P1  8028  0.69
      L1  H    15    56       P1  7948  0.82
      L1  H    19    47       P1  7948  0.50
      P1  H  7997  8008       L1     5  0.25

> <Gold.Chemscore.Hbond.Weighted>
-9.7259

> <Gold.Chemscore.Metal.Weighted>
-0.0000

> <Gold.Chemscore.Lipo.Weighted>
-14.3050

> <Gold.Chemscore.Internal_Hbond.Weighted>
0.0000

> <Gold.Chemscore.DEClash.Weighted>
0.7103

> <Gold.Chemscore.DEInternal.Weighted>
0.7789

> <Gold.Chemscore.Rot.Weighted>
7.8465

> <Gold.Chemscore.Internal.Correction.Weighted>
   9.000000E+99

> <Gold.Protein.RotatedTorsions>
[ 6907 6896 6895 6894 ] final  114.06 input  -60.11 | X-H torsion
[ 7974 7965 7964 7962 ] final -179.50 input  175.53 | X-H torsion
[ 8008 7997 7996 7995 ] final  -66.93 input   59.86 | X-H torsion
[ 10167 10162 10161 10158 ] final  100.35 input  -65.29 | X-H torsion
[ 10718 10713 10712 10709 ] final  108.01 input   66.30 | X-H torsion
[ 10763 10752 10751 10750 ] final  -83.94 input  -60.55 | X-H torsion
[ 11005 11000 10999 10996 ] final   11.07 input  -57.11 | X-H torsion

> <Gold.Protein.ActiveResidues>
 VAL166  LYS551  ARG553  GLY616  TRP617  ASP618  TYR619  PRO620  LYS621  CYS622 
 ASP623  PHE694  ASN695  SER759  ASP760  ASP761  ALA762  ILE779  LEU786  VAL792 
 PHE793  MET794  SER795  GLU796  ALA797  LYS798  CYS799  TRP800  GLU811  SER814 

> <Gold.Protein.RotatedAtoms>
  152.4824  133.8288  159.7092 H   0  0  0  0  0  0  0  0  0  0  0  0  # atno 6907 bound_to 6896
  150.8884  133.7266  159.2918 H   0  0  0  0  0  0  0  0  0  0  0  0  # atno 6908 bound_to 6896
  151.4747  135.1052  159.9813 H   0  0  0  0  0  0  0  0  0  0  0  0  # atno 6909 bound_to 6896
  144.7137  140.0709  143.6429 H   0  0  0  0  0  0  0  0  0  0  0  0  # atno 7974 bound_to 7965
  154.4766  140.0903  156.7278 H   0  0  0  0  0  0  0  0  0  0  0  0  # atno 8008 bound_to 7997
  155.4579  140.3460  155.4291 H   0  0  0  0  0  0  0  0  0  0  0  0  # atno 8009 bound_to 7997
  156.1126  140.1452  156.9305 H   0  0  0  0  0  0  0  0  0  0  0  0  # atno 8010 bound_to 7997
  139.7535  144.6976  151.0397 H   0  0  0  0  0  0  0  0  0  0  0  0  # atno 10167 bound_to 10162
  157.6604  131.0884  150.6241 H   0  0  0  0  0  0  0  0  0  0  0  0  # atno 10718 bound_to 10713
  154.5937  135.5538  153.7304 H   0  0  0  0  0  0  0  0  0  0  0  0  # atno 10763 bound_to 10752
  153.0127  135.6349  154.1813 H   0  0  0  0  0  0  0  0  0  0  0  0  # atno 10764 bound_to 10752
  154.1754  135.2890  155.3048 H   0  0  0  0  0  0  0  0  0  0  0  0  # atno 10765 bound_to 10752
  140.5074  134.0686  155.7809 H   0  0  0  0  0  0  0  0  0  0  0  0  # atno 11005 bound_to 11000
  145.9784  139.2923  143.1056 LP  0  0  0  0  0  0  0  0  0  0  0  0  # atno 17320 bound_to 7965
  145.9038  140.9225  143.0489 LP  0  0  0  0  0  0  0  0  0  0  0  0  # atno 17321 bound_to 7965
  140.7800  143.4780  151.0056 LP  0  0  0  0  0  0  0  0  0  0  0  0  # atno 17342 bound_to 10162
  139.8468  143.7491  152.3179 LP  0  0  0  0  0  0  0  0  0  0  0  0  # atno 17343 bound_to 10162
  156.6544  130.4494  149.5708 LP  0  0  0  0  0  0  0  0  0  0  0  0  # atno 17370 bound_to 10713
  156.2113  130.6681  151.1273 LP  0  0  0  0  0  0  0  0  0  0  0  0  # atno 17371 bound_to 10713
  141.1404  133.9149  157.2339 LP  0  0  0  0  0  0  0  0  0  0  0  0  # atno 17394 bound_to 11000
  139.9678  135.0137  156.9434 LP  0  0  0  0  0  0  0  0  0  0  0  0  # atno 17395 bound_to 11000

$$$$
