#       Name:                AV-unprocessed.smi:3148
#       Creating user name   scv26
#       Creation time:       Fri Mar 27 17:40:21 2020


#       File generated by GOLD software.
#

@<TRIPOS>MOLECULE
AV-unprocessed.smi:3148
    40    42     1
SMALL
NO_CHARGES


@<TRIPOS>ATOM
      1 ****        -3.6173  -1.1540   0.0167 C.3            1 S1                 0.0000
      2 ****        -2.9161  -2.3925   0.0519 O.3            1 S1                 0.0000
      3 ****        -1.5413  -2.3690  -0.0626 C.ar           1 S1                 0.0000
      4 ****        -0.8213  -3.5740  -0.0174 C.ar           1 S1                 0.0000
      5 ****         0.5792  -3.4879  -0.1372 C.ar           1 S1                 0.0000
      6 ****         1.4672  -4.7132  -0.0970 C.3            1 S1                 0.0000
      7 ****         1.1757  -2.2793  -0.2898 N.pl3          1 S1                 1.0000
      8 ****         0.4308  -1.1644  -0.3238 C.ar           1 S1                 0.0000
      9 ****         1.0902   0.0423  -0.4723 N.pl3          1 S1                 0.0000
     10 ****         2.5367   0.1726  -0.5931 C.3            1 S1                 0.0000
     11 ****         3.0695  -0.3047  -1.9504 C.3            1 S1                 0.0000
     12 ****         3.8087   0.9407  -2.4550 C.3            1 S1                 0.0000
     13 ****         5.0771   1.2328  -1.6418 C.3            1 S1                 0.0000
     14 ****         4.4936   1.7582  -0.3306 C.3            1 S1                 0.0000
     15 ****         2.9847   1.6433  -0.5868 C.3            1 S1                 0.0000
     16 ****         2.9459   1.9542  -1.9702 O.3            1 S1                 0.0000
     17 ****        -0.9051  -1.1843  -0.2152 N.ar           1 S1                 0.0000
     18 ****        -4.6854  -1.3409   0.1264 H              1 S1                 0.0000
     19 ****        -3.4679  -0.6371  -0.9324 H              1 S1                 0.0000
     20 ****        -3.3110  -0.4981   0.8332 H              1 S1                 0.0000
     21 ****        -1.3244  -4.5221   0.1059 H              1 S1                 0.0000
     22 ****         0.8749  -5.6285  -0.0820 H              1 S1                 0.0000
     23 ****         2.0930  -4.6968   0.7957 H              1 S1                 0.0000
     24 ****         2.1162  -4.7429  -0.9727 H              1 S1                 0.0000
     25 ****         0.5269   0.8613  -0.6496 H              1 S1                 0.0000
     26 ****         3.0090  -0.3644   0.2308 H              1 S1                 0.0000
     27 ****         3.7253  -1.1716  -1.8627 H              1 S1                 0.0000
     28 ****         2.2599  -0.5631  -2.6351 H              1 S1                 0.0000
     29 ****         3.9600   0.9580  -3.5346 H              1 S1                 0.0000
     30 ****         5.6949   0.3445  -1.5061 H              1 S1                 0.0000
     31 ****         5.6825   2.0003  -2.1255 H              1 S1                 0.0000
     32 ****         4.8157   1.1830   0.5381 H              1 S1                 0.0000
     33 ****         4.7808   2.7989  -0.1753 H              1 S1                 0.0000
     34 ****         2.3847   2.2992   0.0452 H              1 S1                 0.0000
     35 ****         2.1914  -2.2301  -0.3727 H              1 S1                 0.0000
     36 ****        -3.2663  -2.9525  -0.6989 LP             1 S1                 0.0000
     37 ****        -3.1332  -2.8310   0.9241 LP             1 S1                 0.0000
     38 ****         2.0231   1.8715  -2.3465 LP             1 S1                 0.0000
     39 ****         3.3016   2.8698  -2.1580 LP             1 S1                 0.0000
     40 ****        -1.4268  -0.3318  -0.2466 LP             1 S1                 0.0000
@<TRIPOS>BOND
    1    1    2 1     
    2    1   18 1     
    3    1   19 1     
    4    1   20 1     
    5    2    3 1     
    6    3   17 ar    
    7    3    4 ar    
    8    4    5 ar    
    9    4   21 1     
   10    5    6 1     
   11    5    7 ar    
   12    6   22 1     
   13    6   23 1     
   14    6   24 1     
   15    7    8 ar    
   16    7   35 1     
   17    8    9 1     
   18    8   17 ar    
   19    9   10 1     
   20    9   25 1     
   21   10   15 1     
   22   10   11 1     
   23   10   26 1     
   24   11   12 1     
   25   11   27 1     
   26   11   28 1     
   27   12   16 1     
   28   12   13 1     
   29   12   29 1     
   30   13   14 1     
   31   13   30 1     
   32   13   31 1     
   33   14   15 1     
   34   14   32 1     
   35   14   33 1     
   36   15   16 1     
   37   15   34 1     
   38    2   36 1     
   39    2   37 1     
   40   16   38 1     
   41   16   39 1     
   42   17   40 1     
@<TRIPOS>SUBSTRUCTURE
      1 S1             1
@<TRIPOS>SET
LONE_PAIRS      STATIC     ATOMS    <user>   **** ""
5 36 37 38 39 40
DONOR_HYDROGENS      STATIC     ATOMS    <user>   **** ""
2 35 25
ATOM$BLUE        STATIC     ATOMS    COLORGROUP SYSTEM
5 36 37 38 39 40
ATOM$RED        STATIC     ATOMS    COLORGROUP SYSTEM
2 35 25
