AV-unprocessed.smi:1962|AV-procd|sdf|7925|dock8
  -GOLD-   2272010 93D 1   1.00000     0.00000
 Structure written by MMmdl.
 35 36  0  0  0  0  0  0  0  0  2 V2000
  149.1819  144.5674  160.6227 C   0  0  0  0  0  0  0  0  0  0  0  0
  150.3956  144.1528  159.7797 C   0  0  1  0  0  0  0  0  0  0  0  0
  151.7210  144.3837  160.5532 C   0  0  0  0  0  0  0  0  0  0  0  0
  152.4996  143.1715  160.7981 N   0  0  0  0  0  0  0  0  0  0  0  0
  153.2020  142.3942  159.8958 C   0  0  0  0  0  0  0  0  0  0  0  0
  153.7799  141.3737  160.5948 C   0  0  0  0  0  0  0  0  0  0  0  0
  153.3825  141.6181  161.9384 C   0  0  0  0  0  0  0  0  0  0  0  0
  152.6300  142.6987  162.0599 N   0  0  0  0  0  0  0  0  0  0  0  0
  150.2560  142.7364  159.4213 N   0  5  0  0  0  0  0  0  0  0  0  0
  149.1702  142.1780  158.8036 C   0  0  0  0  0  0  0  0  0  0  0  0
  148.0047  142.2013  159.2177 O   0  0  0  0  0  0  0  0  0  0  0  0
  149.3694  141.4679  157.5052 C   0  0  0  0  0  0  0  0  0  0  0  0
  150.5649  141.1226  157.1401 N   0  0  0  0  0  0  0  0  0  0  0  0
  150.8114  140.4518  155.9604 N   0  0  0  0  0  0  0  0  0  0  0  0
  152.1634  139.9115  155.8358 C   0  0  0  0  0  0  0  0  0  0  0  0
  149.9124  140.3013  154.9566 C   0  0  0  0  0  0  0  0  0  0  0  0
  150.1411  139.6774  153.9201 O   0  0  0  0  0  0  0  0  0  0  0  0
  148.5576  140.9879  155.1464 C   0  0  0  0  0  0  0  0  0  0  0  0
  148.1745  141.1229  156.6331 C   0  0  0  0  0  0  0  0  0  0  0  0
  149.2374  145.6216  160.8946 H   0  0  0  0  0  0  0  0  0  0  0  0
  149.1201  143.9899  161.5460 H   0  0  0  0  0  0  0  0  0  0  0  0
  148.2512  144.4202  160.0734 H   0  0  0  0  0  0  0  0  0  0  0  0
  150.4037  144.7968  158.8987 H   0  0  0  0  0  0  0  0  0  0  0  0
  152.3562  145.0675  159.9892 H   0  0  0  0  0  0  0  0  0  0  0  0
  151.5206  144.8751  161.5070 H   0  0  0  0  0  0  0  0  0  0  0  0
  153.2231  142.6270  158.8412 H   0  0  0  0  0  0  0  0  0  0  0  0
  154.3932  140.5752  160.2050 H   0  0  0  0  0  0  0  0  0  0  0  0
  153.6214  141.0494  162.8248 H   0  0  0  0  0  0  0  0  0  0  0  0
  152.1353  138.8233  155.7686 H   0  0  0  0  0  0  0  0  0  0  0  0
  152.7887  140.1743  156.6906 H   0  0  0  0  0  0  0  0  0  0  0  0
  152.6532  140.2977  154.9408 H   0  0  0  0  0  0  0  0  0  0  0  0
  148.6271  141.9785  154.6954 H   0  0  0  0  0  0  0  0  0  0  0  0
  147.7819  140.4480  154.6022 H   0  0  0  0  0  0  0  0  0  0  0  0
  147.7271  140.1943  156.9891 H   0  0  0  0  0  0  0  0  0  0  0  0
  147.4014  141.8877  156.7125 H   0  0  0  0  0  0  0  0  0  0  0  0
  1  2  1  0  0  0  0
  1 20  1  0  0  0  0
  1 21  1  0  0  0  0
  1 22  1  0  0  0  0
  2  3  1  0  0  0  0
  2  9  1  0  0  0  0
  2 23  1  0  0  0  0
  3  4  1  0  0  0  0
  3 24  1  0  0  0  0
  3 25  1  0  0  0  0
  4  8  1  0  0  0  0
  4  5  1  0  0  0  0
  5  6  2  0  0  0  0
  5 26  1  0  0  0  0
  6  7  1  0  0  0  0
  6 27  1  0  0  0  0
  7  8  2  0  0  0  0
  7 28  1  0  0  0  0
  9 10  1  0  0  0  0
 10 11  2  0  0  0  0
 10 12  1  0  0  0  0
 12 19  1  0  0  0  0
 12 13  2  0  0  0  0
 13 14  1  0  0  0  0
 14 15  1  0  0  0  0
 14 16  1  0  0  0  0
 15 29  1  0  0  0  0
 15 30  1  0  0  0  0
 15 31  1  0  0  0  0
 16 17  2  0  0  0  0
 16 18  1  0  0  0  0
 18 19  1  0  0  0  0
 18 32  1  0  0  0  0
 18 33  1  0  0  0  0
 19 34  1  0  0  0  0
 19 35  1  0  0  0  0
M  CHG  1   9  -1
M  END
> <s_m_source_file>
AV-unprocessed.smi

> <i_m_source_file_index>
1962

> <i_lp_mmshare_version>
43012

> <i_f3d_flags>
0

> <s_epik_input>
bjFbY0hdW2NIXVtjSF1uMVtDSDJdW0NAQEhdKFtDSDNdKVtOSF1DKD1PKUMyPU5OKFtDSDNdKUMoPU8pW0NIMl1bQ0gyXTI=

> <s_epik_cmdline>
J2VwaWtfcHl0aG9uJywgJy1waCcsICc3LjAnLCAnLXRuJywgJzgnLCAnLW1hJywgJzIwMCcsICctbWV0YWxfYmluZGluZycsICctaW1hZScsICc8aW5maWxlLm1hZT4nLCAnLW9tYWUnLCAnPG91dGZpbGUubWFlPic=

> <r_lp_tautomer_probability>
1

> <r_epik_Ionization_Penalty>
5.21086

> <r_epik_Ionization_Penalty_Charging>
5.21084

> <r_epik_Ionization_Penalty_Neutral>
2.41961e-05

> <r_epik_State_Penalty>
5.21075

> <r_epik_Charging_Adjusted_Penalty>
10.4216

> <i_epik_Tot_Q>
-1

> <i_epik_Tot_abs_Q>
1

> <r_epik_Metal_State_Penalty>
1.27477

> <b_epik_Metal_Only>
1

> <s_epik_Chemistry_Notes>
This compound has an imine and may undergo hydrolysis.

> <s_lp_Force_Field>
OPLS_2005

> <r_lp_Energy>
25.3594

> <b_lp_Chiralities_Consistent>
1

> <s_lp_Variant>
AV-unprocessed.smi:1962-4

> <Gold.Version>
5.8.1

> <Gold.Id.Protein>
6NUR|6NUR_protein|mol2

> <Gold.PLP.Fitness>
37.5705

> <Gold.PLP.PLP>
-39.4924

> <Gold.PLP.part.hbond>
-2.2571

> <Gold.PLP.part.metal>
0.0000

> <Gold.PLP.part.buried>
-6.1561

> <Gold.PLP.part.nonpolar>
-33.6705

> <Gold.PLP.part.repulsive>
2.3067

> <Gold.PLP.ligand.clash>
0.0000

> <Gold.PLP.ligand.torsion>
1.4967

> <Gold.PLP.Chemscore.Hbond>
0.3472

> <Gold.PLP.Chemscore.CHOScore>
0.0000

> <Gold.PLP.Chemscore.Metal>
0.0000

> <Gold.Chemscore.Hbonds>
donor molecule, donor type, donor heavy atom, donor atom, acceptor molecule, acceptor atom, score
      P1  H  6933  6944       L1    11  0.10
      P1  H  6934  6946       L1    11  0.12
      P1  H  7989  7998       L1    17  0.59

> <Gold.PLP.Chemscore.Internal.Correction>
0.0300

> <Gold.Rescore>
     Score         DG    S(hbond)    S(metal)    S(lipo)     H(rot)  DE(clash)    DE(int)     intcor
      8.66     -11.30       0.04        0.00      81.20       1.50       0.04       2.60       ----

> <Gold.Chemscore.Fitness>
8.6619

> <Gold.Chemscore.DG>
-11.2995

> <Gold.Chemscore.ZeroCoef>
-5.4800

> <Gold.Chemscore.Hbond>
0.0448

> <Gold.Chemscore.Metal>
0.0000

> <Gold.Chemscore.Lipo>
81.2034

> <Gold.Chemscore.Internal_Hbond>
0.0000

> <Gold.Chemscore.DEClash>
0.0392

> <Gold.Chemscore.DEInternal>
2.5984

> <Gold.Chemscore.Rot>
1.4964

> <Gold.Chemscore.Internal.Correction>
   9.000000E+99

> <Gold.Chemscore.Hbonds>
donor molecule, donor type, donor heavy atom, donor atom, acceptor molecule, acceptor atom, score
      P1  H  6933  6944       L1    11  0.01
      P1  H  6934  6946       L1    11  0.12
      P1  H  7989  7998       L1    17  0.04

> <Gold.Chemscore.Hbond.Weighted>
-0.1495

> <Gold.Chemscore.Metal.Weighted>
-0.0000

> <Gold.Chemscore.Lipo.Weighted>
-9.5008

> <Gold.Chemscore.Internal_Hbond.Weighted>
0.0000

> <Gold.Chemscore.DEClash.Weighted>
0.0392

> <Gold.Chemscore.DEInternal.Weighted>
2.5984

> <Gold.Chemscore.Rot.Weighted>
3.8309

> <Gold.Chemscore.Internal.Correction.Weighted>
   9.000000E+99

> <Gold.Protein.RotatedTorsions>
[ 6907 6896 6895 6894 ] final -175.53 input  -60.11 | X-H torsion
[ 7974 7965 7964 7962 ] final -166.45 input  175.53 | X-H torsion
[ 8008 7997 7996 7995 ] final  127.00 input   59.86 | X-H torsion
[ 10167 10162 10161 10158 ] final  -34.28 input  -65.29 | X-H torsion
[ 10718 10713 10712 10709 ] final -131.45 input   66.30 | X-H torsion
[ 10763 10752 10751 10750 ] final    9.00 input  -60.55 | X-H torsion
[ 11005 11000 10999 10996 ] final  -47.83 input  -57.11 | X-H torsion

> <Gold.Protein.ActiveResidues>
 VAL166  LYS551  ARG553  GLY616  TRP617  ASP618  TYR619  PRO620  LYS621  CYS622 
 ASP623  PHE694  ASN695  SER759  ASP760  ASP761  ALA762  ILE779  LEU786  VAL792 
 PHE793  MET794  SER795  GLU796  ALA797  LYS798  CYS799  TRP800  GLU811  SER814 

> <Gold.Protein.RotatedAtoms>
  151.5901  133.3367  159.3025 H   0  0  0  0  0  0  0  0  0  0  0  0  # atno 6907 bound_to 6896
  150.8265  134.7501  159.6828 H   0  0  0  0  0  0  0  0  0  0  0  0  # atno 6908 bound_to 6896
  152.4353  134.5704  159.9971 H   0  0  0  0  0  0  0  0  0  0  0  0  # atno 6909 bound_to 6896
  144.7245  140.2664  143.6257 H   0  0  0  0  0  0  0  0  0  0  0  0  # atno 7974 bound_to 7965
  156.2879  140.2679  156.2203 H   0  0  0  0  0  0  0  0  0  0  0  0  # atno 8008 bound_to 7997
  155.0175  140.0387  157.2442 H   0  0  0  0  0  0  0  0  0  0  0  0  # atno 8009 bound_to 7997
  154.7464  140.2735  155.6334 H   0  0  0  0  0  0  0  0  0  0  0  0  # atno 8010 bound_to 7997
  140.7188  143.3559  151.2060 H   0  0  0  0  0  0  0  0  0  0  0  0  # atno 10167 bound_to 10162
  156.2246  130.6999  151.0793 H   0  0  0  0  0  0  0  0  0  0  0  0  # atno 10718 bound_to 10713
  153.2189  135.6878  153.8024 H   0  0  0  0  0  0  0  0  0  0  0  0  # atno 10763 bound_to 10752
  153.7230  135.3264  155.3271 H   0  0  0  0  0  0  0  0  0  0  0  0  # atno 10764 bound_to 10752
  154.8259  135.4617  154.1027 H   0  0  0  0  0  0  0  0  0  0  0  0  # atno 10765 bound_to 10752
  141.0664  133.6692  156.3353 H   0  0  0  0  0  0  0  0  0  0  0  0  # atno 11005 bound_to 11000
  145.8085  139.1993  143.2006 LP  0  0  0  0  0  0  0  0  0  0  0  0  # atno 17320 bound_to 7965
  146.0616  140.7965  142.9732 LP  0  0  0  0  0  0  0  0  0  0  0  0  # atno 17321 bound_to 7965
  139.7100  143.9392  152.2943 LP  0  0  0  0  0  0  0  0  0  0  0  0  # atno 17342 bound_to 10162
  139.9113  144.6854  150.8559 LP  0  0  0  0  0  0  0  0  0  0  0  0  # atno 17343 bound_to 10162
  157.7104  131.0737  150.6520 LP  0  0  0  0  0  0  0  0  0  0  0  0  # atno 17370 bound_to 10713
  156.6585  130.4505  149.5695 LP  0  0  0  0  0  0  0  0  0  0  0  0  # atno 17371 bound_to 10713
  140.5764  134.5789  157.5469 LP  0  0  0  0  0  0  0  0  0  0  0  0  # atno 17394 bound_to 11000
  139.9481  134.7666  156.0514 LP  0  0  0  0  0  0  0  0  0  0  0  0  # atno 17395 bound_to 11000

$$$$
