AV-unprocessed.smi:750|AV-procd|sdf|3588|dock9
  -GOLD-   22720 0583D 1   1.00000     0.00000
 Structure written by MMmdl.
 23 24  0  0  0  0  0  0  0  0  1 V2000
  149.7340  141.2206  155.6256 C   0  0  0  0  0  0  0  0  0  0  0  0
  150.5957  140.5705  156.7268 C   0  0  1  0  0  0  0  0  0  0  0  0
  151.3802  141.6073  157.5460 C   0  0  0  0  0  0  0  0  0  0  0  0
  152.2220  141.1983  158.6069 C   0  0  0  0  0  0  0  0  0  0  0  0
  152.9314  142.1668  159.3414 C   0  0  0  0  0  0  0  0  0  0  0  0
  152.7767  143.5203  158.9886 C   0  0  0  0  0  0  0  0  0  0  0  0
  151.9810  143.9335  157.9807 N   0  0  0  0  0  0  0  0  0  0  0  0
  151.3035  142.9973  157.2821 C   0  0  0  0  0  0  0  0  0  0  0  0
  149.7730  139.6785  157.5350 N   0  0  0  0  0  0  0  0  0  0  0  0
  150.1823  138.4033  157.4924 C   0  0  0  0  0  0  0  0  0  0  0  0
  149.6765  137.4607  158.0965 O   0  0  0  0  0  0  0  0  0  0  0  0
  151.2320  138.3383  156.6692 N   0  0  0  0  0  0  0  0  0  0  0  0
  151.5465  139.5241  156.1508 C   0  0  0  0  0  0  0  0  0  0  0  0
  152.4433  139.7539  155.3408 O   0  0  0  0  0  0  0  0  0  0  0  0
  150.3364  141.7930  154.9197 H   0  0  0  0  0  0  0  0  0  0  0  0
  148.9984  141.9004  156.0565 H   0  0  0  0  0  0  0  0  0  0  0  0
  149.1886  140.4718  155.0492 H   0  0  0  0  0  0  0  0  0  0  0  0
  152.3227  140.1542  158.8632 H   0  0  0  0  0  0  0  0  0  0  0  0
  153.5778  141.8783  160.1569 H   0  0  0  0  0  0  0  0  0  0  0  0
  153.3047  144.2910  159.5303 H   0  0  0  0  0  0  0  0  0  0  0  0
  150.6836  143.3872  156.4888 H   0  0  0  0  0  0  0  0  0  0  0  0
  148.9890  140.0044  158.0814 H   0  0  0  0  0  0  0  0  0  0  0  0
  151.7217  137.4829  156.4507 H   0  0  0  0  0  0  0  0  0  0  0  0
  1  2  1  0  0  0  0
  1 15  1  0  0  0  0
  1 16  1  0  0  0  0
  1 17  1  0  0  0  0
  2 13  1  0  0  0  0
  2  3  1  0  0  0  0
  2  9  1  0  0  0  0
  3  8  1  0  0  0  0
  3  4  2  0  0  0  0
  4  5  1  0  0  0  0
  4 18  1  0  0  0  0
  5  6  2  0  0  0  0
  5 19  1  0  0  0  0
  6  7  1  0  0  0  0
  6 20  1  0  0  0  0
  7  8  2  0  0  0  0
  8 21  1  0  0  0  0
  9 10  1  0  0  0  0
  9 22  1  0  0  0  0
 10 11  2  0  0  0  0
 10 12  1  0  0  0  0
 12 13  1  0  0  0  0
 12 23  1  0  0  0  0
 13 14  2  0  0  0  0
M  END
> <s_m_source_file>
AV-unprocessed.smi

> <i_m_source_file_index>
750

> <i_lp_mmshare_version>
43012

> <i_f3d_flags>
0

> <s_epik_input>
Tz1DMVtOSF1DKD1PKVtOSF1bQ0BAXTEoW0NIM10pYzJbY0hdW2NIXVtjSF1uW2NIXTI=

> <s_epik_cmdline>
J2VwaWtfcHl0aG9uJywgJy1waCcsICc3LjAnLCAnLXRuJywgJzgnLCAnLW1hJywgJzIwMCcsICctbWV0YWxfYmluZGluZycsICctaW1hZScsICc8aW5maWxlLm1hZT4nLCAnLW9tYWUnLCAnPG91dGZpbGUubWFlPic=

> <r_lp_tautomer_probability>
1

> <r_epik_Ionization_Penalty>
0.0296909

> <r_epik_Ionization_Penalty_Charging>
0

> <r_epik_Ionization_Penalty_Neutral>
0.0296909

> <r_epik_State_Penalty>
0.022996

> <r_epik_Charging_Adjusted_Penalty>
0.022996

> <i_epik_Tot_Q>
0

> <i_epik_Tot_abs_Q>
0

> <r_epik_Metal_State_Penalty>
0.427807

> <b_epik_Metal_Only>
0

> <s_lp_Force_Field>
OPLS_2005

> <r_lp_Energy>
18.5111

> <b_lp_Chiralities_Consistent>
1

> <s_lp_Variant>
AV-unprocessed.smi:750-1

> <Gold.Version>
5.8.1

> <Gold.Id.Protein>
6NUR|6NUR_protein|mol2

> <Gold.PLP.Fitness>
31.2422

> <Gold.PLP.PLP>
-23.8404

> <Gold.PLP.part.hbond>
-2.0000

> <Gold.PLP.part.metal>
0.0000

> <Gold.PLP.part.buried>
-3.5174

> <Gold.PLP.part.nonpolar>
-18.6618

> <Gold.PLP.part.repulsive>
0.2068

> <Gold.PLP.ligand.clash>
0.0000

> <Gold.PLP.ligand.torsion>
0.0602

> <Gold.PLP.Chemscore.Hbond>
1.4680

> <Gold.PLP.Chemscore.CHOScore>
1.0000

> <Gold.PLP.Chemscore.Metal>
0.0000

> <Gold.Chemscore.Hbonds>
donor molecule, donor type, donor heavy atom, donor atom, acceptor molecule, acceptor atom, score
      P1  H  7989  7998       L1    14  0.26
      P1  H  7997  8008       L1    14  0.76
      L1  C     8    21       P1  8028  1.00

> <Gold.PLP.Chemscore.Internal.Correction>
0.1182

> <Gold.Rescore>
     Score         DG    S(hbond)    S(metal)    S(lipo)     H(rot)  DE(clash)    DE(int)     intcor
     14.15     -14.35       1.24        0.00      62.23       1.00       0.13       0.06       ----

> <Gold.Chemscore.Fitness>
14.1517

> <Gold.Chemscore.DG>
-14.3477

> <Gold.Chemscore.ZeroCoef>
-5.4800

> <Gold.Chemscore.Hbond>
1.2416

> <Gold.Chemscore.Metal>
0.0000

> <Gold.Chemscore.Lipo>
62.2286

> <Gold.Chemscore.Internal_Hbond>
0.0000

> <Gold.Chemscore.DEClash>
0.1334

> <Gold.Chemscore.DEInternal>
0.0626

> <Gold.Chemscore.Rot>
1.0000

> <Gold.Chemscore.Internal.Correction>
   9.000000E+99

> <Gold.Chemscore.Hbonds>
donor molecule, donor type, donor heavy atom, donor atom, acceptor molecule, acceptor atom, score
      P1  H  7989  7998       L1    14  0.21
      P1  H  7997  8008       L1    14  0.74

> <Gold.Chemscore.Hbond.Weighted>
-4.1470

> <Gold.Chemscore.Metal.Weighted>
-0.0000

> <Gold.Chemscore.Lipo.Weighted>
-7.2807

> <Gold.Chemscore.Internal_Hbond.Weighted>
0.0000

> <Gold.Chemscore.DEClash.Weighted>
0.1334

> <Gold.Chemscore.DEInternal.Weighted>
0.0626

> <Gold.Chemscore.Rot.Weighted>
2.5600

> <Gold.Chemscore.Internal.Correction.Weighted>
   9.000000E+99

> <Gold.Protein.RotatedTorsions>
[ 6907 6896 6895 6894 ] final   56.25 input  -60.11 | X-H torsion
[ 7974 7965 7964 7962 ] final    5.64 input  175.53 | X-H torsion
[ 8008 7997 7996 7995 ] final  -15.91 input   59.86 | X-H torsion
[ 10167 10162 10161 10158 ] final  -15.07 input  -65.29 | X-H torsion
[ 10718 10713 10712 10709 ] final -155.75 input   66.30 | X-H torsion
[ 10763 10752 10751 10750 ] final   -1.59 input  -60.55 | X-H torsion
[ 11005 11000 10999 10996 ] final   37.53 input  -57.11 | X-H torsion

> <Gold.Protein.ActiveResidues>
 VAL166  LYS551  ARG553  GLY616  TRP617  ASP618  TYR619  PRO620  LYS621  CYS622 
 ASP623  PHE694  ASN695  SER759  ASP760  ASP761  ALA762  ILE779  LEU786  VAL792 
 PHE793  MET794  SER795  GLU796  ALA797  LYS798  CYS799  TRP800  GLU811  SER814 

> <Gold.Protein.RotatedAtoms>
  152.3618  134.6862  160.0204 H   0  0  0  0  0  0  0  0  0  0  0  0  # atno 6907 bound_to 6896
  151.7183  133.3308  159.3316 H   0  0  0  0  0  0  0  0  0  0  0  0  # atno 6908 bound_to 6896
  150.7610  134.6405  159.6279 H   0  0  0  0  0  0  0  0  0  0  0  0  # atno 6909 bound_to 6896
  146.2439  140.0354  142.8386 H   0  0  0  0  0  0  0  0  0  0  0  0  # atno 7974 bound_to 7965
  154.5094  140.2184  155.9187 H   0  0  0  0  0  0  0  0  0  0  0  0  # atno 8008 bound_to 7997
  156.1533  140.3157  155.8651 H   0  0  0  0  0  0  0  0  0  0  0  0  # atno 8009 bound_to 7997
  155.3895  140.0477  157.3032 H   0  0  0  0  0  0  0  0  0  0  0  0  # atno 8010 bound_to 7997
  140.7212  143.5256  150.9581 H   0  0  0  0  0  0  0  0  0  0  0  0  # atno 10167 bound_to 10162
  156.5171  130.8461  151.2668 H   0  0  0  0  0  0  0  0  0  0  0  0  # atno 10718 bound_to 10713
  153.3468  135.6983  153.6821 H   0  0  0  0  0  0  0  0  0  0  0  0  # atno 10763 bound_to 10752
  153.5564  135.3543  155.2781 H   0  0  0  0  0  0  0  0  0  0  0  0  # atno 10764 bound_to 10752
  154.8646  135.4239  154.2694 H   0  0  0  0  0  0  0  0  0  0  0  0  # atno 10765 bound_to 10752
  140.2216  134.3634  155.8002 H   0  0  0  0  0  0  0  0  0  0  0  0  # atno 11005 bound_to 11000
  145.1117  140.9409  143.4652 LP  0  0  0  0  0  0  0  0  0  0  0  0  # atno 17320 bound_to 7965
  145.0569  139.3136  143.5900 LP  0  0  0  0  0  0  0  0  0  0  0  0  # atno 17321 bound_to 7965
  139.8974  143.6878  152.3136 LP  0  0  0  0  0  0  0  0  0  0  0  0  # atno 17342 bound_to 10162
  139.7215  144.7601  151.0947 LP  0  0  0  0  0  0  0  0  0  0  0  0  # atno 17343 bound_to 10162
  157.7442  130.9930  150.2656 LP  0  0  0  0  0  0  0  0  0  0  0  0  # atno 17370 bound_to 10713
  156.3185  130.3782  149.7597 LP  0  0  0  0  0  0  0  0  0  0  0  0  # atno 17371 bound_to 10713
  141.2222  133.7197  156.8585 LP  0  0  0  0  0  0  0  0  0  0  0  0  # atno 17394 bound_to 11000
  140.1843  134.9011  157.2986 LP  0  0  0  0  0  0  0  0  0  0  0  0  # atno 17395 bound_to 11000

$$$$
