#       Name:                AV-unprocessed.smi:992
#       Creating user name   scv26
#       Creation time:       Fri Mar 27 02:23:41 2020


#       File generated by GOLD software.
#

@<TRIPOS>MOLECULE
AV-unprocessed.smi:992
    36    37     1
SMALL
NO_CHARGES


@<TRIPOS>ATOM
      1 ****        -2.9738  -1.8194  -0.1478 C.3            1 S1                 0.0000
      2 ****        -2.3892  -0.9420   0.9734 C.3            1 S1                 0.0000
      3 ****        -0.8479  -0.9458   1.0212 C.3            1 S1                 0.0000
      4 ****        -0.2951  -0.1441  -0.0626 N.3            1 S1                 0.0000
      5 ****         1.1031  -0.2018  -0.1295 C.ar           1 S1                 0.0000
      6 ****         1.9554   0.3538   0.8538 C.ar           1 S1                 0.0000
      7 ****         3.3531   0.2469   0.6974 C.ar           1 S1                 0.0000
      8 ****         3.8728  -0.4126  -0.4363 C.ar           1 S1                 0.0000
      9 ****         5.2494  -0.5308  -0.6176 N.pl3          1 S1                 0.0000
     10 ****         2.9786  -0.9504  -1.3845 C.ar           1 S1                 0.0000
     11 ****         1.6463  -0.8271  -1.1977 N.pl3          1 S1                 1.0000
     12 ****        -0.8197   1.2140  -0.0718 C.3            1 S1                 0.0000
     13 ****        -2.3557   1.1832  -0.1616 C.3            1 S1                 0.0000
     14 ****        -2.9633   2.5866  -0.0676 C.3            1 S1                 0.0000
     15 ****        -2.8756   0.4018   0.9145 O.3            1 S1                 0.0000
     16 ****        -2.6887  -2.8627  -0.0101 H              1 S1                 0.0000
     17 ****        -2.6270  -1.5174  -1.1356 H              1 S1                 0.0000
     18 ****        -4.0631  -1.7739  -0.1474 H              1 S1                 0.0000
     19 ****        -2.7505  -1.3550   1.9156 H              1 S1                 0.0000
     20 ****        -0.5149  -0.5347   1.9753 H              1 S1                 0.0000
     21 ****        -0.4687  -1.9672   0.9652 H              1 S1                 0.0000
     22 ****         1.5485   0.8562   1.7191 H              1 S1                 0.0000
     23 ****         4.0149   0.6675   1.4405 H              1 S1                 0.0000
     24 ****         5.9054  -0.1515   0.0507 H              1 S1                 0.0000
     25 ****         5.6391  -1.0379  -1.3996 H              1 S1                 0.0000
     26 ****         3.2829  -1.4715  -2.2809 H              1 S1                 0.0000
     27 ****        -0.5106   1.7351   0.8352 H              1 S1                 0.0000
     28 ****        -0.4049   1.7637  -0.9179 H              1 S1                 0.0000
     29 ****        -2.6590   0.7470  -1.1137 H              1 S1                 0.0000
     30 ****        -2.6026   3.2252  -0.8744 H              1 S1                 0.0000
     31 ****        -2.7086   3.0654   0.8783 H              1 S1                 0.0000
     32 ****        -4.0507   2.5456  -0.1376 H              1 S1                 0.0000
     33 ****         1.0199  -1.2237  -1.8987 H              1 S1                 0.0000
     34 ****        -0.6133  -0.5646  -0.9123 LP             1 S1                 0.0000
     35 ****        -2.6364   0.8566   1.7724 LP             1 S1                 0.0000
     36 ****        -3.8707   0.3681   0.8213 LP             1 S1                 0.0000
@<TRIPOS>BOND
    1    1    2 1     
    2    1   16 1     
    3    1   17 1     
    4    1   18 1     
    5    2   15 1     
    6    2    3 1     
    7    2   19 1     
    8    3    4 1     
    9    3   20 1     
   10    3   21 1     
   11    4    5 1     
   12    4   12 1     
   13    5   11 ar    
   14    5    6 ar    
   15    6    7 ar    
   16    6   22 1     
   17    7    8 ar    
   18    7   23 1     
   19    8    9 1     
   20    8   10 ar    
   21    9   24 1     
   22    9   25 1     
   23   10   11 ar    
   24   10   26 1     
   25   11   33 1     
   26   12   13 1     
   27   12   27 1     
   28   12   28 1     
   29   13   14 1     
   30   13   15 1     
   31   13   29 1     
   32   14   30 1     
   33   14   31 1     
   34   14   32 1     
   35    4   34 1     
   36   15   35 1     
   37   15   36 1     
@<TRIPOS>SUBSTRUCTURE
      1 S1             1
@<TRIPOS>SET
LONE_PAIRS      STATIC     ATOMS    <user>   **** ""
3 34 35 36
DONOR_HYDROGENS      STATIC     ATOMS    <user>   **** ""
3 24 25 33
ATOM$BLUE        STATIC     ATOMS    COLORGROUP SYSTEM
3 34 35 36
ATOM$RED        STATIC     ATOMS    COLORGROUP SYSTEM
3 24 25 33
