AV-unprocessed.smi:732|AV-procd|sdf|3528|dock3
  -GOLD-   22720 0523D 1   1.00000     0.00000
 Structure written by MMmdl.
 34 36  0  0  0  0  0  0  0  0  1 V2000
  154.1379  141.7963  160.5355 C   0  0  0  0  0  0  0  0  0  0  0  0
  153.2378  142.3857  159.5043 C   0  0  0  0  0  0  0  0  0  0  0  0
  152.3679  141.8357  158.6053 C   0  0  0  0  0  0  0  0  0  0  0  0
  151.8403  142.9715  157.9353 C   0  0  0  0  0  0  0  0  0  0  0  0
  150.8758  142.8256  156.9062 N   0  0  0  0  0  0  0  0  0  0  0  0
  150.4868  141.6901  156.3015 C   0  0  0  0  0  0  0  0  0  0  0  0
  150.9088  140.5643  156.5676 O   0  0  0  0  0  0  0  0  0  0  0  0
  149.5666  141.9365  155.3596 N   0  0  0  0  0  0  0  0  0  0  0  0
  148.9338  140.9550  154.5355 C   0  0  2  0  0  0  0  0  0  0  0  0
  147.5456  141.2340  153.9862 C   0  0  2  0  0  0  0  0  0  0  0  0
  146.7012  142.4431  154.3598 C   0  0  0  0  0  0  0  0  0  0  0  0
  145.3921  142.0097  155.0485 C   0  0  0  0  0  0  0  0  0  0  0  0
  145.5809  140.9595  156.1737 C   0  0  0  0  0  0  0  0  0  0  0  0
  147.0426  140.5243  156.3972 C   0  0  0  0  0  0  0  0  0  0  0  0
  147.7271  140.2070  155.0759 C   0  0  2  0  0  0  0  0  0  0  0  0
  152.3433  144.1115  158.3838 N   0  0  0  0  0  0  0  0  0  0  0  0
  153.2413  143.7417  159.3920 O   0  0  0  0  0  0  0  0  0  0  0  0
  154.1888  140.7121  160.4346 H   0  0  0  0  0  0  0  0  0  0  0  0
  153.7781  142.0263  161.5386 H   0  0  0  0  0  0  0  0  0  0  0  0
  155.1490  142.1923  160.4390 H   0  0  0  0  0  0  0  0  0  0  0  0
  152.1465  140.7896  158.4544 H   0  0  0  0  0  0  0  0  0  0  0  0
  150.4375  143.6790  156.5933 H   0  0  0  0  0  0  0  0  0  0  0  0
  149.2847  142.8947  155.2129 H   0  0  0  0  0  0  0  0  0  0  0  0
  149.5861  140.3741  153.8851 H   0  0  0  0  0  0  0  0  0  0  0  0
  147.3176  140.8269  153.0030 H   0  0  0  0  0  0  0  0  0  0  0  0
  147.2593  143.0971  155.0293 H   0  0  0  0  0  0  0  0  0  0  0  0
  146.4911  143.0278  153.4638 H   0  0  0  0  0  0  0  0  0  0  0  0
  144.8816  142.8886  155.4434 H   0  0  0  0  0  0  0  0  0  0  0  0
  144.7222  141.5941  154.2946 H   0  0  0  0  0  0  0  0  0  0  0  0
  145.1699  141.3412  157.1087 H   0  0  0  0  0  0  0  0  0  0  0  0
  144.9873  140.0777  155.9290 H   0  0  0  0  0  0  0  0  0  0  0  0
  147.5777  141.3208  156.9136 H   0  0  0  0  0  0  0  0  0  0  0  0
  147.0908  139.6507  157.0479 H   0  0  0  0  0  0  0  0  0  0  0  0
  147.6080  139.1731  154.7573 H   0  0  0  0  0  0  0  0  0  0  0  0
  1  2  1  0  0  0  0
  1 18  1  0  0  0  0
  1 19  1  0  0  0  0
  1 20  1  0  0  0  0
  2 17  1  0  0  0  0
  2  3  2  0  0  0  0
  3  4  1  0  0  0  0
  3 21  1  0  0  0  0
  4  5  1  0  0  0  0
  4 16  2  0  0  0  0
  5  6  1  0  0  0  0
  5 22  1  0  0  0  0
  6  7  2  0  0  0  0
  6  8  1  0  0  0  0
  8  9  1  0  0  0  0
  8 23  1  0  0  0  0
  9 15  1  0  0  0  0
  9 10  1  0  0  0  0
  9 24  1  0  0  0  0
 10 15  1  0  0  0  0
 10 11  1  0  0  0  0
 10 25  1  0  0  0  0
 11 12  1  0  0  0  0
 11 26  1  0  0  0  0
 11 27  1  0  0  0  0
 12 13  1  0  0  0  0
 12 28  1  0  0  0  0
 12 29  1  0  0  0  0
 13 14  1  0  0  0  0
 13 30  1  0  0  0  0
 13 31  1  0  0  0  0
 14 15  1  0  0  0  0
 14 32  1  0  0  0  0
 14 33  1  0  0  0  0
 15 34  1  0  0  0  0
 16 17  1  0  0  0  0
M  END
> <s_m_source_file>
AV-unprocessed.smi

> <i_m_source_file_index>
732

> <i_lp_mmshare_version>
43012

> <i_f3d_flags>
0

> <s_epik_input>
W0NIM11jMVtjSF1jKG5vMSlbTkhdQyg9TylbTkhdW0NASF0yW0NAQEhdKFtDQEBIXTIzKVtDSDJdW0NIMl1bQ0gyXVtDSDJdMw==

> <s_epik_cmdline>
J2VwaWtfcHl0aG9uJywgJy1waCcsICc3LjAnLCAnLXRuJywgJzgnLCAnLW1hJywgJzIwMCcsICctbWV0YWxfYmluZGluZycsICctaW1hZScsICc8aW5maWxlLm1hZT4nLCAnLW9tYWUnLCAnPG91dGZpbGUubWFlPic=

> <r_lp_tautomer_probability>
1

> <r_epik_Ionization_Penalty>
2.39506e-05

> <r_epik_Ionization_Penalty_Charging>
0

> <r_epik_Ionization_Penalty_Neutral>
2.39506e-05

> <r_epik_State_Penalty>
-0

> <r_epik_Charging_Adjusted_Penalty>
0

> <i_epik_Tot_Q>
0

> <i_epik_Tot_abs_Q>
0

> <r_epik_Metal_State_Penalty>
-0

> <b_epik_Metal_Only>
0

> <s_lp_Force_Field>
OPLS_2005

> <r_lp_Energy>
36.3442

> <b_lp_Chiralities_Consistent>
1

> <s_lp_Variant>
AV-unprocessed.smi:732-2

> <Gold.Version>
5.8.1

> <Gold.Id.Protein>
6NUR|6NUR_protein|mol2

> <Gold.PLP.Fitness>
38.5137

> <Gold.PLP.PLP>
-33.2916

> <Gold.PLP.part.hbond>
-2.0000

> <Gold.PLP.part.metal>
0.0000

> <Gold.PLP.part.buried>
-7.6020

> <Gold.PLP.part.nonpolar>
-25.5531

> <Gold.PLP.part.repulsive>
0.2844

> <Gold.PLP.ligand.clash>
0.0000

> <Gold.PLP.ligand.torsion>
0.3746

> <Gold.PLP.Chemscore.Hbond>
1.9760

> <Gold.PLP.Chemscore.CHOScore>
0.0000

> <Gold.PLP.Chemscore.Metal>
0.0000

> <Gold.Chemscore.Hbonds>
donor molecule, donor type, donor heavy atom, donor atom, acceptor molecule, acceptor atom, score
      L1  H     5    22       P1  8028  0.89
      L1  H     8    23       P1  8028  1.00

> <Gold.PLP.Chemscore.Internal.Correction>
0.0432

> <Gold.Rescore>
     Score         DG    S(hbond)    S(metal)    S(lipo)     H(rot)  DE(clash)    DE(int)     intcor
     15.39     -16.96       1.96        0.00      63.88       1.00       0.00       1.56       ----

> <Gold.Chemscore.Fitness>
15.3904

> <Gold.Chemscore.DG>
-16.9551

> <Gold.Chemscore.ZeroCoef>
-5.4800

> <Gold.Chemscore.Hbond>
1.9643

> <Gold.Chemscore.Metal>
0.0000

> <Gold.Chemscore.Lipo>
63.8834

> <Gold.Chemscore.Internal_Hbond>
0.0000

> <Gold.Chemscore.DEClash>
0.0000

> <Gold.Chemscore.DEInternal>
1.5647

> <Gold.Chemscore.Rot>
1.0000

> <Gold.Chemscore.Internal.Correction>
   9.000000E+99

> <Gold.Chemscore.Hbonds>
donor molecule, donor type, donor heavy atom, donor atom, acceptor molecule, acceptor atom, score
      L1  H     5    22       P1  8028  0.83
      L1  H     8    23       P1  8028  0.99

> <Gold.Chemscore.Hbond.Weighted>
-6.5607

> <Gold.Chemscore.Metal.Weighted>
-0.0000

> <Gold.Chemscore.Lipo.Weighted>
-7.4744

> <Gold.Chemscore.Internal_Hbond.Weighted>
0.0000

> <Gold.Chemscore.DEClash.Weighted>
0.0000

> <Gold.Chemscore.DEInternal.Weighted>
1.5647

> <Gold.Chemscore.Rot.Weighted>
2.5600

> <Gold.Chemscore.Internal.Correction.Weighted>
   9.000000E+99

> <Gold.Protein.RotatedTorsions>
[ 6907 6896 6895 6894 ] final  124.77 input  -60.11 | X-H torsion
[ 7974 7965 7964 7962 ] final   84.07 input  175.53 | X-H torsion
[ 8008 7997 7996 7995 ] final   93.54 input   59.86 | X-H torsion
[ 10167 10162 10161 10158 ] final  178.99 input  -65.29 | X-H torsion
[ 10718 10713 10712 10709 ] final   73.02 input   66.30 | X-H torsion
[ 10763 10752 10751 10750 ] final  139.53 input  -60.55 | X-H torsion
[ 11005 11000 10999 10996 ] final   35.31 input  -57.11 | X-H torsion

> <Gold.Protein.ActiveResidues>
 VAL166  LYS551  ARG553  GLY616  TRP617  ASP618  TYR619  PRO620  LYS621  CYS622 
 ASP623  PHE694  ASN695  SER759  ASP760  ASP761  ALA762  ILE779  LEU786  VAL792 
 PHE793  MET794  SER795  GLU796  ALA797  LYS798  CYS799  TRP800  GLU811  SER814 

> <Gold.Protein.RotatedAtoms>
  152.4050  133.6875  159.6348 H   0  0  0  0  0  0  0  0  0  0  0  0  # atno 6907 bound_to 6896
  150.7936  133.8725  159.3271 H   0  0  0  0  0  0  0  0  0  0  0  0  # atno 6908 bound_to 6896
  151.6482  135.1006  160.0206 H   0  0  0  0  0  0  0  0  0  0  0  0  # atno 6909 bound_to 6896
  145.6036  139.2356  143.2232 H   0  0  0  0  0  0  0  0  0  0  0  0  # atno 7974 bound_to 7965
  156.0479  140.3311  155.7317 H   0  0  0  0  0  0  0  0  0  0  0  0  # atno 8008 bound_to 7997
  155.5645  140.0622  157.2838 H   0  0  0  0  0  0  0  0  0  0  0  0  # atno 8009 bound_to 7997
  154.4422  140.1871  156.0805 H   0  0  0  0  0  0  0  0  0  0  0  0  # atno 8010 bound_to 7997
  139.5317  144.2614  152.0703 H   0  0  0  0  0  0  0  0  0  0  0  0  # atno 10167 bound_to 10162
  157.6528  130.9608  150.1011 H   0  0  0  0  0  0  0  0  0  0  0  0  # atno 10718 bound_to 10713
  153.9076  135.3015  155.3448 H   0  0  0  0  0  0  0  0  0  0  0  0  # atno 10763 bound_to 10752
  154.7639  135.4920  153.9520 H   0  0  0  0  0  0  0  0  0  0  0  0  # atno 10764 bound_to 10752
  153.1210  135.6782  153.9436 H   0  0  0  0  0  0  0  0  0  0  0  0  # atno 10765 bound_to 10752
  140.2440  134.3381  155.7915 H   0  0  0  0  0  0  0  0  0  0  0  0  # atno 11005 bound_to 11000
  146.1557  140.6861  142.9301 LP  0  0  0  0  0  0  0  0  0  0  0  0  # atno 17320 bound_to 7965
  144.7299  140.4640  143.6945 LP  0  0  0  0  0  0  0  0  0  0  0  0  # atno 17321 bound_to 7965
  140.2079  144.4592  150.6400 LP  0  0  0  0  0  0  0  0  0  0  0  0  # atno 17342 bound_to 10162
  140.6499  143.2222  151.6100 LP  0  0  0  0  0  0  0  0  0  0  0  0  # atno 17343 bound_to 10162
  156.1933  130.3656  149.8881 LP  0  0  0  0  0  0  0  0  0  0  0  0  # atno 17370 bound_to 10713
  156.6804  130.8856  151.3575 LP  0  0  0  0  0  0  0  0  0  0  0  0  # atno 17371 bound_to 10713
  141.2208  133.7315  156.8931 LP  0  0  0  0  0  0  0  0  0  0  0  0  # atno 17394 bound_to 11000
  140.1625  134.9156  157.2732 LP  0  0  0  0  0  0  0  0  0  0  0  0  # atno 17395 bound_to 11000

$$$$
