#       Name:                AV-unprocessed.smi:392
#       Creating user name   scv26
#       Creation time:       Thu Mar 26 22:42:18 2020


#       File generated by GOLD software.
#

@<TRIPOS>MOLECULE
AV-unprocessed.smi:392
    35    37     1
SMALL
NO_CHARGES


@<TRIPOS>ATOM
      1 ****        -1.1156   3.0981   0.3162 O.3            1 S1                 0.0000
      2 ****        -0.7220   1.7459   0.1952 C.3            1 S1                 0.0000
      3 ****         0.8169   1.6979   0.1308 C.3            1 S1                 0.0000
      4 ****         1.3254   0.3392   0.1808 N.pl3          1 S1                 0.0000
      5 ****         1.7648  -0.4041  -0.8532 C.2            1 S1                 0.0000
      6 ****         2.1814  -1.6380  -0.5832 N.2            1 S1                 0.0000
      7 ****         1.9933  -1.7025   0.7870 C.ar           1 S1                 0.0000
      8 ****         2.2428  -2.7529   1.6990 C.ar           1 S1                 0.0000
      9 ****         1.9685  -2.5866   3.0726 C.ar           1 S1                 0.0000
     10 ****         1.4412  -1.3708   3.5547 C.ar           1 S1                 0.0000
     11 ****         1.1834  -0.3102   2.6650 C.ar           1 S1                 0.0000
     12 ****         1.4597  -0.4801   1.2958 C.ar           1 S1                 0.0000
     13 ****        -1.3700   1.0595  -1.0023 C.ar           1 S1                 0.0000
     14 ****        -1.4304   1.7164  -2.2517 C.ar           1 S1                 0.0000
     15 ****        -2.0101   1.0785  -3.3649 C.ar           1 S1                 0.0000
     16 ****        -2.5319  -0.2225  -3.2382 C.ar           1 S1                 0.0000
     17 ****        -2.4718  -0.8851  -1.9975 C.ar           1 S1                 0.0000
     18 ****        -1.8921  -0.2491  -0.8823 C.ar           1 S1                 0.0000
     19 ****        -1.8327  -0.9068   0.3005 F              1 S1                 0.0000
     20 ****        -2.0483   3.1255   0.4667 H              1 S1                 0.0000
     21 ****        -1.0535   1.2551   1.1108 H              1 S1                 0.0000
     22 ****         1.1827   2.1804  -0.7769 H              1 S1                 0.0000
     23 ****         1.2473   2.2453   0.9707 H              1 S1                 0.0000
     24 ****         1.7718  -0.0197  -1.8628 H              1 S1                 0.0000
     25 ****         2.6464  -3.6883   1.3410 H              1 S1                 0.0000
     26 ****         2.1632  -3.3963   3.7603 H              1 S1                 0.0000
     27 ****         1.2345  -1.2529   4.6084 H              1 S1                 0.0000
     28 ****         0.7781   0.6219   3.0296 H              1 S1                 0.0000
     29 ****        -1.0271   2.7123  -2.3622 H              1 S1                 0.0000
     30 ****        -2.0522   1.5871  -4.3169 H              1 S1                 0.0000
     31 ****        -2.9755  -0.7126  -4.0922 H              1 S1                 0.0000
     32 ****        -2.8688  -1.8850  -1.9015 H              1 S1                 0.0000
     33 ****        -0.8948   3.5906  -0.5256 LP             1 S1                 0.0000
     34 ****        -0.6369   3.5215   1.0854 LP             1 S1                 0.0000
     35 ****         2.5367  -2.3353  -1.2057 LP             1 S1                 0.0000
@<TRIPOS>BOND
    1    1    2 1     
    2    1   20 1     
    3    2    3 1     
    4    2   13 1     
    5    2   21 1     
    6    3    4 1     
    7    3   22 1     
    8    3   23 1     
    9    4   12 1     
   10    4    5 1     
   11    5    6 2     
   12    5   24 1     
   13    6    7 1     
   14    7   12 ar    
   15    7    8 ar    
   16    8    9 ar    
   17    8   25 1     
   18    9   10 ar    
   19    9   26 1     
   20   10   11 ar    
   21   10   27 1     
   22   11   12 ar    
   23   11   28 1     
   24   13   18 ar    
   25   13   14 ar    
   26   14   15 ar    
   27   14   29 1     
   28   15   16 ar    
   29   15   30 1     
   30   16   17 ar    
   31   16   31 1     
   32   17   18 ar    
   33   17   32 1     
   34   18   19 1     
   35    1   33 1     
   36    1   34 1     
   37    6   35 1     
@<TRIPOS>SUBSTRUCTURE
      1 S1             1
@<TRIPOS>SET
LONE_PAIRS      STATIC     ATOMS    <user>   **** ""
3 33 34 35
DONOR_HYDROGENS      STATIC     ATOMS    <user>   **** ""
1 20
ATOM$BLUE        STATIC     ATOMS    COLORGROUP SYSTEM
3 33 34 35
ATOM$RED        STATIC     ATOMS    COLORGROUP SYSTEM
1 20
