#       Name:                AV-unprocessed.smi:102
#       Creating user name   scv26
#       Creation time:       Thu Mar 26 17:51:51 2020


#       File generated by GOLD software.
#

@<TRIPOS>MOLECULE
AV-unprocessed.smi:102
    56    57     1
SMALL
NO_CHARGES


@<TRIPOS>ATOM
      1 ****        -4.9472   3.0403   0.8055 C.3            1 S1                 0.0000
      2 ****        -4.4638   1.6836   0.3105 C.2            1 S1                 0.0000
      3 ****        -5.2043   0.9269  -0.3181 O.2            1 S1                 0.0000
      4 ****        -3.1873   1.4420   0.6437 O.3            1 S1                 0.0000
      5 ****        -2.5838   0.2179   0.2592 C.3            1 S1                 0.0000
      6 ****        -1.1121   0.2074   0.7004 C.3            1 S1                 0.0000
      7 ****        -0.3354   1.0711  -0.1279 O.3            1 S1                 0.0000
      8 ****         0.5797   0.3312  -0.8777 C.3            1 S1                 0.0000
      9 ****         1.7360   1.2239  -1.3066 N.am           1 S1                 0.0000
     10 ****         3.0492   0.7775  -1.2673 C.2            1 S1                 0.0000
     11 ****         4.0723   1.5520  -1.6814 C.2            1 S1                 0.0000
     12 ****         5.3310   1.0836  -1.6270 F              1 S1                 0.0000
     13 ****         3.8000   2.8866  -2.2072 C.2            1 S1                 0.0000
     14 ****         4.7390   3.6071  -2.5425 O.2            1 S1                 0.0000
     15 ****         2.4965   3.2723  -2.3136 N.pl3          1 S1                -1.0000
     16 ****         1.4565   2.4806  -1.9176 C.2            1 S1                 0.0000
     17 ****         0.2796   2.8034  -2.0785 O.2            1 S1                 0.0000
     18 ****         0.9451  -0.8327   0.0586 C.3            1 S1                 0.0000
     19 ****         1.8172  -0.4175   1.1078 O.3            1 S1                 0.0000
     20 ****         2.5525  -1.3208   1.7777 C.2            1 S1                 0.0000
     21 ****         3.4282  -0.6770   2.8439 C.3            1 S1                 0.0000
     22 ****         2.5559  -2.5372   1.5891 O.2            1 S1                 0.0000
     23 ****        -0.4215  -1.1673   0.6392 C.3            1 S1                 0.0000
     24 ****        -1.0991  -2.0769  -0.2239 O.3            1 S1                 0.0000
     25 ****        -0.9514  -3.4043  -0.0685 C.2            1 S1                 0.0000
     26 ****        -1.7575  -4.1995  -1.0866 C.3            1 S1                 0.0000
     27 ****        -0.2548  -3.9634   0.7783 O.2            1 S1                 0.0000
     28 ****        -4.2189   3.8151   0.5656 H              1 S1                 0.0000
     29 ****        -5.0881   3.0187   1.8862 H              1 S1                 0.0000
     30 ****        -5.8967   3.3024   0.3382 H              1 S1                 0.0000
     31 ****        -3.1209  -0.5996   0.7424 H              1 S1                 0.0000
     32 ****        -2.6611   0.0722  -0.8193 H              1 S1                 0.0000
     33 ****        -1.0363   0.5843   1.7213 H              1 S1                 0.0000
     34 ****         0.1224  -0.0059  -1.8097 H              1 S1                 0.0000
     35 ****         3.2804  -0.2172  -0.9206 H              1 S1                 0.0000
     36 ****         1.3817  -1.6486  -0.5200 H              1 S1                 0.0000
     37 ****         4.0988   0.0540   2.3915 H              1 S1                 0.0000
     38 ****         4.0308  -1.4302   3.3519 H              1 S1                 0.0000
     39 ****         2.8111  -0.1697   3.5856 H              1 S1                 0.0000
     40 ****        -0.3478  -1.5957   1.6403 H              1 S1                 0.0000
     41 ****        -2.7908  -3.8531  -1.1078 H              1 S1                 0.0000
     42 ****        -1.7535  -5.2601  -0.8345 H              1 S1                 0.0000
     43 ****        -1.3305  -4.0790  -2.0824 H              1 S1                 0.0000
     44 ****        -6.1466   1.1983  -0.5141 LP             1 S1                 0.0000
     45 ****        -4.8634   0.0410  -0.6325 LP             1 S1                 0.0000
     46 ****         0.1597   1.7222   0.4475 LP             1 S1                 0.0000
     47 ****        -0.9432   1.5685  -0.7469 LP             1 S1                 0.0000
     48 ****         5.6788   3.2772  -2.4538 LP             1 S1                 0.0000
     49 ****         4.5625   4.5228  -2.9037 LP             1 S1                 0.0000
     50 ****         2.2934   4.1730  -2.6978 LP             1 S1                 0.0000
     51 ****        -0.4522   2.1893  -1.7830 LP             1 S1                 0.0000
     52 ****         0.0553   3.6798  -2.5047 LP             1 S1                 0.0000
     53 ****         1.9723  -2.9350   0.8812 LP             1 S1                 0.0000
     54 ****         3.1422  -3.1275   2.1439 LP             1 S1                 0.0000
     55 ****         0.2686  -3.4190   1.4339 LP             1 S1                 0.0000
     56 ****        -0.2123  -4.9619   0.8108 LP             1 S1                 0.0000
@<TRIPOS>BOND
    1    1    2 1     
    2    1   28 1     
    3    1   29 1     
    4    1   30 1     
    5    2    3 2     
    6    2    4 1     
    7    4    5 1     
    8    5    6 1     
    9    5   31 1     
   10    5   32 1     
   11    6   23 1     
   12    6    7 1     
   13    6   33 1     
   14    7    8 1     
   15    8    9 1     
   16    8   18 1     
   17    8   34 1     
   18    9   16 am    
   19    9   10 1     
   20   10   11 2     
   21   10   35 1     
   22   11   12 1     
   23   11   13 1     
   24   13   14 2     
   25   13   15 1     
   26   15   16 1     
   27   16   17 2     
   28   18   19 1     
   29   18   23 1     
   30   18   36 1     
   31   19   20 1     
   32   20   21 1     
   33   20   22 2     
   34   21   37 1     
   35   21   38 1     
   36   21   39 1     
   37   23   24 1     
   38   23   40 1     
   39   24   25 1     
   40   25   26 1     
   41   25   27 2     
   42   26   41 1     
   43   26   42 1     
   44   26   43 1     
   45    3   44 1     
   46    3   45 1     
   47    7   46 1     
   48    7   47 1     
   49   14   48 1     
   50   14   49 1     
   51   15   50 1     
   52   17   51 1     
   53   17   52 1     
   54   22   53 1     
   55   22   54 1     
   56   27   55 1     
   57   27   56 1     
@<TRIPOS>SUBSTRUCTURE
      1 S1             1
@<TRIPOS>SET
LONE_PAIRS      STATIC     ATOMS    <user>   **** ""
13 44 45 46 47 48 49 50 51 52 53 54 55 56
ATOM$BLUE        STATIC     ATOMS    COLORGROUP SYSTEM
13 44 45 46 47 48 49 50 51 52 53 54 55 56
