AV-unprocessed.smi:445|AV-procd|sdf|2590|dock10
  -GOLD-   2262022583D 1   1.00000     0.00000
 Structure written by MMmdl.
 44 45  0  0  0  0  0  0  0  0  3 V2000
  151.8850  143.3880  157.7249 C   0  0  0  0  0  0  0  0  0  0  0  0
  152.5184  143.4696  159.1243 C   0  0  1  0  0  0  0  0  0  0  0  0
  151.4946  143.9291  160.1839 C   0  0  0  0  0  0  0  0  0  0  0  0
  152.1373  144.0613  161.5739 C   0  0  0  0  0  0  0  0  0  0  0  0
  152.8194  142.7538  162.0019 C   0  0  0  0  0  0  0  0  0  0  0  0
  153.8463  142.2961  160.9524 C   0  0  0  0  0  0  0  0  0  0  0  0
  153.2170  142.1531  159.5484 C   0  0  1  0  0  0  0  0  0  0  0  0
  152.2870  141.0240  159.4992 N   0  0  0  0  0  0  0  0  0  0  0  0
  152.5461  139.8192  158.9691 C   0  0  0  0  0  0  0  0  0  0  0  0
  153.6194  139.5335  158.4366 O   0  0  0  0  0  0  0  0  0  0  0  0
  151.4086  138.7919  159.0557 C   0  0  0  0  0  0  0  0  0  0  0  0
  151.0234  138.2440  157.7423 N   0  0  0  0  0  0  0  0  0  0  0  0
  150.9846  136.8417  157.6472 C   0  0  0  0  0  0  0  0  0  0  0  0
  150.6589  136.2081  156.5074 C   0  0  0  0  0  0  0  0  0  0  0  0
  150.6346  134.7629  156.4342 N   0  3  0  0  0  0  0  0  0  0  0  0
  150.7834  134.2254  155.3415 O   0  0  0  0  0  0  0  0  0  0  0  0
  150.4658  134.1170  157.4643 O   0  5  0  0  0  0  0  0  0  0  0  0
  150.3380  137.0185  155.3511 C   0  0  0  0  0  0  0  0  0  0  0  0
  150.3758  138.3740  155.4166 C   0  0  0  0  0  0  0  0  0  0  0  0
  150.0565  139.2401  154.2592 C   0  0  0  0  0  0  0  0  0  0  0  0
  149.7099  138.5737  153.1506 N   0  0  0  0  0  0  0  0  0  0  0  0
  150.0811  140.4702  154.2267 O   0  0  0  0  0  0  0  0  0  0  0  0
  150.7459  139.0660  156.6818 C   0  0  0  0  0  0  0  0  0  0  0  0
  150.8156  140.2900  156.8201 O   0  0  0  0  0  0  0  0  0  0  0  0
  151.0603  142.6758  157.6936 H   0  0  0  0  0  0  0  0  0  0  0  0
  152.6198  143.0813  156.9801 H   0  0  0  0  0  0  0  0  0  0  0  0
  151.4921  144.3577  157.4187 H   0  0  0  0  0  0  0  0  0  0  0  0
  153.2916  144.2378  159.0716 H   0  0  0  0  0  0  0  0  0  0  0  0
  151.0632  144.8874  159.8929 H   0  0  0  0  0  0  0  0  0  0  0  0
  150.6648  143.2228  160.2321 H   0  0  0  0  0  0  0  0  0  0  0  0
  152.8718  144.8675  161.5604 H   0  0  0  0  0  0  0  0  0  0  0  0
  151.3820  144.3441  162.3078 H   0  0  0  0  0  0  0  0  0  0  0  0
  153.3103  142.8897  162.9659 H   0  0  0  0  0  0  0  0  0  0  0  0
  152.0674  141.9772  162.1470 H   0  0  0  0  0  0  0  0  0  0  0  0
  154.6564  143.0250  160.9071 H   0  0  0  0  0  0  0  0  0  0  0  0
  154.3071  141.3592  161.2670 H   0  0  0  0  0  0  0  0  0  0  0  0
  154.0186  141.9558  158.8342 H   0  0  0  0  0  0  0  0  0  0  0  0
  151.3772  141.1718  159.9112 H   0  0  0  0  0  0  0  0  0  0  0  0
  151.7135  137.9787  159.7170 H   0  0  0  0  0  0  0  0  0  0  0  0
  150.5594  139.2554  159.5601 H   0  0  0  0  0  0  0  0  0  0  0  0
  151.2471  136.3251  158.5595 H   0  0  0  0  0  0  0  0  0  0  0  0
  150.0678  136.5109  154.4374 H   0  0  0  0  0  0  0  0  0  0  0  0
  149.4723  139.0779  152.3092 H   0  0  0  0  0  0  0  0  0  0  0  0
  149.6857  137.5642  153.1621 H   0  0  0  0  0  0  0  0  0  0  0  0
  1  2  1  0  0  0  0
  1 25  1  0  0  0  0
  1 26  1  0  0  0  0
  1 27  1  0  0  0  0
  2  7  1  0  0  0  0
  2  3  1  0  0  0  0
  2 28  1  0  0  0  0
  3  4  1  0  0  0  0
  3 29  1  0  0  0  0
  3 30  1  0  0  0  0
  4  5  1  0  0  0  0
  4 31  1  0  0  0  0
  4 32  1  0  0  0  0
  5  6  1  0  0  0  0
  5 33  1  0  0  0  0
  5 34  1  0  0  0  0
  6  7  1  0  0  0  0
  6 35  1  0  0  0  0
  6 36  1  0  0  0  0
  7  8  1  0  0  0  0
  7 37  1  0  0  0  0
  8  9  1  0  0  0  0
  8 38  1  0  0  0  0
  9 10  2  0  0  0  0
  9 11  1  0  0  0  0
 11 12  1  0  0  0  0
 11 39  1  0  0  0  0
 11 40  1  0  0  0  0
 12 23  1  0  0  0  0
 12 13  1  0  0  0  0
 13 14  2  0  0  0  0
 13 41  1  0  0  0  0
 14 15  1  0  0  0  0
 14 18  1  0  0  0  0
 15 16  2  0  0  0  0
 15 17  1  0  0  0  0
 18 19  2  0  0  0  0
 18 42  1  0  0  0  0
 19 20  1  0  0  0  0
 19 23  1  0  0  0  0
 20 21  1  0  0  0  0
 20 22  2  0  0  0  0
 21 43  1  0  0  0  0
 21 44  1  0  0  0  0
 23 24  2  0  0  0  0
M  CHG  1  15   1
M  CHG  1  17  -1
M  END
> <s_m_source_file>
AV-unprocessed.smi

> <i_m_source_file_index>
445

> <i_lp_mmshare_version>
43012

> <i_f3d_flags>
0

> <s_epik_input>
W0NIM11bQ0BASF0xW0NIMl1bQ0gyXVtDSDJdW0NIMl1bQ0BIXTFbTkhdQyg9TylbQ0gyXW4yW2NIXWMoW04rXSg9TylbTy1dKVtjSF1jKGMyPU8pQyg9TylbTkgyXQ==

> <s_epik_cmdline>
J2VwaWtfcHl0aG9uJywgJy1waCcsICc3LjAnLCAnLXRuJywgJzgnLCAnLW1hJywgJzIwMCcsICctbWV0YWxfYmluZGluZycsICctaW1hZScsICc8aW5maWxlLm1hZT4nLCAnLW9tYWUnLCAnPG91dGZpbGUubWFlPic=

> <r_lp_tautomer_probability>
1

> <r_epik_Ionization_Penalty>
2.81321e-06

> <r_epik_Ionization_Penalty_Charging>
2.43777e-12

> <r_epik_Ionization_Penalty_Neutral>
2.81321e-06

> <r_epik_State_Penalty>
-0

> <r_epik_Charging_Adjusted_Penalty>
2.43777e-12

> <i_epik_Tot_Q>
0

> <i_epik_Tot_abs_Q>
2

> <r_epik_Metal_State_Penalty>
-0

> <b_epik_Metal_Only>
0

> <s_lp_Force_Field>
OPLS_2005

> <r_lp_Energy>
28.4442

> <b_lp_Chiralities_Consistent>
1

> <s_lp_Variant>
AV-unprocessed.smi:445-2

> <Gold.Version>
5.8.1

> <Gold.Id.Protein>
6NUR|6NUR_protein|mol2

> <Gold.PLP.Fitness>
53.8241

> <Gold.PLP.PLP>
-42.3154

> <Gold.PLP.part.hbond>
-4.6905

> <Gold.PLP.part.metal>
0.0000

> <Gold.PLP.part.buried>
-7.0255

> <Gold.PLP.part.nonpolar>
-30.4137

> <Gold.PLP.part.repulsive>
0.4627

> <Gold.PLP.ligand.clash>
0.0000

> <Gold.PLP.ligand.torsion>
0.5590

> <Gold.PLP.Chemscore.Hbond>
4.2000

> <Gold.PLP.Chemscore.CHOScore>
0.0000

> <Gold.PLP.Chemscore.Metal>
0.0000

> <Gold.Chemscore.Hbonds>
donor molecule, donor type, donor heavy atom, donor atom, acceptor molecule, acceptor atom, score
      L1  H    21    43       P1  7957  0.89
      L1  H    21    44       P1  7948  0.64
      P1  H  6896  6908       L1    17  0.62
      P1  H  7989  7998       L1    22  0.83
      P1  H  7997  8008       L1    10  1.00

> <Gold.PLP.Chemscore.Internal.Correction>
0.0268

> <Gold.Rescore>
     Score         DG    S(hbond)    S(metal)    S(lipo)     H(rot)  DE(clash)    DE(int)     intcor
     20.74     -25.65       3.81        0.00     101.19       1.71       1.37       3.54       ----

> <Gold.Chemscore.Fitness>
20.7417

> <Gold.Chemscore.DG>
-25.6542

> <Gold.Chemscore.ZeroCoef>
-5.4800

> <Gold.Chemscore.Hbond>
3.8079

> <Gold.Chemscore.Metal>
0.0000

> <Gold.Chemscore.Lipo>
101.1919

> <Gold.Chemscore.Internal_Hbond>
0.0000

> <Gold.Chemscore.DEClash>
1.3722

> <Gold.Chemscore.DEInternal>
3.5403

> <Gold.Chemscore.Rot>
1.7123

> <Gold.Chemscore.Internal.Correction>
   9.000000E+99

> <Gold.Chemscore.Hbonds>
donor molecule, donor type, donor heavy atom, donor atom, acceptor molecule, acceptor atom, score
      L1  H    21    43       P1  7957  0.76
      L1  H    21    44       P1  7948  0.44
      P1  H  6896  6908       L1    17  0.62
      P1  H  7989  7998       L1    22  0.46
      P1  H  7997  8008       L1    10  1.00

> <Gold.Chemscore.Hbond.Weighted>
-12.7182

> <Gold.Chemscore.Metal.Weighted>
-0.0000

> <Gold.Chemscore.Lipo.Weighted>
-11.8394

> <Gold.Chemscore.Internal_Hbond.Weighted>
0.0000

> <Gold.Chemscore.DEClash.Weighted>
1.3722

> <Gold.Chemscore.DEInternal.Weighted>
3.5403

> <Gold.Chemscore.Rot.Weighted>
4.3835

> <Gold.Chemscore.Internal.Correction.Weighted>
   9.000000E+99

> <Gold.Protein.RotatedTorsions>
[ 6907 6896 6895 6894 ] final  140.60 input  -60.11 | X-H torsion
[ 7974 7965 7964 7962 ] final   89.48 input  175.53 | X-H torsion
[ 8008 7997 7996 7995 ] final  -91.77 input   59.86 | X-H torsion
[ 10167 10162 10161 10158 ] final  -19.34 input  -65.29 | X-H torsion
[ 10718 10713 10712 10709 ] final   90.04 input   66.30 | X-H torsion
[ 10763 10752 10751 10750 ] final   64.62 input  -60.55 | X-H torsion
[ 11005 11000 10999 10996 ] final   67.66 input  -57.11 | X-H torsion

> <Gold.Protein.ActiveResidues>
 VAL166  LYS551  ARG553  GLY616  TRP617  ASP618  TYR619  PRO620  LYS621  CYS622 
 ASP623  PHE694  ASN695  SER759  ASP760  ASP761  ALA762  ILE779  LEU786  VAL792 
 PHE793  MET794  SER795  GLU796  ALA797  LYS798  CYS799  TRP800  GLU811  SER814 

> <Gold.Protein.RotatedAtoms>
  152.2410  133.5135  159.5269 H   0  0  0  0  0  0  0  0  0  0  0  0  # atno 6907 bound_to 6896
  150.7064  134.1089  159.4002 H   0  0  0  0  0  0  0  0  0  0  0  0  # atno 6908 bound_to 6896
  151.9009  135.0378  160.0557 H   0  0  0  0  0  0  0  0  0  0  0  0  # atno 6909 bound_to 6896
  145.5318  139.2283  143.2614 H   0  0  0  0  0  0  0  0  0  0  0  0  # atno 7974 bound_to 7965
  154.7148  140.0516  157.0584 H   0  0  0  0  0  0  0  0  0  0  0  0  # atno 8008 bound_to 7997
  155.0506  140.3178  155.4674 H   0  0  0  0  0  0  0  0  0  0  0  0  # atno 8009 bound_to 7997
  156.2800  140.2116  156.5632 H   0  0  0  0  0  0  0  0  0  0  0  0  # atno 8010 bound_to 7997
  140.7267  143.4829  151.0094 H   0  0  0  0  0  0  0  0  0  0  0  0  # atno 10167 bound_to 10162
  157.6958  131.0356  150.3517 H   0  0  0  0  0  0  0  0  0  0  0  0  # atno 10718 bound_to 10713
  153.0063  135.5386  154.6539 H   0  0  0  0  0  0  0  0  0  0  0  0  # atno 10763 bound_to 10752
  154.5764  135.2846  155.0778 H   0  0  0  0  0  0  0  0  0  0  0  0  # atno 10764 bound_to 10752
  154.1924  135.6498  153.5116 H   0  0  0  0  0  0  0  0  0  0  0  0  # atno 10765 bound_to 10752
  139.9757  134.6826  156.0358 H   0  0  0  0  0  0  0  0  0  0  0  0  # atno 11005 bound_to 11000
  146.2039  140.6135  142.9090 LP  0  0  0  0  0  0  0  0  0  0  0  0  # atno 17320 bound_to 7965
  144.7622  140.5448  143.6728 LP  0  0  0  0  0  0  0  0  0  0  0  0  # atno 17321 bound_to 7965
  139.8528  143.7416  152.3177 LP  0  0  0  0  0  0  0  0  0  0  0  0  # atno 17342 bound_to 10162
  139.7604  144.7508  151.0373 LP  0  0  0  0  0  0  0  0  0  0  0  0  # atno 17343 bound_to 10162
  156.3965  130.3907  149.6991 LP  0  0  0  0  0  0  0  0  0  0  0  0  # atno 17370 bound_to 10713
  156.4323  130.7821  151.2841 LP  0  0  0  0  0  0  0  0  0  0  0  0  # atno 17371 bound_to 10713
  141.1434  133.6560  156.3797 LP  0  0  0  0  0  0  0  0  0  0  0  0  # atno 17394 bound_to 11000
  140.5199  134.6314  157.5314 LP  0  0  0  0  0  0  0  0  0  0  0  0  # atno 17395 bound_to 11000

$$$$
