AV-unprocessed.smi:759|AV-procd|sdf|3625|dock3
  -GOLD-   22720 1 13D 1   1.00000     0.00000
 Structure written by MMmdl.
 23 24  0  0  0  0  0  0  0  0  3 V2000
  152.6106  138.4507  154.5556 C   0  0  0  0  0  0  0  0  0  0  0  0
  151.8741  137.3329  154.6103 N   0  5  0  0  0  0  0  0  0  0  0  0
  150.6100  137.6863  154.7434 N   0  0  0  0  0  0  0  0  0  0  0  0
  150.6014  139.0325  154.7695 C   0  0  0  0  0  0  0  0  0  0  0  0
  149.3530  139.8788  154.9214 C   0  0  2  0  0  0  0  0  0  0  0  0
  148.3414  139.6316  153.7875 C   0  0  0  0  0  0  0  0  0  0  0  0
  147.1052  140.5261  153.9679 C   0  0  0  0  0  0  0  0  0  0  0  0
  147.5108  142.0034  154.1057 C   0  0  0  0  0  0  0  0  0  0  0  0
  148.4652  142.1828  155.2218 N   0  3  0  0  0  0  0  0  0  0  0  0
  149.6940  141.3741  155.0667 C   0  0  0  0  0  0  0  0  0  0  0  0
  151.8443  139.5266  154.6535 N   0  0  0  0  0  0  0  0  0  0  0  0
  153.6875  138.4076  154.4482 H   0  0  0  0  0  0  0  0  0  0  0  0
  148.8794  139.5615  155.8522 H   0  0  0  0  0  0  0  0  0  0  0  0
  148.8060  139.8451  152.8237 H   0  0  0  0  0  0  0  0  0  0  0  0
  148.0457  138.5820  153.7657 H   0  0  0  0  0  0  0  0  0  0  0  0
  146.4286  140.4015  153.1218 H   0  0  0  0  0  0  0  0  0  0  0  0
  146.5527  140.2126  154.8548 H   0  0  0  0  0  0  0  0  0  0  0  0
  147.9675  142.3599  153.1813 H   0  0  0  0  0  0  0  0  0  0  0  0
  146.6316  142.6220  154.2865 H   0  0  0  0  0  0  0  0  0  0  0  0
  148.7221  143.1576  155.2820 H   0  0  0  0  0  0  0  0  0  0  0  0
  150.3357  141.5356  155.9334 H   0  0  0  0  0  0  0  0  0  0  0  0
  150.2432  141.7278  154.1928 H   0  0  0  0  0  0  0  0  0  0  0  0
  148.0101  141.9110  156.0815 H   0  0  0  0  0  0  0  0  0  0  0  0
  1 11  2  0  0  0  0
  1 12  1  0  0  0  0
  1  2  1  0  0  0  0
  2  3  1  0  0  0  0
  3  4  2  0  0  0  0
  4 11  1  0  0  0  0
  4  5  1  0  0  0  0
  5 10  1  0  0  0  0
  5  6  1  0  0  0  0
  5 13  1  0  0  0  0
  6  7  1  0  0  0  0
  6 14  1  0  0  0  0
  6 15  1  0  0  0  0
  7  8  1  0  0  0  0
  7 16  1  0  0  0  0
  7 17  1  0  0  0  0
  8  9  1  0  0  0  0
  8 18  1  0  0  0  0
  8 19  1  0  0  0  0
  9 10  1  0  0  0  0
  9 20  1  0  0  0  0
  9 23  1  0  0  0  0
 10 21  1  0  0  0  0
 10 22  1  0  0  0  0
M  CHG  1   2  -1
M  CHG  1   9   1
M  END
> <s_m_source_file>
AV-unprocessed.smi

> <i_m_source_file_index>
759

> <i_lp_mmshare_version>
43012

> <i_f3d_flags>
0

> <s_epik_input>
W25IXTFbY0hdbm5jMVtDQEBIXTJbQ0gyXVtDSDJdW0NIMl1bTkhdW0NIMl0y

> <s_epik_cmdline>
J2VwaWtfcHl0aG9uJywgJy1waCcsICc3LjAnLCAnLXRuJywgJzgnLCAnLW1hJywgJzIwMCcsICctbWV0YWxfYmluZGluZycsICctaW1hZScsICc8aW5maWxlLm1hZT4nLCAnLW9tYWUnLCAnPG91dGZpbGUubWFlPic=

> <r_lp_tautomer_probability>
0.948284

> <r_epik_Ionization_Penalty>
7.12535

> <r_epik_Ionization_Penalty_Charging>
7.12535

> <r_epik_Ionization_Penalty_Neutral>
7.15677e-14

> <r_epik_State_Penalty>
3.13859

> <r_epik_Charging_Adjusted_Penalty>
10.2639

> <i_epik_Tot_Q>
0

> <i_epik_Tot_abs_Q>
2

> <r_epik_Metal_State_Penalty>
0.603007

> <b_epik_Metal_Only>
1

> <s_lp_Force_Field>
OPLS_2005

> <r_lp_Energy>
6.41651

> <b_lp_Chiralities_Consistent>
1

> <s_lp_Variant>
AV-unprocessed.smi:759-7

> <Gold.Version>
5.8.1

> <Gold.Id.Protein>
6NUR|6NUR_protein|mol2

> <Gold.PLP.Fitness>
36.8145

> <Gold.PLP.PLP>
-22.0826

> <Gold.PLP.part.hbond>
-3.0000

> <Gold.PLP.part.metal>
0.0000

> <Gold.PLP.part.buried>
-2.6083

> <Gold.PLP.part.nonpolar>
-17.3720

> <Gold.PLP.part.repulsive>
0.5106

> <Gold.PLP.ligand.clash>
0.0000

> <Gold.PLP.ligand.torsion>
0.0348

> <Gold.PLP.Chemscore.Hbond>
4.9200

> <Gold.PLP.Chemscore.CHOScore>
0.0000

> <Gold.PLP.Chemscore.Metal>
0.0000

> <Gold.Chemscore.Hbonds>
donor molecule, donor type, donor heavy atom, donor atom, acceptor molecule, acceptor atom, score
      L1  H     9    20       P1  8028  2.00
      P1  H  7989  7998       L1    11  1.00
      P1  H 10752 10763       L1     2  1.89

> <Gold.PLP.Chemscore.Internal.Correction>
0.0414

> <Gold.Rescore>
     Score         DG    S(hbond)    S(metal)    S(lipo)     H(rot)  DE(clash)    DE(int)     intcor
     15.16     -15.39       2.69        0.00      29.65       1.00       0.07       0.16       ----

> <Gold.Chemscore.Fitness>
15.1587

> <Gold.Chemscore.DG>
-15.3853

> <Gold.Chemscore.ZeroCoef>
-5.4800

> <Gold.Chemscore.Hbond>
2.6935

> <Gold.Chemscore.Metal>
0.0000

> <Gold.Chemscore.Lipo>
29.6488

> <Gold.Chemscore.Internal_Hbond>
0.0000

> <Gold.Chemscore.DEClash>
0.0659

> <Gold.Chemscore.DEInternal>
0.1608

> <Gold.Chemscore.Rot>
1.0000

> <Gold.Chemscore.Internal.Correction>
   9.000000E+99

> <Gold.Chemscore.Hbonds>
donor molecule, donor type, donor heavy atom, donor atom, acceptor molecule, acceptor atom, score
      L1  H     9    20       P1  8028  0.99
      P1  H  7989  7998       L1    11  0.42
      P1  H 10752 10763       L1     2  0.77

> <Gold.Chemscore.Hbond.Weighted>
-8.9964

> <Gold.Chemscore.Metal.Weighted>
-0.0000

> <Gold.Chemscore.Lipo.Weighted>
-3.4689

> <Gold.Chemscore.Internal_Hbond.Weighted>
0.0000

> <Gold.Chemscore.DEClash.Weighted>
0.0659

> <Gold.Chemscore.DEInternal.Weighted>
0.1608

> <Gold.Chemscore.Rot.Weighted>
2.5600

> <Gold.Chemscore.Internal.Correction.Weighted>
   9.000000E+99

> <Gold.Protein.RotatedTorsions>
[ 6907 6896 6895 6894 ] final -125.39 input  -60.11 | X-H torsion
[ 7974 7965 7964 7962 ] final   70.79 input  175.53 | X-H torsion
[ 8008 7997 7996 7995 ] final -125.16 input   59.86 | X-H torsion
[ 10167 10162 10161 10158 ] final  124.19 input  -65.29 | X-H torsion
[ 10718 10713 10712 10709 ] final   91.28 input   66.30 | X-H torsion
[ 10763 10752 10751 10750 ] final   51.11 input  -60.55 | X-H torsion
[ 11005 11000 10999 10996 ] final  -24.66 input  -57.11 | X-H torsion

> <Gold.Protein.ActiveResidues>
 VAL166  LYS551  ARG553  GLY616  TRP617  ASP618  TYR619  PRO620  LYS621  CYS622 
 ASP623  PHE694  ASN695  SER759  ASP760  ASP761  ALA762  ILE779  LEU786  VAL792 
 PHE793  MET794  SER795  GLU796  ALA797  LYS798  CYS799  TRP800  GLU811  SER814 

> <Gold.Protein.RotatedAtoms>
  150.8862  133.7304  159.2917 H   0  0  0  0  0  0  0  0  0  0  0  0  # atno 6907 bound_to 6896
  151.4869  135.1054  159.9802 H   0  0  0  0  0  0  0  0  0  0  0  0  # atno 6908 bound_to 6896
  152.4792  133.8165  159.7086 H   0  0  0  0  0  0  0  0  0  0  0  0  # atno 6909 bound_to 6896
  145.7738  139.2856  143.1305 H   0  0  0  0  0  0  0  0  0  0  0  0  # atno 7974 bound_to 7965
  155.2087  140.0418  157.2930 H   0  0  0  0  0  0  0  0  0  0  0  0  # atno 8008 bound_to 7997
  154.6026  140.2456  155.7744 H   0  0  0  0  0  0  0  0  0  0  0  0  # atno 8009 bound_to 7997
  156.2330  140.2931  156.0248 H   0  0  0  0  0  0  0  0  0  0  0  0  # atno 8010 bound_to 7997
  139.5756  144.6961  151.3663 H   0  0  0  0  0  0  0  0  0  0  0  0  # atno 10167 bound_to 10162
  157.6960  131.0401  150.3705 H   0  0  0  0  0  0  0  0  0  0  0  0  # atno 10718 bound_to 10713
  152.9785  135.5857  154.4361 H   0  0  0  0  0  0  0  0  0  0  0  0  # atno 10763 bound_to 10752
  154.3968  135.2768  155.2123 H   0  0  0  0  0  0  0  0  0  0  0  0  # atno 10764 bound_to 10752
  154.3971  135.6112  153.5930 H   0  0  0  0  0  0  0  0  0  0  0  0  # atno 10765 bound_to 10752
  140.8866  133.7617  156.0368 H   0  0  0  0  0  0  0  0  0  0  0  0  # atno 11005 bound_to 11000
  146.0143  140.8407  142.9955 LP  0  0  0  0  0  0  0  0  0  0  0  0  # atno 17320 bound_to 7965
  144.6808  140.2535  143.7328 LP  0  0  0  0  0  0  0  0  0  0  0  0  # atno 17321 bound_to 7965
  140.7038  143.7564  150.7448 LP  0  0  0  0  0  0  0  0  0  0  0  0  # atno 17342 bound_to 10162
  140.1083  143.4723  152.2385 LP  0  0  0  0  0  0  0  0  0  0  0  0  # atno 17343 bound_to 10162
  156.4130  130.3938  149.6878 LP  0  0  0  0  0  0  0  0  0  0  0  0  # atno 17370 bound_to 10713
  156.4155  130.7743  151.2758 LP  0  0  0  0  0  0  0  0  0  0  0  0  # atno 17371 bound_to 10713
  140.8397  134.3081  157.5318 LP  0  0  0  0  0  0  0  0  0  0  0  0  # atno 17394 bound_to 11000
  139.8725  134.9409  156.3783 LP  0  0  0  0  0  0  0  0  0  0  0  0  # atno 17395 bound_to 11000

$$$$
