#       Name:                AV-unprocessed.smi:1040
#       Creating user name   scv26
#       Creation time:       Fri Mar 27 02:54:33 2020


#       File generated by GOLD software.
#

@<TRIPOS>MOLECULE
AV-unprocessed.smi:1040
    60    61     1
SMALL
NO_CHARGES


@<TRIPOS>ATOM
      1 ****        -3.3956  -1.6179   1.5451 C.3            1 S1                 0.0000
      2 ****        -2.6218  -0.7965   0.5010 C.3            1 S1                 0.0000
      3 ****        -1.1815  -0.9784   0.6689 N.am           1 S1                 0.0000
      4 ****        -0.4520  -1.9748   0.1489 C.2            1 S1                 0.0000
      5 ****        -0.9271  -2.8966  -0.5143 O.2            1 S1                 0.0000
      6 ****         0.8516  -1.8163   0.4301 N.am           1 S1                 0.0000
      7 ****         1.9442  -2.6058  -0.0246 C.ar           1 S1                 0.0000
      8 ****         1.8337  -4.0001  -0.2565 C.ar           1 S1                 0.0000
      9 ****         2.9614  -4.7260  -0.6896 C.ar           1 S1                 0.0000
     10 ****         4.1820  -4.0502  -0.8757 C.ar           1 S1                 0.0000
     11 ****         4.2580  -2.7251  -0.6311 N.pl3          1 S1                 1.0000
     12 ****         3.2038  -1.9832  -0.2127 C.ar           1 S1                 0.0000
     13 ****         3.3941  -0.6106   0.0139 N.3            1 S1                 0.0000
     14 ****         4.2557  -0.3248   1.1579 C.3            1 S1                 0.0000
     15 ****         4.2311   1.1762   1.4952 C.3            1 S1                 0.0000
     16 ****         4.5884   2.0223   0.2622 C.3            1 S1                 0.0000
     17 ****         3.6733   1.6572  -0.9183 C.3            1 S1                 0.0000
     18 ****         3.7108   0.1443  -1.1957 C.3            1 S1                 0.0000
     19 ****        -2.9865   0.6923   0.5040 C.2            1 S1                 0.0000
     20 ****        -2.3445   1.4854   1.1940 O.2            1 S1                 0.0000
     21 ****        -4.0327   1.0448  -0.2646 N.am           1 S1                 0.0000
     22 ****        -4.6154   2.3779  -0.4593 C.3            1 S1                 0.0000
     23 ****        -5.7845   2.2146  -1.4465 C.3            1 S1                 0.0000
     24 ****        -3.5771   3.3444  -1.0678 C.3            1 S1                 0.0000
     25 ****        -5.1596   2.9334   0.8732 C.3            1 S1                 0.0000
     26 ****        -4.4725  -1.4937   1.4257 H              1 S1                 0.0000
     27 ****        -3.1371  -1.3134   2.5601 H              1 S1                 0.0000
     28 ****        -3.1783  -2.6824   1.4511 H              1 S1                 0.0000
     29 ****        -2.8941  -1.1775  -0.4856 H              1 S1                 0.0000
     30 ****        -0.7030  -0.2644   1.1989 H              1 S1                 0.0000
     31 ****         1.0998  -0.9670   0.9166 H              1 S1                 0.0000
     32 ****         0.9052  -4.5268  -0.0963 H              1 S1                 0.0000
     33 ****         2.8913  -5.7886  -0.8716 H              1 S1                 0.0000
     34 ****         5.0945  -4.5268  -1.2038 H              1 S1                 0.0000
     35 ****         3.9269  -0.9046   2.0216 H              1 S1                 0.0000
     36 ****         5.2761  -0.6375   0.9317 H              1 S1                 0.0000
     37 ****         3.2384   1.4537   1.8525 H              1 S1                 0.0000
     38 ****         4.9238   1.3883   2.3101 H              1 S1                 0.0000
     39 ****         4.4998   3.0840   0.4942 H              1 S1                 0.0000
     40 ****         5.6294   1.8485  -0.0131 H              1 S1                 0.0000
     41 ****         2.6497   1.9614  -0.6944 H              1 S1                 0.0000
     42 ****         3.9724   2.2088  -1.8101 H              1 S1                 0.0000
     43 ****         4.7005  -0.1413  -1.5547 H              1 S1                 0.0000
     44 ****         2.9988  -0.1060  -1.9834 H              1 S1                 0.0000
     45 ****        -4.4811   0.2996  -0.7780 H              1 S1                 0.0000
     46 ****        -6.2738   3.1692  -1.6435 H              1 S1                 0.0000
     47 ****        -6.5423   1.5330  -1.0574 H              1 S1                 0.0000
     48 ****        -5.4451   1.8174  -2.4041 H              1 S1                 0.0000
     49 ****        -3.1580   2.9465  -1.9927 H              1 S1                 0.0000
     50 ****        -2.7486   3.5394  -0.3870 H              1 S1                 0.0000
     51 ****        -4.0286   4.3091  -1.3018 H              1 S1                 0.0000
     52 ****        -5.6745   3.8823   0.7203 H              1 S1                 0.0000
     53 ****        -4.3658   3.1150   1.5977 H              1 S1                 0.0000
     54 ****        -5.8714   2.2445   1.3295 H              1 S1                 0.0000
     55 ****         5.1551  -2.2592  -0.7685 H              1 S1                 0.0000
     56 ****        -1.9107  -2.9299  -0.6914 LP             1 S1                 0.0000
     57 ****        -0.3294  -3.6121  -0.8760 LP             1 S1                 0.0000
     58 ****         2.4998  -0.2575   0.2886 LP             1 S1                 0.0000
     59 ****        -1.5832   1.1585   1.7540 LP             1 S1                 0.0000
     60 ****        -2.5845   2.4562   1.1941 LP             1 S1                 0.0000
@<TRIPOS>BOND
    1    1    2 1     
    2    1   26 1     
    3    1   27 1     
    4    1   28 1     
    5    2    3 1     
    6    2   19 1     
    7    2   29 1     
    8    3    4 am    
    9    3   30 1     
   10    4    5 2     
   11    4    6 am    
   12    6    7 1     
   13    6   31 1     
   14    7   12 ar    
   15    7    8 ar    
   16    8    9 ar    
   17    8   32 1     
   18    9   10 ar    
   19    9   33 1     
   20   10   11 ar    
   21   10   34 1     
   22   11   12 ar    
   23   11   55 1     
   24   12   13 1     
   25   13   18 1     
   26   13   14 1     
   27   14   15 1     
   28   14   35 1     
   29   14   36 1     
   30   15   16 1     
   31   15   37 1     
   32   15   38 1     
   33   16   17 1     
   34   16   39 1     
   35   16   40 1     
   36   17   18 1     
   37   17   41 1     
   38   17   42 1     
   39   18   43 1     
   40   18   44 1     
   41   19   20 2     
   42   19   21 am    
   43   21   22 1     
   44   21   45 1     
   45   22   23 1     
   46   22   24 1     
   47   22   25 1     
   48   23   46 1     
   49   23   47 1     
   50   23   48 1     
   51   24   49 1     
   52   24   50 1     
   53   24   51 1     
   54   25   52 1     
   55   25   53 1     
   56   25   54 1     
   57    5   56 1     
   58    5   57 1     
   59   13   58 1     
   60   20   59 1     
   61   20   60 1     
@<TRIPOS>SUBSTRUCTURE
      1 S1             1
@<TRIPOS>SET
LONE_PAIRS      STATIC     ATOMS    <user>   **** ""
5 56 57 58 59 60
DONOR_HYDROGENS      STATIC     ATOMS    <user>   **** ""
4 30 31 55 45
ATOM$BLUE        STATIC     ATOMS    COLORGROUP SYSTEM
5 56 57 58 59 60
ATOM$RED        STATIC     ATOMS    COLORGROUP SYSTEM
4 30 31 55 45
