AV-unprocessed.smi:2752|AV-procd|sdf|10607|dock8
  -GOLD-   2272015 63D 1   1.00000     0.00000
 Structure written by MMmdl.
 34 35  0  0  0  0  0  0  0  0  1 V2000
  145.8283  143.0532  153.7855 C   0  0  0  0  0  0  0  0  0  0  0  0
  146.9521  142.5074  154.4572 O   0  0  0  0  0  0  0  0  0  0  0  0
  147.8098  141.7423  153.6143 C   0  0  2  0  0  0  0  0  0  0  0  0
  147.0985  140.4403  153.2300 C   0  0  0  0  0  0  0  0  0  0  0  0
  147.3203  139.5259  154.4314 C   0  0  0  0  0  0  0  0  0  0  0  0
  148.7348  139.8553  154.9160 C   0  0  0  0  0  0  0  0  0  0  0  0
  149.0529  141.2749  154.4061 C   0  0  2  0  0  0  0  0  0  0  0  0
  149.3994  142.1693  155.5090 N   0  0  0  0  0  0  0  0  0  0  0  0
  150.1562  141.8274  156.5613 C   0  0  0  0  0  0  0  0  0  0  0  0
  150.6282  140.7010  156.7191 O   0  0  0  0  0  0  0  0  0  0  0  0
  150.3264  142.8675  157.3962 N   0  0  0  0  0  0  0  0  0  0  0  0
  151.0669  142.9090  158.6074 C   0  0  0  0  0  0  0  0  0  0  0  0
  152.0410  141.8943  158.7478 C   0  0  0  0  0  0  0  0  0  0  0  0
  152.8300  141.8473  159.9138 C   0  0  0  0  0  0  0  0  0  0  0  0
  152.6225  142.8183  160.9095 C   0  0  0  0  0  0  0  0  0  0  0  0
  153.3565  142.8139  162.0475 F   0  0  0  0  0  0  0  0  0  0  0  0
  151.6325  143.7944  160.6925 C   0  0  0  0  0  0  0  0  0  0  0  0
  150.8761  143.8406  159.5753 N   0  0  0  0  0  0  0  0  0  0  0  0
  145.2126  143.6045  154.4958 H   0  0  0  0  0  0  0  0  0  0  0  0
  145.2082  142.2779  153.3356 H   0  0  0  0  0  0  0  0  0  0  0  0
  146.1402  143.7478  153.0047 H   0  0  0  0  0  0  0  0  0  0  0  0
  148.1104  142.3229  152.7402 H   0  0  0  0  0  0  0  0  0  0  0  0
  146.0428  140.5710  152.9925 H   0  0  0  0  0  0  0  0  0  0  0  0
  147.5804  140.0083  152.3520 H   0  0  0  0  0  0  0  0  0  0  0  0
  146.5991  139.7700  155.2125 H   0  0  0  0  0  0  0  0  0  0  0  0
  147.1971  138.4712  154.1842 H   0  0  0  0  0  0  0  0  0  0  0  0
  148.8068  139.7650  156.0009 H   0  0  0  0  0  0  0  0  0  0  0  0
  149.4468  139.1478  154.4894 H   0  0  0  0  0  0  0  0  0  0  0  0
  149.9025  141.2024  153.7241 H   0  0  0  0  0  0  0  0  0  0  0  0
  149.0559  143.1166  155.4523 H   0  0  0  0  0  0  0  0  0  0  0  0
  149.8784  143.7319  157.1310 H   0  0  0  0  0  0  0  0  0  0  0  0
  152.1860  141.1566  157.9719 H   0  0  0  0  0  0  0  0  0  0  0  0
  153.5795  141.0802  160.0403 H   0  0  0  0  0  0  0  0  0  0  0  0
  151.4423  144.5570  161.4332 H   0  0  0  0  0  0  0  0  0  0  0  0
  1  2  1  0  0  0  0
  1 19  1  0  0  0  0
  1 20  1  0  0  0  0
  1 21  1  0  0  0  0
  2  3  1  0  0  0  0
  3  7  1  0  0  0  0
  3  4  1  0  0  0  0
  3 22  1  0  0  0  0
  4  5  1  0  0  0  0
  4 23  1  0  0  0  0
  4 24  1  0  0  0  0
  5  6  1  0  0  0  0
  5 25  1  0  0  0  0
  5 26  1  0  0  0  0
  6  7  1  0  0  0  0
  6 27  1  0  0  0  0
  6 28  1  0  0  0  0
  7  8  1  0  0  0  0
  7 29  1  0  0  0  0
  8  9  1  0  0  0  0
  8 30  1  0  0  0  0
  9 10  2  0  0  0  0
  9 11  1  0  0  0  0
 11 12  1  0  0  0  0
 11 31  1  0  0  0  0
 12 18  1  0  0  0  0
 12 13  2  0  0  0  0
 13 14  1  0  0  0  0
 13 32  1  0  0  0  0
 14 15  2  0  0  0  0
 14 33  1  0  0  0  0
 15 16  1  0  0  0  0
 15 17  1  0  0  0  0
 17 18  2  0  0  0  0
 17 34  1  0  0  0  0
M  END
> <s_m_source_file>
AV-unprocessed.smi

> <i_m_source_file_index>
2752

> <i_lp_mmshare_version>
43012

> <i_f3d_flags>
0

> <s_epik_input>
W0NIM11PW0NAQEhdMVtDSDJdW0NIMl1bQ0gyXVtDQEhdMVtOSF1DKD1PKVtOSF1jMltjSF1bY0hdYyhGKVtjSF1uMg==

> <s_epik_cmdline>
J2VwaWtfcHl0aG9uJywgJy1waCcsICc3LjAnLCAnLXRuJywgJzgnLCAnLW1hJywgJzIwMCcsICctbWV0YWxfYmluZGluZycsICctaW1hZScsICc8aW5maWxlLm1hZT4nLCAnLW9tYWUnLCAnPG91dGZpbGUubWFlPic=

> <r_lp_tautomer_probability>
1

> <r_epik_Ionization_Penalty>
3.49853e-05

> <r_epik_Ionization_Penalty_Charging>
0

> <r_epik_Ionization_Penalty_Neutral>
3.49853e-05

> <r_epik_State_Penalty>
-0

> <r_epik_Charging_Adjusted_Penalty>
0

> <i_epik_Tot_Q>
0

> <i_epik_Tot_abs_Q>
0

> <r_epik_Metal_State_Penalty>
-0

> <b_epik_Metal_Only>
0

> <s_lp_Force_Field>
OPLS_2005

> <r_lp_Energy>
23.7965

> <b_lp_Chiralities_Consistent>
1

> <s_lp_Variant>
AV-unprocessed.smi:2752-3

> <Gold.Version>
5.8.1

> <Gold.Id.Protein>
6NUR|6NUR_protein|mol2

> <Gold.PLP.Fitness>
41.7528

> <Gold.PLP.PLP>
-36.9662

> <Gold.PLP.part.hbond>
-2.0000

> <Gold.PLP.part.metal>
0.0000

> <Gold.PLP.part.buried>
-5.6216

> <Gold.PLP.part.nonpolar>
-28.8680

> <Gold.PLP.part.repulsive>
0.5236

> <Gold.PLP.ligand.clash>
0.2516

> <Gold.PLP.ligand.torsion>
0.4027

> <Gold.PLP.Chemscore.Hbond>
1.9440

> <Gold.PLP.Chemscore.CHOScore>
0.0000

> <Gold.PLP.Chemscore.Metal>
0.0000

> <Gold.Chemscore.Hbonds>
donor molecule, donor type, donor heavy atom, donor atom, acceptor molecule, acceptor atom, score
      L1  H     8    30       P1  8028  1.00
      L1  H    11    31       P1  8028  0.93

> <Gold.PLP.Chemscore.Internal.Correction>
0.0115

> <Gold.Rescore>
     Score         DG    S(hbond)    S(metal)    S(lipo)     H(rot)  DE(clash)    DE(int)     intcor
     14.48     -18.20       1.97        0.00      80.65       1.28       0.38       3.33       ----

> <Gold.Chemscore.Fitness>
14.4830

> <Gold.Chemscore.DG>
-18.1985

> <Gold.Chemscore.ZeroCoef>
-5.4800

> <Gold.Chemscore.Hbond>
1.9654

> <Gold.Chemscore.Metal>
0.0000

> <Gold.Chemscore.Lipo>
80.6507

> <Gold.Chemscore.Internal_Hbond>
0.0000

> <Gold.Chemscore.DEClash>
0.3835

> <Gold.Chemscore.DEInternal>
3.3320

> <Gold.Chemscore.Rot>
1.2821

> <Gold.Chemscore.Internal.Correction>
   9.000000E+99

> <Gold.Chemscore.Hbonds>
donor molecule, donor type, donor heavy atom, donor atom, acceptor molecule, acceptor atom, score
      L1  H     8    30       P1  8028  0.99
      L1  H    11    31       P1  8028  0.80

> <Gold.Chemscore.Hbond.Weighted>
-6.5645

> <Gold.Chemscore.Metal.Weighted>
-0.0000

> <Gold.Chemscore.Lipo.Weighted>
-9.4361

> <Gold.Chemscore.Internal_Hbond.Weighted>
0.0000

> <Gold.Chemscore.DEClash.Weighted>
0.3835

> <Gold.Chemscore.DEInternal.Weighted>
3.3320

> <Gold.Chemscore.Rot.Weighted>
3.2822

> <Gold.Chemscore.Internal.Correction.Weighted>
   9.000000E+99

> <Gold.Protein.RotatedTorsions>
[ 6907 6896 6895 6894 ] final   -1.56 input  -60.11 | X-H torsion
[ 7974 7965 7964 7962 ] final  117.27 input  175.53 | X-H torsion
[ 8008 7997 7996 7995 ] final   -2.89 input   59.86 | X-H torsion
[ 10167 10162 10161 10158 ] final  -18.23 input  -65.29 | X-H torsion
[ 10718 10713 10712 10709 ] final  126.96 input   66.30 | X-H torsion
[ 10763 10752 10751 10750 ] final   20.02 input  -60.55 | X-H torsion
[ 11005 11000 10999 10996 ] final -107.19 input  -57.11 | X-H torsion

> <Gold.Protein.ActiveResidues>
 VAL166  LYS551  ARG553  GLY616  TRP617  ASP618  TYR619  PRO620  LYS621  CYS622 
 ASP623  PHE694  ASN695  SER759  ASP760  ASP761  ALA762  ILE779  LEU786  VAL792 
 PHE793  MET794  SER795  GLU796  ALA797  LYS798  CYS799  TRP800  GLU811  SER814 

> <Gold.Protein.RotatedAtoms>
  151.5441  135.1068  159.9933 H   0  0  0  0  0  0  0  0  0  0  0  0  # atno 6907 bound_to 6896
  152.4522  133.7647  159.6776 H   0  0  0  0  0  0  0  0  0  0  0  0  # atno 6908 bound_to 6896
  150.8453  133.7804  159.3070 H   0  0  0  0  0  0  0  0  0  0  0  0  # atno 6909 bound_to 6896
  145.1694  139.3110  143.4475 H   0  0  0  0  0  0  0  0  0  0  0  0  # atno 7974 bound_to 7965
  154.6309  140.2523  155.7435 H   0  0  0  0  0  0  0  0  0  0  0  0  # atno 8008 bound_to 7997
  156.2478  140.2907  156.0580 H   0  0  0  0  0  0  0  0  0  0  0  0  # atno 8009 bound_to 7997
  155.1747  140.0387  157.2860 H   0  0  0  0  0  0  0  0  0  0  0  0  # atno 8010 bound_to 7997
  140.7256  143.4936  150.9959 H   0  0  0  0  0  0  0  0  0  0  0  0  # atno 10167 bound_to 10162
  157.5374  131.1097  150.8914 H   0  0  0  0  0  0  0  0  0  0  0  0  # atno 10718 bound_to 10713
  153.1112  135.6697  153.9496 H   0  0  0  0  0  0  0  0  0  0  0  0  # atno 10763 bound_to 10752
  153.9039  135.3033  155.3450 H   0  0  0  0  0  0  0  0  0  0  0  0  # atno 10764 bound_to 10752
  154.7532  135.5024  153.9404 H   0  0  0  0  0  0  0  0  0  0  0  0  # atno 10765 bound_to 10752
  141.0967  133.8959  157.1946 H   0  0  0  0  0  0  0  0  0  0  0  0  # atno 11005 bound_to 11000
  146.3471  140.1834  142.8589 LP  0  0  0  0  0  0  0  0  0  0  0  0  # atno 17320 bound_to 7965
  145.0248  140.8823  143.5145 LP  0  0  0  0  0  0  0  0  0  0  0  0  # atno 17321 bound_to 7965
  139.8642  143.7275  152.3171 LP  0  0  0  0  0  0  0  0  0  0  0  0  # atno 17342 bound_to 10162
  139.7501  144.7536  151.0519 LP  0  0  0  0  0  0  0  0  0  0  0  0  # atno 17343 bound_to 10162
  156.9477  130.5408  149.5281 LP  0  0  0  0  0  0  0  0  0  0  0  0  # atno 17370 bound_to 10713
  156.0469  130.5544  150.8902 LP  0  0  0  0  0  0  0  0  0  0  0  0  # atno 17371 bound_to 10713
  139.9805  135.0100  156.9738 LP  0  0  0  0  0  0  0  0  0  0  0  0  # atno 17394 bound_to 11000
  140.5124  134.0989  155.7273 LP  0  0  0  0  0  0  0  0  0  0  0  0  # atno 17395 bound_to 11000

$$$$
