#       Name:                AV-unprocessed.smi:132
#       Creating user name   scv26
#       Creation time:       Thu Mar 26 18:30:37 2020


#       File generated by GOLD software.
#

@<TRIPOS>MOLECULE
AV-unprocessed.smi:132
    51    54     1
SMALL
NO_CHARGES


@<TRIPOS>ATOM
      1 ****         0.7324   3.5067   1.6113 O.2            1 S1                 0.0000
      2 ****         0.1619   2.4192   1.7126 C.2            1 S1                 0.0000
      3 ****        -1.2849   2.2792   1.8368 C.2            1 S1                 0.0000
      4 ****        -2.0583   3.3774   1.8745 F              1 S1                 0.0000
      5 ****        -1.8627   1.0612   1.9172 C.2            1 S1                 0.0000
      6 ****        -1.1431  -0.1205   1.8838 N.am           1 S1                 0.0000
      7 ****        -1.8452  -1.4552   1.9736 C.3            1 S1                 0.0000
      8 ****        -2.1750  -1.7990   3.4308 C.3            1 S1                 0.0000
      9 ****        -3.5614  -2.3917   3.3003 C.3            1 S1                 0.0000
     10 ****        -4.1428  -1.5657   2.1599 C.3            1 S1                 0.0000
     11 ****        -3.0496  -1.3893   1.2643 O.3            1 S1                 0.0000
     12 ****         0.2651  -0.0822   1.7847 C.2            1 S1                 0.0000
     13 ****         0.9280  -1.1216   1.7622 O.2            1 S1                 0.0000
     14 ****         0.8734   1.1942   1.7089 N.am           1 S1                 0.0000
     15 ****         2.3202   1.2609   1.5702 C.3            1 S1                 0.0000
     16 ****         2.7253   1.3974   0.1333 C.2            1 S1                 0.0000
     17 ****         3.6819   2.1863  -0.3577 N.2            1 S1                 0.0000
     18 ****         3.6869   1.9677  -1.7164 N.2            1 S1                 0.0000
     19 ****         2.7315   1.0622  -1.9529 C.2            1 S1                 0.0000
     20 ****         2.3205   0.4884  -3.2329 C.ar           1 S1                 0.0000
     21 ****         1.1746  -0.3348  -3.3240 C.ar           1 S1                 0.0000
     22 ****         0.7879  -0.8820  -4.5630 C.ar           1 S1                 0.0000
     23 ****         1.5445  -0.6146  -5.7200 C.ar           1 S1                 0.0000
     24 ****         1.0703  -1.2851  -7.2376 Cl             1 S1                 0.0000
     25 ****         2.6892   0.2006  -5.6366 C.ar           1 S1                 0.0000
     26 ****         3.0753   0.7497  -4.3984 C.ar           1 S1                 0.0000
     27 ****         2.0954   0.6608  -0.8197 O.3            1 S1                 0.0000
     28 ****        -2.9366   1.0193   2.0121 H              1 S1                 0.0000
     29 ****        -1.2148  -2.1976   1.4831 H              1 S1                 0.0000
     30 ****        -1.4385  -2.4837   3.8523 H              1 S1                 0.0000
     31 ****        -2.2064  -0.8906   4.0344 H              1 S1                 0.0000
     32 ****        -3.4965  -3.4410   3.0098 H              1 S1                 0.0000
     33 ****        -4.1452  -2.3236   4.2186 H              1 S1                 0.0000
     34 ****        -4.9833  -2.0582   1.6706 H              1 S1                 0.0000
     35 ****        -4.4820  -0.5954   2.5238 H              1 S1                 0.0000
     36 ****         2.6751   2.1083   2.1594 H              1 S1                 0.0000
     37 ****         2.7701   0.3730   2.0153 H              1 S1                 0.0000
     38 ****         0.5794  -0.5508  -2.4488 H              1 S1                 0.0000
     39 ****        -0.0909  -1.5071  -4.6242 H              1 S1                 0.0000
     40 ****         3.2730   0.4064  -6.5218 H              1 S1                 0.0000
     41 ****         3.9566   1.3725  -4.3514 H              1 S1                 0.0000
     42 ****         1.7278   3.5428   1.5230 LP             1 S1                 0.0000
     43 ****         0.1999   4.3531   1.6174 LP             1 S1                 0.0000
     44 ****        -3.0675  -2.1102   0.5715 LP             1 S1                 0.0000
     45 ****        -3.1250  -0.4971   0.8190 LP             1 S1                 0.0000
     46 ****         0.4691  -2.0086   1.8145 LP             1 S1                 0.0000
     47 ****         1.9245  -1.0777   1.6917 LP             1 S1                 0.0000
     48 ****         4.2734   2.8082   0.1555 LP             1 S1                 0.0000
     49 ****         4.2850   2.3994  -2.3915 LP             1 S1                 0.0000
     50 ****         1.1188   0.8728  -0.8565 LP             1 S1                 0.0000
     51 ****         2.2179  -0.3191  -0.6617 LP             1 S1                 0.0000
@<TRIPOS>BOND
    1    1    2 2     
    2    2   14 am    
    3    2    3 1     
    4    3    4 1     
    5    3    5 2     
    6    5    6 1     
    7    5   28 1     
    8    6    7 1     
    9    6   12 am    
   10    7   11 1     
   11    7    8 1     
   12    7   29 1     
   13    8    9 1     
   14    8   30 1     
   15    8   31 1     
   16    9   10 1     
   17    9   32 1     
   18    9   33 1     
   19   10   11 1     
   20   10   34 1     
   21   10   35 1     
   22   12   13 2     
   23   12   14 am    
   24   14   15 1     
   25   15   16 1     
   26   15   36 1     
   27   15   37 1     
   28   16   27 1     
   29   16   17 2     
   30   17   18 1     
   31   18   19 2     
   32   19   20 1     
   33   19   27 1     
   34   20   26 ar    
   35   20   21 ar    
   36   21   22 ar    
   37   21   38 1     
   38   22   23 ar    
   39   22   39 1     
   40   23   24 1     
   41   23   25 ar    
   42   25   26 ar    
   43   25   40 1     
   44   26   41 1     
   45    1   42 1     
   46    1   43 1     
   47   11   44 1     
   48   11   45 1     
   49   13   46 1     
   50   13   47 1     
   51   17   48 1     
   52   18   49 1     
   53   27   50 1     
   54   27   51 1     
@<TRIPOS>SUBSTRUCTURE
      1 S1             1
@<TRIPOS>SET
LONE_PAIRS      STATIC     ATOMS    <user>   **** ""
10 42 43 44 45 46 47 48 49 50 51
ATOM$BLUE        STATIC     ATOMS    COLORGROUP SYSTEM
10 42 43 44 45 46 47 48 49 50 51
