#       Name:                AV-unprocessed.smi:148
#       Creating user name   scv26
#       Creation time:       Thu Mar 26 18:36:33 2020


#       File generated by GOLD software.
#

@<TRIPOS>MOLECULE
AV-unprocessed.smi:148
    73    77     1
SMALL
NO_CHARGES


@<TRIPOS>ATOM
      1 ****        -3.5660  -1.8083   1.9474 O.3            1 S1                 0.0000
      2 ****        -2.1721  -2.0350   1.9315 C.3            1 S1                 0.0000
      3 ****        -1.4940  -1.4487   3.1924 C.3            1 S1                 0.0000
      4 ****         0.0513  -1.4497   3.0610 C.3            1 S1                 0.0000
      5 ****         0.5167  -0.6346   1.9529 N.pl3          1 S1                 0.0000
      6 ****         0.5477   0.7404   1.9025 C.2            1 S1                 0.0000
      7 ****         1.0040   1.2455   0.7890 N.2            1 S1                 0.0000
      8 ****         1.3124   0.1336   0.0142 C.ar           1 S1                 0.0000
      9 ****         1.8315  -0.0532  -1.2983 C.ar           1 S1                 0.0000
     10 ****         2.1526   0.9459  -2.1514 N.3            1 S1                 0.0000
     11 ****         3.4512   1.5125  -1.7883 C.3            1 S1                 0.0000
     12 ****         3.9629   2.4758  -2.8665 C.3            1 S1                 0.0000
     13 ****         2.9226   3.5663  -3.1390 C.3            1 S1                 0.0000
     14 ****         1.5829   2.9269  -3.5281 C.3            1 S1                 0.0000
     15 ****         1.0893   1.9228  -2.4532 C.3            1 S1                 0.0000
     16 ****        -0.2716   1.2474  -2.8147 C.3            1 S1                 0.0000
     17 ****        -0.2637   0.3127  -4.0405 C.3            1 S1                 0.0000
     18 ****        -1.6712   0.3901  -4.6547 C.3            1 S1                 0.0000
     19 ****        -2.4927   1.2949  -3.7315 C.3            1 S1                 0.0000
     20 ****        -1.4536   2.1956  -3.0655 C.3            1 S1                 0.0000
     21 ****        -1.9492   2.7588  -1.8685 O.3            1 S1                 0.0000
     22 ****         2.0231  -1.3230  -1.7328 N.ar           1 S1                 0.0000
     23 ****         1.7074  -2.3536  -0.9428 C.ar           1 S1                 0.0000
     24 ****         1.2020  -2.3349   0.2928 N.ar           1 S1                 0.0000
     25 ****         1.0223  -1.0574   0.7362 C.ar           1 S1                 0.0000
     26 ****        -2.0025  -2.1297   4.4932 C.3            1 S1                 0.0000
     27 ****        -1.5632  -1.4676   5.8010 C.3            1 S1                 0.0000
     28 ****        -0.9811  -2.6156   6.6245 C.3            1 S1                 0.0000
     29 ****        -1.6056  -3.7706   6.0888 O.3            1 S1                 0.0000
     30 ****        -1.6205  -3.6051   4.6807 C.3            1 S1                 0.0000
     31 ****        -3.9368  -2.1636   1.1541 H              1 S1                 0.0000
     32 ****        -1.9789  -3.1044   1.8457 H              1 S1                 0.0000
     33 ****        -1.7861  -1.5709   1.0243 H              1 S1                 0.0000
     34 ****        -1.8007  -0.4033   3.2556 H              1 S1                 0.0000
     35 ****         0.5271  -1.0717   3.9647 H              1 S1                 0.0000
     36 ****         0.4282  -2.4619   2.9192 H              1 S1                 0.0000
     37 ****         0.2125   1.3604   2.7214 H              1 S1                 0.0000
     38 ****         3.3624   2.0394  -0.8370 H              1 S1                 0.0000
     39 ****         4.1799   0.7137  -1.6413 H              1 S1                 0.0000
     40 ****         4.9046   2.9249  -2.5503 H              1 S1                 0.0000
     41 ****         4.1712   1.9249  -3.7847 H              1 S1                 0.0000
     42 ****         2.7929   4.1844  -2.2498 H              1 S1                 0.0000
     43 ****         3.2692   4.2280  -3.9334 H              1 S1                 0.0000
     44 ****         0.8578   3.7253  -3.6765 H              1 S1                 0.0000
     45 ****         1.7006   2.4317  -4.4912 H              1 S1                 0.0000
     46 ****         0.9267   2.5030  -1.5446 H              1 S1                 0.0000
     47 ****        -0.5822   0.6303  -1.9701 H              1 S1                 0.0000
     48 ****         0.4743   0.6121  -4.7830 H              1 S1                 0.0000
     49 ****        -0.0172  -0.7075  -3.7451 H              1 S1                 0.0000
     50 ****        -1.6107   0.8342  -5.6489 H              1 S1                 0.0000
     51 ****        -2.1275  -0.5943  -4.7645 H              1 S1                 0.0000
     52 ****        -3.2580   1.8578  -4.2665 H              1 S1                 0.0000
     53 ****        -2.9953   0.6832  -2.9803 H              1 S1                 0.0000
     54 ****        -1.1906   2.9921  -3.7599 H              1 S1                 0.0000
     55 ****        -1.2680   3.2863  -1.4800 H              1 S1                 0.0000
     56 ****         1.8811  -3.3335  -1.3623 H              1 S1                 0.0000
     57 ****        -3.0924  -2.0852   4.4946 H              1 S1                 0.0000
     58 ****        -0.8454  -0.6579   5.6740 H              1 S1                 0.0000
     59 ****        -2.4319  -1.0458   6.3082 H              1 S1                 0.0000
     60 ****         0.0980  -2.6873   6.4783 H              1 S1                 0.0000
     61 ****        -1.1765  -2.5098   7.6918 H              1 S1                 0.0000
     62 ****        -2.3316  -4.2835   4.2085 H              1 S1                 0.0000
     63 ****        -0.6282  -3.8354   4.2946 H              1 S1                 0.0000
     64 ****        -3.7475  -0.8260   1.9941 LP             1 S1                 0.0000
     65 ****        -3.9722  -2.2603   2.7416 LP             1 S1                 0.0000
     66 ****         1.1078   2.2106   0.5486 LP             1 S1                 0.0000
     67 ****         2.2469   0.5292  -3.0555 LP             1 S1                 0.0000
     68 ****        -2.2128   2.0299  -1.2367 LP             1 S1                 0.0000
     69 ****        -2.7451   3.3302  -2.0689 LP             1 S1                 0.0000
     70 ****         2.4004  -1.4883  -2.6439 LP             1 S1                 0.0000
     71 ****         0.9832  -3.1527   0.8251 LP             1 S1                 0.0000
     72 ****        -2.5396  -3.8509   6.4369 LP             1 S1                 0.0000
     73 ****        -1.0866  -4.5892   6.3348 LP             1 S1                 0.0000
@<TRIPOS>BOND
    1    1    2 1     
    2    1   31 1     
    3    2    3 1     
    4    2   32 1     
    5    2   33 1     
    6    3    4 1     
    7    3   26 1     
    8    3   34 1     
    9    4    5 1     
   10    4   35 1     
   11    4   36 1     
   12    5   25 1     
   13    5    6 1     
   14    6    7 2     
   15    6   37 1     
   16    7    8 1     
   17    8   25 ar    
   18    8    9 ar    
   19    9   10 1     
   20    9   22 ar    
   21   10   15 1     
   22   10   11 1     
   23   11   12 1     
   24   11   38 1     
   25   11   39 1     
   26   12   13 1     
   27   12   40 1     
   28   12   41 1     
   29   13   14 1     
   30   13   42 1     
   31   13   43 1     
   32   14   15 1     
   33   14   44 1     
   34   14   45 1     
   35   15   16 1     
   36   15   46 1     
   37   16   20 1     
   38   16   17 1     
   39   16   47 1     
   40   17   18 1     
   41   17   48 1     
   42   17   49 1     
   43   18   19 1     
   44   18   50 1     
   45   18   51 1     
   46   19   20 1     
   47   19   52 1     
   48   19   53 1     
   49   20   21 1     
   50   20   54 1     
   51   21   55 1     
   52   22   23 ar    
   53   23   24 ar    
   54   23   56 1     
   55   24   25 ar    
   56   26   30 1     
   57   26   27 1     
   58   26   57 1     
   59   27   28 1     
   60   27   58 1     
   61   27   59 1     
   62   28   29 1     
   63   28   60 1     
   64   28   61 1     
   65   29   30 1     
   66   30   62 1     
   67   30   63 1     
   68    1   64 1     
   69    1   65 1     
   70    7   66 1     
   71   10   67 1     
   72   21   68 1     
   73   21   69 1     
   74   22   70 1     
   75   24   71 1     
   76   29   72 1     
   77   29   73 1     
@<TRIPOS>SUBSTRUCTURE
      1 S1             1
@<TRIPOS>SET
LONE_PAIRS      STATIC     ATOMS    <user>   **** ""
10 64 65 66 67 68 69 70 71 72 73
DONOR_HYDROGENS      STATIC     ATOMS    <user>   **** ""
2 31 55
ATOM$BLUE        STATIC     ATOMS    COLORGROUP SYSTEM
10 64 65 66 67 68 69 70 71 72 73
ATOM$RED        STATIC     ATOMS    COLORGROUP SYSTEM
2 31 55
