#       Name:                AV-unprocessed.smi:415
#       Creating user name   scv26
#       Creation time:       Thu Mar 26 22:47:49 2020


#       File generated by GOLD software.
#

@<TRIPOS>MOLECULE
AV-unprocessed.smi:415
    61    62     1
SMALL
NO_CHARGES


@<TRIPOS>ATOM
      1 ****        -5.5148  -1.9252  -4.3939 C.3            1 S1                 0.0000
      2 ****        -5.3562  -1.3210  -3.1228 O.3            1 S1                 0.0000
      3 ****        -4.4450  -2.0267  -2.2968 C.3            1 S1                 0.0000
      4 ****        -4.2961  -1.2934  -0.9535 C.3            1 S1                 0.0000
      5 ****        -3.6583   0.0041  -1.0783 N.am           1 S1                 0.0000
      6 ****        -4.3624   1.2022  -1.1679 C.2            1 S1                 0.0000
      7 ****        -5.7454   1.1872  -1.1623 N.pl3          1 S1                 0.0000
      8 ****        -3.7228   2.3882  -1.2738 C.2            1 S1                 0.0000
      9 ****        -2.2697   2.4796  -1.3074 C.2            1 S1                 0.0000
     10 ****        -1.6695   3.5521  -1.3819 O.2            1 S1                 0.0000
     11 ****        -1.5761   1.2494  -1.2440 N.am           1 S1                 0.0000
     12 ****        -0.0967   1.2578  -1.2609 C.3            1 S1                 0.0000
     13 ****         0.5150   1.2085   0.1466 C.2            1 S1                 0.0000
     14 ****        -0.0644   1.7246   1.1032 O.2            1 S1                 0.0000
     15 ****         1.6995   0.5873   0.2519 N.am           1 S1                 0.0000
     16 ****         2.4561   0.4094   1.4901 C.3            1 S1                 0.0000
     17 ****         1.9068  -0.8137   2.2511 C.3            1 S1                 0.0000
     18 ****         2.6931  -1.0678   3.5400 C.3            1 S1                 0.0000
     19 ****         4.1836  -1.2485   3.2349 C.3            1 S1                 0.0000
     20 ****         4.7698  -0.0305   2.4932 C.3            1 S1                 0.0000
     21 ****         6.2736  -0.2540   2.2483 C.3            1 S1                 0.0000
     22 ****         3.9736   0.2680   1.1904 C.3            1 S1                 0.0000
     23 ****         4.5123   1.5149   0.4551 C.3            1 S1                 0.0000
     24 ****        -2.2411   0.0070  -1.1328 C.2            1 S1                 0.0000
     25 ****        -1.5935  -1.0429  -1.0819 O.2            1 S1                 0.0000
     26 ****        -6.2296  -1.3528  -4.9849 H              1 S1                 0.0000
     27 ****        -5.8920  -2.9445  -4.3030 H              1 S1                 0.0000
     28 ****        -4.5702  -1.9484  -4.9387 H              1 S1                 0.0000
     29 ****        -4.8226  -3.0347  -2.1196 H              1 S1                 0.0000
     30 ****        -3.4784  -2.1274  -2.7927 H              1 S1                 0.0000
     31 ****        -5.2621  -1.1421  -0.4734 H              1 S1                 0.0000
     32 ****        -3.7148  -1.8763  -0.2368 H              1 S1                 0.0000
     33 ****        -6.2656   0.3242  -1.0945 H              1 S1                 0.0000
     34 ****        -6.2807   2.0379  -1.0619 H              1 S1                 0.0000
     35 ****        -4.2976   3.3013  -1.3370 H              1 S1                 0.0000
     36 ****         0.2798   0.4206  -1.8518 H              1 S1                 0.0000
     37 ****         0.2986   2.1377  -1.7699 H              1 S1                 0.0000
     38 ****         2.1042   0.1976  -0.5870 H              1 S1                 0.0000
     39 ****         2.3201   1.2943   2.1152 H              1 S1                 0.0000
     40 ****         0.8536  -0.6669   2.4940 H              1 S1                 0.0000
     41 ****         1.9555  -1.6990   1.6154 H              1 S1                 0.0000
     42 ****         2.5542  -0.2335   4.2288 H              1 S1                 0.0000
     43 ****         2.3060  -1.9544   4.0428 H              1 S1                 0.0000
     44 ****         4.7229  -1.4125   4.1685 H              1 S1                 0.0000
     45 ****         4.3254  -2.1494   2.6360 H              1 S1                 0.0000
     46 ****         4.6720   0.8332   3.1528 H              1 S1                 0.0000
     47 ****         6.4436  -1.0485   1.5211 H              1 S1                 0.0000
     48 ****         6.7816  -0.5366   3.1708 H              1 S1                 0.0000
     49 ****         6.7661   0.6473   1.8853 H              1 S1                 0.0000
     50 ****         4.1012  -0.5853   0.5220 H              1 S1                 0.0000
     51 ****         4.4527   2.4013   1.0871 H              1 S1                 0.0000
     52 ****         3.9532   1.7230  -0.4569 H              1 S1                 0.0000
     53 ****         5.5503   1.3899   0.1501 H              1 S1                 0.0000
     54 ****        -6.2461  -1.2928  -2.6677 LP             1 S1                 0.0000
     55 ****        -5.0175  -0.3888  -3.2507 LP             1 S1                 0.0000
     56 ****        -2.1817   4.4100  -1.4222 LP             1 S1                 0.0000
     57 ****        -0.6697   3.5653  -1.4021 LP             1 S1                 0.0000
     58 ****        -0.9431   2.1822   0.9678 LP             1 S1                 0.0000
     59 ****         0.3440   1.6860   2.0152 LP             1 S1                 0.0000
     60 ****        -2.0678  -1.9195  -1.0005 LP             1 S1                 0.0000
     61 ****        -0.5946  -1.0167  -1.1221 LP             1 S1                 0.0000
@<TRIPOS>BOND
    1    1    2 1     
    2    1   26 1     
    3    1   27 1     
    4    1   28 1     
    5    2    3 1     
    6    3    4 1     
    7    3   29 1     
    8    3   30 1     
    9    4    5 1     
   10    4   31 1     
   11    4   32 1     
   12    5   24 am    
   13    5    6 1     
   14    6    7 1     
   15    6    8 2     
   16    7   33 1     
   17    7   34 1     
   18    8    9 1     
   19    8   35 1     
   20    9   10 2     
   21    9   11 am    
   22   11   12 1     
   23   11   24 am    
   24   12   13 1     
   25   12   36 1     
   26   12   37 1     
   27   13   14 2     
   28   13   15 am    
   29   15   16 1     
   30   15   38 1     
   31   16   22 1     
   32   16   17 1     
   33   16   39 1     
   34   17   18 1     
   35   17   40 1     
   36   17   41 1     
   37   18   19 1     
   38   18   42 1     
   39   18   43 1     
   40   19   20 1     
   41   19   44 1     
   42   19   45 1     
   43   20   21 1     
   44   20   22 1     
   45   20   46 1     
   46   21   47 1     
   47   21   48 1     
   48   21   49 1     
   49   22   23 1     
   50   22   50 1     
   51   23   51 1     
   52   23   52 1     
   53   23   53 1     
   54   24   25 2     
   55    2   54 1     
   56    2   55 1     
   57   10   56 1     
   58   10   57 1     
   59   14   58 1     
   60   14   59 1     
   61   25   60 1     
   62   25   61 1     
@<TRIPOS>SUBSTRUCTURE
      1 S1             1
@<TRIPOS>SET
LONE_PAIRS      STATIC     ATOMS    <user>   **** ""
8 54 55 56 57 58 59 60 61
DONOR_HYDROGENS      STATIC     ATOMS    <user>   **** ""
3 33 34 38
ATOM$BLUE        STATIC     ATOMS    COLORGROUP SYSTEM
8 54 55 56 57 58 59 60 61
ATOM$RED        STATIC     ATOMS    COLORGROUP SYSTEM
3 33 34 38
