AV-unprocessed.smi:1008|AV-procd|sdf|4413|dock1
  -GOLD-   22720 2353D 1   1.00000     0.00000
 Structure written by MMmdl.
 22 22  0  0  0  0  0  0  0  0  2 V2000
  149.6525  142.5843  158.2841 C   0  0  0  0  0  0  0  0  0  0  0  0
  150.1724  141.7135  157.1540 C   0  0  0  0  0  0  0  0  0  0  0  0
  149.3982  141.7022  155.9829 N   0  0  0  0  0  0  0  0  0  0  0  0
  149.7793  140.9845  154.9739 C   0  0  0  0  0  0  0  0  0  0  0  0
  149.0555  140.9398  153.8025 N   0  0  0  0  0  0  0  0  0  0  0  0
  150.9229  140.2119  154.9727 N   0  5  0  0  0  0  0  0  0  0  0  0
  151.7233  140.1787  156.0769 C   0  0  0  0  0  0  0  0  0  0  0  0
  152.7546  139.5086  156.1149 O   0  0  0  0  0  0  0  0  0  0  0  0
  151.3214  140.9842  157.2452 C   0  0  0  0  0  0  0  0  0  0  0  0
  152.1957  140.9494  158.4967 C   0  0  0  0  0  0  0  0  0  0  0  0
  152.6123  142.3562  158.9485 C   0  0  0  0  0  0  0  0  0  0  0  0
  153.3717  142.2756  160.1354 O   0  0  0  0  0  0  0  0  0  0  0  0
  150.4273  143.2695  158.6290 H   0  0  0  0  0  0  0  0  0  0  0  0
  149.3333  141.9666  159.1237 H   0  0  0  0  0  0  0  0  0  0  0  0
  148.7983  143.1809  157.9623 H   0  0  0  0  0  0  0  0  0  0  0  0
  148.1992  141.4559  153.6645 H   0  0  0  0  0  0  0  0  0  0  0  0
  149.3263  140.3904  153.0005 H   0  0  0  0  0  0  0  0  0  0  0  0
  151.6685  140.4476  159.3077 H   0  0  0  0  0  0  0  0  0  0  0  0
  153.0786  140.3363  158.3097 H   0  0  0  0  0  0  0  0  0  0  0  0
  153.2082  142.8498  158.1802 H   0  0  0  0  0  0  0  0  0  0  0  0
  151.7346  142.9771  159.1300 H   0  0  0  0  0  0  0  0  0  0  0  0
  153.2209  143.0601  160.6400 H   0  0  0  0  0  0  0  0  0  0  0  0
  1  2  1  0  0  0  0
  1 13  1  0  0  0  0
  1 14  1  0  0  0  0
  1 15  1  0  0  0  0
  2  9  2  0  0  0  0
  2  3  1  0  0  0  0
  3  4  2  0  0  0  0
  4  5  1  0  0  0  0
  4  6  1  0  0  0  0
  5 16  1  0  0  0  0
  5 17  1  0  0  0  0
  6  7  1  0  0  0  0
  7  8  2  0  0  0  0
  7  9  1  0  0  0  0
  9 10  1  0  0  0  0
 10 11  1  0  0  0  0
 10 18  1  0  0  0  0
 10 19  1  0  0  0  0
 11 12  1  0  0  0  0
 11 20  1  0  0  0  0
 11 21  1  0  0  0  0
 12 22  1  0  0  0  0
M  CHG  1   6  -1
M  END
> <s_m_source_file>
AV-unprocessed.smi

> <i_m_source_file_index>
1008

> <i_lp_mmshare_version>
43012

> <i_f3d_flags>
0

> <s_epik_input>
W0NIM11jMW5jKFtOSDJdKVtuSF1jKD1PKWMxW0NIMl1bQ0gyXVtPSF0=

> <s_epik_cmdline>
J2VwaWtfcHl0aG9uJywgJy1waCcsICc3LjAnLCAnLXRuJywgJzgnLCAnLW1hJywgJzIwMCcsICctbWV0YWxfYmluZGluZycsICctaW1hZScsICc8aW5maWxlLm1hZT4nLCAnLW9tYWUnLCAnPG91dGZpbGUubWFlPic=

> <r_lp_tautomer_probability>
0.878315

> <r_epik_Ionization_Penalty>
8.31336

> <r_epik_Ionization_Penalty_Charging>
3.16854e-07

> <r_epik_Ionization_Penalty_Neutral>
8.31336

> <r_epik_State_Penalty>
5.82337

> <r_epik_Charging_Adjusted_Penalty>
5.82337

> <i_epik_Tot_Q>
-1

> <i_epik_Tot_abs_Q>
1

> <r_epik_Metal_State_Penalty>
1.89563

> <b_epik_Metal_Only>
1

> <s_lp_Force_Field>
OPLS_2005

> <r_lp_Energy>
6.72114

> <b_lp_Chiralities_Consistent>
1

> <s_lp_Variant>
AV-unprocessed.smi:1008-4

> <Gold.Version>
5.8.1

> <Gold.Id.Protein>
6NUR|6NUR_protein|mol2

> <Gold.PLP.Fitness>
30.5577

> <Gold.PLP.PLP>
-21.6252

> <Gold.PLP.part.hbond>
-3.0000

> <Gold.PLP.part.metal>
0.0000

> <Gold.PLP.part.buried>
-4.6440

> <Gold.PLP.part.nonpolar>
-14.1187

> <Gold.PLP.part.repulsive>
0.3722

> <Gold.PLP.ligand.clash>
0.0000

> <Gold.PLP.ligand.torsion>
0.0340

> <Gold.PLP.Chemscore.Hbond>
3.0000

> <Gold.PLP.Chemscore.CHOScore>
0.0000

> <Gold.PLP.Chemscore.Metal>
0.0000

> <Gold.Chemscore.Hbonds>
donor molecule, donor type, donor heavy atom, donor atom, acceptor molecule, acceptor atom, score
      L1  H     5    17       P1  7957  1.00
      P1  H  7989  7998       L1     6  0.85
      P1  H  7997  8008       L1     8  1.00

> <Gold.PLP.Chemscore.Internal.Correction>
0.0005

> <Gold.Rescore>
     Score         DG    S(hbond)    S(metal)    S(lipo)     H(rot)  DE(clash)    DE(int)     intcor
     12.38     -12.67       2.55        0.00      33.08       2.03       0.29       0.01       ----

> <Gold.Chemscore.Fitness>
12.3815

> <Gold.Chemscore.DG>
-12.6741

> <Gold.Chemscore.ZeroCoef>
-5.4800

> <Gold.Chemscore.Hbond>
2.5516

> <Gold.Chemscore.Metal>
0.0000

> <Gold.Chemscore.Lipo>
33.0784

> <Gold.Chemscore.Internal_Hbond>
0.0000

> <Gold.Chemscore.DEClash>
0.2863

> <Gold.Chemscore.DEInternal>
0.0063

> <Gold.Chemscore.Rot>
2.0307

> <Gold.Chemscore.Internal.Correction>
   9.000000E+99

> <Gold.Chemscore.Hbonds>
donor molecule, donor type, donor heavy atom, donor atom, acceptor molecule, acceptor atom, score
      L1  H     5    17       P1  7957  0.98
      P1  H  7989  7998       L1     6  0.14
      P1  H  7997  8008       L1     8  1.00

> <Gold.Chemscore.Hbond.Weighted>
-8.5224

> <Gold.Chemscore.Metal.Weighted>
-0.0000

> <Gold.Chemscore.Lipo.Weighted>
-3.8702

> <Gold.Chemscore.Internal_Hbond.Weighted>
0.0000

> <Gold.Chemscore.DEClash.Weighted>
0.2863

> <Gold.Chemscore.DEInternal.Weighted>
0.0063

> <Gold.Chemscore.Rot.Weighted>
5.1985

> <Gold.Chemscore.Internal.Correction.Weighted>
   9.000000E+99

> <Gold.Protein.RotatedTorsions>
[ 6907 6896 6895 6894 ] final   -1.26 input  -60.11 | X-H torsion
[ 7974 7965 7964 7962 ] final  -64.22 input  175.53 | X-H torsion
[ 8008 7997 7996 7995 ] final  -47.21 input   59.86 | X-H torsion
[ 10167 10162 10161 10158 ] final  -83.35 input  -65.29 | X-H torsion
[ 10718 10713 10712 10709 ] final  117.84 input   66.30 | X-H torsion
[ 10763 10752 10751 10750 ] final  176.68 input  -60.55 | X-H torsion
[ 11005 11000 10999 10996 ] final   36.85 input  -57.11 | X-H torsion

> <Gold.Protein.ActiveResidues>
 VAL166  LYS551  ARG553  GLY616  TRP617  ASP618  TYR619  PRO620  LYS621  CYS622 
 ASP623  PHE694  ASN695  SER759  ASP760  ASP761  ALA762  ILE779  LEU786  VAL792 
 PHE793  MET794  SER795  GLU796  ALA797  LYS798  CYS799  TRP800  GLU811  SER814 

> <Gold.Protein.RotatedAtoms>
  151.5490  135.1067  159.9944 H   0  0  0  0  0  0  0  0  0  0  0  0  # atno 6907 bound_to 6896
  152.4500  133.7607  159.6755 H   0  0  0  0  0  0  0  0  0  0  0  0  # atno 6908 bound_to 6896
  150.8426  133.7845  159.3079 H   0  0  0  0  0  0  0  0  0  0  0  0  # atno 6909 bound_to 6896
  145.7693  140.8821  143.0388 H   0  0  0  0  0  0  0  0  0  0  0  0  # atno 7974 bound_to 7965
  154.4014  140.1352  156.4137 H   0  0  0  0  0  0  0  0  0  0  0  0  # atno 8008 bound_to 7997
  155.7709  140.3484  155.5226 H   0  0  0  0  0  0  0  0  0  0  0  0  # atno 8009 bound_to 7997
  155.8768  140.0981  157.1503 H   0  0  0  0  0  0  0  0  0  0  0  0  # atno 8010 bound_to 7997
  140.4235  143.2575  151.8857 H   0  0  0  0  0  0  0  0  0  0  0  0  # atno 10167 bound_to 10162
  157.6070  131.1041  150.7671 H   0  0  0  0  0  0  0  0  0  0  0  0  # atno 10718 bound_to 10713
  154.4844  135.2776  155.1545 H   0  0  0  0  0  0  0  0  0  0  0  0  # atno 10763 bound_to 10752
  154.3243  135.6203  153.5525 H   0  0  0  0  0  0  0  0  0  0  0  0  # atno 10764 bound_to 10752
  152.9879  135.5750  154.5252 H   0  0  0  0  0  0  0  0  0  0  0  0  # atno 10765 bound_to 10752
  140.2284  134.3556  155.7974 H   0  0  0  0  0  0  0  0  0  0  0  0  # atno 11005 bound_to 11000
  144.6815  139.9833  143.7483 LP  0  0  0  0  0  0  0  0  0  0  0  0  # atno 17320 bound_to 7965
  146.0185  139.3231  143.0827 LP  0  0  0  0  0  0  0  0  0  0  0  0  # atno 17321 bound_to 7965
  139.4783  144.5412  151.8526 LP  0  0  0  0  0  0  0  0  0  0  0  0  # atno 17342 bound_to 10162
  140.4507  144.1859  150.5897 LP  0  0  0  0  0  0  0  0  0  0  0  0  # atno 17343 bound_to 10162
  156.8057  130.4936  149.5363 LP  0  0  0  0  0  0  0  0  0  0  0  0  # atno 17370 bound_to 10713
  156.1160  130.6075  151.0121 LP  0  0  0  0  0  0  0  0  0  0  0  0  # atno 17371 bound_to 10713
  141.2219  133.7232  156.8692 LP  0  0  0  0  0  0  0  0  0  0  0  0  # atno 17394 bound_to 11000
  140.1776  134.9056  157.2909 LP  0  0  0  0  0  0  0  0  0  0  0  0  # atno 17395 bound_to 11000

$$$$
