#       Name:                AV-unprocessed.smi:2807
#       Creating user name   scv26
#       Creation time:       Fri Mar 27 15:25:24 2020


#       File generated by GOLD software.
#

@<TRIPOS>MOLECULE
AV-unprocessed.smi:2807
    37    38     1
SMALL
NO_CHARGES


@<TRIPOS>ATOM
      1 ****        -0.1769   2.5959  -0.3151 O.2            1 S1                 0.0000
      2 ****         0.4216   1.5281  -0.4523 C.2            1 S1                 0.0000
      3 ****        -0.2058   0.3444  -0.5464 N.am           1 S1                 0.0000
      4 ****        -1.6499   0.1424  -0.4816 C.3            1 S1                 0.0000
      5 ****        -1.9712  -1.2853   0.0012 C.3            1 S1                 0.0000
      6 ****        -3.0411  -1.8236  -0.9489 C.3            1 S1                 0.0000
      7 ****        -2.7539  -1.1247  -2.2747 C.3            1 S1                 0.0000
      8 ****        -2.2957   0.2833  -1.8796 C.3            1 S1                 0.0000
      9 ****        -3.4191   1.1383  -1.8035 O.3            1 S1                 0.0000
     10 ****         1.9565   1.4994  -0.5190 C.3            1 S1                 0.0000
     11 ****         2.3276   0.8571  -1.6292 F              1 S1                 0.0000
     12 ****         2.4124   2.7519  -0.6004 F              1 S1                 0.0000
     13 ****         2.5337   0.8106   0.7154 C.ar           1 S1                 0.0000
     14 ****         2.8844   1.5552   1.8644 C.ar           1 S1                 0.0000
     15 ****         3.3913   0.8697   2.9851 C.ar           1 S1                 0.0000
     16 ****         3.5275  -0.5298   2.9202 C.ar           1 S1                 0.0000
     17 ****         3.1494  -1.1846   1.7322 C.ar           1 S1                 0.0000
     18 ****         2.6617  -0.5370   0.6526 N.ar           1 S1                 0.0000
     19 ****         0.3649  -0.4818  -0.6559 H              1 S1                 0.0000
     20 ****        -2.0849   0.8593   0.2183 H              1 S1                 0.0000
     21 ****        -1.0874  -1.9224  -0.0654 H              1 S1                 0.0000
     22 ****        -2.3019  -1.3038   1.0401 H              1 S1                 0.0000
     23 ****        -3.0191  -2.9106  -1.0325 H              1 S1                 0.0000
     24 ****        -4.0303  -1.5371  -0.5895 H              1 S1                 0.0000
     25 ****        -1.9361  -1.6408  -2.7798 H              1 S1                 0.0000
     26 ****        -3.6091  -1.1287  -2.9516 H              1 S1                 0.0000
     27 ****        -1.6115   0.6953  -2.6228 H              1 S1                 0.0000
     28 ****        -4.0181   0.7894  -1.1615 H              1 S1                 0.0000
     29 ****         2.7618   2.6278   1.8921 H              1 S1                 0.0000
     30 ****         3.6677   1.4077   3.8797 H              1 S1                 0.0000
     31 ****         3.9113  -1.0885   3.7609 H              1 S1                 0.0000
     32 ****         3.2388  -2.2575   1.6469 H              1 S1                 0.0000
     33 ****        -1.1757   2.6069  -0.2691 LP             1 S1                 0.0000
     34 ****         0.3361   3.4518  -0.2497 LP             1 S1                 0.0000
     35 ****        -3.8693   1.1840  -2.6952 LP             1 S1                 0.0000
     36 ****        -3.1275   2.0549  -1.5299 LP             1 S1                 0.0000
     37 ****         2.4016  -1.0389  -0.1722 LP             1 S1                 0.0000
@<TRIPOS>BOND
    1    1    2 2     
    2    2    3 am    
    3    2   10 1     
    4    3    4 1     
    5    3   19 1     
    6    4    8 1     
    7    4    5 1     
    8    4   20 1     
    9    5    6 1     
   10    5   21 1     
   11    5   22 1     
   12    6    7 1     
   13    6   23 1     
   14    6   24 1     
   15    7    8 1     
   16    7   25 1     
   17    7   26 1     
   18    8    9 1     
   19    8   27 1     
   20    9   28 1     
   21   10   11 1     
   22   10   12 1     
   23   10   13 1     
   24   13   18 ar    
   25   13   14 ar    
   26   14   15 ar    
   27   14   29 1     
   28   15   16 ar    
   29   15   30 1     
   30   16   17 ar    
   31   16   31 1     
   32   17   18 ar    
   33   17   32 1     
   34    1   33 1     
   35    1   34 1     
   36    9   35 1     
   37    9   36 1     
   38   18   37 1     
@<TRIPOS>SUBSTRUCTURE
      1 S1             1
@<TRIPOS>SET
LONE_PAIRS      STATIC     ATOMS    <user>   **** ""
5 33 34 35 36 37
DONOR_HYDROGENS      STATIC     ATOMS    <user>   **** ""
2 19 28
ATOM$BLUE        STATIC     ATOMS    COLORGROUP SYSTEM
5 33 34 35 36 37
ATOM$RED        STATIC     ATOMS    COLORGROUP SYSTEM
2 19 28
