AV-unprocessed.smi:1299|AV-procd|sdf|5418|dock9
  -GOLD-   22720 4573D 1   1.00000     0.00000
 Structure written by MMmdl.
 39 40  0  0  0  0  0  0  0  0  1 V2000
  149.8172  139.8150  151.1258 C   0  0  0  0  0  0  0  0  0  0  0  0
  150.5626  140.5213  152.2452 C   0  0  0  0  0  0  0  0  0  0  0  0
  150.5388  141.8364  152.4851 C   0  0  0  0  0  0  0  0  0  0  0  0
  151.4862  142.2864  153.8814 S   0  0  0  0  0  0  0  0  0  0  0  0
  151.9320  140.5624  154.1450 C   0  0  0  0  0  0  0  0  0  0  0  0
  152.6538  140.1943  155.0703 O   0  0  0  0  0  0  0  0  0  0  0  0
  151.3362  139.7838  153.1529 N   0  0  0  0  0  0  0  0  0  0  0  0
  151.5133  138.3275  153.0751 C   0  0  0  0  0  0  0  0  0  0  0  0
  150.5734  137.5516  154.0081 C   0  0  0  0  0  0  0  0  0  0  0  0
  149.6949  138.1296  154.6499 O   0  0  0  0  0  0  0  0  0  0  0  0
  150.7667  136.2250  154.0619 N   0  0  0  0  0  0  0  0  0  0  0  0
  149.9915  135.2978  154.8788 C   0  0  0  0  0  0  0  0  0  0  0  0
  149.2329  134.2741  154.0098 C   0  0  0  0  0  0  0  0  0  0  0  0
  148.7650  133.0307  154.7845 C   0  0  0  0  0  0  0  0  0  0  0  0
  149.0636  132.8985  155.9722 O   0  0  0  0  0  0  0  0  0  0  0  0
  148.0317  132.1098  154.1248 N   0  0  0  0  0  0  0  0  0  0  0  0
  147.5095  130.8669  154.6925 C   0  0  0  0  0  0  0  0  0  0  0  0
  146.9689  130.0661  153.5074 C   0  0  0  0  0  0  0  0  0  0  0  0
  146.6335  131.1226  152.4642 C   0  0  0  0  0  0  0  0  0  0  0  0
  147.6493  132.2363  152.7197 C   0  0  0  0  0  0  0  0  0  0  0  0
  149.0169  140.4502  150.7456 H   0  0  0  0  0  0  0  0  0  0  0  0
  149.3604  138.8858  151.4661 H   0  0  0  0  0  0  0  0  0  0  0  0
  150.4947  139.5939  150.3010 H   0  0  0  0  0  0  0  0  0  0  0  0
  150.0002  142.5810  151.9176 H   0  0  0  0  0  0  0  0  0  0  0  0
  151.3837  137.9723  152.0528 H   0  0  0  0  0  0  0  0  0  0  0  0
  152.5424  138.0762  153.3374 H   0  0  0  0  0  0  0  0  0  0  0  0
  151.5077  135.8292  153.5018 H   0  0  0  0  0  0  0  0  0  0  0  0
  150.6843  134.7843  155.5465 H   0  0  0  0  0  0  0  0  0  0  0  0
  149.3005  135.8552  155.5143 H   0  0  0  0  0  0  0  0  0  0  0  0
  148.3589  134.7518  153.5661 H   0  0  0  0  0  0  0  0  0  0  0  0
  149.8735  133.9537  153.1873 H   0  0  0  0  0  0  0  0  0  0  0  0
  148.2717  130.3000  155.2284 H   0  0  0  0  0  0  0  0  0  0  0  0
  146.7050  131.1042  155.3902 H   0  0  0  0  0  0  0  0  0  0  0  0
  147.7517  129.4108  153.1230 H   0  0  0  0  0  0  0  0  0  0  0  0
  146.1132  129.4443  153.7715 H   0  0  0  0  0  0  0  0  0  0  0  0
  146.6739  130.7389  151.4444 H   0  0  0  0  0  0  0  0  0  0  0  0
  145.6253  131.5001  152.6394 H   0  0  0  0  0  0  0  0  0  0  0  0
  147.2265  133.2169  152.4949 H   0  0  0  0  0  0  0  0  0  0  0  0
  148.5348  132.0978  152.0973 H   0  0  0  0  0  0  0  0  0  0  0  0
  1  2  1  0  0  0  0
  1 21  1  0  0  0  0
  1 22  1  0  0  0  0
  1 23  1  0  0  0  0
  2  7  1  0  0  0  0
  2  3  2  0  0  0  0
  3  4  1  0  0  0  0
  3 24  1  0  0  0  0
  4  5  1  0  0  0  0
  5  6  2  0  0  0  0
  5  7  1  0  0  0  0
  7  8  1  0  0  0  0
  8  9  1  0  0  0  0
  8 25  1  0  0  0  0
  8 26  1  0  0  0  0
  9 10  2  0  0  0  0
  9 11  1  0  0  0  0
 11 12  1  0  0  0  0
 11 27  1  0  0  0  0
 12 13  1  0  0  0  0
 12 28  1  0  0  0  0
 12 29  1  0  0  0  0
 13 14  1  0  0  0  0
 13 30  1  0  0  0  0
 13 31  1  0  0  0  0
 14 15  2  0  0  0  0
 14 16  1  0  0  0  0
 16 20  1  0  0  0  0
 16 17  1  0  0  0  0
 17 18  1  0  0  0  0
 17 32  1  0  0  0  0
 17 33  1  0  0  0  0
 18 19  1  0  0  0  0
 18 34  1  0  0  0  0
 18 35  1  0  0  0  0
 19 20  1  0  0  0  0
 19 36  1  0  0  0  0
 19 37  1  0  0  0  0
 20 38  1  0  0  0  0
 20 39  1  0  0  0  0
M  END
> <s_m_source_file>
AV-unprocessed.smi

> <i_m_source_file_index>
1299

> <i_lp_mmshare_version>
43012

> <i_f3d_flags>
0

> <s_epik_input>
W0NIM11jMVtjSF1zYyg9TyluMVtDSDJdQyg9TylbTkhdW0NIMl1bQ0gyXUMoPU8pTjJbQ0gyXVtDSDJdW0NIMl1bQ0gyXTI=

> <s_epik_cmdline>
J2VwaWtfcHl0aG9uJywgJy1waCcsICc3LjAnLCAnLXRuJywgJzgnLCAnLW1hJywgJzIwMCcsICctbWV0YWxfYmluZGluZycsICctaW1hZScsICc8aW5maWxlLm1hZT4nLCAnLW9tYWUnLCAnPG91dGZpbGUubWFlPic=

> <r_lp_tautomer_probability>
1

> <r_epik_Ionization_Penalty>
1.42672e-06

> <r_epik_Ionization_Penalty_Charging>
1.08064e-06

> <r_epik_Ionization_Penalty_Neutral>
3.46085e-07

> <r_epik_State_Penalty>
-0

> <r_epik_Charging_Adjusted_Penalty>
1.08064e-06

> <i_epik_Tot_Q>
0

> <i_epik_Tot_abs_Q>
0

> <r_epik_Metal_State_Penalty>
-0

> <b_epik_Metal_Only>
0

> <s_lp_Force_Field>
OPLS_2005

> <r_lp_Energy>
30.8751

> <b_lp_Chiralities_Consistent>
1

> <s_lp_Variant>
AV-unprocessed.smi:1299-1

> <Gold.Version>
5.8.1

> <Gold.Id.Protein>
6NUR|6NUR_protein|mol2

> <Gold.PLP.Fitness>
47.1077

> <Gold.PLP.PLP>
-38.9653

> <Gold.PLP.part.hbond>
-3.0000

> <Gold.PLP.part.metal>
0.0000

> <Gold.PLP.part.buried>
-2.4287

> <Gold.PLP.part.nonpolar>
-33.1808

> <Gold.PLP.part.repulsive>
0.1178

> <Gold.PLP.ligand.clash>
0.0000

> <Gold.PLP.ligand.torsion>
0.4442

> <Gold.PLP.Chemscore.Hbond>
2.0000

> <Gold.PLP.Chemscore.CHOScore>
1.0000

> <Gold.PLP.Chemscore.Metal>
0.0000

> <Gold.Chemscore.Hbonds>
donor molecule, donor type, donor heavy atom, donor atom, acceptor molecule, acceptor atom, score
      L1  H    11    27       P1  7949  0.27
      P1  H  7997  8008       L1     6  1.00

> <Gold.PLP.Chemscore.Internal.Correction>
0.0308

> <Gold.Rescore>
     Score         DG    S(hbond)    S(metal)    S(lipo)     H(rot)  DE(clash)    DE(int)     intcor
     12.25     -13.29       1.29        0.00      74.00       2.02       0.42       0.61       ----

> <Gold.Chemscore.Fitness>
12.2494

> <Gold.Chemscore.DG>
-13.2872

> <Gold.Chemscore.ZeroCoef>
-5.4800

> <Gold.Chemscore.Hbond>
1.2904

> <Gold.Chemscore.Metal>
0.0000

> <Gold.Chemscore.Lipo>
74.0043

> <Gold.Chemscore.Internal_Hbond>
0.0000

> <Gold.Chemscore.DEClash>
0.4248

> <Gold.Chemscore.DEInternal>
0.6131

> <Gold.Chemscore.Rot>
2.0162

> <Gold.Chemscore.Internal.Correction>
   9.000000E+99

> <Gold.Chemscore.Hbonds>
donor molecule, donor type, donor heavy atom, donor atom, acceptor molecule, acceptor atom, score
      L1  H    11    27       P1  7949  0.20
      P1  H  7997  8008       L1     6  0.97

> <Gold.Chemscore.Hbond.Weighted>
-4.3101

> <Gold.Chemscore.Metal.Weighted>
-0.0000

> <Gold.Chemscore.Lipo.Weighted>
-8.6585

> <Gold.Chemscore.Internal_Hbond.Weighted>
0.0000

> <Gold.Chemscore.DEClash.Weighted>
0.4248

> <Gold.Chemscore.DEInternal.Weighted>
0.6131

> <Gold.Chemscore.Rot.Weighted>
5.1614

> <Gold.Chemscore.Internal.Correction.Weighted>
   9.000000E+99

> <Gold.Protein.RotatedTorsions>
[ 6907 6896 6895 6894 ] final   12.04 input  -60.11 | X-H torsion
[ 7974 7965 7964 7962 ] final  -90.92 input  175.53 | X-H torsion
[ 8008 7997 7996 7995 ] final  -26.78 input   59.86 | X-H torsion
[ 10167 10162 10161 10158 ] final    8.61 input  -65.29 | X-H torsion
[ 10718 10713 10712 10709 ] final   11.64 input   66.30 | X-H torsion
[ 10763 10752 10751 10750 ] final  -58.51 input  -60.55 | X-H torsion
[ 11005 11000 10999 10996 ] final -114.90 input  -57.11 | X-H torsion

> <Gold.Protein.ActiveResidues>
 VAL166  LYS551  ARG553  GLY616  TRP617  ASP618  TYR619  PRO620  LYS621  CYS622 
 ASP623  PHE694  ASN695  SER759  ASP760  ASP761  ALA762  ILE779  LEU786  VAL792 
 PHE793  MET794  SER795  GLU796  ALA797  LYS798  CYS799  TRP800  GLU811  SER814 

> <Gold.Protein.RotatedAtoms>
  151.7640  135.0803  160.0349 H   0  0  0  0  0  0  0  0  0  0  0  0  # atno 6907 bound_to 6896
  152.3334  133.5979  159.5834 H   0  0  0  0  0  0  0  0  0  0  0  0  # atno 6908 bound_to 6896
  150.7436  133.9750  159.3599 H   0  0  0  0  0  0  0  0  0  0  0  0  # atno 6909 bound_to 6896
  145.4200  140.9550  143.2186 H   0  0  0  0  0  0  0  0  0  0  0  0  # atno 7974 bound_to 7965
  154.4409  140.1890  156.0828 H   0  0  0  0  0  0  0  0  0  0  0  0  # atno 8008 bound_to 7997
  156.0425  140.3318  155.7233 H   0  0  0  0  0  0  0  0  0  0  0  0  # atno 8009 bound_to 7997
  155.5678  140.0609  157.2804 H   0  0  0  0  0  0  0  0  0  0  0  0  # atno 8010 bound_to 7997
  140.6304  143.8006  150.7288 H   0  0  0  0  0  0  0  0  0  0  0  0  # atno 10167 bound_to 10162
  156.9985  130.6070  149.5693 H   0  0  0  0  0  0  0  0  0  0  0  0  # atno 10718 bound_to 10713
  154.2393  135.6346  153.5201 H   0  0  0  0  0  0  0  0  0  0  0  0  # atno 10763 bound_to 10752
  152.9933  135.5538  154.5928 H   0  0  0  0  0  0  0  0  0  0  0  0  # atno 10764 bound_to 10752
  154.5430  135.2896  155.1053 H   0  0  0  0  0  0  0  0  0  0  0  0  # atno 10765 bound_to 10752
  141.0522  133.9669  157.2816 H   0  0  0  0  0  0  0  0  0  0  0  0  # atno 11005 bound_to 11000
  144.8251  139.5723  143.6969 LP  0  0  0  0  0  0  0  0  0  0  0  0  # atno 17320 bound_to 7965
  146.2661  139.6524  142.9328 LP  0  0  0  0  0  0  0  0  0  0  0  0  # atno 17321 bound_to 7965
  140.1616  143.4271  152.2063 LP  0  0  0  0  0  0  0  0  0  0  0  0  # atno 17342 bound_to 10162
  139.5519  144.7344  151.4409 LP  0  0  0  0  0  0  0  0  0  0  0  0  # atno 17343 bound_to 10162
  156.0180  130.5275  150.8192 LP  0  0  0  0  0  0  0  0  0  0  0  0  # atno 17370 bound_to 10713
  157.5408  131.0940  150.9830 LP  0  0  0  0  0  0  0  0  0  0  0  0  # atno 17371 bound_to 10713
  139.9360  135.0196  156.8556 LP  0  0  0  0  0  0  0  0  0  0  0  0  # atno 17394 bound_to 11000
  140.6033  134.0151  155.7546 LP  0  0  0  0  0  0  0  0  0  0  0  0  # atno 17395 bound_to 11000

$$$$
