AV-unprocessed.smi:2706|AV-procd|sdf|10455|dock9
  -GOLD-   2272014493D 1   1.00000     0.00000
 Structure written by MMmdl.
 43 46  0  0  0  0  0  0  0  0  1 V2000
  153.3865  139.3587  159.5979 C   0  0  0  0  0  0  0  0  0  0  0  0
  153.4158  140.5764  160.3902 N   0  0  0  0  0  0  0  0  0  0  0  0
  154.3633  140.5948  161.4916 C   0  0  0  0  0  0  0  0  0  0  0  0
  152.8100  141.7360  159.9458 C   0  0  0  0  0  0  0  0  0  0  0  0
  152.8603  142.8430  160.7109 C   0  0  0  0  0  0  0  0  0  0  0  0
  152.2267  144.0604  160.2488 C   0  0  0  0  0  0  0  0  0  0  0  0
  151.5858  144.1045  159.0629 C   0  0  0  0  0  0  0  0  0  0  0  0
  151.5091  142.9319  158.2082 C   0  0  0  0  0  0  0  0  0  0  0  0
  150.8842  143.0025  157.0683 N   0  0  0  0  0  0  0  0  0  0  0  0
  150.7720  141.9209  156.2012 C   0  0  0  0  0  0  0  0  0  0  0  0
  151.4561  140.8943  156.1512 O   0  0  0  0  0  0  0  0  0  0  0  0
  149.7553  142.1292  155.3532 N   0  0  0  0  0  0  0  0  0  0  0  0
  149.3230  141.2498  154.3147 C   0  0  2  0  0  0  0  0  0  0  0  0
  147.9261  141.3513  153.7291 C   0  0  2  0  0  0  0  0  0  0  0  0
  146.6013  141.8013  154.3559 C   0  0  2  0  0  0  0  0  0  0  0  0
  146.7699  142.4322  155.7530 C   0  0  0  0  0  0  0  0  0  0  0  0
  147.1619  141.2157  156.6198 C   0  0  0  0  0  0  0  0  0  0  0  0
  147.1610  140.0649  155.5935 C   0  0  1  0  0  0  0  0  0  0  0  0
  145.9694  140.4654  154.7308 C   0  0  0  0  0  0  0  0  0  0  0  0
  148.3139  140.1487  154.5862 C   0  0  2  0  0  0  0  0  0  0  0  0
  152.1465  141.7862  158.7209 N   0  0  0  0  0  0  0  0  0  0  0  0
  152.4953  139.3276  158.9702 H   0  0  0  0  0  0  0  0  0  0  0  0
  153.3782  138.4774  160.2398 H   0  0  0  0  0  0  0  0  0  0  0  0
  154.2628  139.3076  158.9513 H   0  0  0  0  0  0  0  0  0  0  0  0
  154.1477  141.4184  162.1731 H   0  0  0  0  0  0  0  0  0  0  0  0
  155.3785  140.7196  161.1144 H   0  0  0  0  0  0  0  0  0  0  0  0
  154.3170  139.6655  162.0599 H   0  0  0  0  0  0  0  0  0  0  0  0
  153.3684  142.8302  161.6645 H   0  0  0  0  0  0  0  0  0  0  0  0
  152.2682  144.9470  160.8642 H   0  0  0  0  0  0  0  0  0  0  0  0
  151.1325  145.0411  158.7720 H   0  0  0  0  0  0  0  0  0  0  0  0
  149.2383  142.9912  155.4514 H   0  0  0  0  0  0  0  0  0  0  0  0
  150.0900  140.9805  153.5901 H   0  0  0  0  0  0  0  0  0  0  0  0
  147.8523  141.1638  152.6594 H   0  0  0  0  0  0  0  0  0  0  0  0
  146.0093  142.4052  153.6677 H   0  0  0  0  0  0  0  0  0  0  0  0
  147.4946  143.2449  155.7721 H   0  0  0  0  0  0  0  0  0  0  0  0
  145.8219  142.8467  156.0981 H   0  0  0  0  0  0  0  0  0  0  0  0
  148.1128  141.3267  157.1391 H   0  0  0  0  0  0  0  0  0  0  0  0
  146.4035  141.0419  157.3843 H   0  0  0  0  0  0  0  0  0  0  0  0
  147.0831  139.0741  156.0418 H   0  0  0  0  0  0  0  0  0  0  0  0
  145.0334  140.5587  155.2850 H   0  0  0  0  0  0  0  0  0  0  0  0
  145.8140  139.8055  153.8752 H   0  0  0  0  0  0  0  0  0  0  0  0
  148.4794  139.2184  154.0459 H   0  0  0  0  0  0  0  0  0  0  0  0
  152.1432  140.9251  158.1932 H   0  0  0  0  0  0  0  0  0  0  0  0
  1  2  1  0  0  0  0
  1 22  1  0  0  0  0
  1 23  1  0  0  0  0
  1 24  1  0  0  0  0
  2  3  1  0  0  0  0
  2  4  1  0  0  0  0
  3 25  1  0  0  0  0
  3 26  1  0  0  0  0
  3 27  1  0  0  0  0
  4 21  1  0  0  0  0
  4  5  2  0  0  0  0
  5  6  1  0  0  0  0
  5 28  1  0  0  0  0
  6  7  2  0  0  0  0
  6 29  1  0  0  0  0
  7  8  1  0  0  0  0
  7 30  1  0  0  0  0
  8  9  2  0  0  0  0
  8 21  1  0  0  0  0
  9 10  1  0  0  0  0
 10 11  2  0  0  0  0
 10 12  1  0  0  0  0
 12 13  1  0  0  0  0
 12 31  1  0  0  0  0
 13 20  1  0  0  0  0
 13 14  1  0  0  0  0
 13 32  1  0  0  0  0
 14 20  1  0  0  0  0
 14 15  1  0  0  0  0
 14 33  1  0  0  0  0
 15 19  1  0  0  0  0
 15 16  1  0  0  0  0
 15 34  1  0  0  0  0
 16 17  1  0  0  0  0
 16 35  1  0  0  0  0
 16 36  1  0  0  0  0
 17 18  1  0  0  0  0
 17 37  1  0  0  0  0
 17 38  1  0  0  0  0
 18 19  1  0  0  0  0
 18 20  1  0  0  0  0
 18 39  1  0  0  0  0
 19 40  1  0  0  0  0
 19 41  1  0  0  0  0
 20 42  1  0  0  0  0
 21 43  1  0  0  0  0
M  END
> <s_m_source_file>
AV-unprocessed.smi

> <i_m_source_file_index>
2706

> <i_lp_mmshare_version>
43012

> <i_f3d_flags>
0

> <s_epik_input>
W0NIM11OKFtDSDNdKWMxW2NIXVtjSF1bY0hdYyhuMSlbTkhdQyg9TylbTkhdW0NASF0yW0NAQEhdM1tDQEBIXShbQ0gyXTQpW0NIMl1bQ0gyXVtDQEBIXTRbQ0BIXTIz

> <s_epik_cmdline>
J2VwaWtfcHl0aG9uJywgJy1waCcsICc3LjAnLCAnLXRuJywgJzgnLCAnLW1hJywgJzIwMCcsICctbWV0YWxfYmluZGluZycsICctaW1hZScsICc8aW5maWxlLm1hZT4nLCAnLW9tYWUnLCAnPG91dGZpbGUubWFlPic=

> <r_lp_tautomer_probability>
0.999994

> <r_epik_Ionization_Penalty>
2.07242

> <r_epik_Ionization_Penalty_Charging>
2.07242

> <r_epik_Ionization_Penalty_Neutral>
9.73808e-07

> <r_epik_State_Penalty>
3.96009

> <r_epik_Charging_Adjusted_Penalty>
6.03251

> <i_epik_Tot_Q>
0

> <i_epik_Tot_abs_Q>
0

> <r_epik_Metal_State_Penalty>
3.98849

> <b_epik_Metal_Only>
1

> <s_lp_Force_Field>
OPLS_2005

> <r_lp_Energy>
108.692

> <b_lp_Chiralities_Consistent>
1

> <s_lp_Variant>
AV-unprocessed.smi:2706-12

> <Gold.Version>
5.8.1

> <Gold.Id.Protein>
6NUR|6NUR_protein|mol2

> <Gold.PLP.Fitness>
43.3230

> <Gold.PLP.PLP>
-41.0798

> <Gold.PLP.part.hbond>
-1.0000

> <Gold.PLP.part.metal>
0.0000

> <Gold.PLP.part.buried>
-5.3585

> <Gold.PLP.part.nonpolar>
-35.8984

> <Gold.PLP.part.repulsive>
1.3513

> <Gold.PLP.ligand.clash>
0.0000

> <Gold.PLP.ligand.torsion>
0.4628

> <Gold.PLP.Chemscore.Hbond>
1.0000

> <Gold.PLP.Chemscore.CHOScore>
0.0000

> <Gold.PLP.Chemscore.Metal>
0.0000

> <Gold.Chemscore.Hbonds>
donor molecule, donor type, donor heavy atom, donor atom, acceptor molecule, acceptor atom, score
      L1  H    12    31       P1  8028  1.00

> <Gold.PLP.Chemscore.Internal.Correction>
0.1688

> <Gold.Rescore>
     Score         DG    S(hbond)    S(metal)    S(lipo)     H(rot)  DE(clash)    DE(int)     intcor
     15.42     -16.02       1.00        0.00      83.53       1.00       0.15       0.45       ----

> <Gold.Chemscore.Fitness>
15.4210

> <Gold.Chemscore.DG>
-16.0214

> <Gold.Chemscore.ZeroCoef>
-5.4800

> <Gold.Chemscore.Hbond>
0.9966

> <Gold.Chemscore.Metal>
0.0000

> <Gold.Chemscore.Lipo>
83.5263

> <Gold.Chemscore.Internal_Hbond>
0.0000

> <Gold.Chemscore.DEClash>
0.1461

> <Gold.Chemscore.DEInternal>
0.4542

> <Gold.Chemscore.Rot>
1.0000

> <Gold.Chemscore.Internal.Correction>
   9.000000E+99

> <Gold.Chemscore.Hbonds>
donor molecule, donor type, donor heavy atom, donor atom, acceptor molecule, acceptor atom, score
      L1  H    12    31       P1  8028  1.00

> <Gold.Chemscore.Hbond.Weighted>
-3.3288

> <Gold.Chemscore.Metal.Weighted>
-0.0000

> <Gold.Chemscore.Lipo.Weighted>
-9.7726

> <Gold.Chemscore.Internal_Hbond.Weighted>
0.0000

> <Gold.Chemscore.DEClash.Weighted>
0.1461

> <Gold.Chemscore.DEInternal.Weighted>
0.4542

> <Gold.Chemscore.Rot.Weighted>
2.5600

> <Gold.Chemscore.Internal.Correction.Weighted>
   9.000000E+99

> <Gold.Protein.RotatedTorsions>
[ 6907 6896 6895 6894 ] final   -0.83 input  -60.11 | X-H torsion
[ 7974 7965 7964 7962 ] final -121.80 input  175.53 | X-H torsion
[ 8008 7997 7996 7995 ] final   82.24 input   59.86 | X-H torsion
[ 10167 10162 10161 10158 ] final   10.31 input  -65.29 | X-H torsion
[ 10718 10713 10712 10709 ] final  127.36 input   66.30 | X-H torsion
[ 10763 10752 10751 10750 ] final   82.45 input  -60.55 | X-H torsion
[ 11005 11000 10999 10996 ] final   12.89 input  -57.11 | X-H torsion

> <Gold.Protein.ActiveResidues>
 VAL166  LYS551  ARG553  GLY616  TRP617  ASP618  TYR619  PRO620  LYS621  CYS622 
 ASP623  PHE694  ASN695  SER759  ASP760  ASP761  ALA762  ILE779  LEU786  VAL792 
 PHE793  MET794  SER795  GLU796  ALA797  LYS798  CYS799  TRP800  GLU811  SER814 

> <Gold.Protein.RotatedAtoms>
  151.5559  135.1066  159.9960 H   0  0  0  0  0  0  0  0  0  0  0  0  # atno 6907 bound_to 6896
  152.4469  133.7550  159.6726 H   0  0  0  0  0  0  0  0  0  0  0  0  # atno 6908 bound_to 6896
  150.8387  133.7903  159.3093 H   0  0  0  0  0  0  0  0  0  0  0  0  # atno 6909 bound_to 6896
  145.0364  140.8109  143.4293 H   0  0  0  0  0  0  0  0  0  0  0  0  # atno 7974 bound_to 7965
  155.9079  140.3429  155.6076 H   0  0  0  0  0  0  0  0  0  0  0  0  # atno 8008 bound_to 7997
  155.7423  140.0809  157.2259 H   0  0  0  0  0  0  0  0  0  0  0  0  # atno 8009 bound_to 7997
  154.4052  140.1568  156.2617 H   0  0  0  0  0  0  0  0  0  0  0  0  # atno 8010 bound_to 7997
  140.6202  143.8221  150.7166 H   0  0  0  0  0  0  0  0  0  0  0  0  # atno 10167 bound_to 10162
  157.5340  131.1098  150.8965 H   0  0  0  0  0  0  0  0  0  0  0  0  # atno 10718 bound_to 10713
  153.1204  135.4728  154.9185 H   0  0  0  0  0  0  0  0  0  0  0  0  # atno 10763 bound_to 10752
  154.7569  135.3121  154.8454 H   0  0  0  0  0  0  0  0  0  0  0  0  # atno 10764 bound_to 10752
  153.9020  135.6874  153.4808 H   0  0  0  0  0  0  0  0  0  0  0  0  # atno 10765 bound_to 10752
  140.4869  134.0879  155.7763 H   0  0  0  0  0  0  0  0  0  0  0  0  # atno 11005 bound_to 11000
  145.1704  139.2407  143.5345 LP  0  0  0  0  0  0  0  0  0  0  0  0  # atno 17320 bound_to 7965
  146.3504  140.1454  142.8593 LP  0  0  0  0  0  0  0  0  0  0  0  0  # atno 17321 bound_to 7965
  140.1809  143.4116  152.1933 LP  0  0  0  0  0  0  0  0  0  0  0  0  # atno 17342 bound_to 10162
  139.5432  144.7275  151.4666 LP  0  0  0  0  0  0  0  0  0  0  0  0  # atno 17343 bound_to 10162
  156.9538  130.5429  149.5283 LP  0  0  0  0  0  0  0  0  0  0  0  0  # atno 17370 bound_to 10713
  156.0444  130.5522  150.8846 LP  0  0  0  0  0  0  0  0  0  0  0  0  # atno 17371 bound_to 10713
  141.1503  133.8980  157.2114 LP  0  0  0  0  0  0  0  0  0  0  0  0  # atno 17394 bound_to 11000
  139.9792  135.0104  156.9708 LP  0  0  0  0  0  0  0  0  0  0  0  0  # atno 17395 bound_to 11000

$$$$
