AV-unprocessed.smi:3034|AV-procd|sdf|11578|dock9
  -GOLD-   2272016543D 1   1.00000     0.00000
 Structure written by MMmdl.
 32 32  0  0  0  0  0  0  0  0  1 V2000
  146.8665  140.0955  153.3845 C   0  0  0  0  0  0  0  0  0  0  0  0
  147.6251  141.4265  153.4099 C   0  0  0  0  0  0  0  0  0  0  0  0
  147.9411  141.8959  154.8369 C   0  0  0  0  0  0  0  0  0  0  0  0
  149.3824  140.9897  155.5459 S   0  0  0  0  0  0  0  0  0  0  0  0
  148.9255  140.1635  156.6743 O   0  0  0  0  0  0  0  0  0  0  0  0
  150.1564  140.3886  154.4495 O   0  0  0  0  0  0  0  0  0  0  0  0
  150.3350  142.2712  156.1927 N   0  0  0  0  0  0  0  0  0  0  0  0
  150.6070  142.2638  157.6301 C   0  0  0  0  0  0  0  0  0  0  0  0
  151.5813  143.3926  158.0098 C   0  0  1  0  0  0  0  0  0  0  0  0
  150.9290  144.6364  157.8345 O   0  0  0  0  0  0  0  0  0  0  0  0
  152.0996  143.2102  159.4312 C   0  0  0  0  0  0  0  0  0  0  0  0
  152.8206  142.0564  159.8174 C   0  0  0  0  0  0  0  0  0  0  0  0
  153.2886  141.9666  161.1425 C   0  0  0  0  0  0  0  0  0  0  0  0
  153.0265  143.0286  162.0286 C   0  0  0  0  0  0  0  0  0  0  0  0
  152.3061  144.1391  161.5473 C   0  0  0  0  0  0  0  0  0  0  0  0
  151.8534  144.2353  160.2789 N   0  0  0  0  0  0  0  0  0  0  0  0
  146.6594  139.7866  152.3598 H   0  0  0  0  0  0  0  0  0  0  0  0
  145.9128  140.1759  153.9067 H   0  0  0  0  0  0  0  0  0  0  0  0
  147.4448  139.3032  153.8602 H   0  0  0  0  0  0  0  0  0  0  0  0
  148.5531  141.3213  152.8472 H   0  0  0  0  0  0  0  0  0  0  0  0
  147.0346  142.1843  152.8944 H   0  0  0  0  0  0  0  0  0  0  0  0
  148.1904  142.9571  154.8306 H   0  0  0  0  0  0  0  0  0  0  0  0
  147.0885  141.7632  155.5030 H   0  0  0  0  0  0  0  0  0  0  0  0
  151.1983  142.3844  155.6617 H   0  0  0  0  0  0  0  0  0  0  0  0
  149.6727  142.3435  158.1875 H   0  0  0  0  0  0  0  0  0  0  0  0
  151.0475  141.2980  157.8817 H   0  0  0  0  0  0  0  0  0  0  0  0
  152.4386  143.3773  157.3346 H   0  0  0  0  0  0  0  0  0  0  0  0
  150.5803  144.6683  156.9570 H   0  0  0  0  0  0  0  0  0  0  0  0
  153.0183  141.2562  159.1198 H   0  0  0  0  0  0  0  0  0  0  0  0
  153.8413  141.0993  161.4724 H   0  0  0  0  0  0  0  0  0  0  0  0
  153.3709  142.9942  163.0516 H   0  0  0  0  0  0  0  0  0  0  0  0
  152.0892  144.9733  162.1979 H   0  0  0  0  0  0  0  0  0  0  0  0
  1  2  1  0  0  0  0
  1 17  1  0  0  0  0
  1 18  1  0  0  0  0
  1 19  1  0  0  0  0
  2  3  1  0  0  0  0
  2 20  1  0  0  0  0
  2 21  1  0  0  0  0
  3  4  1  0  0  0  0
  3 22  1  0  0  0  0
  3 23  1  0  0  0  0
  4  5  2  0  0  0  0
  4  6  2  0  0  0  0
  4  7  1  0  0  0  0
  7  8  1  0  0  0  0
  7 24  1  0  0  0  0
  8  9  1  0  0  0  0
  8 25  1  0  0  0  0
  8 26  1  0  0  0  0
  9 10  1  0  0  0  0
  9 11  1  0  0  0  0
  9 27  1  0  0  0  0
 10 28  1  0  0  0  0
 11 16  1  0  0  0  0
 11 12  2  0  0  0  0
 12 13  1  0  0  0  0
 12 29  1  0  0  0  0
 13 14  2  0  0  0  0
 13 30  1  0  0  0  0
 14 15  1  0  0  0  0
 14 31  1  0  0  0  0
 15 16  2  0  0  0  0
 15 32  1  0  0  0  0
M  END
> <s_m_source_file>
AV-unprocessed.smi

> <i_m_source_file_index>
3034

> <i_lp_mmshare_version>
43012

> <i_f3d_flags>
0

> <s_epik_input>
W0NIM11bQ0gyXVtDSDJdUyg9TykoPU8pW05IXVtDSDJdW0NASF0oW09IXSljMVtjSF1bY0hdW2NIXVtjSF1uMQ==

> <s_epik_cmdline>
J2VwaWtfcHl0aG9uJywgJy1waCcsICc3LjAnLCAnLXRuJywgJzgnLCAnLW1hJywgJzIwMCcsICctbWV0YWxfYmluZGluZycsICctaW1hZScsICc8aW5maWxlLm1hZT4nLCAnLW9tYWUnLCAnPG91dGZpbGUubWFlPic=

> <r_epik_Ionization_Penalty>
0.00187371

> <r_epik_Ionization_Penalty_Charging>
0

> <r_epik_Ionization_Penalty_Neutral>
0.00187371

> <r_epik_State_Penalty>
0.0012608

> <r_epik_Charging_Adjusted_Penalty>
0.0012608

> <i_epik_Tot_Q>
0

> <i_epik_Tot_abs_Q>
0

> <r_epik_Metal_State_Penalty>
0.0168387

> <b_epik_Metal_Only>
0

> <s_lp_Force_Field>
OPLS_2005

> <r_lp_Energy>
4.76334

> <b_lp_Chiralities_Consistent>
1

> <s_lp_Variant>
AV-unprocessed.smi:3034-2

> <Gold.Version>
5.8.1

> <Gold.Id.Protein>
6NUR|6NUR_protein|mol2

> <Gold.PLP.Fitness>
44.5082

> <Gold.PLP.PLP>
-39.1365

> <Gold.PLP.part.hbond>
-3.3731

> <Gold.PLP.part.metal>
0.0000

> <Gold.PLP.part.buried>
-4.8886

> <Gold.PLP.part.nonpolar>
-29.9440

> <Gold.PLP.part.repulsive>
0.2062

> <Gold.PLP.ligand.clash>
0.0000

> <Gold.PLP.ligand.torsion>
0.3964

> <Gold.PLP.Chemscore.Hbond>
1.9920

> <Gold.PLP.Chemscore.CHOScore>
0.0000

> <Gold.PLP.Chemscore.Metal>
0.0000

> <Gold.Chemscore.Hbonds>
donor molecule, donor type, donor heavy atom, donor atom, acceptor molecule, acceptor atom, score
      L1  H    10    28       P1  8028  0.81
      P1  H  7989  7998       L1     6  0.94

> <Gold.PLP.Chemscore.Internal.Correction>
0.1885

> <Gold.Rescore>
     Score         DG    S(hbond)    S(metal)    S(lipo)     H(rot)  DE(clash)    DE(int)     intcor
     15.91     -16.51       1.91        0.00      97.38       2.63       0.06       0.54       ----

> <Gold.Chemscore.Fitness>
15.9125

> <Gold.Chemscore.DG>
-16.5112

> <Gold.Chemscore.ZeroCoef>
-5.4800

> <Gold.Chemscore.Hbond>
1.9056

> <Gold.Chemscore.Metal>
0.0000

> <Gold.Chemscore.Lipo>
97.3760

> <Gold.Chemscore.Internal_Hbond>
0.0000

> <Gold.Chemscore.DEClash>
0.0611

> <Gold.Chemscore.DEInternal>
0.5375

> <Gold.Chemscore.Rot>
2.6275

> <Gold.Chemscore.Internal.Correction>
   9.000000E+99

> <Gold.Chemscore.Hbonds>
donor molecule, donor type, donor heavy atom, donor atom, acceptor molecule, acceptor atom, score
      L1  H    10    28       P1  8028  0.60
      P1  H  7989  7998       L1     6  0.92

> <Gold.Chemscore.Hbond.Weighted>
-6.3647

> <Gold.Chemscore.Metal.Weighted>
-0.0000

> <Gold.Chemscore.Lipo.Weighted>
-11.3930

> <Gold.Chemscore.Internal_Hbond.Weighted>
0.0000

> <Gold.Chemscore.DEClash.Weighted>
0.0611

> <Gold.Chemscore.DEInternal.Weighted>
0.5375

> <Gold.Chemscore.Rot.Weighted>
6.7265

> <Gold.Chemscore.Internal.Correction.Weighted>
   9.000000E+99

> <Gold.Protein.RotatedTorsions>
[ 6907 6896 6895 6894 ] final  -89.82 input  -60.11 | X-H torsion
[ 7974 7965 7964 7962 ] final  -96.69 input  175.53 | X-H torsion
[ 8008 7997 7996 7995 ] final  105.08 input   59.86 | X-H torsion
[ 10167 10162 10161 10158 ] final  135.12 input  -65.29 | X-H torsion
[ 10718 10713 10712 10709 ] final -107.98 input   66.30 | X-H torsion
[ 10763 10752 10751 10750 ] final  -48.64 input  -60.55 | X-H torsion
[ 11005 11000 10999 10996 ] final  150.14 input  -57.11 | X-H torsion

> <Gold.Protein.ActiveResidues>
 VAL166  LYS551  ARG553  GLY616  TRP617  ASP618  TYR619  PRO620  LYS621  CYS622 
 ASP623  PHE694  ASN695  SER759  ASP760  ASP761  ALA762  ILE779  LEU786  VAL792 
 PHE793  MET794  SER795  GLU796  ALA797  LYS798  CYS799  TRP800  GLU811  SER814 

> <Gold.Protein.RotatedAtoms>
  150.6876  134.2527  159.4517 H   0  0  0  0  0  0  0  0  0  0  0  0  # atno 6907 bound_to 6896
  152.0464  134.9678  160.0583 H   0  0  0  0  0  0  0  0  0  0  0  0  # atno 6908 bound_to 6896
  152.1160  133.4292  159.4690 H   0  0  0  0  0  0  0  0  0  0  0  0  # atno 6909 bound_to 6896
  145.3435  140.9464  143.2594 H   0  0  0  0  0  0  0  0  0  0  0  0  # atno 7974 bound_to 7965
  156.1629  140.3136  155.8838 H   0  0  0  0  0  0  0  0  0  0  0  0  # atno 8008 bound_to 7997
  155.3746  140.0484  157.3062 H   0  0  0  0  0  0  0  0  0  0  0  0  # atno 8009 bound_to 7997
  154.5164  140.2183  155.9069 H   0  0  0  0  0  0  0  0  0  0  0  0  # atno 8010 bound_to 7997
  139.5229  144.6533  151.5238 H   0  0  0  0  0  0  0  0  0  0  0  0  # atno 10167 bound_to 10162
  156.0463  130.5689  150.7897 H   0  0  0  0  0  0  0  0  0  0  0  0  # atno 10718 bound_to 10713
  154.0810  135.6591  153.4838 H   0  0  0  0  0  0  0  0  0  0  0  0  # atno 10763 bound_to 10752
  153.0356  135.5180  154.7474 H   0  0  0  0  0  0  0  0  0  0  0  0  # atno 10764 bound_to 10752
  154.6569  135.3009  154.9885 H   0  0  0  0  0  0  0  0  0  0  0  0  # atno 10765 bound_to 10752
  140.1105  134.8927  157.1929 H   0  0  0  0  0  0  0  0  0  0  0  0  # atno 11005 bound_to 11000
  144.8772  139.4954  143.6740 LP  0  0  0  0  0  0  0  0  0  0  0  0  # atno 17320 bound_to 7965
  146.2998  139.7389  142.9100 LP  0  0  0  0  0  0  0  0  0  0  0  0  # atno 17321 bound_to 7965
  140.6347  143.9007  150.6637 LP  0  0  0  0  0  0  0  0  0  0  0  0  # atno 17342 bound_to 10162
  140.2322  143.3727  152.1556 LP  0  0  0  0  0  0  0  0  0  0  0  0  # atno 17343 bound_to 10162
  157.5341  131.0938  150.9916 LP  0  0  0  0  0  0  0  0  0  0  0  0  # atno 17370 bound_to 10713
  157.0215  130.5675  149.5332 LP  0  0  0  0  0  0  0  0  0  0  0  0  # atno 17371 bound_to 10713
  140.3097  134.3037  155.7269 LP  0  0  0  0  0  0  0  0  0  0  0  0  # atno 17394 bound_to 11000
  141.2129  133.7643  156.9759 LP  0  0  0  0  0  0  0  0  0  0  0  0  # atno 17395 bound_to 11000

$$$$
