#       Name:                AV-unprocessed.smi:3085
#       Creating user name   scv26
#       Creation time:       Fri Mar 27 17:14:28 2020


#       File generated by GOLD software.
#

@<TRIPOS>MOLECULE
AV-unprocessed.smi:3085
    32    33     1
SMALL
NO_CHARGES


@<TRIPOS>ATOM
      1 ****        -4.0516   1.0082  -1.5380 C.3            1 S1                 0.0000
      2 ****        -3.5669  -0.4369  -1.3757 C.3            1 S1                 0.0000
      3 ****        -2.0773  -0.5361  -1.3769 C.2            1 S1                 0.0000
      4 ****        -1.3263  -0.4079  -0.2414 N.2            1 S1                 0.0000
      5 ****        -0.1039  -0.5230  -0.7521 C.2            1 S1                 0.0000
      6 ****         1.1720  -0.4516   0.0261 C.3            1 S1                 0.0000
      7 ****         1.5467   0.9929   0.4103 C.3            1 S1                 0.0000
      8 ****         2.7550   0.9923   1.2579 N.4            1 S1                 1.0000
      9 ****         2.5847   0.1239   2.4396 C.3            1 S1                 0.0000
     10 ****         2.1712  -1.2920   2.0007 C.3            1 S1                 0.0000
     11 ****         0.9887  -1.2242   1.2101 O.3            1 S1                 0.0000
     12 ****        -0.1200  -0.6886  -2.0768 N.pl3          1 S1                 0.0000
     13 ****        -1.3974  -0.6931  -2.5117 N.2            1 S1                 0.0000
     14 ****         0.6719  -0.7921  -2.6951 H              1 S1                 0.0000
     15 ****        -5.1407   1.0551  -1.5408 H              1 S1                 0.0000
     16 ****        -3.6974   1.4390  -2.4750 H              1 S1                 0.0000
     17 ****        -3.6927   1.6370  -0.7229 H              1 S1                 0.0000
     18 ****        -3.9509  -0.8537  -0.4440 H              1 S1                 0.0000
     19 ****        -3.9690  -1.0548  -2.1795 H              1 S1                 0.0000
     20 ****         1.9679  -0.8983  -0.5736 H              1 S1                 0.0000
     21 ****         1.7295   1.5949  -0.4803 H              1 S1                 0.0000
     22 ****         0.7307   1.4669   0.9577 H              1 S1                 0.0000
     23 ****         3.5330   0.6484   0.7131 H              1 S1                 0.0000
     24 ****         3.5158   0.0952   3.0061 H              1 S1                 0.0000
     25 ****         1.8235   0.5527   3.0928 H              1 S1                 0.0000
     26 ****         2.9714  -1.7734   1.4363 H              1 S1                 0.0000
     27 ****         1.9780  -1.9155   2.8739 H              1 S1                 0.0000
     28 ****         2.9553   1.9354   1.5595 H              1 S1                 0.0000
     29 ****        -1.6149  -0.2673   0.7057 LP             1 S1                 0.0000
     30 ****         0.7221  -2.1523   0.9502 LP             1 S1                 0.0000
     31 ****         0.2607  -0.8088   1.7555 LP             1 S1                 0.0000
     32 ****        -1.7441  -0.7894  -3.4447 LP             1 S1                 0.0000
@<TRIPOS>BOND
    1    1    2 1     
    2    1   15 1     
    3    1   16 1     
    4    1   17 1     
    5    2   18 1     
    6    2   19 1     
    7    2    3 1     
    8    3    4 1     
    9    3   13 2     
   10    4    5 2     
   11    5    6 1     
   12    5   12 1     
   13    6   11 1     
   14    6    7 1     
   15    6   20 1     
   16    7    8 1     
   17    7   21 1     
   18    7   22 1     
   19    8    9 1     
   20    8   23 1     
   21    8   28 1     
   22    9   10 1     
   23    9   24 1     
   24    9   25 1     
   25   10   11 1     
   26   10   26 1     
   27   10   27 1     
   28   12   13 1     
   29   12   14 1     
   30    4   29 1     
   31   11   30 1     
   32   11   31 1     
   33   13   32 1     
@<TRIPOS>SUBSTRUCTURE
      1 S1             1
@<TRIPOS>SET
LONE_PAIRS      STATIC     ATOMS    <user>   **** ""
4 29 30 31 32
DONOR_HYDROGENS      STATIC     ATOMS    <user>   **** ""
3 23 28 14
ATOM$BLUE        STATIC     ATOMS    COLORGROUP SYSTEM
4 29 30 31 32
ATOM$RED        STATIC     ATOMS    COLORGROUP SYSTEM
3 23 28 14
