AV-unprocessed.smi:426|AV-procd|sdf|2541|dock5
  -GOLD-   2262022503D 1   1.00000     0.00000
 Structure written by MMmdl.
 37 38  0  0  0  0  0  0  0  0  1 V2000
  152.2602  145.7664  159.7518 C   0  0  0  0  0  0  0  0  0  0  0  0
  152.4309  144.3701  159.1299 C   0  0  0  0  0  0  0  0  0  0  0  0
  151.1388  143.9087  158.4352 C   0  0  0  0  0  0  0  0  0  0  0  0
  152.8687  143.3494  160.1896 C   0  0  0  0  0  0  0  0  0  0  0  0
  153.0583  143.7208  161.3478 O   0  0  0  0  0  0  0  0  0  0  0  0
  153.0351  142.0867  159.7529 N   0  0  0  0  0  0  0  0  0  0  0  0
  153.4061  140.9256  160.4849 C   0  0  0  0  0  0  0  0  0  0  0  0
  154.3553  140.9046  161.5334 C   0  0  0  0  0  0  0  0  0  0  0  0
  154.6162  139.6886  162.1937 C   0  0  0  0  0  0  0  0  0  0  0  0
  153.9176  138.5220  161.8029 C   0  0  0  0  0  0  0  0  0  0  0  0
  154.1589  137.2944  162.4583 N   0  0  0  0  0  0  0  0  0  0  0  0
  153.7452  136.0646  161.7844 C   0  0  0  0  0  0  0  0  0  0  0  0
  154.3365  134.8364  162.4971 C   0  0  0  0  0  0  0  0  0  0  0  0
  153.9720  134.8583  163.8729 O   0  0  0  0  0  0  0  0  0  0  0  0
  154.4814  136.0103  164.5361 C   0  0  0  0  0  0  0  0  0  0  0  0
  153.8981  137.2818  163.8958 C   0  0  0  0  0  0  0  0  0  0  0  0
  153.0063  138.5473  160.7993 N   0  0  0  0  0  0  0  0  0  0  0  0
  152.7596  139.7144  160.1687 C   0  0  0  0  0  0  0  0  0  0  0  0
  153.1731  146.0928  160.2516 H   0  0  0  0  0  0  0  0  0  0  0  0
  151.4534  145.7843  160.4858 H   0  0  0  0  0  0  0  0  0  0  0  0
  152.0246  146.5069  158.9870 H   0  0  0  0  0  0  0  0  0  0  0  0
  153.2128  144.4362  158.3714 H   0  0  0  0  0  0  0  0  0  0  0  0
  151.2556  142.9153  157.9998 H   0  0  0  0  0  0  0  0  0  0  0  0
  150.8671  144.5890  157.6277 H   0  0  0  0  0  0  0  0  0  0  0  0
  150.2996  143.8710  159.1311 H   0  0  0  0  0  0  0  0  0  0  0  0
  152.9162  141.9483  158.7596 H   0  0  0  0  0  0  0  0  0  0  0  0
  154.8809  141.7897  161.8547 H   0  0  0  0  0  0  0  0  0  0  0  0
  155.3531  139.6661  162.9824 H   0  0  0  0  0  0  0  0  0  0  0  0
  152.6558  136.0044  161.7794 H   0  0  0  0  0  0  0  0  0  0  0  0
  154.0771  136.0726  160.7456 H   0  0  0  0  0  0  0  0  0  0  0  0
  153.9571  133.9207  162.0436 H   0  0  0  0  0  0  0  0  0  0  0  0
  155.4230  134.8142  162.3979 H   0  0  0  0  0  0  0  0  0  0  0  0
  154.2084  135.9622  165.5902 H   0  0  0  0  0  0  0  0  0  0  0  0
  155.5716  136.0178  164.4903 H   0  0  0  0  0  0  0  0  0  0  0  0
  154.3231  138.1527  164.3925 H   0  0  0  0  0  0  0  0  0  0  0  0
  152.8200  137.3196  164.0572 H   0  0  0  0  0  0  0  0  0  0  0  0
  152.0200  139.6766  159.3820 H   0  0  0  0  0  0  0  0  0  0  0  0
  1  2  1  0  0  0  0
  1 19  1  0  0  0  0
  1 20  1  0  0  0  0
  1 21  1  0  0  0  0
  2  3  1  0  0  0  0
  2  4  1  0  0  0  0
  2 22  1  0  0  0  0
  3 23  1  0  0  0  0
  3 24  1  0  0  0  0
  3 25  1  0  0  0  0
  4  5  2  0  0  0  0
  4  6  1  0  0  0  0
  6  7  1  0  0  0  0
  6 26  1  0  0  0  0
  7 18  1  0  0  0  0
  7  8  2  0  0  0  0
  8  9  1  0  0  0  0
  8 27  1  0  0  0  0
  9 10  2  0  0  0  0
  9 28  1  0  0  0  0
 10 11  1  0  0  0  0
 10 17  1  0  0  0  0
 11 16  1  0  0  0  0
 11 12  1  0  0  0  0
 12 13  1  0  0  0  0
 12 29  1  0  0  0  0
 12 30  1  0  0  0  0
 13 14  1  0  0  0  0
 13 31  1  0  0  0  0
 13 32  1  0  0  0  0
 14 15  1  0  0  0  0
 15 16  1  0  0  0  0
 15 33  1  0  0  0  0
 15 34  1  0  0  0  0
 16 35  1  0  0  0  0
 16 36  1  0  0  0  0
 17 18  2  0  0  0  0
 18 37  1  0  0  0  0
M  END
> <s_m_source_file>
AV-unprocessed.smi

> <i_m_source_file_index>
426

> <i_lp_mmshare_version>
43012

> <i_f3d_flags>
0

> <s_epik_input>
W0NIM11bQ0hdKFtDSDNdKUMoPU8pW05IXWMxW2NIXVtjSF1jKG5bY0hdMSlOMltDSDJdW0NIMl1PW0NIMl1bQ0gyXTI=

> <s_epik_cmdline>
J2VwaWtfcHl0aG9uJywgJy1waCcsICc3LjAnLCAnLXRuJywgJzgnLCAnLW1hJywgJzIwMCcsICctbWV0YWxfYmluZGluZycsICctaW1hZScsICc8aW5maWxlLm1hZT4nLCAnLW9tYWUnLCAnPG91dGZpbGUubWFlPic=

> <r_lp_tautomer_probability>
1

> <r_epik_Ionization_Penalty>
0.000693659

> <r_epik_Ionization_Penalty_Charging>
0

> <r_epik_Ionization_Penalty_Neutral>
0.000693659

> <r_epik_State_Penalty>
0.000430321

> <r_epik_Charging_Adjusted_Penalty>
0.000430321

> <i_epik_Tot_Q>
0

> <i_epik_Tot_abs_Q>
0

> <r_epik_Metal_State_Penalty>
-0

> <b_epik_Metal_Only>
0

> <s_lp_Force_Field>
OPLS_2005

> <r_lp_Energy>
23.904

> <b_lp_Chiralities_Consistent>
1

> <s_lp_Variant>
AV-unprocessed.smi:426-1

> <Gold.Version>
5.8.1

> <Gold.Id.Protein>
6NUR|6NUR_protein|mol2

> <Gold.PLP.Fitness>
38.2012

> <Gold.PLP.PLP>
-38.9892

> <Gold.PLP.part.hbond>
0.0000

> <Gold.PLP.part.metal>
0.0000

> <Gold.PLP.part.buried>
-5.2098

> <Gold.PLP.part.nonpolar>
-34.1429

> <Gold.PLP.part.repulsive>
0.1886

> <Gold.PLP.ligand.clash>
0.0000

> <Gold.PLP.ligand.torsion>
0.5701

> <Gold.PLP.Chemscore.Hbond>
0.0000

> <Gold.PLP.Chemscore.CHOScore>
0.0000

> <Gold.PLP.Chemscore.Metal>
0.0000

> <Gold.PLP.Chemscore.Internal.Correction>
0.3522

> <Gold.Rescore>
     Score         DG    S(hbond)    S(metal)    S(lipo)     H(rot)  DE(clash)    DE(int)     intcor
     13.53     -14.21       0.00        0.00     100.37       1.18       0.03       0.65       ----

> <Gold.Chemscore.Fitness>
13.5336

> <Gold.Chemscore.DG>
-14.2147

> <Gold.Chemscore.ZeroCoef>
-5.4800

> <Gold.Chemscore.Hbond>
0.0000

> <Gold.Chemscore.Metal>
0.0000

> <Gold.Chemscore.Lipo>
100.3654

> <Gold.Chemscore.Internal_Hbond>
0.0000

> <Gold.Chemscore.DEClash>
0.0270

> <Gold.Chemscore.DEInternal>
0.6542

> <Gold.Chemscore.Rot>
1.1750

> <Gold.Chemscore.Internal.Correction>
   9.000000E+99

> <Gold.Chemscore.Hbond.Weighted>
-0.0000

> <Gold.Chemscore.Metal.Weighted>
-0.0000

> <Gold.Chemscore.Lipo.Weighted>
-11.7428

> <Gold.Chemscore.Internal_Hbond.Weighted>
0.0000

> <Gold.Chemscore.DEClash.Weighted>
0.0270

> <Gold.Chemscore.DEInternal.Weighted>
0.6542

> <Gold.Chemscore.Rot.Weighted>
3.0080

> <Gold.Chemscore.Internal.Correction.Weighted>
   9.000000E+99

> <Gold.Protein.RotatedTorsions>
[ 6907 6896 6895 6894 ] final  153.06 input  -60.11 | X-H torsion
[ 7974 7965 7964 7962 ] final    0.29 input  175.53 | X-H torsion
[ 8008 7997 7996 7995 ] final  107.66 input   59.86 | X-H torsion
[ 10167 10162 10161 10158 ] final  -45.93 input  -65.29 | X-H torsion
[ 10718 10713 10712 10709 ] final  129.45 input   66.30 | X-H torsion
[ 10763 10752 10751 10750 ] final  -88.99 input  -60.55 | X-H torsion
[ 11005 11000 10999 10996 ] final -151.58 input  -57.11 | X-H torsion

> <Gold.Protein.ActiveResidues>
 VAL166  LYS551  ARG553  GLY616  TRP617  ASP618  TYR619  PRO620  LYS621  CYS622 
 ASP623  PHE694  ASN695  SER759  ASP760  ASP761  ALA762  ILE779  LEU786  VAL792 
 PHE793  MET794  SER795  GLU796  ALA797  LYS798  CYS799  TRP800  GLU811  SER814 

> <Gold.Protein.RotatedAtoms>
  152.0780  133.4139  159.4488 H   0  0  0  0  0  0  0  0  0  0  0  0  # atno 6907 bound_to 6896
  150.6862  134.3015  159.4717 H   0  0  0  0  0  0  0  0  0  0  0  0  # atno 6908 bound_to 6896
  152.0854  134.9443  160.0623 H   0  0  0  0  0  0  0  0  0  0  0  0  # atno 6909 bound_to 6896
  146.2433  140.1159  142.8342 H   0  0  0  0  0  0  0  0  0  0  0  0  # atno 7974 bound_to 7965
  156.1842  140.3091  155.9206 H   0  0  0  0  0  0  0  0  0  0  0  0  # atno 8008 bound_to 7997
  155.3318  140.0461  157.3060 H   0  0  0  0  0  0  0  0  0  0  0  0  # atno 8009 bound_to 7997
  154.5376  140.2251  155.8705 H   0  0  0  0  0  0  0  0  0  0  0  0  # atno 8010 bound_to 7997
  140.6838  143.2855  151.3710 H   0  0  0  0  0  0  0  0  0  0  0  0  # atno 10167 bound_to 10162
  157.5153  131.1097  150.9234 H   0  0  0  0  0  0  0  0  0  0  0  0  # atno 10718 bound_to 10713
  154.6504  135.5357  153.7895 H   0  0  0  0  0  0  0  0  0  0  0  0  # atno 10763 bound_to 10752
  153.0383  135.6481  154.1025 H   0  0  0  0  0  0  0  0  0  0  0  0  # atno 10764 bound_to 10752
  154.0942  135.2938  155.3245 H   0  0  0  0  0  0  0  0  0  0  0  0  # atno 10765 bound_to 10752
  140.7280  134.3653  157.5172 H   0  0  0  0  0  0  0  0  0  0  0  0  # atno 11005 bound_to 11000
  145.0447  140.8972  143.5031 LP  0  0  0  0  0  0  0  0  0  0  0  0  # atno 17320 bound_to 7965
  145.1246  139.2671  143.5571 LP  0  0  0  0  0  0  0  0  0  0  0  0  # atno 17321 bound_to 7965
  139.6180  144.0964  152.2364 LP  0  0  0  0  0  0  0  0  0  0  0  0  # atno 17342 bound_to 10162
  140.0399  144.6015  150.7419 LP  0  0  0  0  0  0  0  0  0  0  0  0  # atno 17343 bound_to 10162
  156.9861  130.5545  149.5300 LP  0  0  0  0  0  0  0  0  0  0  0  0  # atno 17370 bound_to 10713
  156.0316  130.5407  150.8548 LP  0  0  0  0  0  0  0  0  0  0  0  0  # atno 17371 bound_to 10713
  139.8833  134.8999  156.2777 LP  0  0  0  0  0  0  0  0  0  0  0  0  # atno 17394 bound_to 11000
  140.9946  133.7188  156.0865 LP  0  0  0  0  0  0  0  0  0  0  0  0  # atno 17395 bound_to 11000

$$$$
