#       Name:                AV-unprocessed.smi:34
#       Creating user name   scv26
#       Creation time:       Thu Mar 26 15:54:46 2020


#       File generated by GOLD software.
#

@<TRIPOS>MOLECULE
AV-unprocessed.smi:34
    66    70     1
SMALL
NO_CHARGES


@<TRIPOS>ATOM
      1 ****        -5.4778   0.8494   0.4275 O.2            1 S1                 0.0000
      2 ****        -5.5132  -0.3740   0.5632 C.2            1 S1                 0.0000
      3 ****        -4.3146  -1.1928   0.5096 N.am           1 S1                 0.0000
      4 ****        -3.0286  -0.7871   0.3893 C.ar           1 S1                 0.0000
      5 ****        -2.6862   0.5210   0.2538 N.ar           1 S1                 0.0000
      6 ****        -1.4023   0.8718   0.1387 C.ar           1 S1                 0.0000
      7 ****        -0.3221   0.0889   0.1359 N.ar           1 S1                 0.0000
      8 ****        -0.6556  -1.2271   0.2709 C.ar           1 S1                 0.0000
      9 ****        -1.9765  -1.7399   0.4015 C.ar           1 S1                 0.0000
     10 ****        -1.9343  -3.1231   0.5195 N.2            1 S1                 0.0000
     11 ****        -0.6607  -3.4064   0.4644 C.2            1 S1                 0.0000
     12 ****         0.1802  -2.3258   0.3131 N.pl3          1 S1                 0.0000
     13 ****         1.6765  -2.3385   0.2240 C.3            1 S1                 0.0000
     14 ****         2.1598  -1.3047   1.0274 O.3            1 S1                 0.0000
     15 ****         3.1302  -0.5482   0.3150 C.3            1 S1                 0.0000
     16 ****         3.1501   0.8951   0.8320 C.3            1 S1                 0.0000
     17 ****         4.2148   1.6052   0.2210 O.3            1 S1                 0.0000
     18 ****         4.3768   2.9198   0.4666 C.2            1 S1                 0.0000
     19 ****         3.6479   3.5678   1.2205 O.2            1 S1                 0.0000
     20 ****         5.5319   3.5096  -0.2697 C.ar           1 S1                 0.0000
     21 ****         5.8416   4.8783  -0.0914 C.ar           1 S1                 0.0000
     22 ****         6.9255   5.4634  -0.7741 C.ar           1 S1                 0.0000
     23 ****         7.7130   4.6872  -1.6441 C.ar           1 S1                 0.0000
     24 ****         7.4148   3.3248  -1.8310 C.ar           1 S1                 0.0000
     25 ****         6.3313   2.7377  -1.1489 C.ar           1 S1                 0.0000
     26 ****         2.7164  -0.6852  -1.1491 C.3            1 S1                 0.0000
     27 ****         3.7519  -0.5089  -1.9709 F              1 S1                 0.0000
     28 ****         2.1937  -2.1090  -1.2135 C.3            1 S1                 0.0000
     29 ****         1.2188  -2.2509  -2.2313 O.3            1 S1                 0.0000
     30 ****        -6.8110  -1.1139   0.7122 C.ar           1 S1                 0.0000
     31 ****        -8.0016  -0.5658   0.1840 C.ar           1 S1                 0.0000
     32 ****        -9.2267  -1.2445   0.3337 C.ar           1 S1                 0.0000
     33 ****        -9.2731  -2.4736   1.0180 C.ar           1 S1                 0.0000
     34 ****        -8.0941  -3.0214   1.5575 C.ar           1 S1                 0.0000
     35 ****        -6.8685  -2.3431   1.4098 C.ar           1 S1                 0.0000
     36 ****        -4.4570  -2.1886   0.5936 H              1 S1                 0.0000
     37 ****        -1.2137   1.9301   0.0351 H              1 S1                 0.0000
     38 ****        -0.2970  -4.4214   0.5317 H              1 S1                 0.0000
     39 ****         1.9657  -3.3090   0.6290 H              1 S1                 0.0000
     40 ****         4.0992  -1.0244   0.4752 H              1 S1                 0.0000
     41 ****         2.1979   1.3852   0.6242 H              1 S1                 0.0000
     42 ****         3.2910   0.8998   1.9135 H              1 S1                 0.0000
     43 ****         5.2512   5.4946   0.5714 H              1 S1                 0.0000
     44 ****         7.1523   6.5096  -0.6297 H              1 S1                 0.0000
     45 ****         8.5443   5.1361  -2.1674 H              1 S1                 0.0000
     46 ****         8.0176   2.7280  -2.4995 H              1 S1                 0.0000
     47 ****         6.1293   1.6898  -1.3163 H              1 S1                 0.0000
     48 ****         1.9442   0.0394  -1.4103 H              1 S1                 0.0000
     49 ****         3.0161  -2.8046  -1.3864 H              1 S1                 0.0000
     50 ****         0.8667  -3.1267  -2.1907 H              1 S1                 0.0000
     51 ****        -7.9835   0.3773  -0.3432 H              1 S1                 0.0000
     52 ****       -10.1316  -0.8206  -0.0760 H              1 S1                 0.0000
     53 ****       -10.2128  -2.9935   1.1324 H              1 S1                 0.0000
     54 ****        -8.1299  -3.9617   2.0879 H              1 S1                 0.0000
     55 ****        -5.9781  -2.7766   1.8412 H              1 S1                 0.0000
     56 ****        -4.6037   1.3104   0.2746 LP             1 S1                 0.0000
     57 ****        -6.3232   1.3819   0.4701 LP             1 S1                 0.0000
     58 ****        -3.3978   1.2235   0.2402 LP             1 S1                 0.0000
     59 ****         0.6155   0.4249   0.0460 LP             1 S1                 0.0000
     60 ****        -2.7018  -3.7558   0.6228 LP             1 S1                 0.0000
     61 ****         2.5792  -1.6918   1.8485 LP             1 S1                 0.0000
     62 ****         1.4019  -0.7075   1.2901 LP             1 S1                 0.0000
     63 ****         2.8870   3.1185   1.6886 LP             1 S1                 0.0000
     64 ****         3.8175   4.5428   1.3640 LP             1 S1                 0.0000
     65 ****         1.6401  -2.0981  -3.1253 LP             1 S1                 0.0000
     66 ****         0.4853  -1.5859  -2.0905 LP             1 S1                 0.0000
@<TRIPOS>BOND
    1    1    2 2     
    2    2    3 am    
    3    2   30 1     
    4    3    4 1     
    5    3   36 1     
    6    4    9 ar    
    7    4    5 ar    
    8    5    6 ar    
    9    6    7 ar    
   10    6   37 1     
   11    7    8 ar    
   12    8   12 1     
   13    8    9 ar    
   14    9   10 1     
   15   10   11 2     
   16   11   12 1     
   17   11   38 1     
   18   12   13 1     
   19   13   28 1     
   20   13   14 1     
   21   13   39 1     
   22   14   15 1     
   23   15   16 1     
   24   15   26 1     
   25   15   40 1     
   26   16   17 1     
   27   16   41 1     
   28   16   42 1     
   29   17   18 1     
   30   18   19 2     
   31   18   20 1     
   32   20   25 ar    
   33   20   21 ar    
   34   21   22 ar    
   35   21   43 1     
   36   22   23 ar    
   37   22   44 1     
   38   23   24 ar    
   39   23   45 1     
   40   24   25 ar    
   41   24   46 1     
   42   25   47 1     
   43   26   27 1     
   44   26   28 1     
   45   26   48 1     
   46   28   29 1     
   47   28   49 1     
   48   29   50 1     
   49   30   35 ar    
   50   30   31 ar    
   51   31   32 ar    
   52   31   51 1     
   53   32   33 ar    
   54   32   52 1     
   55   33   34 ar    
   56   33   53 1     
   57   34   35 ar    
   58   34   54 1     
   59   35   55 1     
   60    1   56 1     
   61    1   57 1     
   62    5   58 1     
   63    7   59 1     
   64   10   60 1     
   65   14   61 1     
   66   14   62 1     
   67   19   63 1     
   68   19   64 1     
   69   29   65 1     
   70   29   66 1     
@<TRIPOS>SUBSTRUCTURE
      1 S1             1
@<TRIPOS>SET
LONE_PAIRS      STATIC     ATOMS    <user>   **** ""
11 56 57 58 59 60 61 62 63 64 65 66
DONOR_HYDROGENS      STATIC     ATOMS    <user>   **** ""
2 36 50
ATOM$BLUE        STATIC     ATOMS    COLORGROUP SYSTEM
11 56 57 58 59 60 61 62 63 64 65 66
ATOM$RED        STATIC     ATOMS    COLORGROUP SYSTEM
2 36 50
