AV-unprocessed.smi:406|AV-procd|sdf|2499|dock4
  -GOLD-   2262022443D 1   1.00000     0.00000
 Structure written by MMmdl.
 35 36  0  0  0  0  0  0  0  0  1 V2000
  148.9623  133.3090  153.6393 C   0  0  0  0  0  0  0  0  0  0  0  0
  149.7300  133.6724  154.9144 C   0  0  0  0  0  0  0  0  0  0  0  0
  149.2820  135.0187  155.5060 C   0  0  0  0  0  0  0  0  0  0  0  0
  149.8441  136.1441  154.7688 N   0  0  0  0  0  0  0  0  0  0  0  0
  150.6106  137.1095  155.3002 C   0  0  0  0  0  0  0  0  0  0  0  0
  150.9226  137.1502  156.4904 O   0  0  0  0  0  0  0  0  0  0  0  0
  151.1044  138.1954  154.3431 C   0  0  0  0  0  0  0  0  0  0  0  0
  150.3826  139.4836  154.6104 C   0  0  0  0  0  0  0  0  0  0  0  0
  149.1954  139.8974  154.0555 C   0  0  0  0  0  0  0  0  0  0  0  0
  148.7065  141.4628  154.6475 S   0  0  0  0  0  0  0  0  0  0  0  0
  150.1679  141.5081  155.6208 C   0  0  0  0  0  0  0  0  0  0  0  0
  150.4584  142.5868  156.4972 N   0  0  0  0  0  0  0  0  0  0  0  0
  151.2144  142.6147  157.6135 C   0  0  0  0  0  0  0  0  0  0  0  0
  151.7756  141.5895  157.9977 O   0  0  0  0  0  0  0  0  0  0  0  0
  151.3499  143.9122  158.3551 C   0  0  0  0  0  0  0  0  0  0  0  0
  152.7142  144.5684  158.3457 C   0  0  0  0  0  0  0  0  0  0  0  0
  152.1974  143.9398  159.6138 C   0  0  0  0  0  0  0  0  0  0  0  0
  150.9148  140.4037  155.5190 N   0  0  0  0  0  0  0  0  0  0  0  0
  149.2979  132.3501  153.2437 H   0  0  0  0  0  0  0  0  0  0  0  0
  149.1113  134.0597  152.8627 H   0  0  0  0  0  0  0  0  0  0  0  0
  147.8919  133.2331  153.8325 H   0  0  0  0  0  0  0  0  0  0  0  0
  149.5928  132.8825  155.6536 H   0  0  0  0  0  0  0  0  0  0  0  0
  150.7970  133.7026  154.6901 H   0  0  0  0  0  0  0  0  0  0  0  0
  148.1929  135.0877  155.5217 H   0  0  0  0  0  0  0  0  0  0  0  0
  149.6123  135.0968  156.5422 H   0  0  0  0  0  0  0  0  0  0  0  0
  149.6384  136.1906  153.7813 H   0  0  0  0  0  0  0  0  0  0  0  0
  152.1818  138.3266  154.4528 H   0  0  0  0  0  0  0  0  0  0  0  0
  150.9390  137.8641  153.3170 H   0  0  0  0  0  0  0  0  0  0  0  0
  148.5797  139.3764  153.3374 H   0  0  0  0  0  0  0  0  0  0  0  0
  150.0062  143.4581  156.2618 H   0  0  0  0  0  0  0  0  0  0  0  0
  150.4799  144.5659  158.3657 H   0  0  0  0  0  0  0  0  0  0  0  0
  153.5261  144.0594  157.8292 H   0  0  0  0  0  0  0  0  0  0  0  0
  152.7357  145.6543  158.2807 H   0  0  0  0  0  0  0  0  0  0  0  0
  151.8705  144.6015  160.4132 H   0  0  0  0  0  0  0  0  0  0  0  0
  152.6820  143.0243  159.9482 H   0  0  0  0  0  0  0  0  0  0  0  0
  1  2  1  0  0  0  0
  1 19  1  0  0  0  0
  1 20  1  0  0  0  0
  1 21  1  0  0  0  0
  2  3  1  0  0  0  0
  2 22  1  0  0  0  0
  2 23  1  0  0  0  0
  3  4  1  0  0  0  0
  3 24  1  0  0  0  0
  3 25  1  0  0  0  0
  4  5  1  0  0  0  0
  4 26  1  0  0  0  0
  5  6  2  0  0  0  0
  5  7  1  0  0  0  0
  7  8  1  0  0  0  0
  7 27  1  0  0  0  0
  7 28  1  0  0  0  0
  8 18  1  0  0  0  0
  8  9  2  0  0  0  0
  9 10  1  0  0  0  0
  9 29  1  0  0  0  0
 10 11  1  0  0  0  0
 11 12  1  0  0  0  0
 11 18  2  0  0  0  0
 12 13  1  0  0  0  0
 12 30  1  0  0  0  0
 13 14  2  0  0  0  0
 13 15  1  0  0  0  0
 15 17  1  0  0  0  0
 15 16  1  0  0  0  0
 15 31  1  0  0  0  0
 16 17  1  0  0  0  0
 16 32  1  0  0  0  0
 16 33  1  0  0  0  0
 17 34  1  0  0  0  0
 17 35  1  0  0  0  0
M  END
> <s_m_source_file>
AV-unprocessed.smi

> <i_m_source_file_index>
406

> <i_lp_mmshare_version>
43012

> <i_f3d_flags>
0

> <s_epik_input>
W0NIM11bQ0gyXVtDSDJdW05IXUMoPU8pW0NIMl1jMVtjSF1zYyhuMSlbTkhdQyg9TylbQ0hdMltDSDJdW0NIMl0y

> <s_epik_cmdline>
J2VwaWtfcHl0aG9uJywgJy1waCcsICc3LjAnLCAnLXRuJywgJzgnLCAnLW1hJywgJzIwMCcsICctbWV0YWxfYmluZGluZycsICctaW1hZScsICc8aW5maWxlLm1hZT4nLCAnLW9tYWUnLCAnPG91dGZpbGUubWFlPic=

> <r_lp_tautomer_probability>
1

> <r_epik_Ionization_Penalty>
0.000156784

> <r_epik_Ionization_Penalty_Charging>
0

> <r_epik_Ionization_Penalty_Neutral>
0.000156784

> <r_epik_State_Penalty>
-0

> <r_epik_Charging_Adjusted_Penalty>
0

> <i_epik_Tot_Q>
0

> <i_epik_Tot_abs_Q>
0

> <r_epik_Metal_State_Penalty>
0.0968639

> <b_epik_Metal_Only>
0

> <s_lp_Force_Field>
OPLS_2005

> <r_lp_Energy>
11.5054

> <b_lp_Chiralities_Consistent>
1

> <s_lp_Variant>
AV-unprocessed.smi:406-1

> <Gold.Version>
5.8.1

> <Gold.Id.Protein>
6NUR|6NUR_protein|mol2

> <Gold.PLP.Fitness>
46.9551

> <Gold.PLP.PLP>
-41.0869

> <Gold.PLP.part.hbond>
-3.0000

> <Gold.PLP.part.metal>
0.0000

> <Gold.PLP.part.buried>
-2.7294

> <Gold.PLP.part.nonpolar>
-35.5574

> <Gold.PLP.part.repulsive>
0.1654

> <Gold.PLP.ligand.clash>
0.0000

> <Gold.PLP.ligand.torsion>
0.7600

> <Gold.PLP.Chemscore.Hbond>
2.0000

> <Gold.PLP.Chemscore.CHOScore>
0.4321

> <Gold.PLP.Chemscore.Metal>
0.0000

> <Gold.Chemscore.Hbonds>
donor molecule, donor type, donor heavy atom, donor atom, acceptor molecule, acceptor atom, score
      L1  H     4    26       P1  7948  1.00
      L1  H    12    30       P1  8028  1.00
      L1  C     9    29       P1  7957  0.46

> <Gold.PLP.Chemscore.Internal.Correction>
0.0919

> <Gold.Rescore>
     Score         DG    S(hbond)    S(metal)    S(lipo)     H(rot)  DE(clash)    DE(int)     intcor
     14.79     -17.08       1.94        0.00      85.59       1.91       0.18       2.11       ----

> <Gold.Chemscore.Fitness>
14.7918

> <Gold.Chemscore.DG>
-17.0821

> <Gold.Chemscore.ZeroCoef>
-5.4800

> <Gold.Chemscore.Hbond>
1.9371

> <Gold.Chemscore.Metal>
0.0000

> <Gold.Chemscore.Lipo>
85.5914

> <Gold.Chemscore.Internal_Hbond>
0.0000

> <Gold.Chemscore.DEClash>
0.1784

> <Gold.Chemscore.DEInternal>
2.1120

> <Gold.Chemscore.Rot>
1.9070

> <Gold.Chemscore.Internal.Correction>
   9.000000E+99

> <Gold.Chemscore.Hbonds>
donor molecule, donor type, donor heavy atom, donor atom, acceptor molecule, acceptor atom, score
      L1  H     4    26       P1  7948  0.43
      L1  H    12    30       P1  8028  1.00

> <Gold.Chemscore.Hbond.Weighted>
-6.4699

> <Gold.Chemscore.Metal.Weighted>
-0.0000

> <Gold.Chemscore.Lipo.Weighted>
-10.0142

> <Gold.Chemscore.Internal_Hbond.Weighted>
0.0000

> <Gold.Chemscore.DEClash.Weighted>
0.1784

> <Gold.Chemscore.DEInternal.Weighted>
2.1120

> <Gold.Chemscore.Rot.Weighted>
4.8820

> <Gold.Chemscore.Internal.Correction.Weighted>
   9.000000E+99

> <Gold.Protein.RotatedTorsions>
[ 6907 6896 6895 6894 ] final   60.47 input  -60.11 | X-H torsion
[ 7974 7965 7964 7962 ] final  112.65 input  175.53 | X-H torsion
[ 8008 7997 7996 7995 ] final  175.28 input   59.86 | X-H torsion
[ 10167 10162 10161 10158 ] final  -18.94 input  -65.29 | X-H torsion
[ 10718 10713 10712 10709 ] final   41.27 input   66.30 | X-H torsion
[ 10763 10752 10751 10750 ] final   55.37 input  -60.55 | X-H torsion
[ 11005 11000 10999 10996 ] final    3.56 input  -57.11 | X-H torsion

> <Gold.Protein.ActiveResidues>
 VAL166  LYS551  ARG553  GLY616  TRP617  ASP618  TYR619  PRO620  LYS621  CYS622 
 ASP623  PHE694  ASN695  SER759  ASP760  ASP761  ALA762  ILE779  LEU786  VAL792 
 PHE793  MET794  SER795  GLU796  ALA797  LYS798  CYS799  TRP800  GLU811  SER814 

> <Gold.Protein.RotatedAtoms>
  152.4006  134.6293  160.0071 H   0  0  0  0  0  0  0  0  0  0  0  0  # atno 6907 bound_to 6896
  151.6499  133.3316  159.3157 H   0  0  0  0  0  0  0  0  0  0  0  0  # atno 6908 bound_to 6896
  150.7907  134.6971  159.6574 H   0  0  0  0  0  0  0  0  0  0  0  0  # atno 6909 bound_to 6896
  145.2268  139.2837  143.4189 H   0  0  0  0  0  0  0  0  0  0  0  0  # atno 7974 bound_to 7965
  156.0887  140.1413  156.9620 H   0  0  0  0  0  0  0  0  0  0  0  0  # atno 8008 bound_to 7997
  154.4628  140.0937  156.6988 H   0  0  0  0  0  0  0  0  0  0  0  0  # atno 8009 bound_to 7997
  155.4956  140.3449  155.4364 H   0  0  0  0  0  0  0  0  0  0  0  0  # atno 8010 bound_to 7997
  140.7264  143.4867  151.0046 H   0  0  0  0  0  0  0  0  0  0  0  0  # atno 10167 bound_to 10162
  157.3917  130.7810  149.7275 H   0  0  0  0  0  0  0  0  0  0  0  0  # atno 10718 bound_to 10713
  152.9816  135.5713  154.5055 H   0  0  0  0  0  0  0  0  0  0  0  0  # atno 10763 bound_to 10752
  154.4568  135.2780  155.1744 H   0  0  0  0  0  0  0  0  0  0  0  0  # atno 10764 bound_to 10752
  154.3348  135.6241  153.5622 H   0  0  0  0  0  0  0  0  0  0  0  0  # atno 10765 bound_to 10752
  140.5917  133.9917  155.8092 H   0  0  0  0  0  0  0  0  0  0  0  0  # atno 11005 bound_to 11000
  146.3363  140.2591  142.8601 LP  0  0  0  0  0  0  0  0  0  0  0  0  # atno 17320 bound_to 7965
  144.9713  140.8372  143.5453 LP  0  0  0  0  0  0  0  0  0  0  0  0  # atno 17321 bound_to 7965
  139.8569  143.7365  152.3175 LP  0  0  0  0  0  0  0  0  0  0  0  0  # atno 17342 bound_to 10162
  139.7567  144.7518  151.0425 LP  0  0  0  0  0  0  0  0  0  0  0  0  # atno 17343 bound_to 10162
  155.9800  130.4034  150.3554 LP  0  0  0  0  0  0  0  0  0  0  0  0  # atno 17370 bound_to 10713
  157.1671  131.0359  151.2813 LP  0  0  0  0  0  0  0  0  0  0  0  0  # atno 17371 bound_to 10713
  141.0930  133.9887  157.3206 LP  0  0  0  0  0  0  0  0  0  0  0  0  # atno 17394 bound_to 11000
  139.9271  135.0201  156.8272 LP  0  0  0  0  0  0  0  0  0  0  0  0  # atno 17395 bound_to 11000

$$$$
