AV-unprocessed.smi:367|AV-procd|sdf|2431|dock2
  -GOLD-   2262022373D 1   1.00000     0.00000
 Structure written by MMmdl.
 22 22  0  0  0  0  0  0  0  0  2 V2000
  151.4715  145.3086  158.9068 C   0  0  0  0  0  0  0  0  0  0  0  0
  151.6444  143.8392  158.5840 C   0  0  0  0  0  0  0  0  0  0  0  0
  152.4625  143.0562  159.2065 N   0  0  0  0  0  0  0  0  0  0  0  0
  152.5324  141.7104  158.8192 C   0  0  0  0  0  0  0  0  0  0  0  0
  153.5115  140.8526  159.6019 C   0  0  0  0  0  0  0  0  0  0  0  0
  151.7645  141.2163  157.8039 C   0  0  0  0  0  0  0  0  0  0  0  0
  151.8149  139.7529  157.3603 C   0  0  0  0  0  0  0  0  0  0  0  0
  152.1805  139.5414  155.8861 C   0  0  0  0  0  0  0  0  0  0  0  0
  153.2578  138.9491  155.6593 O   0  0  0  0  0  0  0  0  0  0  0  0
  151.3953  139.9707  155.0112 O   0  5  0  0  0  0  0  0  0  0  0  0
  150.8378  142.1214  157.0966 C   0  0  0  0  0  0  0  0  0  0  0  0
  150.1037  141.7855  156.1684 O   0  0  0  0  0  0  0  0  0  0  0  0
  150.8333  143.3986  157.5398 N   0  0  0  0  0  0  0  0  0  0  0  0
  150.2126  144.0553  157.0905 H   0  0  0  0  0  0  0  0  0  0  0  0
  151.1436  145.4296  159.9394 H   0  0  0  0  0  0  0  0  0  0  0  0
  150.7335  145.7805  158.2568 H   0  0  0  0  0  0  0  0  0  0  0  0
  152.4192  145.8332  158.7840 H   0  0  0  0  0  0  0  0  0  0  0  0
  154.3083  140.4920  158.9515 H   0  0  0  0  0  0  0  0  0  0  0  0
  153.0047  139.9926  160.0402 H   0  0  0  0  0  0  0  0  0  0  0  0
  153.9713  141.4168  160.4141 H   0  0  0  0  0  0  0  0  0  0  0  0
  152.5156  139.1872  157.9752 H   0  0  0  0  0  0  0  0  0  0  0  0
  150.8434  139.2924  157.5407 H   0  0  0  0  0  0  0  0  0  0  0  0
  1  2  1  0  0  0  0
  1 15  1  0  0  0  0
  1 16  1  0  0  0  0
  1 17  1  0  0  0  0
  2 13  1  0  0  0  0
  2  3  2  0  0  0  0
  3  4  1  0  0  0  0
  4  5  1  0  0  0  0
  4  6  2  0  0  0  0
  5 18  1  0  0  0  0
  5 19  1  0  0  0  0
  5 20  1  0  0  0  0
  6  7  1  0  0  0  0
  6 11  1  0  0  0  0
  7  8  1  0  0  0  0
  7 21  1  0  0  0  0
  7 22  1  0  0  0  0
  8  9  2  0  0  0  0
  8 10  1  0  0  0  0
 11 12  2  0  0  0  0
 11 13  1  0  0  0  0
 13 14  1  0  0  0  0
M  CHG  1  10  -1
M  END
> <s_m_source_file>
AV-unprocessed.smi

> <i_m_source_file_index>
367

> <i_lp_mmshare_version>
43012

> <i_f3d_flags>
0

> <s_epik_input>
W0NIM11jMW5jKFtDSDNdKWMoYyg9TylbbkhdMSlbQ0gyXUMoPU8pW09IXQ==

> <s_epik_cmdline>
J2VwaWtfcHl0aG9uJywgJy1waCcsICc3LjAnLCAnLXRuJywgJzgnLCAnLW1hJywgJzIwMCcsICctbWV0YWxfYmluZGluZycsICctaW1hZScsICc8aW5maWxlLm1hZT4nLCAnLW9tYWUnLCAnPG91dGZpbGUubWFlPic=

> <r_lp_tautomer_probability>
0.839158

> <r_epik_Ionization_Penalty>
0.000902249

> <r_epik_Ionization_Penalty_Charging>
0.000677242

> <r_epik_Ionization_Penalty_Neutral>
0.000225007

> <r_epik_State_Penalty>
0.09125

> <r_epik_Charging_Adjusted_Penalty>
0.0919273

> <i_epik_Tot_Q>
-1

> <i_epik_Tot_abs_Q>
1

> <r_epik_Metal_State_Penalty>
0.14165

> <b_epik_Metal_Only>
0

> <s_lp_Force_Field>
OPLS_2005

> <r_lp_Energy>
4.26247

> <b_lp_Chiralities_Consistent>
1

> <s_lp_Variant>
AV-unprocessed.smi:367-1

> <Gold.Version>
5.8.1

> <Gold.Id.Protein>
6NUR|6NUR_protein|mol2

> <Gold.PLP.Fitness>
38.8828

> <Gold.PLP.PLP>
-26.9328

> <Gold.PLP.part.hbond>
-3.0000

> <Gold.PLP.part.metal>
0.0000

> <Gold.PLP.part.buried>
-5.6810

> <Gold.PLP.part.nonpolar>
-18.6687

> <Gold.PLP.part.repulsive>
0.1545

> <Gold.PLP.ligand.clash>
0.0000

> <Gold.PLP.ligand.torsion>
0.0250

> <Gold.PLP.Chemscore.Hbond>
4.0000

> <Gold.PLP.Chemscore.CHOScore>
0.0000

> <Gold.PLP.Chemscore.Metal>
0.0000

> <Gold.Chemscore.Hbonds>
donor molecule, donor type, donor heavy atom, donor atom, acceptor molecule, acceptor atom, score
      L1  H    13    14       P1  8028  0.98
      P1  H  7989  7998       L1    10  1.00
      P1  H  7997  8010       L1     9  1.92

> <Gold.PLP.Chemscore.Internal.Correction>
0.0001

> <Gold.Rescore>
     Score         DG    S(hbond)    S(metal)    S(lipo)     H(rot)  DE(clash)    DE(int)     intcor
     14.28     -15.98       2.88        0.00      41.53       1.55       0.00       1.70       ----

> <Gold.Chemscore.Fitness>
14.2783

> <Gold.Chemscore.DG>
-15.9804

> <Gold.Chemscore.ZeroCoef>
-5.4800

> <Gold.Chemscore.Hbond>
2.8753

> <Gold.Chemscore.Metal>
0.0000

> <Gold.Chemscore.Lipo>
41.5300

> <Gold.Chemscore.Internal_Hbond>
0.0000

> <Gold.Chemscore.DEClash>
0.0009

> <Gold.Chemscore.DEInternal>
1.7012

> <Gold.Chemscore.Rot>
1.5477

> <Gold.Chemscore.Internal.Correction>
   9.000000E+99

> <Gold.Chemscore.Hbonds>
donor molecule, donor type, donor heavy atom, donor atom, acceptor molecule, acceptor atom, score
      L1  H    13    14       P1  8028  0.85
      P1  H  7989  7998       L1    10  0.99
      P1  H  7997  8010       L1     9  0.41

> <Gold.Chemscore.Hbond.Weighted>
-9.6035

> <Gold.Chemscore.Metal.Weighted>
-0.0000

> <Gold.Chemscore.Lipo.Weighted>
-4.8590

> <Gold.Chemscore.Internal_Hbond.Weighted>
0.0000

> <Gold.Chemscore.DEClash.Weighted>
0.0009

> <Gold.Chemscore.DEInternal.Weighted>
1.7012

> <Gold.Chemscore.Rot.Weighted>
3.9621

> <Gold.Chemscore.Internal.Correction.Weighted>
   9.000000E+99

> <Gold.Protein.RotatedTorsions>
[ 6907 6896 6895 6894 ] final -174.09 input  -60.11 | X-H torsion
[ 7974 7965 7964 7962 ] final  -68.32 input  175.53 | X-H torsion
[ 8008 7997 7996 7995 ] final  104.94 input   59.86 | X-H torsion
[ 10167 10162 10161 10158 ] final  -40.39 input  -65.29 | X-H torsion
[ 10718 10713 10712 10709 ] final  149.59 input   66.30 | X-H torsion
[ 10763 10752 10751 10750 ] final -168.04 input  -60.55 | X-H torsion
[ 11005 11000 10999 10996 ] final   96.20 input  -57.11 | X-H torsion

> <Gold.Protein.ActiveResidues>
 VAL166  LYS551  ARG553  GLY616  TRP617  ASP618  TYR619  PRO620  LYS621  CYS622 
 ASP623  PHE694  ASN695  SER759  ASP760  ASP761  ALA762  ILE779  LEU786  VAL792 
 PHE793  MET794  SER795  GLU796  ALA797  LYS798  CYS799  TRP800  GLU811  SER814 

> <Gold.Protein.RotatedAtoms>
  151.5667  133.3395  159.2981 H   0  0  0  0  0  0  0  0  0  0  0  0  # atno 6907 bound_to 6896
  150.8391  134.7679  159.6929 H   0  0  0  0  0  0  0  0  0  0  0  0  # atno 6908 bound_to 6896
  152.4462  134.5496  159.9914 H   0  0  0  0  0  0  0  0  0  0  0  0  # atno 6909 bound_to 6896
  145.7180  140.9051  143.0645 H   0  0  0  0  0  0  0  0  0  0  0  0  # atno 7974 bound_to 7965
  156.1616  140.3139  155.8817 H   0  0  0  0  0  0  0  0  0  0  0  0  # atno 8008 bound_to 7997
  155.3770  140.0485  157.3061 H   0  0  0  0  0  0  0  0  0  0  0  0  # atno 8009 bound_to 7997
  154.5152  140.2179  155.9090 H   0  0  0  0  0  0  0  0  0  0  0  0  # atno 8010 bound_to 7997
  140.7036  143.3156  151.2917 H   0  0  0  0  0  0  0  0  0  0  0  0  # atno 10167 bound_to 10162
  157.2942  131.0859  151.1439 H   0  0  0  0  0  0  0  0  0  0  0  0  # atno 10718 bound_to 10713
  154.6670  135.2933  154.9792 H   0  0  0  0  0  0  0  0  0  0  0  0  # atno 10763 bound_to 10752
  154.0832  135.6601  153.4845 H   0  0  0  0  0  0  0  0  0  0  0  0  # atno 10764 bound_to 10752
  153.0463  135.5202  154.7648 H   0  0  0  0  0  0  0  0  0  0  0  0  # atno 10765 bound_to 10752
  139.8783  134.8938  156.4124 H   0  0  0  0  0  0  0  0  0  0  0  0  # atno 11005 bound_to 11000
  144.6924  139.9163  143.7466 LP  0  0  0  0  0  0  0  0  0  0  0  0  # atno 17320 bound_to 7965
  146.0652  139.3643  143.0557 LP  0  0  0  0  0  0  0  0  0  0  0  0  # atno 17321 bound_to 7965
  139.6594  144.0217  152.2682 LP  0  0  0  0  0  0  0  0  0  0  0  0  # atno 17342 bound_to 10162
  139.9779  144.6449  150.7928 LP  0  0  0  0  0  0  0  0  0  0  0  0  # atno 17343 bound_to 10162
  157.2824  130.6756  149.6072 LP  0  0  0  0  0  0  0  0  0  0  0  0  # atno 17370 bound_to 10713
  155.9668  130.4446  150.5466 LP  0  0  0  0  0  0  0  0  0  0  0  0  # atno 17371 bound_to 10713
  140.9191  133.7657  155.9885 LP  0  0  0  0  0  0  0  0  0  0  0  0  # atno 17394 bound_to 11000
  140.8460  134.3011  157.5295 LP  0  0  0  0  0  0  0  0  0  0  0  0  # atno 17395 bound_to 11000

$$$$
