AV-unprocessed.smi:658|AV-procd|sdf|3230|dock2
  -GOLD-   22720 0173D 1   1.00000     0.00000
 Structure written by MMmdl.
 38 38  0  0  0  0  0  0  0  0  2 V2000
  145.1886  134.4398  154.2161 C   0  0  0  0  0  0  0  0  0  0  0  0
  146.4071  134.5933  153.2905 C   0  0  2  0  0  0  0  0  0  0  0  0
  147.1886  135.7694  153.7408 N   0  3  0  0  0  0  0  0  0  0  0  0
  147.8106  135.6394  155.0747 C   0  0  0  0  0  0  0  0  0  0  0  0
  149.0450  136.5406  155.1918 C   0  0  0  0  0  0  0  0  0  0  0  0
  148.7107  137.9202  155.7758 C   0  0  0  0  0  0  0  0  0  0  0  0
  149.2325  139.2808  154.6453 S   0  0  0  0  0  0  0  0  0  0  0  0
  148.6336  138.7395  153.1271 N   0  0  0  0  0  0  0  0  0  0  0  0
  148.5011  140.5083  154.9943 O   0  0  0  0  0  0  0  0  0  0  0  0
  150.7002  139.2768  154.5574 O   0  0  0  0  0  0  0  0  0  0  0  0
  146.0058  134.7402  151.7968 C   0  0  2  0  0  0  0  0  0  0  0  0
  145.2491  136.0467  151.4891 C   0  0  0  0  0  0  0  0  0  0  0  0
  145.2217  133.5973  151.3422 N   0  0  0  0  0  0  0  0  0  0  0  0
  145.5412  132.2537  151.3800 C   0  0  0  0  0  0  0  0  0  0  0  0
  144.5075  131.5711  150.8060 C   0  0  0  0  0  0  0  0  0  0  0  0
  143.5933  132.5941  150.4316 C   0  0  0  0  0  0  0  0  0  0  0  0
  144.0276  133.8045  150.7436 N   0  0  0  0  0  0  0  0  0  0  0  0
  144.6449  133.5160  154.0195 H   0  0  0  0  0  0  0  0  0  0  0  0
  144.4921  135.2709  154.0993 H   0  0  0  0  0  0  0  0  0  0  0  0
  145.4946  134.4088  155.2624 H   0  0  0  0  0  0  0  0  0  0  0  0
  147.0174  133.6955  153.4068 H   0  0  0  0  0  0  0  0  0  0  0  0
  147.9124  135.9475  153.0588 H   0  0  0  0  0  0  0  0  0  0  0  0
  147.0770  135.9034  155.8374 H   0  0  0  0  0  0  0  0  0  0  0  0
  148.0977  134.6027  155.2502 H   0  0  0  0  0  0  0  0  0  0  0  0
  149.7894  136.0532  155.8230 H   0  0  0  0  0  0  0  0  0  0  0  0
  149.5014  136.6612  154.2086 H   0  0  0  0  0  0  0  0  0  0  0  0
  147.6335  138.0093  155.9196 H   0  0  0  0  0  0  0  0  0  0  0  0
  149.1844  138.0773  156.7453 H   0  0  0  0  0  0  0  0  0  0  0  0
  148.6508  137.7245  153.0283 H   0  0  0  0  0  0  0  0  0  0  0  0
  149.0165  139.2570  152.3363 H   0  0  0  0  0  0  0  0  0  0  0  0
  146.9223  134.7610  151.2033 H   0  0  0  0  0  0  0  0  0  0  0  0
  145.8806  136.9222  151.6371 H   0  0  0  0  0  0  0  0  0  0  0  0
  144.3685  136.1609  152.1217 H   0  0  0  0  0  0  0  0  0  0  0  0
  144.9176  136.0699  150.4502 H   0  0  0  0  0  0  0  0  0  0  0  0
  146.4672  131.8971  151.8066 H   0  0  0  0  0  0  0  0  0  0  0  0
  144.4185  130.5030  150.6722 H   0  0  0  0  0  0  0  0  0  0  0  0
  142.6359  132.4941  149.9417 H   0  0  0  0  0  0  0  0  0  0  0  0
  146.5709  136.5682  153.7667 H   0  0  0  0  0  0  0  0  0  0  0  0
  1  2  1  0  0  0  0
  1 18  1  0  0  0  0
  1 19  1  0  0  0  0
  1 20  1  0  0  0  0
  2  3  1  0  0  0  0
  2 11  1  0  0  0  0
  2 21  1  0  0  0  0
  3  4  1  0  0  0  0
  3 22  1  0  0  0  0
  3 38  1  0  0  0  0
  4  5  1  0  0  0  0
  4 23  1  0  0  0  0
  4 24  1  0  0  0  0
  5  6  1  0  0  0  0
  5 25  1  0  0  0  0
  5 26  1  0  0  0  0
  6  7  1  0  0  0  0
  6 27  1  0  0  0  0
  6 28  1  0  0  0  0
  7  8  1  0  0  0  0
  7  9  2  0  0  0  0
  7 10  2  0  0  0  0
  8 29  1  0  0  0  0
  8 30  1  0  0  0  0
 11 12  1  0  0  0  0
 11 13  1  0  0  0  0
 11 31  1  0  0  0  0
 12 32  1  0  0  0  0
 12 33  1  0  0  0  0
 12 34  1  0  0  0  0
 13 17  1  0  0  0  0
 13 14  1  0  0  0  0
 14 15  2  0  0  0  0
 14 35  1  0  0  0  0
 15 16  1  0  0  0  0
 15 36  1  0  0  0  0
 16 17  2  0  0  0  0
 16 37  1  0  0  0  0
M  CHG  1   3   1
M  END
> <s_m_source_file>
AV-unprocessed.smi

> <i_m_source_file_index>
658

> <i_lp_mmshare_version>
43012

> <i_f3d_flags>
0

> <s_epik_input>
bjFbY0hdW2NIXVtjSF1uMVtDQEBIXShbQ0gzXSlbQ0BIXShbQ0gzXSlbTkhdW0NIMl1bQ0gyXVtDSDJdUyg9TykoPU8pW05IMl0=

> <s_epik_cmdline>
J2VwaWtfcHl0aG9uJywgJy1waCcsICc3LjAnLCAnLXRuJywgJzgnLCAnLW1hJywgJzIwMCcsICctbWV0YWxfYmluZGluZycsICctaW1hZScsICc8aW5maWxlLm1hZT4nLCAnLW9tYWUnLCAnPG91dGZpbGUubWFlPic=

> <r_lp_tautomer_probability>
1

> <r_epik_Ionization_Penalty>
0.00535781

> <r_epik_Ionization_Penalty_Charging>
0.00511015

> <r_epik_Ionization_Penalty_Neutral>
0.000247661

> <r_epik_State_Penalty>
-0

> <r_epik_Charging_Adjusted_Penalty>
0.00511015

> <i_epik_Tot_Q>
1

> <i_epik_Tot_abs_Q>
1

> <r_epik_Metal_State_Penalty>
0.149106

> <b_epik_Metal_Only>
0

> <s_lp_Force_Field>
OPLS_2005

> <r_lp_Energy>
8.18413

> <b_lp_Chiralities_Consistent>
1

> <s_lp_Variant>
AV-unprocessed.smi:658-1

> <Gold.Version>
5.8.1

> <Gold.Id.Protein>
6NUR|6NUR_protein|mol2

> <Gold.PLP.Fitness>
42.3977

> <Gold.PLP.PLP>
-24.8518

> <Gold.PLP.part.hbond>
-4.0000

> <Gold.PLP.part.metal>
0.0000

> <Gold.PLP.part.buried>
-4.6577

> <Gold.PLP.part.nonpolar>
-17.7962

> <Gold.PLP.part.repulsive>
0.4203

> <Gold.PLP.ligand.clash>
0.0000

> <Gold.PLP.ligand.torsion>
1.0435

> <Gold.PLP.Chemscore.Hbond>
4.9920

> <Gold.PLP.Chemscore.CHOScore>
1.4372

> <Gold.PLP.Chemscore.Metal>
0.0000

> <Gold.Chemscore.Hbonds>
donor molecule, donor type, donor heavy atom, donor atom, acceptor molecule, acceptor atom, score
      L1  H     3    22       P1  7948  2.00
      L1  H     8    29       P1  7948  0.91
      L1  H     8    30       P1  7957  0.98
      P1  H  7989  7998       L1    10  0.76
      L1  C    16    37       P1 10186  0.86
      L1  C    16    37       P1 10952  0.26

> <Gold.PLP.Chemscore.Internal.Correction>
0.3455

> <Gold.Rescore>
     Score         DG    S(hbond)    S(metal)    S(lipo)     H(rot)  DE(clash)    DE(int)     intcor
     14.95     -16.15       3.91        0.00      48.07       3.13       0.04       1.16       ----

> <Gold.Chemscore.Fitness>
14.9453

> <Gold.Chemscore.DG>
-16.1485

> <Gold.Chemscore.ZeroCoef>
-5.4800

> <Gold.Chemscore.Hbond>
3.9103

> <Gold.Chemscore.Metal>
0.0000

> <Gold.Chemscore.Lipo>
48.0686

> <Gold.Chemscore.Internal_Hbond>
0.0000

> <Gold.Chemscore.DEClash>
0.0402

> <Gold.Chemscore.DEInternal>
1.1629

> <Gold.Chemscore.Rot>
3.1312

> <Gold.Chemscore.Internal.Correction>
   9.000000E+99

> <Gold.Chemscore.Hbonds>
donor molecule, donor type, donor heavy atom, donor atom, acceptor molecule, acceptor atom, score
      L1  H     3    22       P1  7948  0.99
      L1  H     8    29       P1  7948  0.89
      L1  H     8    30       P1  7957  0.92
      P1  H  7989  7998       L1    10  0.73

> <Gold.Chemscore.Hbond.Weighted>
-13.0604

> <Gold.Chemscore.Metal.Weighted>
-0.0000

> <Gold.Chemscore.Lipo.Weighted>
-5.6240

> <Gold.Chemscore.Internal_Hbond.Weighted>
0.0000

> <Gold.Chemscore.DEClash.Weighted>
0.0402

> <Gold.Chemscore.DEInternal.Weighted>
1.1629

> <Gold.Chemscore.Rot.Weighted>
8.0160

> <Gold.Chemscore.Internal.Correction.Weighted>
   9.000000E+99

> <Gold.Protein.RotatedTorsions>
[ 6907 6896 6895 6894 ] final  -86.50 input  -60.11 | X-H torsion
[ 7974 7965 7964 7962 ] final  -75.91 input  175.53 | X-H torsion
[ 8008 7997 7996 7995 ] final -148.72 input   59.86 | X-H torsion
[ 10167 10162 10161 10158 ] final  -26.27 input  -65.29 | X-H torsion
[ 10718 10713 10712 10709 ] final  -71.62 input   66.30 | X-H torsion
[ 10763 10752 10751 10750 ] final   67.18 input  -60.55 | X-H torsion
[ 11005 11000 10999 10996 ] final  101.11 input  -57.11 | X-H torsion

> <Gold.Protein.ActiveResidues>
 VAL166  LYS551  ARG553  GLY616  TRP617  ASP618  TYR619  PRO620  LYS621  CYS622 
 ASP623  PHE694  ASN695  SER759  ASP760  ASP761  ALA762  ILE779  LEU786  VAL792 
 PHE793  MET794  SER795  GLU796  ALA797  LYS798  CYS799  TRP800  GLU811  SER814 

> <Gold.Protein.RotatedAtoms>
  150.6867  134.3040  159.4718 H   0  0  0  0  0  0  0  0  0  0  0  0  # atno 6907 bound_to 6896
  152.0933  134.9389  160.0580 H   0  0  0  0  0  0  0  0  0  0  0  0  # atno 6908 bound_to 6896
  152.0697  133.4066  159.4490 H   0  0  0  0  0  0  0  0  0  0  0  0  # atno 6909 bound_to 6896
  145.6198  140.9366  143.1144 H   0  0  0  0  0  0  0  0  0  0  0  0  # atno 7974 bound_to 7965
  155.5962  140.0657  157.2745 H   0  0  0  0  0  0  0  0  0  0  0  0  # atno 8008 bound_to 7997
  154.4291  140.1826  156.1173 H   0  0  0  0  0  0  0  0  0  0  0  0  # atno 8009 bound_to 7997
  156.0195  140.3318  155.7027 H   0  0  0  0  0  0  0  0  0  0  0  0  # atno 8010 bound_to 7997
  140.7283  143.4193  151.0977 H   0  0  0  0  0  0  0  0  0  0  0  0  # atno 10167 bound_to 10162
  156.0355  130.4355  150.2472 H   0  0  0  0  0  0  0  0  0  0  0  0  # atno 10718 bound_to 10713
  153.0174  135.5293  154.6939 H   0  0  0  0  0  0  0  0  0  0  0  0  # atno 10763 bound_to 10752
  154.6066  135.2874  155.0480 H   0  0  0  0  0  0  0  0  0  0  0  0  # atno 10764 bound_to 10752
  154.1517  135.6562  153.5017 H   0  0  0  0  0  0  0  0  0  0  0  0  # atno 10765 bound_to 10752
  139.8772  134.9169  156.4858 H   0  0  0  0  0  0  0  0  0  0  0  0  # atno 11005 bound_to 11000
  144.7236  139.7949  143.7373 LP  0  0  0  0  0  0  0  0  0  0  0  0  # atno 17320 bound_to 7965
  146.1440  139.4505  143.0091 LP  0  0  0  0  0  0  0  0  0  0  0  0  # atno 17321 bound_to 7965
  139.7836  143.8319  152.3141 LP  0  0  0  0  0  0  0  0  0  0  0  0  # atno 17342 bound_to 10162
  139.8279  144.7267  150.9488 LP  0  0  0  0  0  0  0  0  0  0  0  0  # atno 17343 bound_to 10162
  157.0571  131.0079  151.3235 LP  0  0  0  0  0  0  0  0  0  0  0  0  # atno 17370 bound_to 10713
  157.5098  130.7931  149.7692 LP  0  0  0  0  0  0  0  0  0  0  0  0  # atno 17371 bound_to 10713
  140.8694  133.7999  155.9348 LP  0  0  0  0  0  0  0  0  0  0  0  0  # atno 17394 bound_to 11000
  140.8968  134.2428  157.5064 LP  0  0  0  0  0  0  0  0  0  0  0  0  # atno 17395 bound_to 11000

$$$$
