AV-unprocessed.smi:283|AV-procd|sdf|2138|dock3
  -GOLD-   2262021463D 1   1.00000     0.00000
 Structure written by MMmdl.
 48 51  0  0  0  0  0  0  0  0  1 V2000
  152.5158  144.0434  158.4516 C   0  0  0  0  0  0  0  0  0  0  0  0
  152.1032  142.7606  159.1860 C   0  0  1  0  0  0  0  0  0  0  0  0
  152.5027  141.5949  158.4010 N   0  0  0  0  0  0  0  0  0  0  0  0
  151.6741  141.0546  157.4804 C   0  0  0  0  0  0  0  0  0  0  0  0
  152.2515  140.1870  156.6166 N   0  0  0  0  0  0  0  0  0  0  0  0
  151.5144  139.5814  155.6831 C   0  0  0  0  0  0  0  0  0  0  0  0
  150.2103  139.7115  155.4391 N   0  0  0  0  0  0  0  0  0  0  0  0
  149.6186  140.6031  156.2873 C   0  0  0  0  0  0  0  0  0  0  0  0
  150.2773  141.3076  157.3370 C   0  0  0  0  0  0  0  0  0  0  0  0
  149.3560  142.1088  157.9978 N   0  0  0  0  0  0  0  0  0  0  0  0
  148.2272  141.8766  157.3886 C   0  0  0  0  0  0  0  0  0  0  0  0
  148.2964  141.0149  156.3142 N   0  0  0  0  0  0  0  0  0  0  0  0
  147.1641  140.5392  155.4372 C   0  0  2  0  0  0  0  0  0  0  0  0
  146.8224  139.2352  155.7836 O   0  0  0  0  0  0  0  0  0  0  0  0
  147.6876  138.3367  155.1055 C   0  0  1  0  0  0  0  0  0  0  0  0
  147.0875  136.9233  155.1086 C   0  0  0  0  0  0  0  0  0  0  0  0
  147.9689  136.0233  154.4715 O   0  0  0  0  0  0  0  0  0  0  0  0
  147.7782  138.9668  153.7102 C   0  0  2  0  0  0  0  0  0  0  0  0
  149.0502  138.7043  153.1508 O   0  0  0  0  0  0  0  0  0  0  0  0
  147.5957  140.4677  153.9580 C   0  0  1  0  0  0  0  0  0  0  0  0
  146.5998  141.0012  153.1094 O   0  0  0  0  0  0  0  0  0  0  0  0
  152.6340  142.7766  160.6223 C   0  0  0  0  0  0  0  0  0  0  0  0
  152.2230  143.7939  161.5154 C   0  0  0  0  0  0  0  0  0  0  0  0
  152.6986  143.8234  162.8396 C   0  0  0  0  0  0  0  0  0  0  0  0
  153.5841  142.8283  163.2900 C   0  0  0  0  0  0  0  0  0  0  0  0
  153.9889  141.8030  162.4156 C   0  0  0  0  0  0  0  0  0  0  0  0
  153.5170  141.7696  161.0879 C   0  0  0  0  0  0  0  0  0  0  0  0
  154.0364  140.4770  160.0633 Cl  0  0  0  0  0  0  0  0  0  0  0  0
  146.3573  141.2433  155.6455 H   0  0  0  0  0  0  0  0  0  0  0  0
  148.6693  138.3431  155.5847 H   0  0  0  0  0  0  0  0  0  0  0  0
  146.9931  138.5775  153.0598 H   0  0  0  0  0  0  0  0  0  0  0  0
  148.5188  141.0209  153.7885 H   0  0  0  0  0  0  0  0  0  0  0  0
  152.1528  144.9287  158.9745 H   0  0  0  0  0  0  0  0  0  0  0  0
  152.1050  144.0684  157.4417 H   0  0  0  0  0  0  0  0  0  0  0  0
  153.6004  144.1254  158.3730 H   0  0  0  0  0  0  0  0  0  0  0  0
  151.0152  142.7512  159.2085 H   0  0  0  0  0  0  0  0  0  0  0  0
  153.2690  141.0689  158.7950 H   0  0  0  0  0  0  0  0  0  0  0  0
  152.0441  138.8948  155.0394 H   0  0  0  0  0  0  0  0  0  0  0  0
  147.3077  142.3409  157.7140 H   0  0  0  0  0  0  0  0  0  0  0  0
  146.8649  136.5865  156.1214 H   0  0  0  0  0  0  0  0  0  0  0  0
  146.1513  136.9137  154.5500 H   0  0  0  0  0  0  0  0  0  0  0  0
  148.0633  136.2838  153.5680 H   0  0  0  0  0  0  0  0  0  0  0  0
  148.9801  137.9504  152.5853 H   0  0  0  0  0  0  0  0  0  0  0  0
  145.7984  140.5192  153.2460 H   0  0  0  0  0  0  0  0  0  0  0  0
  151.5383  144.5628  161.1892 H   0  0  0  0  0  0  0  0  0  0  0  0
  152.3813  144.6089  163.5098 H   0  0  0  0  0  0  0  0  0  0  0  0
  153.9482  142.8478  164.3066 H   0  0  0  0  0  0  0  0  0  0  0  0
  154.6632  141.0362  162.7674 H   0  0  0  0  0  0  0  0  0  0  0  0
  1  2  1  0  0  0  0
  1 33  1  0  0  0  0
  1 34  1  0  0  0  0
  1 35  1  0  0  0  0
  2  3  1  0  0  0  0
  2 22  1  0  0  0  0
  2 36  1  0  0  0  0
  3  4  1  0  0  0  0
  3 37  1  0  0  0  0
  4  9  1  0  0  0  0
  4  5  2  0  0  0  0
  5  6  1  0  0  0  0
  6  7  2  0  0  0  0
  6 38  1  0  0  0  0
  7  8  1  0  0  0  0
  8 12  1  0  0  0  0
  8  9  2  0  0  0  0
  9 10  1  0  0  0  0
 10 11  2  0  0  0  0
 11 12  1  0  0  0  0
 11 39  1  0  0  0  0
 12 13  1  0  0  0  0
 13 29  1  0  0  0  0
 13 20  1  0  0  0  0
 13 14  1  0  0  0  0
 14 15  1  0  0  0  0
 15 30  1  0  0  0  0
 15 16  1  0  0  0  0
 15 18  1  0  0  0  0
 16 17  1  0  0  0  0
 16 40  1  0  0  0  0
 16 41  1  0  0  0  0
 17 42  1  0  0  0  0
 18 31  1  0  0  0  0
 18 19  1  0  0  0  0
 18 20  1  0  0  0  0
 19 43  1  0  0  0  0
 20 32  1  0  0  0  0
 20 21  1  0  0  0  0
 21 44  1  0  0  0  0
 22 27  1  0  0  0  0
 22 23  2  0  0  0  0
 23 24  1  0  0  0  0
 23 45  1  0  0  0  0
 24 25  2  0  0  0  0
 24 46  1  0  0  0  0
 25 26  1  0  0  0  0
 25 47  1  0  0  0  0
 26 27  2  0  0  0  0
 26 48  1  0  0  0  0
 27 28  1  0  0  0  0
M  END
> <s_m_source_file>
AV-unprocessed.smi

> <i_m_source_file_index>
283

> <i_lp_mmshare_version>
43012

> <i_f3d_flags>
0

> <s_epik_input>
Q2xjMVtjSF1bY0hdW2NIXVtjSF1jMVtDQEhdKFtDSDNdKVtOSF1jKG5bY0hdbjIpYyhjMjMpbltjSF1uM1tDQEBIXTRPW0NASF0oW0NIMl1bT0hdKVtDQEBIXShbT0hdKVtDQEhdNFtPSF0=

> <s_epik_cmdline>
J2VwaWtfcHl0aG9uJywgJy1waCcsICc3LjAnLCAnLXRuJywgJzgnLCAnLW1hJywgJzIwMCcsICctbWV0YWxfYmluZGluZycsICctaW1hZScsICc8aW5maWxlLm1hZT4nLCAnLW9tYWUnLCAnPG91dGZpbGUubWFlPic=

> <r_lp_tautomer_probability>
1

> <r_epik_Ionization_Penalty>
0.000266407

> <r_epik_Ionization_Penalty_Charging>
0

> <r_epik_Ionization_Penalty_Neutral>
0.000266407

> <r_epik_State_Penalty>
-0

> <r_epik_Charging_Adjusted_Penalty>
0

> <i_epik_Tot_Q>
0

> <i_epik_Tot_abs_Q>
0

> <r_epik_Metal_State_Penalty>
-0

> <b_epik_Metal_Only>
0

> <s_epik_Chemistry_Notes>
This compound contains an acetal/aminal-like group ( X-CH(R)-Y where X, Y are N, S, or O) that may be acid/base labile, releasing an aldehyde.

> <s_lp_Force_Field>
OPLS_2005

> <r_lp_Energy>
39.8379

> <b_lp_Chiralities_Consistent>
1

> <s_lp_Variant>
AV-unprocessed.smi:283-14

> <Gold.Version>
5.8.1

> <Gold.Id.Protein>
6NUR|6NUR_protein|mol2

> <Gold.PLP.Fitness>
58.6176

> <Gold.PLP.PLP>
-50.4914

> <Gold.PLP.part.hbond>
-4.5338

> <Gold.PLP.part.metal>
0.0000

> <Gold.PLP.part.buried>
-2.0465

> <Gold.PLP.part.nonpolar>
-43.1899

> <Gold.PLP.part.repulsive>
0.2585

> <Gold.PLP.ligand.clash>
0.0000

> <Gold.PLP.ligand.torsion>
0.8471

> <Gold.PLP.Chemscore.Hbond>
3.2350

> <Gold.PLP.Chemscore.CHOScore>
0.0000

> <Gold.PLP.Chemscore.Metal>
0.0000

> <Gold.Chemscore.Hbonds>
donor molecule, donor type, donor heavy atom, donor atom, acceptor molecule, acceptor atom, score
      L1  H    17    42       P1  7948  1.00
      L1  H    19    43       P1  7948  1.00
      L1  H    21    44       P1 10175  0.35
      P1  H  7997  8010       L1     5  0.84

> <Gold.PLP.Chemscore.Internal.Correction>
0.1155

> <Gold.Rescore>
     Score         DG    S(hbond)    S(metal)    S(lipo)     H(rot)  DE(clash)    DE(int)     intcor
     14.83     -19.71       3.09        0.00     123.18       4.10       0.37       4.51       ----

> <Gold.Chemscore.Fitness>
14.8300

> <Gold.Chemscore.DG>
-19.7098

> <Gold.Chemscore.ZeroCoef>
-5.4800

> <Gold.Chemscore.Hbond>
3.0854

> <Gold.Chemscore.Metal>
0.0000

> <Gold.Chemscore.Lipo>
123.1848

> <Gold.Chemscore.Internal_Hbond>
0.0000

> <Gold.Chemscore.DEClash>
0.3671

> <Gold.Chemscore.DEInternal>
4.5127

> <Gold.Chemscore.Rot>
4.0968

> <Gold.Chemscore.Internal.Correction>
   9.000000E+99

> <Gold.Chemscore.Hbonds>
donor molecule, donor type, donor heavy atom, donor atom, acceptor molecule, acceptor atom, score
      L1  H    17    42       P1  7948  0.96
      L1  H    19    43       P1  7948  0.99
      L1  H    21    44       P1 10175  0.32
      P1  H  7997  8010       L1     5  0.76

> <Gold.Chemscore.Hbond.Weighted>
-10.3051

> <Gold.Chemscore.Metal.Weighted>
-0.0000

> <Gold.Chemscore.Lipo.Weighted>
-14.4126

> <Gold.Chemscore.Internal_Hbond.Weighted>
0.0000

> <Gold.Chemscore.DEClash.Weighted>
0.3671

> <Gold.Chemscore.DEInternal.Weighted>
4.5127

> <Gold.Chemscore.Rot.Weighted>
10.4879

> <Gold.Chemscore.Internal.Correction.Weighted>
   9.000000E+99

> <Gold.Protein.RotatedTorsions>
[ 6907 6896 6895 6894 ] final -140.76 input  -60.11 | X-H torsion
[ 7974 7965 7964 7962 ] final  164.59 input  175.53 | X-H torsion
[ 8008 7997 7996 7995 ] final   70.25 input   59.86 | X-H torsion
[ 10167 10162 10161 10158 ] final   79.10 input  -65.29 | X-H torsion
[ 10718 10713 10712 10709 ] final  114.75 input   66.30 | X-H torsion
[ 10763 10752 10751 10750 ] final  -57.20 input  -60.55 | X-H torsion
[ 11005 11000 10999 10996 ] final   60.14 input  -57.11 | X-H torsion

> <Gold.Protein.ActiveResidues>
 VAL166  LYS551  ARG553  GLY616  TRP617  ASP618  TYR619  PRO620  LYS621  CYS622 
 ASP623  PHE694  ASN695  SER759  ASP760  ASP761  ALA762  ILE779  LEU786  VAL792 
 PHE793  MET794  SER795  GLU796  ALA797  LYS798  CYS799  TRP800  GLU811  SER814 

> <Gold.Protein.RotatedAtoms>
  151.0649  133.5514  159.2631 H   0  0  0  0  0  0  0  0  0  0  0  0  # atno 6907 bound_to 6896
  151.2475  135.0610  159.9059 H   0  0  0  0  0  0  0  0  0  0  0  0  # atno 6908 bound_to 6896
  152.5403  134.0414  159.8123 H   0  0  0  0  0  0  0  0  0  0  0  0  # atno 6909 bound_to 6896
  144.7538  139.8349  143.6357 H   0  0  0  0  0  0  0  0  0  0  0  0  # atno 7974 bound_to 7965
  155.7360  140.3491  155.5082 H   0  0  0  0  0  0  0  0  0  0  0  0  # atno 8008 bound_to 7997
  155.9138  140.1055  157.1280 H   0  0  0  0  0  0  0  0  0  0  0  0  # atno 8009 bound_to 7997
  154.4060  140.1262  156.4578 H   0  0  0  0  0  0  0  0  0  0  0  0  # atno 8010 bound_to 7997
  139.9638  144.5942  150.8047 H   0  0  0  0  0  0  0  0  0  0  0  0  # atno 10167 bound_to 10162
  157.6263  131.1003  150.7231 H   0  0  0  0  0  0  0  0  0  0  0  0  # atno 10718 bound_to 10713
  154.2187  135.6381  153.5138 H   0  0  0  0  0  0  0  0  0  0  0  0  # atno 10763 bound_to 10752
  152.9973  135.5491  154.6137 H   0  0  0  0  0  0  0  0  0  0  0  0  # atno 10764 bound_to 10752
  154.5592  135.2907  155.0909 H   0  0  0  0  0  0  0  0  0  0  0  0  # atno 10765 bound_to 10752
  140.0253  134.6092  155.9582 H   0  0  0  0  0  0  0  0  0  0  0  0  # atno 11005 bound_to 11000
  146.1523  139.4610  143.0041 LP  0  0  0  0  0  0  0  0  0  0  0  0  # atno 17320 bound_to 7965
  145.6849  141.0180  143.1586 LP  0  0  0  0  0  0  0  0  0  0  0  0  # atno 17321 bound_to 7965
  140.7544  143.3027  151.3040 LP  0  0  0  0  0  0  0  0  0  0  0  0  # atno 17342 bound_to 10162
  139.6533  144.0322  152.2642 LP  0  0  0  0  0  0  0  0  0  0  0  0  # atno 17343 bound_to 10162
  156.7579  130.4789  149.5443 LP  0  0  0  0  0  0  0  0  0  0  0  0  # atno 17370 bound_to 10713
  156.1437  130.6262  151.0502 LP  0  0  0  0  0  0  0  0  0  0  0  0  # atno 17371 bound_to 10713
  141.1799  133.6545  156.4977 LP  0  0  0  0  0  0  0  0  0  0  0  0  # atno 17394 bound_to 11000
  140.4317  134.7096  157.4945 LP  0  0  0  0  0  0  0  0  0  0  0  0  # atno 17395 bound_to 11000

$$$$
