AV-unprocessed.smi:1459|AV-procd|sdf|5924|dock1
  -GOLD-   22720 6 03D 1   1.00000     0.00000
 Structure written by MMmdl.
 34 35  0  0  0  0  0  0  0  0  1 V2000
  153.6990  141.8928  160.8213 C   0  0  0  0  0  0  0  0  0  0  0  0
  152.7935  142.4486  159.7763 C   0  0  0  0  0  0  0  0  0  0  0  0
  151.6903  141.9517  159.1412 C   0  0  0  0  0  0  0  0  0  0  0  0
  151.3232  143.0071  158.2645 C   0  0  0  0  0  0  0  0  0  0  0  0
  150.1990  142.8846  157.4082 N   0  0  0  0  0  0  0  0  0  0  0  0
  149.7603  141.7780  156.7844 C   0  0  0  0  0  0  0  0  0  0  0  0
  150.2819  140.6657  156.8653 O   0  0  0  0  0  0  0  0  0  0  0  0
  148.6633  142.0352  156.0561 N   0  0  0  0  0  0  0  0  0  0  0  0
  147.9213  141.0663  155.2503 C   0  0  2  0  0  0  0  0  0  0  0  0
  148.8221  140.5854  154.1032 C   0  0  0  0  0  0  0  0  0  0  0  0
  146.6101  141.6898  154.7279 C   0  0  2  0  0  0  0  0  0  0  0  0
  146.7901  142.8924  153.7983 C   0  0  0  0  0  0  0  0  0  0  0  0
  145.4658  143.6027  153.9564 C   0  0  0  0  0  0  0  0  0  0  0  0
  145.1889  143.4109  155.4440 C   0  0  0  0  0  0  0  0  0  0  0  0
  145.8255  142.1889  155.8094 O   0  0  0  0  0  0  0  0  0  0  0  0
  152.1296  144.0536  158.3561 N   0  0  0  0  0  0  0  0  0  0  0  0
  153.0757  143.7011  159.3258 O   0  0  0  0  0  0  0  0  0  0  0  0
  153.3438  140.9226  161.1693 H   0  0  0  0  0  0  0  0  0  0  0  0
  153.7530  142.5602  161.6814 H   0  0  0  0  0  0  0  0  0  0  0  0
  154.7077  141.7629  160.4288 H   0  0  0  0  0  0  0  0  0  0  0  0
  151.2239  140.9883  159.2835 H   0  0  0  0  0  0  0  0  0  0  0  0
  149.6712  143.7308  157.2546 H   0  0  0  0  0  0  0  0  0  0  0  0
  148.3087  142.9803  156.0576 H   0  0  0  0  0  0  0  0  0  0  0  0
  147.6699  140.1945  155.8567 H   0  0  0  0  0  0  0  0  0  0  0  0
  148.3202  139.8313  153.4964 H   0  0  0  0  0  0  0  0  0  0  0  0
  149.7395  140.1372  154.4865 H   0  0  0  0  0  0  0  0  0  0  0  0
  149.1025  141.4082  153.4448 H   0  0  0  0  0  0  0  0  0  0  0  0
  146.0154  140.9337  154.2124 H   0  0  0  0  0  0  0  0  0  0  0  0
  147.5997  143.5338  154.1502 H   0  0  0  0  0  0  0  0  0  0  0  0
  147.0022  142.6082  152.7673 H   0  0  0  0  0  0  0  0  0  0  0  0
  145.5014  144.6514  153.6607 H   0  0  0  0  0  0  0  0  0  0  0  0
  144.6992  143.1036  153.3621 H   0  0  0  0  0  0  0  0  0  0  0  0
  145.6380  144.2193  156.0219 H   0  0  0  0  0  0  0  0  0  0  0  0
  144.1220  143.3868  155.6676 H   0  0  0  0  0  0  0  0  0  0  0  0
  1  2  1  0  0  0  0
  1 18  1  0  0  0  0
  1 19  1  0  0  0  0
  1 20  1  0  0  0  0
  2 17  1  0  0  0  0
  2  3  2  0  0  0  0
  3  4  1  0  0  0  0
  3 21  1  0  0  0  0
  4  5  1  0  0  0  0
  4 16  2  0  0  0  0
  5  6  1  0  0  0  0
  5 22  1  0  0  0  0
  6  7  2  0  0  0  0
  6  8  1  0  0  0  0
  8  9  1  0  0  0  0
  8 23  1  0  0  0  0
  9 10  1  0  0  0  0
  9 11  1  0  0  0  0
  9 24  1  0  0  0  0
 10 25  1  0  0  0  0
 10 26  1  0  0  0  0
 10 27  1  0  0  0  0
 11 15  1  0  0  0  0
 11 12  1  0  0  0  0
 11 28  1  0  0  0  0
 12 13  1  0  0  0  0
 12 29  1  0  0  0  0
 12 30  1  0  0  0  0
 13 14  1  0  0  0  0
 13 31  1  0  0  0  0
 13 32  1  0  0  0  0
 14 15  1  0  0  0  0
 14 33  1  0  0  0  0
 14 34  1  0  0  0  0
 16 17  1  0  0  0  0
M  END
> <s_m_source_file>
AV-unprocessed.smi

> <i_m_source_file_index>
1459

> <i_lp_mmshare_version>
43012

> <i_f3d_flags>
0

> <s_epik_input>
W0NIM11jMVtjSF1jKG5vMSlbTkhdQyg9TylbTkhdW0NASF0oW0NIM10pW0NAQEhdMltDSDJdW0NIMl1bQ0gyXU8y

> <s_epik_cmdline>
J2VwaWtfcHl0aG9uJywgJy1waCcsICc3LjAnLCAnLXRuJywgJzgnLCAnLW1hJywgJzIwMCcsICctbWV0YWxfYmluZGluZycsICctaW1hZScsICc8aW5maWxlLm1hZT4nLCAnLW9tYWUnLCAnPG91dGZpbGUubWFlPic=

> <r_lp_tautomer_probability>
1

> <r_epik_Ionization_Penalty>
2.20869e-05

> <r_epik_Ionization_Penalty_Charging>
0

> <r_epik_Ionization_Penalty_Neutral>
2.20869e-05

> <r_epik_State_Penalty>
-0

> <r_epik_Charging_Adjusted_Penalty>
0

> <i_epik_Tot_Q>
0

> <i_epik_Tot_abs_Q>
0

> <r_epik_Metal_State_Penalty>
-0

> <b_epik_Metal_Only>
0

> <s_lp_Force_Field>
OPLS_2005

> <r_lp_Energy>
15.5661

> <b_lp_Chiralities_Consistent>
1

> <s_lp_Variant>
AV-unprocessed.smi:1459-1

> <Gold.Version>
5.8.1

> <Gold.Id.Protein>
6NUR|6NUR_protein|mol2

> <Gold.PLP.Fitness>
36.4288

> <Gold.PLP.PLP>
-32.2761

> <Gold.PLP.part.hbond>
-2.0000

> <Gold.PLP.part.metal>
0.0000

> <Gold.PLP.part.buried>
-5.1974

> <Gold.PLP.part.nonpolar>
-24.7235

> <Gold.PLP.part.repulsive>
0.2726

> <Gold.PLP.ligand.clash>
0.0000

> <Gold.PLP.ligand.torsion>
0.3064

> <Gold.PLP.Chemscore.Hbond>
1.5840

> <Gold.PLP.Chemscore.CHOScore>
0.0000

> <Gold.PLP.Chemscore.Metal>
0.0000

> <Gold.Chemscore.Hbonds>
donor molecule, donor type, donor heavy atom, donor atom, acceptor molecule, acceptor atom, score
      L1  H     5    22       P1  8028  0.75
      L1  H     8    23       P1  8028  0.82

> <Gold.PLP.Chemscore.Internal.Correction>
0.0134

> <Gold.Rescore>
     Score         DG    S(hbond)    S(metal)    S(lipo)     H(rot)  DE(clash)    DE(int)     intcor
     13.83     -15.24       1.57        0.00      66.65       1.28       0.15       1.27       ----

> <Gold.Chemscore.Fitness>
13.8327

> <Gold.Chemscore.DG>
-15.2444

> <Gold.Chemscore.ZeroCoef>
-5.4800

> <Gold.Chemscore.Hbond>
1.5678

> <Gold.Chemscore.Metal>
0.0000

> <Gold.Chemscore.Lipo>
66.6548

> <Gold.Chemscore.Internal_Hbond>
0.0000

> <Gold.Chemscore.DEClash>
0.1461

> <Gold.Chemscore.DEInternal>
1.2657

> <Gold.Chemscore.Rot>
1.2776

> <Gold.Chemscore.Internal.Correction>
   9.000000E+99

> <Gold.Chemscore.Hbonds>
donor molecule, donor type, donor heavy atom, donor atom, acceptor molecule, acceptor atom, score
      L1  H     5    22       P1  8028  0.56
      L1  H     8    23       P1  8028  0.72

> <Gold.Chemscore.Hbond.Weighted>
-5.2365

> <Gold.Chemscore.Metal.Weighted>
-0.0000

> <Gold.Chemscore.Lipo.Weighted>
-7.7986

> <Gold.Chemscore.Internal_Hbond.Weighted>
0.0000

> <Gold.Chemscore.DEClash.Weighted>
0.1461

> <Gold.Chemscore.DEInternal.Weighted>
1.2657

> <Gold.Chemscore.Rot.Weighted>
3.2707

> <Gold.Chemscore.Internal.Correction.Weighted>
   9.000000E+99

> <Gold.Protein.RotatedTorsions>
[ 6907 6896 6895 6894 ] final -170.94 input  -60.11 | X-H torsion
[ 7974 7965 7964 7962 ] final   42.76 input  175.53 | X-H torsion
[ 8008 7997 7996 7995 ] final -105.95 input   59.86 | X-H torsion
[ 10167 10162 10161 10158 ] final  -20.35 input  -65.29 | X-H torsion
[ 10718 10713 10712 10709 ] final   -8.40 input   66.30 | X-H torsion
[ 10763 10752 10751 10750 ] final  -66.78 input  -60.55 | X-H torsion
[ 11005 11000 10999 10996 ] final  -26.78 input  -57.11 | X-H torsion

> <Gold.Protein.ActiveResidues>
 VAL166  LYS551  ARG553  GLY616  TRP617  ASP618  TYR619  PRO620  LYS621  CYS622 
 ASP623  PHE694  ASN695  SER759  ASP760  ASP761  ALA762  ILE779  LEU786  VAL792 
 PHE793  MET794  SER795  GLU796  ALA797  LYS798  CYS799  TRP800  GLU811  SER814 

> <Gold.Protein.RotatedAtoms>
  151.5158  133.3476  159.2892 H   0  0  0  0  0  0  0  0  0  0  0  0  # atno 6907 bound_to 6896
  150.8683  134.8054  159.7146 H   0  0  0  0  0  0  0  0  0  0  0  0  # atno 6908 bound_to 6896
  152.4680  134.5038  159.9785 H   0  0  0  0  0  0  0  0  0  0  0  0  # atno 6909 bound_to 6896
  146.0713  139.5264  142.9596 H   0  0  0  0  0  0  0  0  0  0  0  0  # atno 7974 bound_to 7965
  154.9074  140.0411  157.1927 H   0  0  0  0  0  0  0  0  0  0  0  0  # atno 8008 bound_to 7997
  154.8382  140.2910  155.5655 H   0  0  0  0  0  0  0  0  0  0  0  0  # atno 8009 bound_to 7997
  156.2991  140.2487  156.3320 H   0  0  0  0  0  0  0  0  0  0  0  0  # atno 8010 bound_to 7997
  140.7275  143.4730  151.0220 H   0  0  0  0  0  0  0  0  0  0  0  0  # atno 10167 bound_to 10162
  156.7031  130.5099  149.5912 H   0  0  0  0  0  0  0  0  0  0  0  0  # atno 10718 bound_to 10713
  154.3648  135.6108  153.5709 H   0  0  0  0  0  0  0  0  0  0  0  0  # atno 10763 bound_to 10752
  152.9792  135.5824  154.4591 H   0  0  0  0  0  0  0  0  0  0  0  0  # atno 10764 bound_to 10752
  154.4335  135.2848  155.1874 H   0  0  0  0  0  0  0  0  0  0  0  0  # atno 10765 bound_to 10752
  140.9060  133.7492  156.0606 H   0  0  0  0  0  0  0  0  0  0  0  0  # atno 11005 bound_to 11000
  145.6386  141.0289  143.1824 LP  0  0  0  0  0  0  0  0  0  0  0  0  # atno 17320 bound_to 7965
  144.7233  139.7956  143.7374 LP  0  0  0  0  0  0  0  0  0  0  0  0  # atno 17321 bound_to 7965
  139.8424  143.7546  152.3180 LP  0  0  0  0  0  0  0  0  0  0  0  0  # atno 17342 bound_to 10162
  139.7700  144.7479  151.0239 LP  0  0  0  0  0  0  0  0  0  0  0  0  # atno 17343 bound_to 10162
  156.1714  130.6439  151.0842 LP  0  0  0  0  0  0  0  0  0  0  0  0  # atno 17370 bound_to 10713
  157.6965  131.0792  150.6953 LP  0  0  0  0  0  0  0  0  0  0  0  0  # atno 17371 bound_to 10713
  140.8170  134.3333  157.5394 LP  0  0  0  0  0  0  0  0  0  0  0  0  # atno 17394 bound_to 11000
  139.8749  134.9287  156.3458 LP  0  0  0  0  0  0  0  0  0  0  0  0  # atno 17395 bound_to 11000

$$$$
