AV-unprocessed.smi:2511|AV-procd|sdf|9886|dock4
  -GOLD-   2272013523D 1   1.00000     0.00000
 Structure written by MMmdl.
 40 41  0  0  0  0  0  0  0  0  1 V2000
  142.0580  132.6395  148.0089 N   0  0  0  0  0  0  0  0  0  0  0  0
  143.2677  133.1848  148.1759 C   0  0  0  0  0  0  0  0  0  0  0  0
  143.6677  134.1164  147.4793 O   0  0  0  0  0  0  0  0  0  0  0  0
  144.1374  132.5670  149.2386 C   0  0  0  0  0  0  0  0  0  0  0  0
  143.5869  132.2399  150.4987 C   0  0  0  0  0  0  0  0  0  0  0  0
  144.4133  131.6566  151.4780 C   0  0  0  0  0  0  0  0  0  0  0  0
  145.7738  131.4181  151.1720 C   0  0  0  0  0  0  0  0  0  0  0  0
  146.7070  130.8246  152.0643 N   0  0  0  0  0  0  0  0  0  0  0  0
  146.6941  130.8056  153.4117 C   0  0  0  0  0  0  0  0  0  0  0  0
  145.8238  131.3186  154.1114 O   0  0  0  0  0  0  0  0  0  0  0  0
  147.7496  130.1815  153.9660 N   0  0  0  0  0  0  0  0  0  0  0  0
  148.0542  129.9766  155.3863 C   0  0  2  0  0  0  0  0  0  0  0  0
  148.3575  131.3284  156.0603 C   0  0  0  0  0  0  0  0  0  0  0  0
  149.7036  131.9158  155.6035 C   0  0  0  0  0  0  0  0  0  0  0  0
  150.8530  130.9195  155.8218 C   0  0  0  0  0  0  0  0  0  0  0  0
  150.5833  129.5737  155.1164 C   0  0  1  0  0  0  0  0  0  0  0  0
  151.7399  128.5725  155.3168 C   0  0  0  0  0  0  0  0  0  0  0  0
  152.8699  129.0401  154.7855 F   0  0  0  0  0  0  0  0  0  0  0  0
  151.9335  128.3539  156.6175 F   0  0  0  0  0  0  0  0  0  0  0  0
  151.4419  127.4085  154.7395 F   0  0  0  0  0  0  0  0  0  0  0  0
  149.2295  128.9925  155.5838 C   0  0  0  0  0  0  0  0  0  0  0  0
  146.2229  131.7598  149.8806 C   0  0  0  0  0  0  0  0  0  0  0  0
  145.4360  132.3206  148.9387 N   0  0  0  0  0  0  0  0  0  0  0  0
  141.4279  133.0122  147.3141 H   0  0  0  0  0  0  0  0  0  0  0  0
  141.7828  131.8573  148.5852 H   0  0  0  0  0  0  0  0  0  0  0  0
  142.5465  132.4288  150.7207 H   0  0  0  0  0  0  0  0  0  0  0  0
  143.9832  131.3954  152.4321 H   0  0  0  0  0  0  0  0  0  0  0  0
  147.5239  130.4217  151.6283 H   0  0  0  0  0  0  0  0  0  0  0  0
  148.4307  129.8078  153.3207 H   0  0  0  0  0  0  0  0  0  0  0  0
  147.1675  129.5661  155.8725 H   0  0  0  0  0  0  0  0  0  0  0  0
  147.5532  132.0384  155.8631 H   0  0  0  0  0  0  0  0  0  0  0  0
  148.3797  131.1905  157.1421 H   0  0  0  0  0  0  0  0  0  0  0  0
  149.6509  132.1873  154.5486 H   0  0  0  0  0  0  0  0  0  0  0  0
  149.9064  132.8391  156.1469 H   0  0  0  0  0  0  0  0  0  0  0  0
  151.7820  131.3560  155.4543 H   0  0  0  0  0  0  0  0  0  0  0  0
  150.9926  130.7558  156.8912 H   0  0  0  0  0  0  0  0  0  0  0  0
  150.5119  129.7701  154.0454 H   0  0  0  0  0  0  0  0  0  0  0  0
  149.2974  128.7373  156.6420 H   0  0  0  0  0  0  0  0  0  0  0  0
  149.0263  128.0545  155.0666 H   0  0  0  0  0  0  0  0  0  0  0  0
  147.2492  131.5836  149.5932 H   0  0  0  0  0  0  0  0  0  0  0  0
  1  2  1  0  0  0  0
  1 24  1  0  0  0  0
  1 25  1  0  0  0  0
  2  3  2  0  0  0  0
  2  4  1  0  0  0  0
  4 23  1  0  0  0  0
  4  5  2  0  0  0  0
  5  6  1  0  0  0  0
  5 26  1  0  0  0  0
  6  7  2  0  0  0  0
  6 27  1  0  0  0  0
  7  8  1  0  0  0  0
  7 22  1  0  0  0  0
  8  9  1  0  0  0  0
  8 28  1  0  0  0  0
  9 10  2  0  0  0  0
  9 11  1  0  0  0  0
 11 12  1  0  0  0  0
 11 29  1  0  0  0  0
 12 21  1  0  0  0  0
 12 13  1  0  0  0  0
 12 30  1  0  0  0  0
 13 14  1  0  0  0  0
 13 31  1  0  0  0  0
 13 32  1  0  0  0  0
 14 15  1  0  0  0  0
 14 33  1  0  0  0  0
 14 34  1  0  0  0  0
 15 16  1  0  0  0  0
 15 35  1  0  0  0  0
 15 36  1  0  0  0  0
 16 17  1  0  0  0  0
 16 21  1  0  0  0  0
 16 37  1  0  0  0  0
 17 18  1  0  0  0  0
 17 19  1  0  0  0  0
 17 20  1  0  0  0  0
 21 38  1  0  0  0  0
 21 39  1  0  0  0  0
 22 23  2  0  0  0  0
 22 40  1  0  0  0  0
M  END
> <s_m_source_file>
AV-unprocessed.smi

> <i_m_source_file_index>
2511

> <i_lp_mmshare_version>
43012

> <i_f3d_flags>
0

> <s_epik_input>
W05IMl1DKD1PKWMxW2NIXVtjSF1jKFtjSF1uMSlbTkhdQyg9TylbTkhdW0NAQEhdMltDSDJdW0NIMl1bQ0gyXVtDQEBIXShDKEYpKEYpRilbQ0gyXTI=

> <s_epik_cmdline>
J2VwaWtfcHl0aG9uJywgJy1waCcsICc3LjAnLCAnLXRuJywgJzgnLCAnLW1hJywgJzIwMCcsICctbWV0YWxfYmluZGluZycsICctaW1hZScsICc8aW5maWxlLm1hZT4nLCAnLW9tYWUnLCAnPG91dGZpbGUubWFlPic=

> <r_lp_tautomer_probability>
1

> <r_epik_Ionization_Penalty>
4.28758e-05

> <r_epik_Ionization_Penalty_Charging>
0

> <r_epik_Ionization_Penalty_Neutral>
4.28758e-05

> <r_epik_State_Penalty>
-0

> <r_epik_Charging_Adjusted_Penalty>
0

> <i_epik_Tot_Q>
0

> <i_epik_Tot_abs_Q>
0

> <r_epik_Metal_State_Penalty>
-0

> <b_epik_Metal_Only>
0

> <s_lp_Force_Field>
OPLS_2005

> <r_lp_Energy>
27.7433

> <b_lp_Chiralities_Consistent>
1

> <s_lp_Variant>
AV-unprocessed.smi:2511-1

> <Gold.Version>
5.8.1

> <Gold.Id.Protein>
6NUR|6NUR_protein|mol2

> <Gold.PLP.Fitness>
46.3994

> <Gold.PLP.PLP>
-32.5927

> <Gold.PLP.part.hbond>
-6.8411

> <Gold.PLP.part.metal>
0.0000

> <Gold.PLP.part.buried>
-0.7316

> <Gold.PLP.part.nonpolar>
-33.4086

> <Gold.PLP.part.repulsive>
7.8348

> <Gold.PLP.ligand.clash>
0.0000

> <Gold.PLP.ligand.torsion>
0.9561

> <Gold.PLP.Chemscore.Hbond>
4.2298

> <Gold.PLP.Chemscore.CHOScore>
1.0000

> <Gold.PLP.Chemscore.Metal>
0.0000

> <Gold.Chemscore.Hbonds>
donor molecule, donor type, donor heavy atom, donor atom, acceptor molecule, acceptor atom, score
      L1  H     1    24       P1 10195  0.54
      L1  H     1    25       P1 10952  1.00
      L1  H     8    28       P1 10747  0.85
      P1  H  7918  7932       L1     3  0.54
      P1  H 10192 10197       L1     3  1.00
      L1  C    22    40       P1 10747  0.85

> <Gold.PLP.Chemscore.Internal.Correction>
0.0296

> <Gold.Rescore>
     Score         DG    S(hbond)    S(metal)    S(lipo)     H(rot)  DE(clash)    DE(int)     intcor
     18.28     -23.92       3.34        0.00      84.21       1.00       4.65       0.98       ----

> <Gold.Chemscore.Fitness>
18.2844

> <Gold.Chemscore.DG>
-23.9199

> <Gold.Chemscore.ZeroCoef>
-5.4800

> <Gold.Chemscore.Hbond>
3.3376

> <Gold.Chemscore.Metal>
0.0000

> <Gold.Chemscore.Lipo>
84.2086

> <Gold.Chemscore.Internal_Hbond>
0.0000

> <Gold.Chemscore.DEClash>
4.6513

> <Gold.Chemscore.DEInternal>
0.9842

> <Gold.Chemscore.Rot>
1.0000

> <Gold.Chemscore.Internal.Correction>
   9.000000E+99

> <Gold.Chemscore.Hbonds>
donor molecule, donor type, donor heavy atom, donor atom, acceptor molecule, acceptor atom, score
      L1  H     1    24       P1 10195  0.19
      L1  H     1    25       P1 10952  0.94
      L1  H     8    28       P1 10747  0.79
      P1  H  7918  7932       L1     3  0.32
      P1  H 10192 10197       L1     3  0.39

> <Gold.Chemscore.Hbond.Weighted>
-11.1475

> <Gold.Chemscore.Metal.Weighted>
-0.0000

> <Gold.Chemscore.Lipo.Weighted>
-9.8524

> <Gold.Chemscore.Internal_Hbond.Weighted>
0.0000

> <Gold.Chemscore.DEClash.Weighted>
4.6513

> <Gold.Chemscore.DEInternal.Weighted>
0.9842

> <Gold.Chemscore.Rot.Weighted>
2.5600

> <Gold.Chemscore.Internal.Correction.Weighted>
   9.000000E+99

> <Gold.Protein.RotatedTorsions>
[ 6907 6896 6895 6894 ] final -175.13 input  -60.11 | X-H torsion
[ 7974 7965 7964 7962 ] final  -72.80 input  175.53 | X-H torsion
[ 8008 7997 7996 7995 ] final   60.72 input   59.86 | X-H torsion
[ 10167 10162 10161 10158 ] final  123.95 input  -65.29 | X-H torsion
[ 10718 10713 10712 10709 ] final   63.80 input   66.30 | X-H torsion
[ 10763 10752 10751 10750 ] final   -8.71 input  -60.55 | X-H torsion
[ 11005 11000 10999 10996 ] final  -47.28 input  -57.11 | X-H torsion

> <Gold.Protein.ActiveResidues>
 VAL166  LYS551  ARG553  GLY616  TRP617  ASP618  TYR619  PRO620  LYS621  CYS622 
 ASP623  PHE694  ASN695  SER759  ASP760  ASP761  ALA762  ILE779  LEU786  VAL792 
 PHE793  MET794  SER795  GLU796  ALA797  LYS798  CYS799  TRP800  GLU811  SER814 

> <Gold.Protein.RotatedAtoms>
  151.5836  133.3375  159.3013 H   0  0  0  0  0  0  0  0  0  0  0  0  # atno 6907 bound_to 6896
  150.8300  134.7551  159.6856 H   0  0  0  0  0  0  0  0  0  0  0  0  # atno 6908 bound_to 6896
  152.4384  134.5646  159.9955 H   0  0  0  0  0  0  0  0  0  0  0  0  # atno 6909 bound_to 6896
  145.6604  140.9254  143.0937 H   0  0  0  0  0  0  0  0  0  0  0  0  # atno 7974 bound_to 7965
  155.5869  140.3492  155.4555 H   0  0  0  0  0  0  0  0  0  0  0  0  # atno 8008 bound_to 7997
  156.0331  140.1279  157.0262 H   0  0  0  0  0  0  0  0  0  0  0  0  # atno 8009 bound_to 7997
  154.4360  140.1039  156.6113 H   0  0  0  0  0  0  0  0  0  0  0  0  # atno 8010 bound_to 7997
  139.5770  144.6968  151.3628 H   0  0  0  0  0  0  0  0  0  0  0  0  # atno 10167 bound_to 10162
  157.5996  130.9125  149.9763 H   0  0  0  0  0  0  0  0  0  0  0  0  # atno 10718 bound_to 10713
  153.4443  135.7014  153.6149 H   0  0  0  0  0  0  0  0  0  0  0  0  # atno 10763 bound_to 10752
  153.4510  135.3758  155.2284 H   0  0  0  0  0  0  0  0  0  0  0  0  # atno 10764 bound_to 10752
  154.8728  135.3997  154.3847 H   0  0  0  0  0  0  0  0  0  0  0  0  # atno 10765 bound_to 10752
  141.0631  133.6702  156.3275 H   0  0  0  0  0  0  0  0  0  0  0  0  # atno 11005 bound_to 11000
  144.7091  139.8442  143.7420 LP  0  0  0  0  0  0  0  0  0  0  0  0  # atno 17320 bound_to 7965
  146.1130  139.4137  143.0276 LP  0  0  0  0  0  0  0  0  0  0  0  0  # atno 17321 bound_to 7965
  140.7051  143.7533  150.7469 LP  0  0  0  0  0  0  0  0  0  0  0  0  # atno 17342 bound_to 10162
  140.1055  143.4748  152.2400 LP  0  0  0  0  0  0  0  0  0  0  0  0  # atno 17343 bound_to 10162
  156.1066  130.3652  150.0122 LP  0  0  0  0  0  0  0  0  0  0  0  0  # atno 17370 bound_to 10713
  156.8228  130.9365  151.3640 LP  0  0  0  0  0  0  0  0  0  0  0  0  # atno 17371 bound_to 10713
  140.5828  134.5728  157.5483 LP  0  0  0  0  0  0  0  0  0  0  0  0  # atno 17394 bound_to 11000
  139.9451  134.7717  156.0582 LP  0  0  0  0  0  0  0  0  0  0  0  0  # atno 17395 bound_to 11000

$$$$
