#       Name:                AV-unprocessed.smi:2005
#       Creating user name   scv26
#       Creation time:       Fri Mar 27 10:36:20 2020


#       File generated by GOLD software.
#

@<TRIPOS>MOLECULE
AV-unprocessed.smi:2005
    45    46     1
SMALL
NO_CHARGES


@<TRIPOS>ATOM
      1 ****        -5.9815  -1.6908   1.0897 C.3            1 S1                 0.0000
      2 ****        -5.7586  -0.2153   0.7272 C.3            1 S1                 0.0000
      3 ****        -6.9046   0.3823  -0.1023 C.3            1 S1                 0.0000
      4 ****        -4.4223   0.0120   0.0924 C.2            1 S1                 0.0000
      5 ****        -4.0772  -0.5070  -1.0901 N.2            1 S1                 0.0000
      6 ****        -2.7863  -0.1590  -1.4591 N.2            1 S1                 0.0000
      7 ****        -2.1680   0.6073  -0.5497 C.2            1 S1                 0.0000
      8 ****        -0.9102   1.0489  -0.7150 N.pl3          1 S1                -1.0000
      9 ****         0.1184   0.3879  -0.1361 C.2            1 S1                 0.0000
     10 ****         0.0338  -0.6215   0.5674 O.2            1 S1                 0.0000
     11 ****         1.3189   0.9297  -0.3892 N.am           1 S1                 0.0000
     12 ****         2.6060   0.4361   0.0938 C.3            1 S1                 0.0000
     13 ****         3.6267   1.5901   0.1113 C.3            1 S1                 0.0000
     14 ****         5.0172   1.1056   0.5530 C.3            1 S1                 0.0000
     15 ****         5.5101  -0.0468  -0.3387 C.3            1 S1                 0.0000
     16 ****         6.7571  -0.5105   0.1347 O.3            1 S1                 0.0000
     17 ****         4.5006  -1.2071  -0.3484 C.3            1 S1                 0.0000
     18 ****         3.1084  -0.7264  -0.7884 C.3            1 S1                 0.0000
     19 ****        -3.1715   0.9852   0.8496 S.3            1 S1                 0.0000
     20 ****        -5.1935  -2.0549   1.7500 H              1 S1                 0.0000
     21 ****        -5.9886  -2.3214   0.2000 H              1 S1                 0.0000
     22 ****        -6.9332  -1.8298   1.6031 H              1 S1                 0.0000
     23 ****        -5.7469   0.3324   1.6703 H              1 S1                 0.0000
     24 ****        -6.7529   1.4492  -0.2688 H              1 S1                 0.0000
     25 ****        -7.8617   0.2600   0.4051 H              1 S1                 0.0000
     26 ****        -6.9821  -0.0998  -1.0774 H              1 S1                 0.0000
     27 ****         1.3377   1.7554  -0.9695 H              1 S1                 0.0000
     28 ****         2.4869   0.0772   1.1180 H              1 S1                 0.0000
     29 ****         3.6990   2.0349  -0.8822 H              1 S1                 0.0000
     30 ****         3.2845   2.3811   0.7796 H              1 S1                 0.0000
     31 ****         5.7245   1.9350   0.5202 H              1 S1                 0.0000
     32 ****         4.9716   0.7775   1.5927 H              1 S1                 0.0000
     33 ****         5.6517   0.3186  -1.3566 H              1 S1                 0.0000
     34 ****         7.0566  -1.2004  -0.4377 H              1 S1                 0.0000
     35 ****         4.8440  -1.9989  -1.0151 H              1 S1                 0.0000
     36 ****         4.4313  -1.6477   0.6474 H              1 S1                 0.0000
     37 ****         2.4069  -1.5604  -0.7491 H              1 S1                 0.0000
     38 ****         3.1489  -0.4074  -1.8309 H              1 S1                 0.0000
     39 ****        -4.6804  -1.0802  -1.6449 LP             1 S1                 0.0000
     40 ****        -2.3605  -0.4500  -2.3159 LP             1 S1                 0.0000
     41 ****        -0.7345   1.8651  -1.2653 LP             1 S1                 0.0000
     42 ****        -0.8611  -1.0263   0.7556 LP             1 S1                 0.0000
     43 ****         0.8600  -1.0353   0.9496 LP             1 S1                 0.0000
     44 ****         6.6548  -0.8640   1.0645 LP             1 S1                 0.0000
     45 ****         7.4184   0.2395   0.1340 LP             1 S1                 0.0000
@<TRIPOS>BOND
    1    1    2 1     
    2    1   20 1     
    3    1   21 1     
    4    1   22 1     
    5    2    3 1     
    6    2    4 1     
    7    2   23 1     
    8    3   24 1     
    9    3   25 1     
   10    3   26 1     
   11    4   19 1     
   12    4    5 2     
   13    5    6 1     
   14    6    7 2     
   15    7    8 1     
   16    7   19 1     
   17    8    9 1     
   18    9   10 2     
   19    9   11 am    
   20   11   12 1     
   21   11   27 1     
   22   12   18 1     
   23   12   13 1     
   24   12   28 1     
   25   13   14 1     
   26   13   29 1     
   27   13   30 1     
   28   14   15 1     
   29   14   31 1     
   30   14   32 1     
   31   15   16 1     
   32   15   17 1     
   33   15   33 1     
   34   16   34 1     
   35   17   18 1     
   36   17   35 1     
   37   17   36 1     
   38   18   37 1     
   39   18   38 1     
   40    5   39 1     
   41    6   40 1     
   42    8   41 1     
   43   10   42 1     
   44   10   43 1     
   45   16   44 1     
   46   16   45 1     
@<TRIPOS>SUBSTRUCTURE
      1 S1             1
@<TRIPOS>SET
LONE_PAIRS      STATIC     ATOMS    <user>   **** ""
7 39 40 41 42 43 44 45
DONOR_HYDROGENS      STATIC     ATOMS    <user>   **** ""
2 27 34
ATOM$BLUE        STATIC     ATOMS    COLORGROUP SYSTEM
7 39 40 41 42 43 44 45
ATOM$RED        STATIC     ATOMS    COLORGROUP SYSTEM
2 27 34
