AV-unprocessed.smi:2220|AV-procd|sdf|8979|dock2
  -GOLD-   2272012193D 1   1.00000     0.00000
 Structure written by MMmdl.
 38 39  0  0  0  0  0  0  0  0  1 V2000
  147.3129  142.4374  154.0604 C   0  0  0  0  0  0  0  0  0  0  0  0
  148.3505  141.4456  154.2631 N   0  0  0  0  0  0  0  0  0  0  0  0
  149.5608  141.6507  154.8007 C   0  0  0  0  0  0  0  0  0  0  0  0
  150.3234  140.5679  154.8704 N   0  0  0  0  0  0  0  0  0  0  0  0
  149.5259  139.5662  154.3243 C   0  0  0  0  0  0  0  0  0  0  0  0
  148.3091  140.0899  153.9458 C   0  0  0  0  0  0  0  0  0  0  0  0
  147.1307  139.4107  153.3243 C   0  0  0  0  0  0  0  0  0  0  0  0
  146.8711  138.0092  153.9004 C   0  0  0  0  0  0  0  0  0  0  0  0
  146.7140  137.0167  152.8440 N   0  0  0  0  0  0  0  0  0  0  0  0
  145.5394  136.5929  152.3519 C   0  0  0  0  0  0  0  0  0  0  0  0
  144.4516  137.0117  152.7491 O   0  0  0  0  0  0  0  0  0  0  0  0
  145.6032  135.5325  151.2443 C   0  0  0  0  0  0  0  0  0  0  0  0
  144.1868  135.1295  150.7836 C   0  0  0  0  0  0  0  0  0  0  0  0
  144.2456  134.0703  149.6711 C   0  0  0  0  0  0  0  0  0  0  0  0
  145.0542  132.8379  150.1108 C   0  0  0  0  0  0  0  0  0  0  0  0
  144.4013  132.2061  151.0876 F   0  0  0  0  0  0  0  0  0  0  0  0
  145.1702  132.0011  149.0798 F   0  0  0  0  0  0  0  0  0  0  0  0
  146.4585  133.2264  150.6043 C   0  0  0  0  0  0  0  0  0  0  0  0
  146.3900  134.2902  151.7120 C   0  0  0  0  0  0  0  0  0  0  0  0
  147.6827  143.4294  154.3218 H   0  0  0  0  0  0  0  0  0  0  0  0
  146.4528  142.2050  154.6881 H   0  0  0  0  0  0  0  0  0  0  0  0
  147.0043  142.4425  153.0149 H   0  0  0  0  0  0  0  0  0  0  0  0
  149.8924  142.6175  155.1504 H   0  0  0  0  0  0  0  0  0  0  0  0
  149.8848  138.5504  154.2470 H   0  0  0  0  0  0  0  0  0  0  0  0
  146.2422  140.0302  153.4491 H   0  0  0  0  0  0  0  0  0  0  0  0
  147.2926  139.3389  152.2482 H   0  0  0  0  0  0  0  0  0  0  0  0
  147.6789  137.7175  154.5739 H   0  0  0  0  0  0  0  0  0  0  0  0
  145.9584  138.0118  154.4958 H   0  0  0  0  0  0  0  0  0  0  0  0
  147.5599  136.6216  152.4597 H   0  0  0  0  0  0  0  0  0  0  0  0
  146.1280  135.9631  150.3894 H   0  0  0  0  0  0  0  0  0  0  0  0
  143.6142  134.7356  151.6247 H   0  0  0  0  0  0  0  0  0  0  0  0
  143.6438  136.0048  150.4245 H   0  0  0  0  0  0  0  0  0  0  0  0
  143.2361  133.7743  149.3841 H   0  0  0  0  0  0  0  0  0  0  0  0
  144.7028  134.5079  148.7826 H   0  0  0  0  0  0  0  0  0  0  0  0
  146.9866  132.3439  150.9667 H   0  0  0  0  0  0  0  0  0  0  0  0
  147.0438  133.6145  149.7695 H   0  0  0  0  0  0  0  0  0  0  0  0
  147.4011  134.5732  152.0079 H   0  0  0  0  0  0  0  0  0  0  0  0
  145.9204  133.8568  152.5964 H   0  0  0  0  0  0  0  0  0  0  0  0
  1  2  1  0  0  0  0
  1 20  1  0  0  0  0
  1 21  1  0  0  0  0
  1 22  1  0  0  0  0
  2  6  1  0  0  0  0
  2  3  1  0  0  0  0
  3  4  2  0  0  0  0
  3 23  1  0  0  0  0
  4  5  1  0  0  0  0
  5  6  2  0  0  0  0
  5 24  1  0  0  0  0
  6  7  1  0  0  0  0
  7  8  1  0  0  0  0
  7 25  1  0  0  0  0
  7 26  1  0  0  0  0
  8  9  1  0  0  0  0
  8 27  1  0  0  0  0
  8 28  1  0  0  0  0
  9 10  1  0  0  0  0
  9 29  1  0  0  0  0
 10 11  2  0  0  0  0
 10 12  1  0  0  0  0
 12 19  1  0  0  0  0
 12 13  1  0  0  0  0
 12 30  1  0  0  0  0
 13 14  1  0  0  0  0
 13 31  1  0  0  0  0
 13 32  1  0  0  0  0
 14 15  1  0  0  0  0
 14 33  1  0  0  0  0
 14 34  1  0  0  0  0
 15 16  1  0  0  0  0
 15 17  1  0  0  0  0
 15 18  1  0  0  0  0
 18 19  1  0  0  0  0
 18 35  1  0  0  0  0
 18 36  1  0  0  0  0
 19 37  1  0  0  0  0
 19 38  1  0  0  0  0
M  END
> <s_m_source_file>
AV-unprocessed.smi

> <i_m_source_file_index>
2220

> <i_lp_mmshare_version>
43012

> <i_f3d_flags>
0

> <s_epik_input>
W0NIM11uMVtjSF1uW2NIXWMxW0NIMl1bQ0gyXVtOSF1DKD1PKVtDSF0oW0NIMl1bQ0gyXTIpW0NIMl1bQ0gyXUMyKEYpRg==

> <s_epik_cmdline>
J2VwaWtfcHl0aG9uJywgJy1waCcsICc3LjAnLCAnLXRuJywgJzgnLCAnLW1hJywgJzIwMCcsICctbWV0YWxfYmluZGluZycsICctaW1hZScsICc8aW5maWxlLm1hZT4nLCAnLW9tYWUnLCAnPG91dGZpbGUubWFlPic=

> <r_lp_tautomer_probability>
1

> <r_epik_Ionization_Penalty>
0.872556

> <r_epik_Ionization_Penalty_Charging>
0.872556

> <r_epik_Ionization_Penalty_Neutral>
1.72153e-08

> <r_epik_State_Penalty>
0.910028

> <r_epik_Charging_Adjusted_Penalty>
1.78258

> <i_epik_Tot_Q>
0

> <i_epik_Tot_abs_Q>
0

> <r_epik_Metal_State_Penalty>
0.360885

> <b_epik_Metal_Only>
0

> <s_lp_Force_Field>
OPLS_2005

> <r_lp_Energy>
9.62652

> <b_lp_Chiralities_Consistent>
1

> <s_lp_Variant>
AV-unprocessed.smi:2220-2

> <Gold.Version>
5.8.1

> <Gold.Id.Protein>
6NUR|6NUR_protein|mol2

> <Gold.PLP.Fitness>
45.2937

> <Gold.PLP.PLP>
-38.0486

> <Gold.PLP.part.hbond>
-2.0000

> <Gold.PLP.part.metal>
0.0000

> <Gold.PLP.part.buried>
0.2307

> <Gold.PLP.part.nonpolar>
-36.0329

> <Gold.PLP.part.repulsive>
0.2942

> <Gold.PLP.ligand.clash>
0.0000

> <Gold.PLP.ligand.torsion>
0.8208

> <Gold.PLP.Chemscore.Hbond>
1.9440

> <Gold.PLP.Chemscore.CHOScore>
1.0000

> <Gold.PLP.Chemscore.Metal>
0.0000

> <Gold.Chemscore.Hbonds>
donor molecule, donor type, donor heavy atom, donor atom, acceptor molecule, acceptor atom, score
      L1  H     9    29       P1  7948  1.00
      P1  H  7989  7998       L1     4  0.94
      L1  C     3    23       P1  8028  1.00

> <Gold.PLP.Chemscore.Internal.Correction>
0.0548

> <Gold.Rescore>
     Score         DG    S(hbond)    S(metal)    S(lipo)     H(rot)  DE(clash)    DE(int)     intcor
     12.93     -14.31       1.57        0.00      70.23       1.80       0.56       0.82       ----

> <Gold.Chemscore.Fitness>
12.9295

> <Gold.Chemscore.DG>
-14.3094

> <Gold.Chemscore.ZeroCoef>
-5.4800

> <Gold.Chemscore.Hbond>
1.5653

> <Gold.Chemscore.Metal>
0.0000

> <Gold.Chemscore.Lipo>
70.2293

> <Gold.Chemscore.Internal_Hbond>
0.0000

> <Gold.Chemscore.DEClash>
0.5637

> <Gold.Chemscore.DEInternal>
0.8162

> <Gold.Chemscore.Rot>
1.8029

> <Gold.Chemscore.Internal.Correction>
   9.000000E+99

> <Gold.Chemscore.Hbonds>
donor molecule, donor type, donor heavy atom, donor atom, acceptor molecule, acceptor atom, score
      L1  H     9    29       P1  7948  0.96
      P1  H  7989  7998       L1     4  0.12

> <Gold.Chemscore.Hbond.Weighted>
-5.2281

> <Gold.Chemscore.Metal.Weighted>
-0.0000

> <Gold.Chemscore.Lipo.Weighted>
-8.2168

> <Gold.Chemscore.Internal_Hbond.Weighted>
0.0000

> <Gold.Chemscore.DEClash.Weighted>
0.5637

> <Gold.Chemscore.DEInternal.Weighted>
0.8162

> <Gold.Chemscore.Rot.Weighted>
4.6155

> <Gold.Chemscore.Internal.Correction.Weighted>
   9.000000E+99

> <Gold.Protein.RotatedTorsions>
[ 6907 6896 6895 6894 ] final   39.29 input  -60.11 | X-H torsion
[ 7974 7965 7964 7962 ] final  -94.11 input  175.53 | X-H torsion
[ 8008 7997 7996 7995 ] final  156.10 input   59.86 | X-H torsion
[ 10167 10162 10161 10158 ] final  155.03 input  -65.29 | X-H torsion
[ 10718 10713 10712 10709 ] final  168.69 input   66.30 | X-H torsion
[ 10763 10752 10751 10750 ] final -124.90 input  -60.55 | X-H torsion
[ 11005 11000 10999 10996 ] final  163.89 input  -57.11 | X-H torsion

> <Gold.Protein.ActiveResidues>
 VAL166  LYS551  ARG553  GLY616  TRP617  ASP618  TYR619  PRO620  LYS621  CYS622 
 ASP623  PHE694  ASN695  SER759  ASP760  ASP761  ALA762  ILE779  LEU786  VAL792 
 PHE793  MET794  SER795  GLU796  ALA797  LYS798  CYS799  TRP800  GLU811  SER814 

> <Gold.Protein.RotatedAtoms>
  152.1676  134.8861  160.0536 H   0  0  0  0  0  0  0  0  0  0  0  0  # atno 6907 bound_to 6896
  151.9833  133.3760  159.4124 H   0  0  0  0  0  0  0  0  0  0  0  0  # atno 6908 bound_to 6896
  150.6897  134.3938  159.5132 H   0  0  0  0  0  0  0  0  0  0  0  0  # atno 6909 bound_to 6896
  145.3776  140.9513  143.2412 H   0  0  0  0  0  0  0  0  0  0  0  0  # atno 7974 bound_to 7965
  156.2442  140.1921  156.6903 H   0  0  0  0  0  0  0  0  0  0  0  0  # atno 8008 bound_to 7997
  154.6257  140.0602  156.9696 H   0  0  0  0  0  0  0  0  0  0  0  0  # atno 8009 bound_to 7997
  155.1791  140.3275  155.4381 H   0  0  0  0  0  0  0  0  0  0  0  0  # atno 8010 bound_to 7997
  139.4822  144.5134  151.7989 H   0  0  0  0  0  0  0  0  0  0  0  0  # atno 10167 bound_to 10162
  157.0335  131.0266  151.2737 H   0  0  0  0  0  0  0  0  0  0  0  0  # atno 10718 bound_to 10713
  154.8729  135.4048  154.3181 H   0  0  0  0  0  0  0  0  0  0  0  0  # atno 10763 bound_to 10752
  153.4013  135.7018  153.6429 H   0  0  0  0  0  0  0  0  0  0  0  0  # atno 10764 bound_to 10752
  153.5170  135.3695  155.2585 H   0  0  0  0  0  0  0  0  0  0  0  0  # atno 10765 bound_to 10752
  140.2403  134.8056  157.3404 H   0  0  0  0  0  0  0  0  0  0  0  0  # atno 11005 bound_to 11000
  144.8531  139.5291  143.6847 LP  0  0  0  0  0  0  0  0  0  0  0  0  # atno 17320 bound_to 7965
  146.2857  139.6997  142.9197 LP  0  0  0  0  0  0  0  0  0  0  0  0  # atno 17321 bound_to 7965
  140.4640  144.1682  150.5909 LP  0  0  0  0  0  0  0  0  0  0  0  0  # atno 17342 bound_to 10162
  140.4454  143.2509  151.9418 LP  0  0  0  0  0  0  0  0  0  0  0  0  # atno 17343 bound_to 10162
  157.5159  130.7968  149.7756 LP  0  0  0  0  0  0  0  0  0  0  0  0  # atno 17370 bound_to 10713
  156.0061  130.3855  150.2425 LP  0  0  0  0  0  0  0  0  0  0  0  0  # atno 17371 bound_to 10713
  140.1660  134.4669  155.7863 LP  0  0  0  0  0  0  0  0  0  0  0  0  # atno 17394 bound_to 11000
  141.2211  133.6921  156.7626 LP  0  0  0  0  0  0  0  0  0  0  0  0  # atno 17395 bound_to 11000

$$$$
