#       Name:                AV-unprocessed.smi:1633
#       Creating user name   scv26
#       Creation time:       Fri Mar 27 07:21:45 2020


#       File generated by GOLD software.
#

@<TRIPOS>MOLECULE
AV-unprocessed.smi:1633
    56    58     1
SMALL
NO_CHARGES


@<TRIPOS>ATOM
      1 ****        -5.4805  -2.1360  -0.7132 C.3            1 S1                 0.0000
      2 ****        -5.0305  -1.2566   0.4554 C.2            1 S1                 0.0000
      3 ****        -5.2703  -1.6461   1.5980 O.2            1 S1                 0.0000
      4 ****        -4.3897  -0.0903   0.2006 N.am           1 S1                 0.0000
      5 ****        -4.0001   0.3971  -1.1263 C.3            1 S1                 0.0000
      6 ****        -2.4634   0.4144  -1.2285 C.3            1 S1                 0.0000
      7 ****        -1.8529   1.2135  -0.1294 N.4            1 S1                 1.0000
      8 ****        -0.3686   1.2618  -0.1797 C.3            1 S1                 0.0000
      9 ****         0.1782   2.1464  -1.3234 C.3            1 S1                 0.0000
     10 ****        -0.2736   3.4733  -1.1425 O.3            1 S1                 0.0000
     11 ****         1.7185   2.1983  -1.3832 C.3            1 S1                 0.0000
     12 ****         2.3350   0.8806  -1.5930 N.pl3          1 S1                 0.0000
     13 ****         2.5159   0.1840  -2.7482 C.2            1 S1                 0.0000
     14 ****         3.1425  -0.9824  -2.4312 N.pl3          1 S1                 1.0000
     15 ****         3.3715  -1.0300  -1.0546 C.ar           1 S1                 0.0000
     16 ****         3.9731  -2.0036  -0.2663 C.ar           1 S1                 0.0000
     17 ****         4.0536  -1.7510   1.1217 C.ar           1 S1                 0.0000
     18 ****         4.7036  -2.7960   2.0125 C.3            1 S1                 0.0000
     19 ****         3.5388  -0.5508   1.6760 C.ar           1 S1                 0.0000
     20 ****         3.6282  -0.2903   3.1704 C.3            1 S1                 0.0000
     21 ****         2.9319   0.4280   0.8570 C.ar           1 S1                 0.0000
     22 ****         2.8593   0.1638  -0.5094 C.ar           1 S1                 0.0000
     23 ****        -2.3512   0.8114   1.2133 C.3            1 S1                 0.0000
     24 ****        -3.8893   0.7889   1.2610 C.3            1 S1                 0.0000
     25 ****        -4.6263  -2.4516  -1.3128 H              1 S1                 0.0000
     26 ****        -6.1850  -1.6013  -1.3509 H              1 S1                 0.0000
     27 ****        -5.9798  -3.0342  -0.3481 H              1 S1                 0.0000
     28 ****        -4.4139  -0.1870  -1.9469 H              1 S1                 0.0000
     29 ****        -4.3926   1.4061  -1.2606 H              1 S1                 0.0000
     30 ****        -2.0812  -0.6070  -1.1893 H              1 S1                 0.0000
     31 ****        -2.1791   0.8219  -2.1976 H              1 S1                 0.0000
     32 ****         0.0122   1.6517   0.7657 H              1 S1                 0.0000
     33 ****         0.0077   0.2416  -0.2623 H              1 S1                 0.0000
     34 ****        -0.1855   1.7931  -2.2878 H              1 S1                 0.0000
     35 ****        -1.2030   3.5093  -1.3087 H              1 S1                 0.0000
     36 ****         2.0348   2.8311  -2.2139 H              1 S1                 0.0000
     37 ****         2.1345   2.6534  -0.4843 H              1 S1                 0.0000
     38 ****         2.2190   0.5000  -3.7381 H              1 S1                 0.0000
     39 ****         4.3629  -2.9153  -0.6952 H              1 S1                 0.0000
     40 ****         5.5406  -2.3661   2.5625 H              1 S1                 0.0000
     41 ****         5.0850  -3.6356   1.4309 H              1 S1                 0.0000
     42 ****         3.9822  -3.1876   2.7297 H              1 S1                 0.0000
     43 ****         3.1756   0.6649   3.4378 H              1 S1                 0.0000
     44 ****         4.6692  -0.2667   3.4935 H              1 S1                 0.0000
     45 ****         3.1098  -1.0712   3.7271 H              1 S1                 0.0000
     46 ****         2.5422   1.3398   1.2844 H              1 S1                 0.0000
     47 ****        -1.9589  -0.1759   1.4630 H              1 S1                 0.0000
     48 ****        -1.9747   1.5037   1.9673 H              1 S1                 0.0000
     49 ****        -4.2845   1.7942   1.1079 H              1 S1                 0.0000
     50 ****        -4.2215   0.4881   2.2557 H              1 S1                 0.0000
     51 ****        -2.1704   2.1637  -0.2580 H              1 S1                 0.0000
     52 ****         3.4004  -1.6897  -3.1079 H              1 S1                 0.0000
     53 ****        -5.7460  -2.5140   1.7409 LP             1 S1                 0.0000
     54 ****        -4.9894  -1.0947   2.3835 LP             1 S1                 0.0000
     55 ****         0.2040   4.0792  -1.7788 LP             1 S1                 0.0000
     56 ****        -0.0899   3.7643  -0.2036 LP             1 S1                 0.0000
@<TRIPOS>BOND
    1    1    2 1     
    2    1   25 1     
    3    1   26 1     
    4    1   27 1     
    5    2    3 2     
    6    2    4 am    
    7    4   24 1     
    8    4    5 1     
    9    5    6 1     
   10    5   28 1     
   11    5   29 1     
   12    6    7 1     
   13    6   30 1     
   14    6   31 1     
   15    7    8 1     
   16    7   23 1     
   17    7   51 1     
   18    8    9 1     
   19    8   32 1     
   20    8   33 1     
   21    9   10 1     
   22    9   11 1     
   23    9   34 1     
   24   10   35 1     
   25   11   12 1     
   26   11   36 1     
   27   11   37 1     
   28   12   22 1     
   29   12   13 1     
   30   13   14 2     
   31   13   38 1     
   32   14   15 1     
   33   14   52 1     
   34   15   22 ar    
   35   15   16 ar    
   36   16   17 ar    
   37   16   39 1     
   38   17   18 1     
   39   17   19 ar    
   40   18   40 1     
   41   18   41 1     
   42   18   42 1     
   43   19   20 1     
   44   19   21 ar    
   45   20   43 1     
   46   20   44 1     
   47   20   45 1     
   48   21   22 ar    
   49   21   46 1     
   50   23   24 1     
   51   23   47 1     
   52   23   48 1     
   53   24   49 1     
   54   24   50 1     
   55    3   53 1     
   56    3   54 1     
   57   10   55 1     
   58   10   56 1     
@<TRIPOS>SUBSTRUCTURE
      1 S1             1
@<TRIPOS>SET
LONE_PAIRS      STATIC     ATOMS    <user>   **** ""
4 53 54 55 56
DONOR_HYDROGENS      STATIC     ATOMS    <user>   **** ""
3 51 35 52
ATOM$BLUE        STATIC     ATOMS    COLORGROUP SYSTEM
4 53 54 55 56
ATOM$RED        STATIC     ATOMS    COLORGROUP SYSTEM
3 51 35 52
