AV-unprocessed.smi:1740|AV-procd|sdf|7010|dock7
  -GOLD-   22720 8223D 1   1.00000     0.00000
 Structure written by MMmdl.
 53 55  0  0  0  0  0  0  0  0  3 V2000
  145.6561  127.9581  153.7317 N   0  0  0  0  0  0  0  0  0  0  0  0
  146.3787  128.2647  152.6520 C   0  0  0  0  0  0  0  0  0  0  0  0
  147.3707  127.6171  152.3216 O   0  0  0  0  0  0  0  0  0  0  0  0
  145.9029  129.4609  151.8206 C   0  0  0  0  0  0  0  0  0  0  0  0
  146.6282  130.7186  152.1374 N   0  3  2  0  0  0  0  0  0  0  0  0
  146.9896  130.8386  153.5757 C   0  0  0  0  0  0  0  0  0  0  0  0
  147.8536  132.0851  153.8292 C   0  0  0  0  0  0  0  0  0  0  0  0
  147.1400  133.3608  153.3448 C   0  0  1  0  0  0  0  0  0  0  0  0
  147.9945  134.5343  153.5038 N   0  0  0  0  0  0  0  0  0  0  0  0
  148.5202  134.9516  154.6646 C   0  0  0  0  0  0  0  0  0  0  0  0
  148.3579  134.3657  155.7348 O   0  0  0  0  0  0  0  0  0  0  0  0
  149.2516  136.0668  154.4996 N   0  0  0  0  0  0  0  0  0  0  0  0
  149.9778  136.7867  155.4907 C   0  0  0  0  0  0  0  0  0  0  0  0
  150.6684  136.1074  156.5275 C   0  0  0  0  0  0  0  0  0  0  0  0
  151.3186  136.8403  157.5377 C   0  0  0  0  0  0  0  0  0  0  0  0
  151.2558  138.2436  157.5069 C   0  0  0  0  0  0  0  0  0  0  0  0
  150.5806  138.8607  156.5154 N   0  3  0  0  0  0  0  0  0  0  0  0
  149.9466  138.2120  155.5064 C   0  0  0  0  0  0  0  0  0  0  0  0
  149.2883  138.9955  154.5307 N   0  0  0  0  0  0  0  0  0  0  0  0
  147.8784  138.7714  154.2308 C   0  0  0  0  0  0  0  0  0  0  0  0
  147.4389  140.0024  153.4426 C   0  0  0  0  0  0  0  0  0  0  0  0
  148.2622  141.1137  154.0860 C   0  0  0  0  0  0  0  0  0  0  0  0
  149.5809  140.4231  154.4483 C   0  0  0  0  0  0  0  0  0  0  0  0
  146.7444  133.1970  151.8687 C   0  0  0  0  0  0  0  0  0  0  0  0
  145.9074  131.9243  151.6545 C   0  0  0  0  0  0  0  0  0  0  0  0
  145.9265  127.1741  154.3087 H   0  0  0  0  0  0  0  0  0  0  0  0
  144.8392  128.5026  153.9690 H   0  0  0  0  0  0  0  0  0  0  0  0
  146.0672  129.1965  150.7749 H   0  0  0  0  0  0  0  0  0  0  0  0
  144.8282  129.6075  151.9415 H   0  0  0  0  0  0  0  0  0  0  0  0
  146.0805  130.8862  154.1774 H   0  0  0  0  0  0  0  0  0  0  0  0
  147.5359  129.9536  153.9026 H   0  0  0  0  0  0  0  0  0  0  0  0
  148.0814  132.1595  154.8932 H   0  0  0  0  0  0  0  0  0  0  0  0
  148.8099  131.9747  153.3155 H   0  0  0  0  0  0  0  0  0  0  0  0
  146.2282  133.5031  153.9289 H   0  0  0  0  0  0  0  0  0  0  0  0
  148.1840  135.0755  152.6726 H   0  0  0  0  0  0  0  0  0  0  0  0
  149.3807  136.3814  153.5491 H   0  0  0  0  0  0  0  0  0  0  0  0
  150.6902  135.0292  156.5774 H   0  0  0  0  0  0  0  0  0  0  0  0
  151.8465  136.3317  158.3313 H   0  0  0  0  0  0  0  0  0  0  0  0
  151.7166  138.8876  158.2419 H   0  0  0  0  0  0  0  0  0  0  0  0
  147.7328  137.8531  153.6614 H   0  0  0  0  0  0  0  0  0  0  0  0
  147.2981  138.7024  155.1517 H   0  0  0  0  0  0  0  0  0  0  0  0
  147.7160  139.8938  152.3931 H   0  0  0  0  0  0  0  0  0  0  0  0
  146.3644  140.1798  153.4943 H   0  0  0  0  0  0  0  0  0  0  0  0
  148.4003  141.9757  153.4330 H   0  0  0  0  0  0  0  0  0  0  0  0
  147.7658  141.4565  154.9948 H   0  0  0  0  0  0  0  0  0  0  0  0
  149.9912  140.8159  155.3796 H   0  0  0  0  0  0  0  0  0  0  0  0
  150.3143  140.5842  153.6581 H   0  0  0  0  0  0  0  0  0  0  0  0
  146.1801  134.0681  151.5335 H   0  0  0  0  0  0  0  0  0  0  0  0
  147.6395  133.1499  151.2464 H   0  0  0  0  0  0  0  0  0  0  0  0
  145.6842  131.8197  150.5921 H   0  0  0  0  0  0  0  0  0  0  0  0
  144.9511  132.0095  152.1733 H   0  0  0  0  0  0  0  0  0  0  0  0
  147.4942  130.6777  151.6184 H   0  0  0  0  0  0  0  0  0  0  0  0
  150.5519  139.8803  156.5219 H   0  0  0  0  0  0  0  0  0  0  0  0
  1  2  1  0  0  0  0
  1 26  1  0  0  0  0
  1 27  1  0  0  0  0
  2  3  2  0  0  0  0
  2  4  1  0  0  0  0
  4  5  1  0  0  0  0
  4 28  1  0  0  0  0
  4 29  1  0  0  0  0
  5 25  1  0  0  0  0
  5  6  1  0  0  0  0
  5 52  1  0  0  0  0
  6  7  1  0  0  0  0
  6 30  1  0  0  0  0
  6 31  1  0  0  0  0
  7  8  1  0  0  0  0
  7 32  1  0  0  0  0
  7 33  1  0  0  0  0
  8  9  1  0  0  0  0
  8 24  1  0  0  0  0
  8 34  1  0  0  0  0
  9 10  1  0  0  0  0
  9 35  1  0  0  0  0
 10 11  2  0  0  0  0
 10 12  1  0  0  0  0
 12 13  1  0  0  0  0
 12 36  1  0  0  0  0
 13 18  1  0  0  0  0
 13 14  2  0  0  0  0
 14 15  1  0  0  0  0
 14 37  1  0  0  0  0
 15 16  2  0  0  0  0
 15 38  1  0  0  0  0
 16 17  1  0  0  0  0
 16 39  1  0  0  0  0
 17 18  2  0  0  0  0
 17 53  1  0  0  0  0
 18 19  1  0  0  0  0
 19 23  1  0  0  0  0
 19 20  1  0  0  0  0
 20 21  1  0  0  0  0
 20 40  1  0  0  0  0
 20 41  1  0  0  0  0
 21 22  1  0  0  0  0
 21 42  1  0  0  0  0
 21 43  1  0  0  0  0
 22 23  1  0  0  0  0
 22 44  1  0  0  0  0
 22 45  1  0  0  0  0
 23 46  1  0  0  0  0
 23 47  1  0  0  0  0
 24 25  1  0  0  0  0
 24 48  1  0  0  0  0
 24 49  1  0  0  0  0
 25 50  1  0  0  0  0
 25 51  1  0  0  0  0
M  CHG  1   5   1
M  CHG  1  17   1
M  END
> <s_m_source_file>
AV-unprocessed.smi

> <i_m_source_file_index>
1740

> <i_lp_mmshare_version>
43012

> <i_f3d_flags>
0

> <s_epik_input>
W05IMl1DKD1PKVtDSDJdTjFbQ0gyXVtDSDJdW0NIXShbQ0gyXVtDSDJdMSlbTkhdQyg9TylbTkhdYzJbY0hdW2NIXVtjSF1uYzJOM1tDSDJdW0NIMl1bQ0gyXVtDSDJdMw==

> <s_epik_cmdline>
J2VwaWtfcHl0aG9uJywgJy1waCcsICc3LjAnLCAnLXRuJywgJzgnLCAnLW1hJywgJzIwMCcsICctbWV0YWxfYmluZGluZycsICctaW1hZScsICc8aW5maWxlLm1hZT4nLCAnLW9tYWUnLCAnPG91dGZpbGUubWFlPic=

> <r_lp_tautomer_probability>
0.999994

> <r_epik_Ionization_Penalty>
2.11361

> <r_epik_Ionization_Penalty_Charging>
2.11355

> <r_epik_Ionization_Penalty_Neutral>
5.98217e-05

> <r_epik_State_Penalty>
2.13444

> <r_epik_Charging_Adjusted_Penalty>
4.24799

> <i_epik_Tot_Q>
2

> <i_epik_Tot_abs_Q>
2

> <r_epik_Metal_State_Penalty>
2.23528

> <b_epik_Metal_Only>
0

> <s_lp_Force_Field>
OPLS_2005

> <r_lp_Energy>
49.3709

> <b_lp_Chiralities_Consistent>
1

> <s_lp_Variant>
AV-unprocessed.smi:1740-5

> <Gold.Version>
5.8.1

> <Gold.Id.Protein>
6NUR|6NUR_protein|mol2

> <Gold.PLP.Fitness>
42.6971

> <Gold.PLP.PLP>
-32.4300

> <Gold.PLP.part.hbond>
-3.9593

> <Gold.PLP.part.metal>
0.0000

> <Gold.PLP.part.buried>
-4.0030

> <Gold.PLP.part.nonpolar>
-24.8955

> <Gold.PLP.part.repulsive>
0.3469

> <Gold.PLP.ligand.clash>
0.0000

> <Gold.PLP.ligand.torsion>
1.0587

> <Gold.PLP.Chemscore.Hbond>
3.9920

> <Gold.PLP.Chemscore.CHOScore>
0.0000

> <Gold.PLP.Chemscore.Metal>
0.0000

> <Gold.Chemscore.Hbonds>
donor molecule, donor type, donor heavy atom, donor atom, acceptor molecule, acceptor atom, score
      L1  H     1    27       P1 10956  0.98
      L1  H     5    52       P1 10747  1.00
      L1  H     9    35       P1  7948  1.00
      L1  H    12    36       P1  7948  0.99

> <Gold.PLP.Chemscore.Internal.Correction>
0.4086

> <Gold.Rescore>
     Score         DG    S(hbond)    S(metal)    S(lipo)     H(rot)  DE(clash)    DE(int)     intcor
     18.66     -20.87       3.65        0.00      75.97       2.22       0.01       2.20       ----

> <Gold.Chemscore.Fitness>
18.6610

> <Gold.Chemscore.DG>
-20.8656

> <Gold.Chemscore.ZeroCoef>
-5.4800

> <Gold.Chemscore.Hbond>
3.6472

> <Gold.Chemscore.Metal>
0.0000

> <Gold.Chemscore.Lipo>
75.9722

> <Gold.Chemscore.Internal_Hbond>
0.0000

> <Gold.Chemscore.DEClash>
0.0078

> <Gold.Chemscore.DEInternal>
2.1967

> <Gold.Chemscore.Rot>
2.2207

> <Gold.Chemscore.Internal.Correction>
   9.000000E+99

> <Gold.Chemscore.Hbonds>
donor molecule, donor type, donor heavy atom, donor atom, acceptor molecule, acceptor atom, score
      L1  H     1    27       P1 10956  0.92
      L1  H     5    52       P1 10747  0.96
      L1  H     9    35       P1  7948  0.84
      L1  H    12    36       P1  7948  0.77

> <Gold.Chemscore.Hbond.Weighted>
-12.1817

> <Gold.Chemscore.Metal.Weighted>
-0.0000

> <Gold.Chemscore.Lipo.Weighted>
-8.8887

> <Gold.Chemscore.Internal_Hbond.Weighted>
0.0000

> <Gold.Chemscore.DEClash.Weighted>
0.0078

> <Gold.Chemscore.DEInternal.Weighted>
2.1967

> <Gold.Chemscore.Rot.Weighted>
5.6849

> <Gold.Chemscore.Internal.Correction.Weighted>
   9.000000E+99

> <Gold.Protein.RotatedTorsions>
[ 6907 6896 6895 6894 ] final  -51.62 input  -60.11 | X-H torsion
[ 7974 7965 7964 7962 ] final  105.84 input  175.53 | X-H torsion
[ 8008 7997 7996 7995 ] final   99.30 input   59.86 | X-H torsion
[ 10167 10162 10161 10158 ] final  104.75 input  -65.29 | X-H torsion
[ 10718 10713 10712 10709 ] final   -4.02 input   66.30 | X-H torsion
[ 10763 10752 10751 10750 ] final  -57.47 input  -60.55 | X-H torsion
[ 11005 11000 10999 10996 ] final   35.18 input  -57.11 | X-H torsion

> <Gold.Protein.ActiveResidues>
 VAL166  LYS551  ARG553  GLY616  TRP617  ASP618  TYR619  PRO620  LYS621  CYS622 
 ASP623  PHE694  ASN695  SER759  ASP760  ASP761  ALA762  ILE779  LEU786  VAL792 
 PHE793  MET794  SER795  GLU796  ALA797  LYS798  CYS799  TRP800  GLU811  SER814 

> <Gold.Protein.RotatedAtoms>
  150.8594  134.7941  159.7070 H   0  0  0  0  0  0  0  0  0  0  0  0  # atno 6907 bound_to 6896
  152.4635  134.5125  159.9768 H   0  0  0  0  0  0  0  0  0  0  0  0  # atno 6908 bound_to 6896
  151.5232  133.3424  159.2940 H   0  0  0  0  0  0  0  0  0  0  0  0  # atno 6909 bound_to 6896
  145.3144  139.2531  143.3746 H   0  0  0  0  0  0  0  0  0  0  0  0  # atno 7974 bound_to 7965
  156.1092  140.3230  155.8048 H   0  0  0  0  0  0  0  0  0  0  0  0  # atno 8008 bound_to 7997
  155.4703  140.0546  157.2997 H   0  0  0  0  0  0  0  0  0  0  0  0  # atno 8009 bound_to 7997
  154.4748  140.2027  155.9920 H   0  0  0  0  0  0  0  0  0  0  0  0  # atno 8010 bound_to 7997
  139.7150  144.7070  151.0964 H   0  0  0  0  0  0  0  0  0  0  0  0  # atno 10167 bound_to 10162
  156.7674  130.5289  149.5773 H   0  0  0  0  0  0  0  0  0  0  0  0  # atno 10718 bound_to 10713
  154.2230  135.6374  153.5151 H   0  0  0  0  0  0  0  0  0  0  0  0  # atno 10763 bound_to 10752
  152.9965  135.5501  154.6094 H   0  0  0  0  0  0  0  0  0  0  0  0  # atno 10764 bound_to 10752
  154.5558  135.2905  155.0939 H   0  0  0  0  0  0  0  0  0  0  0  0  # atno 10765 bound_to 10752
  140.2452  134.3367  155.7910 H   0  0  0  0  0  0  0  0  0  0  0  0  # atno 11005 bound_to 11000
  146.3106  140.3687  142.8672 LP  0  0  0  0  0  0  0  0  0  0  0  0  # atno 17320 bound_to 7965
  144.8990  140.7619  143.5879 LP  0  0  0  0  0  0  0  0  0  0  0  0  # atno 17321 bound_to 7965
  140.7742  143.5241  150.9501 LP  0  0  0  0  0  0  0  0  0  0  0  0  # atno 17342 bound_to 10162
  139.8927  143.6933  152.3143 LP  0  0  0  0  0  0  0  0  0  0  0  0  # atno 17343 bound_to 10162
  156.1300  130.6171  151.0319 LP  0  0  0  0  0  0  0  0  0  0  0  0  # atno 17370 bound_to 10713
  157.6707  131.0862  150.7620 LP  0  0  0  0  0  0  0  0  0  0  0  0  # atno 17371 bound_to 10713
  141.2207  133.7322  156.8949 LP  0  0  0  0  0  0  0  0  0  0  0  0  # atno 17394 bound_to 11000
  140.1613  134.9164  157.2718 LP  0  0  0  0  0  0  0  0  0  0  0  0  # atno 17395 bound_to 11000

$$$$
