AV-unprocessed.smi:99|AV-procd|sdf|867|dock1
  -GOLD-   2262017323D 1   1.00000     0.00000
 Structure written by MMmdl.
 53 56  0  0  0  0  0  0  0  0  1 V2000
  151.3852  136.6006  155.0396 O   0  0  0  0  0  0  0  0  0  0  0  0
  150.3834  137.0772  155.5764 C   0  0  0  0  0  0  0  0  0  0  0  0
  149.2337  136.3977  155.7521 O   0  0  0  0  0  0  0  0  0  0  0  0
  149.0727  135.0924  155.2193 C   0  0  0  0  0  0  0  0  0  0  0  0
  149.9641  134.1263  156.0097 C   0  0  2  0  0  0  0  0  0  0  0  0
  150.6538  133.2501  155.1224 O   0  0  0  0  0  0  0  0  0  0  0  0
  150.8870  132.0165  155.7442 C   0  0  2  0  0  0  0  0  0  0  0  0
  150.2967  130.9138  154.8932 N   0  0  0  0  0  0  0  0  0  0  0  0
  148.9513  130.8993  154.5469 C   0  0  0  0  0  0  0  0  0  0  0  0
  148.3916  129.9182  153.8004 C   0  0  0  0  0  0  0  0  0  0  0  0
  149.1982  128.8010  153.3201 C   0  0  0  0  0  0  0  0  0  0  0  0
  148.7823  127.8693  152.6350 O   0  0  0  0  0  0  0  0  0  0  0  0
  150.5411  128.8476  153.7051 N   0  0  0  0  0  0  0  0  0  0  0  0
  151.1282  129.8503  154.4783 C   0  0  0  0  0  0  0  0  0  0  0  0
  152.3195  129.7794  154.7772 O   0  0  0  0  0  0  0  0  0  0  0  0
  150.2053  132.0423  157.1221 C   0  0  1  0  0  0  0  0  0  0  0  0
  151.1535  132.3281  158.1343 O   0  0  0  0  0  0  0  0  0  0  0  0
  149.2058  133.1695  156.9280 C   0  0  1  0  0  0  0  0  0  0  0  0
  148.7917  133.7380  158.1672 O   0  0  0  0  0  0  0  0  0  0  0  0
  148.2076  132.9825  159.1238 C   0  0  0  0  0  0  0  0  0  0  0  0
  147.9995  131.7729  159.0119 O   0  0  0  0  0  0  0  0  0  0  0  0
  147.8024  133.7755  160.3190 C   0  0  0  0  0  0  0  0  0  0  0  0
  147.8659  135.1875  160.2660 C   0  0  0  0  0  0  0  0  0  0  0  0
  147.5165  135.9635  161.3881 C   0  0  0  0  0  0  0  0  0  0  0  0
  147.0972  135.3368  162.5759 C   0  0  0  0  0  0  0  0  0  0  0  0
  147.0272  133.9330  162.6403 C   0  0  0  0  0  0  0  0  0  0  0  0
  147.3772  133.1550  161.5196 C   0  0  0  0  0  0  0  0  0  0  0  0
  150.3043  138.4793  156.0793 C   0  0  0  0  0  0  0  0  0  0  0  0
  149.1774  138.8844  156.8315 C   0  0  0  0  0  0  0  0  0  0  0  0
  149.0865  140.1958  157.3374 C   0  0  0  0  0  0  0  0  0  0  0  0
  150.1213  141.1182  157.0972 C   0  0  0  0  0  0  0  0  0  0  0  0
  151.2459  140.7290  156.3468 C   0  0  0  0  0  0  0  0  0  0  0  0
  151.3375  139.4189  155.8385 C   0  0  0  0  0  0  0  0  0  0  0  0
  151.1352  128.0893  153.4023 H   0  0  0  0  0  0  0  0  0  0  0  0
  148.0337  134.7634  155.2691 H   0  0  0  0  0  0  0  0  0  0  0  0
  149.3640  135.1046  154.1686 H   0  0  0  0  0  0  0  0  0  0  0  0
  150.7145  134.6794  156.5770 H   0  0  0  0  0  0  0  0  0  0  0  0
  151.9633  131.8356  155.7779 H   0  0  0  0  0  0  0  0  0  0  0  0
  148.3032  131.6955  154.8824 H   0  0  0  0  0  0  0  0  0  0  0  0
  147.3393  129.9585  153.5583 H   0  0  0  0  0  0  0  0  0  0  0  0
  149.7200  131.0921  157.3492 H   0  0  0  0  0  0  0  0  0  0  0  0
  152.0185  132.2696  157.7583 H   0  0  0  0  0  0  0  0  0  0  0  0
  148.3585  132.7596  156.3767 H   0  0  0  0  0  0  0  0  0  0  0  0
  148.1929  135.6912  159.3677 H   0  0  0  0  0  0  0  0  0  0  0  0
  147.5748  137.0407  161.3378 H   0  0  0  0  0  0  0  0  0  0  0  0
  146.8307  135.9320  163.4368 H   0  0  0  0  0  0  0  0  0  0  0  0
  146.7070  133.4511  163.5522 H   0  0  0  0  0  0  0  0  0  0  0  0
  147.3179  132.0798  161.6047 H   0  0  0  0  0  0  0  0  0  0  0  0
  148.3729  138.1920  157.0337 H   0  0  0  0  0  0  0  0  0  0  0  0
  148.2220  140.4930  157.9128 H   0  0  0  0  0  0  0  0  0  0  0  0
  150.0527  142.1227  157.4883 H   0  0  0  0  0  0  0  0  0  0  0  0
  152.0433  141.4344  156.1645 H   0  0  0  0  0  0  0  0  0  0  0  0
  152.2182  139.1519  155.2729 H   0  0  0  0  0  0  0  0  0  0  0  0
  1  2  2  0  0  0  0
  2  3  1  0  0  0  0
  2 28  1  0  0  0  0
  3  4  1  0  0  0  0
  4  5  1  0  0  0  0
  4 35  1  0  0  0  0
  4 36  1  0  0  0  0
  5 18  1  0  0  0  0
  5  6  1  0  0  0  0
  5 37  1  0  0  0  0
  6  7  1  0  0  0  0
  7  8  1  0  0  0  0
  7 16  1  0  0  0  0
  7 38  1  0  0  0  0
  8 14  1  0  0  0  0
  8  9  1  0  0  0  0
  9 10  2  0  0  0  0
  9 39  1  0  0  0  0
 10 11  1  0  0  0  0
 10 40  1  0  0  0  0
 11 12  2  0  0  0  0
 11 13  1  0  0  0  0
 13 34  1  0  0  0  0
 13 14  1  0  0  0  0
 14 15  2  0  0  0  0
 16 17  1  0  0  0  0
 16 18  1  0  0  0  0
 16 41  1  0  0  0  0
 17 42  1  0  0  0  0
 18 19  1  0  0  0  0
 18 43  1  0  0  0  0
 19 20  1  0  0  0  0
 20 21  2  0  0  0  0
 20 22  1  0  0  0  0
 22 27  1  0  0  0  0
 22 23  2  0  0  0  0
 23 24  1  0  0  0  0
 23 44  1  0  0  0  0
 24 25  2  0  0  0  0
 24 45  1  0  0  0  0
 25 26  1  0  0  0  0
 25 46  1  0  0  0  0
 26 27  2  0  0  0  0
 26 47  1  0  0  0  0
 27 48  1  0  0  0  0
 28 33  1  0  0  0  0
 28 29  2  0  0  0  0
 29 30  1  0  0  0  0
 29 49  1  0  0  0  0
 30 31  2  0  0  0  0
 30 50  1  0  0  0  0
 31 32  1  0  0  0  0
 31 51  1  0  0  0  0
 32 33  2  0  0  0  0
 32 52  1  0  0  0  0
 33 53  1  0  0  0  0
M  END
> <s_m_source_file>
AV-unprocessed.smi

> <i_m_source_file_index>
99

> <i_lp_mmshare_version>
43012

> <i_f3d_flags>
0

> <s_epik_input>
W2NIXTFbY0hdW2NIXVtjSF1bY0hdYzFDKD1PKU9bQ0gyXVtDQEBIXTJPW0NAQEhdKG4zW2NIXVtjSF1jKD1PKVtuSF1jMz1PKVtDQEBIXShbT0hdKVtDQEhdMk9DKD1PKWM0W2NIXVtjSF1bY0hdW2NIXVtjSF00

> <s_epik_cmdline>
J2VwaWtfcHl0aG9uJywgJy1waCcsICc3LjAnLCAnLXRuJywgJzgnLCAnLW1hJywgJzIwMCcsICctbWV0YWxfYmluZGluZycsICctaW1hZScsICc8aW5maWxlLm1hZT4nLCAnLW9tYWUnLCAnPG91dGZpbGUubWFlPic=

> <r_lp_tautomer_probability>
1

> <r_epik_Ionization_Penalty>
0.00454555

> <r_epik_Ionization_Penalty_Charging>
0.0045191

> <r_epik_Ionization_Penalty_Neutral>
2.64449e-05

> <r_epik_State_Penalty>
-0

> <r_epik_Charging_Adjusted_Penalty>
0.0045191

> <i_epik_Tot_Q>
0

> <i_epik_Tot_abs_Q>
0

> <r_epik_Metal_State_Penalty>
1.27877

> <b_epik_Metal_Only>
0

> <s_epik_Chemistry_Notes>
This compound has an ester and may undergo hydrolysis at high or low pH. This compound contains an acetal/aminal-like group ( X-CH(R)-Y where X, Y are N, S, or O) that may be acid/base labile, releasing an aldehyde.

> <s_lp_Force_Field>
OPLS_2005

> <r_lp_Energy>
37.3594

> <b_lp_Chiralities_Consistent>
1

> <s_lp_Variant>
AV-unprocessed.smi:99-3

> <Gold.Version>
5.8.1

> <Gold.Id.Protein>
6NUR|6NUR_protein|mol2

> <Gold.PLP.Fitness>
53.8104

> <Gold.PLP.PLP>
-47.2701

> <Gold.PLP.part.hbond>
-3.4775

> <Gold.PLP.part.metal>
0.0000

> <Gold.PLP.part.buried>
-2.7603

> <Gold.PLP.part.nonpolar>
-39.4577

> <Gold.PLP.part.repulsive>
0.5623

> <Gold.PLP.ligand.clash>
0.0000

> <Gold.PLP.ligand.torsion>
0.8330

> <Gold.PLP.Chemscore.Hbond>
2.5829

> <Gold.PLP.Chemscore.CHOScore>
0.0000

> <Gold.PLP.Chemscore.Metal>
0.0000

> <Gold.Chemscore.Hbonds>
donor molecule, donor type, donor heavy atom, donor atom, acceptor molecule, acceptor atom, score
      L1  H    13    34       P1 10737  0.66
      P1  H  6896  6907       L1    17  0.75
      P1  H 10752 10764       L1     1  1.00

> <Gold.PLP.Chemscore.Internal.Correction>
0.4576

> <Gold.Rescore>
     Score         DG    S(hbond)    S(metal)    S(lipo)     H(rot)  DE(clash)    DE(int)     intcor
     13.18     -14.40       1.91        0.00      91.62       3.19       0.12       1.11       ----

> <Gold.Chemscore.Fitness>
13.1760

> <Gold.Chemscore.DG>
-14.4027

> <Gold.Chemscore.ZeroCoef>
-5.4800

> <Gold.Chemscore.Hbond>
1.9073

> <Gold.Chemscore.Metal>
0.0000

> <Gold.Chemscore.Lipo>
91.6177

> <Gold.Chemscore.Internal_Hbond>
0.0000

> <Gold.Chemscore.DEClash>
0.1162

> <Gold.Chemscore.DEInternal>
1.1105

> <Gold.Chemscore.Rot>
3.1903

> <Gold.Chemscore.Internal.Correction>
   9.000000E+99

> <Gold.Chemscore.Hbonds>
donor molecule, donor type, donor heavy atom, donor atom, acceptor molecule, acceptor atom, score
      L1  H    13    34       P1 10737  0.63
      P1  H  6896  6907       L1    17  0.09
      P1  H 10752 10764       L1     1  0.98

> <Gold.Chemscore.Hbond.Weighted>
-6.3705

> <Gold.Chemscore.Metal.Weighted>
-0.0000

> <Gold.Chemscore.Lipo.Weighted>
-10.7193

> <Gold.Chemscore.Internal_Hbond.Weighted>
0.0000

> <Gold.Chemscore.DEClash.Weighted>
0.1162

> <Gold.Chemscore.DEInternal.Weighted>
1.1105

> <Gold.Chemscore.Rot.Weighted>
8.1671

> <Gold.Chemscore.Internal.Correction.Weighted>
   9.000000E+99

> <Gold.Protein.RotatedTorsions>
[ 6907 6896 6895 6894 ] final -175.31 input  -60.11 | X-H torsion
[ 7974 7965 7964 7962 ] final -152.29 input  175.53 | X-H torsion
[ 8008 7997 7996 7995 ] final  148.67 input   59.86 | X-H torsion
[ 10167 10162 10161 10158 ] final  -30.68 input  -65.29 | X-H torsion
[ 10718 10713 10712 10709 ] final   34.19 input   66.30 | X-H torsion
[ 10763 10752 10751 10750 ] final  -74.20 input  -60.55 | X-H torsion
[ 11005 11000 10999 10996 ] final  -66.25 input  -57.11 | X-H torsion

> <Gold.Protein.ActiveResidues>
 VAL166  LYS551  ARG553  GLY616  TRP617  ASP618  TYR619  PRO620  LYS621  CYS622 
 ASP623  PHE694  ASN695  SER759  ASP760  ASP761  ALA762  ILE779  LEU786  VAL792 
 PHE793  MET794  SER795  GLU796  ALA797  LYS798  CYS799  TRP800  GLU811  SER814 

> <Gold.Protein.RotatedAtoms>
  151.5865  133.3371  159.3018 H   0  0  0  0  0  0  0  0  0  0  0  0  # atno 6907 bound_to 6896
  150.8284  134.7529  159.6844 H   0  0  0  0  0  0  0  0  0  0  0  0  # atno 6908 bound_to 6896
  152.4370  134.5672  159.9962 H   0  0  0  0  0  0  0  0  0  0  0  0  # atno 6909 bound_to 6896
  144.7802  140.4683  143.5844 H   0  0  0  0  0  0  0  0  0  0  0  0  # atno 7974 bound_to 7965
  156.2783  140.2122  156.5735 H   0  0  0  0  0  0  0  0  0  0  0  0  # atno 8008 bound_to 7997
  154.7116  140.0511  157.0579 H   0  0  0  0  0  0  0  0  0  0  0  0  # atno 8009 bound_to 7997
  155.0597  140.3165  155.4667 H   0  0  0  0  0  0  0  0  0  0  0  0  # atno 8010 bound_to 7997
  140.7246  143.3830  151.1567 H   0  0  0  0  0  0  0  0  0  0  0  0  # atno 10167 bound_to 10162
  157.3073  130.7381  149.6703 H   0  0  0  0  0  0  0  0  0  0  0  0  # atno 10718 bound_to 10713
  154.4698  135.5872  153.6314 H   0  0  0  0  0  0  0  0  0  0  0  0  # atno 10763 bound_to 10752
  152.9833  135.6064  154.3381 H   0  0  0  0  0  0  0  0  0  0  0  0  # atno 10764 bound_to 10752
  154.3262  135.2843  155.2474 H   0  0  0  0  0  0  0  0  0  0  0  0  # atno 10765 bound_to 10752
  141.1477  133.6696  156.6111 H   0  0  0  0  0  0  0  0  0  0  0  0  # atno 11005 bound_to 11000
  145.6070  139.1509  143.3097 LP  0  0  0  0  0  0  0  0  0  0  0  0  # atno 17320 bound_to 7965
  146.2006  140.6189  142.9104 LP  0  0  0  0  0  0  0  0  0  0  0  0  # atno 17321 bound_to 7965
  139.7422  143.8907  152.3053 LP  0  0  0  0  0  0  0  0  0  0  0  0  # atno 17342 bound_to 10162
  139.8732  144.7057  150.8963 LP  0  0  0  0  0  0  0  0  0  0  0  0  # atno 17343 bound_to 10162
  155.9675  130.4262  150.4688 LP  0  0  0  0  0  0  0  0  0  0  0  0  # atno 17370 bound_to 10713
  157.2680  131.0581  151.2278 LP  0  0  0  0  0  0  0  0  0  0  0  0  # atno 17371 bound_to 10713
  140.3614  134.7684  157.4536 LP  0  0  0  0  0  0  0  0  0  0  0  0  # atno 17394 bound_to 11000
  140.0782  134.5768  155.8568 LP  0  0  0  0  0  0  0  0  0  0  0  0  # atno 17395 bound_to 11000

$$$$
