AV-unprocessed.smi:3332|AV-procd|sdf|12830|dock5
  -GOLD-   2272019213D 1   1.00000     0.00000
 Structure written by MMmdl.
 41 42  0  0  0  0  0  0  0  0  1 V2000
  146.5389  138.4850  151.9407 C   0  0  0  0  0  0  0  0  0  0  0  0
  146.3377  138.9108  153.3989 C   0  0  0  0  0  0  0  0  0  0  0  0
  147.5600  139.5614  153.9764 C   0  0  0  0  0  0  0  0  0  0  0  0
  148.7149  138.7981  154.1674 N   0  0  0  0  0  0  0  0  0  0  0  0
  149.7220  139.5041  154.6864 C   0  0  0  0  0  0  0  0  0  0  0  0
  151.0456  138.9080  155.0476 C   0  0  0  0  0  0  0  0  0  0  0  0
  152.0616  139.9261  155.6007 C   0  0  0  0  0  0  0  0  0  0  0  0
  151.7114  140.3716  156.9481 N   0  0  0  0  0  0  0  0  0  0  0  0
  152.4553  140.1823  158.0493 C   0  0  0  0  0  0  0  0  0  0  0  0
  153.4813  139.5013  158.0648 O   0  0  0  0  0  0  0  0  0  0  0  0
  151.9710  140.8936  159.3189 C   0  0  0  0  0  0  0  0  0  0  0  0
  152.7504  142.1828  159.6675 C   0  0  1  0  0  0  0  0  0  0  0  0
  152.3834  143.3734  158.8134 C   0  0  0  0  0  0  0  0  0  0  0  0
  152.0336  144.4367  159.5326 C   0  0  0  0  0  0  0  0  0  0  0  0
  152.0906  144.1746  161.0116 C   0  0  0  0  0  0  0  0  0  0  0  0
  152.4810  142.6823  161.1106 C   0  0  0  0  0  0  0  0  0  0  0  0
  149.3008  141.1822  154.9939 S   0  0  0  0  0  0  0  0  0  0  0  0
  147.7010  140.8724  154.3682 C   0  0  0  0  0  0  0  0  0  0  0  0
  146.6777  141.9574  154.3144 C   0  0  0  0  0  0  0  0  0  0  0  0
  145.6369  138.0184  151.5446 H   0  0  0  0  0  0  0  0  0  0  0  0
  147.3535  137.7660  151.8486 H   0  0  0  0  0  0  0  0  0  0  0  0
  146.7750  139.3431  151.3106 H   0  0  0  0  0  0  0  0  0  0  0  0
  145.4838  139.5857  153.4600 H   0  0  0  0  0  0  0  0  0  0  0  0
  146.0656  138.0379  153.9938 H   0  0  0  0  0  0  0  0  0  0  0  0
  150.8771  138.1250  155.7881 H   0  0  0  0  0  0  0  0  0  0  0  0
  151.4577  138.4126  154.1683 H   0  0  0  0  0  0  0  0  0  0  0  0
  153.0563  139.4807  155.6248 H   0  0  0  0  0  0  0  0  0  0  0  0
  152.1280  140.7750  154.9183 H   0  0  0  0  0  0  0  0  0  0  0  0
  150.8789  140.9360  157.0355 H   0  0  0  0  0  0  0  0  0  0  0  0
  150.9128  141.1342  159.2009 H   0  0  0  0  0  0  0  0  0  0  0  0
  152.0373  140.1893  160.1488 H   0  0  0  0  0  0  0  0  0  0  0  0
  153.8204  142.0092  159.5426 H   0  0  0  0  0  0  0  0  0  0  0  0
  152.4293  143.3468  157.7347 H   0  0  0  0  0  0  0  0  0  0  0  0
  151.7490  145.3962  159.1266 H   0  0  0  0  0  0  0  0  0  0  0  0
  152.8381  144.8194  161.4746 H   0  0  0  0  0  0  0  0  0  0  0  0
  151.1228  144.3730  161.4735 H   0  0  0  0  0  0  0  0  0  0  0  0
  151.6674  142.1217  161.5729 H   0  0  0  0  0  0  0  0  0  0  0  0
  153.3587  142.5456  161.7433 H   0  0  0  0  0  0  0  0  0  0  0  0
  146.2921  142.0748  153.3015 H   0  0  0  0  0  0  0  0  0  0  0  0
  147.0980  142.9137  154.6269 H   0  0  0  0  0  0  0  0  0  0  0  0
  145.8386  141.7281  154.9721 H   0  0  0  0  0  0  0  0  0  0  0  0
  1  2  1  0  0  0  0
  1 20  1  0  0  0  0
  1 21  1  0  0  0  0
  1 22  1  0  0  0  0
  2  3  1  0  0  0  0
  2 23  1  0  0  0  0
  2 24  1  0  0  0  0
  3 18  2  0  0  0  0
  3  4  1  0  0  0  0
  4  5  2  0  0  0  0
  5  6  1  0  0  0  0
  5 17  1  0  0  0  0
  6  7  1  0  0  0  0
  6 25  1  0  0  0  0
  6 26  1  0  0  0  0
  7  8  1  0  0  0  0
  7 27  1  0  0  0  0
  7 28  1  0  0  0  0
  8  9  1  0  0  0  0
  8 29  1  0  0  0  0
  9 10  2  0  0  0  0
  9 11  1  0  0  0  0
 11 12  1  0  0  0  0
 11 30  1  0  0  0  0
 11 31  1  0  0  0  0
 12 16  1  0  0  0  0
 12 13  1  0  0  0  0
 12 32  1  0  0  0  0
 13 14  2  0  0  0  0
 13 33  1  0  0  0  0
 14 15  1  0  0  0  0
 14 34  1  0  0  0  0
 15 16  1  0  0  0  0
 15 35  1  0  0  0  0
 15 36  1  0  0  0  0
 16 37  1  0  0  0  0
 16 38  1  0  0  0  0
 17 18  1  0  0  0  0
 18 19  1  0  0  0  0
 19 39  1  0  0  0  0
 19 40  1  0  0  0  0
 19 41  1  0  0  0  0
M  END
> <s_m_source_file>
AV-unprocessed.smi

> <i_m_source_file_index>
3332

> <i_lp_mmshare_version>
43012

> <i_f3d_flags>
0

> <s_epik_input>
W0NIM11bQ0gyXWMxbmMoc2MxW0NIM10pW0NIMl1bQ0gyXVtOSF1DKD1PKVtDSDJdW0NAQEhdMltDSF09W0NIXVtDSDJdW0NIMl0y

> <s_epik_cmdline>
J2VwaWtfcHl0aG9uJywgJy1waCcsICc3LjAnLCAnLXRuJywgJzgnLCAnLW1hJywgJzIwMCcsICctbWV0YWxfYmluZGluZycsICctaW1hZScsICc8aW5maWxlLm1hZT4nLCAnLW9tYWUnLCAnPG91dGZpbGUubWFlPic=

> <r_epik_Ionization_Penalty>
0.00221844

> <r_epik_Ionization_Penalty_Charging>
0

> <r_epik_Ionization_Penalty_Neutral>
0.00221844

> <r_epik_State_Penalty>
0.00152607

> <r_epik_Charging_Adjusted_Penalty>
0.00152607

> <i_epik_Tot_Q>
0

> <i_epik_Tot_abs_Q>
0

> <r_epik_Metal_State_Penalty>
-0

> <b_epik_Metal_Only>
0

> <s_lp_Force_Field>
OPLS_2005

> <r_lp_Energy>
6.79719

> <b_lp_Chiralities_Consistent>
1

> <s_lp_Variant>
AV-unprocessed.smi:3332-2

> <Gold.Version>
5.8.1

> <Gold.Id.Protein>
6NUR|6NUR_protein|mol2

> <Gold.PLP.Fitness>
51.2245

> <Gold.PLP.PLP>
-49.0801

> <Gold.PLP.part.hbond>
-1.0000

> <Gold.PLP.part.metal>
0.0000

> <Gold.PLP.part.buried>
-1.4518

> <Gold.PLP.part.nonpolar>
-46.3045

> <Gold.PLP.part.repulsive>
0.3245

> <Gold.PLP.ligand.clash>
0.0000

> <Gold.PLP.ligand.torsion>
0.4517

> <Gold.PLP.Chemscore.Hbond>
1.0000

> <Gold.PLP.Chemscore.CHOScore>
0.0000

> <Gold.PLP.Chemscore.Metal>
0.0000

> <Gold.Chemscore.Hbonds>
donor molecule, donor type, donor heavy atom, donor atom, acceptor molecule, acceptor atom, score
      P1  H  7997  8009       L1    10  1.00

> <Gold.PLP.Chemscore.Internal.Correction>
0.0478

> <Gold.Rescore>
     Score         DG    S(hbond)    S(metal)    S(lipo)     H(rot)  DE(clash)    DE(int)     intcor
     19.25     -19.82       0.89        0.00     130.17       1.51       0.05       0.52       ----

> <Gold.Chemscore.Fitness>
19.2461

> <Gold.Chemscore.DG>
-19.8198

> <Gold.Chemscore.ZeroCoef>
-5.4800

> <Gold.Chemscore.Hbond>
0.8911

> <Gold.Chemscore.Metal>
0.0000

> <Gold.Chemscore.Lipo>
130.1703

> <Gold.Chemscore.Internal_Hbond>
0.0000

> <Gold.Chemscore.DEClash>
0.0520

> <Gold.Chemscore.DEInternal>
0.5217

> <Gold.Chemscore.Rot>
1.5103

> <Gold.Chemscore.Internal.Correction>
   9.000000E+99

> <Gold.Chemscore.Hbonds>
donor molecule, donor type, donor heavy atom, donor atom, acceptor molecule, acceptor atom, score
      P1  H  7997  8009       L1    10  0.81

> <Gold.Chemscore.Hbond.Weighted>
-2.9762

> <Gold.Chemscore.Metal.Weighted>
-0.0000

> <Gold.Chemscore.Lipo.Weighted>
-15.2299

> <Gold.Chemscore.Internal_Hbond.Weighted>
0.0000

> <Gold.Chemscore.DEClash.Weighted>
0.0520

> <Gold.Chemscore.DEInternal.Weighted>
0.5217

> <Gold.Chemscore.Rot.Weighted>
3.8664

> <Gold.Chemscore.Internal.Correction.Weighted>
   9.000000E+99

> <Gold.Protein.RotatedTorsions>
[ 6907 6896 6895 6894 ] final -157.83 input  -60.11 | X-H torsion
[ 7974 7965 7964 7962 ] final   37.86 input  175.53 | X-H torsion
[ 8008 7997 7996 7995 ] final  157.28 input   59.86 | X-H torsion
[ 10167 10162 10161 10158 ] final   -5.31 input  -65.29 | X-H torsion
[ 10718 10713 10712 10709 ] final -162.41 input   66.30 | X-H torsion
[ 10763 10752 10751 10750 ] final   50.34 input  -60.55 | X-H torsion
[ 11005 11000 10999 10996 ] final   38.66 input  -57.11 | X-H torsion

> <Gold.Protein.ActiveResidues>
 VAL166  LYS551  ARG553  GLY616  TRP617  ASP618  TYR619  PRO620  LYS621  CYS622 
 ASP623  PHE694  ASN695  SER759  ASP760  ASP761  ALA762  ILE779  LEU786  VAL792 
 PHE793  MET794  SER795  GLU796  ALA797  LYS798  CYS799  TRP800  GLU811  SER814 

> <Gold.Protein.RotatedAtoms>
  151.3089  133.4089  159.2645 H   0  0  0  0  0  0  0  0  0  0  0  0  # atno 6907 bound_to 6896
  151.0131  134.9413  159.8029 H   0  0  0  0  0  0  0  0  0  0  0  0  # atno 6908 bound_to 6896
  152.5306  134.3053  159.9146 H   0  0  0  0  0  0  0  0  0  0  0  0  # atno 6909 bound_to 6896
  146.1106  139.5843  142.9355 H   0  0  0  0  0  0  0  0  0  0  0  0  # atno 7974 bound_to 7965
  156.2373  140.1889  156.7084 H   0  0  0  0  0  0  0  0  0  0  0  0  # atno 8008 bound_to 7997
  154.6130  140.0619  156.9545 H   0  0  0  0  0  0  0  0  0  0  0  0  # atno 8009 bound_to 7997
  155.1985  140.3290  155.4349 H   0  0  0  0  0  0  0  0  0  0  0  0  # atno 8010 bound_to 7997
  140.6958  143.6323  150.8511 H   0  0  0  0  0  0  0  0  0  0  0  0  # atno 10167 bound_to 10162
  156.6100  130.8846  151.2934 H   0  0  0  0  0  0  0  0  0  0  0  0  # atno 10718 bound_to 10713
  152.9785  135.5882  154.4236 H   0  0  0  0  0  0  0  0  0  0  0  0  # atno 10763 bound_to 10752
  154.3858  135.2767  155.2186 H   0  0  0  0  0  0  0  0  0  0  0  0  # atno 10764 bound_to 10752
  154.4080  135.6088  153.5990 H   0  0  0  0  0  0  0  0  0  0  0  0  # atno 10765 bound_to 10752
  140.2105  134.3761  155.8051 H   0  0  0  0  0  0  0  0  0  0  0  0  # atno 11005 bound_to 11000
  145.5672  141.0398  143.2194 LP  0  0  0  0  0  0  0  0  0  0  0  0  # atno 17320 bound_to 7965
  144.7508  139.7199  143.7274 LP  0  0  0  0  0  0  0  0  0  0  0  0  # atno 17321 bound_to 7965
  140.0041  143.5712  152.2864 LP  0  0  0  0  0  0  0  0  0  0  0  0  # atno 17342 bound_to 10162
  139.6413  144.7655  151.2334 LP  0  0  0  0  0  0  0  0  0  0  0  0  # atno 17343 bound_to 10162
  157.7257  130.9619  150.1624 LP  0  0  0  0  0  0  0  0  0  0  0  0  # atno 17370 bound_to 10713
  156.2397  130.3690  149.8350 LP  0  0  0  0  0  0  0  0  0  0  0  0  # atno 17371 bound_to 10713
  141.2226  133.7140  156.8409 LP  0  0  0  0  0  0  0  0  0  0  0  0  # atno 17394 bound_to 11000
  140.1956  134.8934  157.3111 LP  0  0  0  0  0  0  0  0  0  0  0  0  # atno 17395 bound_to 11000

$$$$
