AV-unprocessed.smi:3292|AV-procd|sdf|12628|dock4
  -GOLD-   2272018563D 1   1.00000     0.00000
 Structure written by MMmdl.
 38 39  0  0  0  0  0  0  0  0  1 V2000
  146.4205  133.2631  154.9162 C   0  0  0  0  0  0  0  0  0  0  0  0
  147.4984  133.1296  153.8280 C   0  0  1  0  0  0  0  0  0  0  0  0
  146.9217  132.7722  152.4408 C   0  0  0  0  0  0  0  0  0  0  0  0
  145.8457  133.6564  152.0360 N   0  0  0  0  0  0  0  0  0  0  0  0
  145.9443  134.7675  151.2090 C   0  0  0  0  0  0  0  0  0  0  0  0
  144.6774  135.2967  151.1091 C   0  0  0  0  0  0  0  0  0  0  0  0
  143.7900  134.5342  151.8652 N   0  0  0  0  0  0  0  0  0  0  0  0
  144.5543  133.5832  152.3866 C   0  0  0  0  0  0  0  0  0  0  0  0
  148.2575  134.3745  153.7479 N   0  0  0  0  0  0  0  0  0  0  0  0
  148.8507  134.9844  154.7840 C   0  0  0  0  0  0  0  0  0  0  0  0
  148.8119  134.5693  155.9424 O   0  0  0  0  0  0  0  0  0  0  0  0
  149.5006  136.0932  154.4033 N   0  0  0  0  0  0  0  0  0  0  0  0
  150.2637  136.9703  155.2862 C   0  0  0  0  0  0  0  0  0  0  0  0
  150.3483  138.4072  154.7372 C   0  0  1  0  0  0  0  0  0  0  0  0
  149.0575  139.1891  154.8685 C   0  0  0  0  0  0  0  0  0  0  0  0
  149.5385  140.6266  154.6943 C   0  0  0  0  0  0  0  0  0  0  0  0
  150.8681  140.6578  155.2051 O   0  0  0  0  0  0  0  0  0  0  0  0
  151.3191  139.3338  155.4728 C   0  0  0  0  0  0  0  0  0  0  0  0
  145.8908  132.3229  155.0719 H   0  0  0  0  0  0  0  0  0  0  0  0
  145.6828  134.0217  154.6529 H   0  0  0  0  0  0  0  0  0  0  0  0
  146.8623  133.5455  155.8724 H   0  0  0  0  0  0  0  0  0  0  0  0
  148.1747  132.3311  154.1391 H   0  0  0  0  0  0  0  0  0  0  0  0
  147.7057  132.8087  151.6828 H   0  0  0  0  0  0  0  0  0  0  0  0
  146.5349  131.7523  152.4391 H   0  0  0  0  0  0  0  0  0  0  0  0
  146.8814  135.0794  150.7715 H   0  0  0  0  0  0  0  0  0  0  0  0
  144.3396  136.1614  150.5575 H   0  0  0  0  0  0  0  0  0  0  0  0
  144.1643  132.8127  153.0355 H   0  0  0  0  0  0  0  0  0  0  0  0
  148.3458  134.7947  152.8341 H   0  0  0  0  0  0  0  0  0  0  0  0
  149.4721  136.3479  153.4269 H   0  0  0  0  0  0  0  0  0  0  0  0
  149.7609  136.9817  156.2536 H   0  0  0  0  0  0  0  0  0  0  0  0
  151.2612  136.5661  155.4674 H   0  0  0  0  0  0  0  0  0  0  0  0
  150.6250  138.3762  153.6819 H   0  0  0  0  0  0  0  0  0  0  0  0
  148.3043  138.9023  154.1341 H   0  0  0  0  0  0  0  0  0  0  0  0
  148.6315  139.0568  155.8645 H   0  0  0  0  0  0  0  0  0  0  0  0
  149.5686  140.8918  153.6368 H   0  0  0  0  0  0  0  0  0  0  0  0
  148.8971  141.3446  155.2058 H   0  0  0  0  0  0  0  0  0  0  0  0
  151.2710  139.1679  156.5499 H   0  0  0  0  0  0  0  0  0  0  0  0
  152.3530  139.1955  155.1556 H   0  0  0  0  0  0  0  0  0  0  0  0
  1  2  1  0  0  0  0
  1 19  1  0  0  0  0
  1 20  1  0  0  0  0
  1 21  1  0  0  0  0
  2  3  1  0  0  0  0
  2  9  1  0  0  0  0
  2 22  1  0  0  0  0
  3  4  1  0  0  0  0
  3 23  1  0  0  0  0
  3 24  1  0  0  0  0
  4  8  1  0  0  0  0
  4  5  1  0  0  0  0
  5  6  2  0  0  0  0
  5 25  1  0  0  0  0
  6  7  1  0  0  0  0
  6 26  1  0  0  0  0
  7  8  2  0  0  0  0
  8 27  1  0  0  0  0
  9 10  1  0  0  0  0
  9 28  1  0  0  0  0
 10 11  2  0  0  0  0
 10 12  1  0  0  0  0
 12 13  1  0  0  0  0
 12 29  1  0  0  0  0
 13 14  1  0  0  0  0
 13 30  1  0  0  0  0
 13 31  1  0  0  0  0
 14 18  1  0  0  0  0
 14 15  1  0  0  0  0
 14 32  1  0  0  0  0
 15 16  1  0  0  0  0
 15 33  1  0  0  0  0
 15 34  1  0  0  0  0
 16 17  1  0  0  0  0
 16 35  1  0  0  0  0
 16 36  1  0  0  0  0
 17 18  1  0  0  0  0
 18 37  1  0  0  0  0
 18 38  1  0  0  0  0
M  END
> <s_m_source_file>
AV-unprocessed.smi

> <i_m_source_file_index>
3292

> <i_lp_mmshare_version>
43012

> <i_f3d_flags>
0

> <s_epik_input>
W2NIXTFuW2NIXVtjSF1uMVtDSDJdW0NAQEhdKFtDSDNdKVtOSF1DKD1PKVtOSF1bQ0gyXVtDQEBIXTJbQ0gyXVtDSDJdT1tDSDJdMg==

> <s_epik_cmdline>
J2VwaWtfcHl0aG9uJywgJy1waCcsICc3LjAnLCAnLXRuJywgJzgnLCAnLW1hJywgJzIwMCcsICctbWV0YWxfYmluZGluZycsICctaW1hZScsICc8aW5maWxlLm1hZT4nLCAnLW9tYWUnLCAnPG91dGZpbGUubWFlPic=

> <r_lp_tautomer_probability>
1

> <r_epik_Ionization_Penalty>
0.621291

> <r_epik_Ionization_Penalty_Charging>
0.621234

> <r_epik_Ionization_Penalty_Neutral>
5.72199e-05

> <r_epik_State_Penalty>
0.637278

> <r_epik_Charging_Adjusted_Penalty>
1.25851

> <i_epik_Tot_Q>
0

> <i_epik_Tot_abs_Q>
0

> <r_epik_Metal_State_Penalty>
0.306757

> <b_epik_Metal_Only>
0

> <s_lp_Force_Field>
OPLS_2005

> <r_lp_Energy>
18.205

> <b_lp_Chiralities_Consistent>
1

> <s_lp_Variant>
AV-unprocessed.smi:3292-8

> <Gold.Version>
5.8.1

> <Gold.Id.Protein>
6NUR|6NUR_protein|mol2

> <Gold.PLP.Fitness>
41.9926

> <Gold.PLP.PLP>
-26.6594

> <Gold.PLP.part.hbond>
-3.0000

> <Gold.PLP.part.metal>
0.0000

> <Gold.PLP.part.buried>
-3.1059

> <Gold.PLP.part.nonpolar>
-21.1928

> <Gold.PLP.part.repulsive>
0.2729

> <Gold.PLP.ligand.clash>
0.0000

> <Gold.PLP.ligand.torsion>
0.6463

> <Gold.PLP.Chemscore.Hbond>
2.5528

> <Gold.PLP.Chemscore.CHOScore>
2.9602

> <Gold.PLP.Chemscore.Metal>
0.0000

> <Gold.Chemscore.Hbonds>
donor molecule, donor type, donor heavy atom, donor atom, acceptor molecule, acceptor atom, score
      L1  H     9    28       P1  7948  0.94
      L1  H    12    29       P1  7948  1.00
      P1  H  7989  7998       L1    17  0.56
      L1  C     5    25       P1  7948  0.96
      L1  C     6    26       P1 10171  0.91
      L1  C     8    27       P1 10957  1.00

> <Gold.PLP.Chemscore.Internal.Correction>
0.0869

> <Gold.Rescore>
     Score         DG    S(hbond)    S(metal)    S(lipo)     H(rot)  DE(clash)    DE(int)     intcor
     10.11     -11.81       1.82        0.00      49.51       2.16       0.00       1.70       ----

> <Gold.Chemscore.Fitness>
10.1122

> <Gold.Chemscore.DG>
-11.8122

> <Gold.Chemscore.ZeroCoef>
-5.4800

> <Gold.Chemscore.Hbond>
1.8155

> <Gold.Chemscore.Metal>
0.0000

> <Gold.Chemscore.Lipo>
49.5061

> <Gold.Chemscore.Internal_Hbond>
0.0000

> <Gold.Chemscore.DEClash>
0.0000

> <Gold.Chemscore.DEInternal>
1.7001

> <Gold.Chemscore.Rot>
2.1577

> <Gold.Chemscore.Internal.Correction>
   9.000000E+99

> <Gold.Chemscore.Hbonds>
donor molecule, donor type, donor heavy atom, donor atom, acceptor molecule, acceptor atom, score
      L1  H     9    28       P1  7948  0.50
      L1  H    12    29       P1  7948  0.64
      P1  H  7989  7998       L1    17  0.01

> <Gold.Chemscore.Hbond.Weighted>
-6.0637

> <Gold.Chemscore.Metal.Weighted>
-0.0000

> <Gold.Chemscore.Lipo.Weighted>
-5.7922

> <Gold.Chemscore.Internal_Hbond.Weighted>
0.0000

> <Gold.Chemscore.DEClash.Weighted>
0.0000

> <Gold.Chemscore.DEInternal.Weighted>
1.7001

> <Gold.Chemscore.Rot.Weighted>
5.5237

> <Gold.Chemscore.Internal.Correction.Weighted>
   9.000000E+99

> <Gold.Protein.RotatedTorsions>
[ 6907 6896 6895 6894 ] final  -58.09 input  -60.11 | X-H torsion
[ 7974 7965 7964 7962 ] final  -17.44 input  175.53 | X-H torsion
[ 8008 7997 7996 7995 ] final  150.65 input   59.86 | X-H torsion
[ 10167 10162 10161 10158 ] final  -76.28 input  -65.29 | X-H torsion
[ 10718 10713 10712 10709 ] final  117.93 input   66.30 | X-H torsion
[ 10763 10752 10751 10750 ] final -169.46 input  -60.55 | X-H torsion
[ 11005 11000 10999 10996 ] final -161.87 input  -57.11 | X-H torsion

> <Gold.Protein.ActiveResidues>
 VAL166  LYS551  ARG553  GLY616  TRP617  ASP618  TYR619  PRO620  LYS621  CYS622 
 ASP623  PHE694  ASN695  SER759  ASP760  ASP761  ALA762  ILE779  LEU786  VAL792 
 PHE793  MET794  SER795  GLU796  ALA797  LYS798  CYS799  TRP800  GLU811  SER814 

> <Gold.Protein.RotatedAtoms>
  150.8034  134.7143  159.6621 H   0  0  0  0  0  0  0  0  0  0  0  0  # atno 6907 bound_to 6896
  152.4152  134.6050  160.0020 H   0  0  0  0  0  0  0  0  0  0  0  0  # atno 6908 bound_to 6896
  151.6282  133.3297  159.3139 H   0  0  0  0  0  0  0  0  0  0  0  0  # atno 6909 bound_to 6896
  146.1941  140.3779  142.8447 H   0  0  0  0  0  0  0  0  0  0  0  0  # atno 7974 bound_to 7965
  156.2707  140.2069  156.6051 H   0  0  0  0  0  0  0  0  0  0  0  0  # atno 8008 bound_to 7997
  154.6876  140.0533  157.0354 H   0  0  0  0  0  0  0  0  0  0  0  0  # atno 8009 bound_to 7997
  155.0912  140.3196  155.4576 H   0  0  0  0  0  0  0  0  0  0  0  0  # atno 8010 bound_to 7997
  140.4871  143.2389  151.7967 H   0  0  0  0  0  0  0  0  0  0  0  0  # atno 10167 bound_to 10162
  157.6064  131.1042  150.7685 H   0  0  0  0  0  0  0  0  0  0  0  0  # atno 10718 bound_to 10713
  154.6520  135.2913  154.9974 H   0  0  0  0  0  0  0  0  0  0  0  0  # atno 10763 bound_to 10752
  154.1064  135.6569  153.4881 H   0  0  0  0  0  0  0  0  0  0  0  0  # atno 10764 bound_to 10752
  153.0382  135.5254  154.7433 H   0  0  0  0  0  0  0  0  0  0  0  0  # atno 10765 bound_to 10752
  140.6156  134.4804  157.5219 H   0  0  0  0  0  0  0  0  0  0  0  0  # atno 11005 bound_to 11000
  144.8544  140.7049  143.6147 LP  0  0  0  0  0  0  0  0  0  0  0  0  # atno 17320 bound_to 7965
  145.3701  139.1661  143.4337 LP  0  0  0  0  0  0  0  0  0  0  0  0  # atno 17321 bound_to 7965
  139.4844  144.4698  151.9439 LP  0  0  0  0  0  0  0  0  0  0  0  0  # atno 17342 bound_to 10162
  140.3784  144.2767  150.5911 LP  0  0  0  0  0  0  0  0  0  0  0  0  # atno 17343 bound_to 10162
  156.8072  130.4940  149.5361 LP  0  0  0  0  0  0  0  0  0  0  0  0  # atno 17370 bound_to 10713
  156.1151  130.6069  151.0108 LP  0  0  0  0  0  0  0  0  0  0  0  0  # atno 17371 bound_to 10713
  139.9174  134.8218  156.1321 LP  0  0  0  0  0  0  0  0  0  0  0  0  # atno 17394 bound_to 11000
  141.0778  133.6768  156.2272 LP  0  0  0  0  0  0  0  0  0  0  0  0  # atno 17395 bound_to 11000

$$$$
