AV-unprocessed.smi:587|AV-procd|sdf|3003|dock8
  -GOLD-   2262023513D 1   1.00000     0.00000
 Structure written by MMmdl.
 47 49  0  0  0  0  0  0  0  0  2 V2000
  146.3658  139.0443  156.5721 C   0  0  0  0  0  0  0  0  0  0  0  0
  147.3173  138.4340  157.4769 N   0  0  0  0  0  0  0  0  0  0  0  0
  146.9962  137.4820  158.4428 C   0  0  0  0  0  0  0  0  0  0  0  0
  145.6746  137.0755  158.5593 N   0  0  0  0  0  0  0  0  0  0  0  0
  147.9502  136.9528  159.2553 C   0  0  0  0  0  0  0  0  0  0  0  0
  147.5265  135.9298  160.2605 N   0  3  0  0  0  0  0  0  0  0  0  0
  147.7221  136.3256  161.6786 C   0  0  0  0  0  0  0  0  0  0  0  0
  147.0033  135.3468  162.6221 C   0  0  0  0  0  0  0  0  0  0  0  0
  147.4709  133.9049  162.3776 C   0  0  0  0  0  0  0  0  0  0  0  0
  147.2942  133.5353  160.8980 C   0  0  0  0  0  0  0  0  0  0  0  0
  148.0067  134.5505  159.9889 C   0  0  0  0  0  0  0  0  0  0  0  0
  149.3534  137.3656  159.1502 C   0  0  0  0  0  0  0  0  0  0  0  0
  150.2512  136.9086  159.8597 O   0  0  0  0  0  0  0  0  0  0  0  0
  149.6429  138.3329  158.1625 N   0  0  0  0  0  0  0  0  0  0  0  0
  151.0467  138.7693  157.9848 C   0  0  0  0  0  0  0  0  0  0  0  0
  151.2606  140.2686  158.2458 C   0  0  0  0  0  0  0  0  0  0  0  0
  150.7552  141.1190  157.5110 O   0  0  0  0  0  0  0  0  0  0  0  0
  152.0247  140.5706  159.3052 N   0  0  0  0  0  0  0  0  0  0  0  0
  152.3547  141.8887  159.7412 C   0  0  0  0  0  0  0  0  0  0  0  0
  153.8121  142.2959  159.7141 C   0  0  0  0  0  0  0  0  0  0  0  0
  153.1366  142.0242  161.0300 C   0  0  0  0  0  0  0  0  0  0  0  0
  148.6536  138.8693  157.3119 C   0  0  0  0  0  0  0  0  0  0  0  0
  148.9540  139.6943  156.4442 O   0  0  0  0  0  0  0  0  0  0  0  0
  145.3588  138.6889  156.7790 H   0  0  0  0  0  0  0  0  0  0  0  0
  146.6564  138.7680  155.5569 H   0  0  0  0  0  0  0  0  0  0  0  0
  146.4101  140.1241  156.7262 H   0  0  0  0  0  0  0  0  0  0  0  0
  144.9364  137.4394  157.9751 H   0  0  0  0  0  0  0  0  0  0  0  0
  145.3943  136.3903  159.2474 H   0  0  0  0  0  0  0  0  0  0  0  0
  148.7855  136.3585  161.9181 H   0  0  0  0  0  0  0  0  0  0  0  0
  147.3308  137.3326  161.8289 H   0  0  0  0  0  0  0  0  0  0  0  0
  147.1844  135.6274  163.6601 H   0  0  0  0  0  0  0  0  0  0  0  0
  145.9255  135.4141  162.4669 H   0  0  0  0  0  0  0  0  0  0  0  0
  148.5199  133.8047  162.6596 H   0  0  0  0  0  0  0  0  0  0  0  0
  146.9101  133.2144  163.0084 H   0  0  0  0  0  0  0  0  0  0  0  0
  147.6827  132.5330  160.7146 H   0  0  0  0  0  0  0  0  0  0  0  0
  146.2320  133.5056  160.6518 H   0  0  0  0  0  0  0  0  0  0  0  0
  147.8174  134.3019  158.9439 H   0  0  0  0  0  0  0  0  0  0  0  0
  149.0851  134.4903  160.1397 H   0  0  0  0  0  0  0  0  0  0  0  0
  151.7177  138.2050  158.6346 H   0  0  0  0  0  0  0  0  0  0  0  0
  151.4044  138.5397  156.9798 H   0  0  0  0  0  0  0  0  0  0  0  0
  152.3970  139.8071  159.8513 H   0  0  0  0  0  0  0  0  0  0  0  0
  151.6336  142.6789  159.5366 H   0  0  0  0  0  0  0  0  0  0  0  0
  154.5387  141.5660  159.3623 H   0  0  0  0  0  0  0  0  0  0  0  0
  154.0384  143.3320  159.4703 H   0  0  0  0  0  0  0  0  0  0  0  0
  152.9107  142.8783  161.6651 H   0  0  0  0  0  0  0  0  0  0  0  0
  153.4132  141.1127  161.5568 H   0  0  0  0  0  0  0  0  0  0  0  0
  146.5242  135.8580  160.1669 H   0  0  0  0  0  0  0  0  0  0  0  0
  1  2  1  0  0  0  0
  1 24  1  0  0  0  0
  1 25  1  0  0  0  0
  1 26  1  0  0  0  0
  2 22  1  0  0  0  0
  2  3  1  0  0  0  0
  3  4  1  0  0  0  0
  3  5  2  0  0  0  0
  4 27  1  0  0  0  0
  4 28  1  0  0  0  0
  5  6  1  0  0  0  0
  5 12  1  0  0  0  0
  6 11  1  0  0  0  0
  6  7  1  0  0  0  0
  6 47  1  0  0  0  0
  7  8  1  0  0  0  0
  7 29  1  0  0  0  0
  7 30  1  0  0  0  0
  8  9  1  0  0  0  0
  8 31  1  0  0  0  0
  8 32  1  0  0  0  0
  9 10  1  0  0  0  0
  9 33  1  0  0  0  0
  9 34  1  0  0  0  0
 10 11  1  0  0  0  0
 10 35  1  0  0  0  0
 10 36  1  0  0  0  0
 11 37  1  0  0  0  0
 11 38  1  0  0  0  0
 12 13  2  0  0  0  0
 12 14  1  0  0  0  0
 14 15  1  0  0  0  0
 14 22  1  0  0  0  0
 15 16  1  0  0  0  0
 15 39  1  0  0  0  0
 15 40  1  0  0  0  0
 16 17  2  0  0  0  0
 16 18  1  0  0  0  0
 18 19  1  0  0  0  0
 18 41  1  0  0  0  0
 19 21  1  0  0  0  0
 19 20  1  0  0  0  0
 19 42  1  0  0  0  0
 20 21  1  0  0  0  0
 20 43  1  0  0  0  0
 20 44  1  0  0  0  0
 21 45  1  0  0  0  0
 21 46  1  0  0  0  0
 22 23  2  0  0  0  0
M  CHG  1   6   1
M  END
> <s_m_source_file>
AV-unprocessed.smi

> <i_m_source_file_index>
587

> <i_lp_mmshare_version>
43012

> <i_f3d_flags>
0

> <s_epik_input>
W0NIMl0xW0NIMl1bQ0gyXVtDSDJdW0NIMl1OMWMoYyhbTkgyXSluMltDSDNdKWMoPU8pbihjMj1PKVtDSDJdQyg9TylbTkhdW0NIXTNbQ0gyXVtDSDJdMw==

> <s_epik_cmdline>
J2VwaWtfcHl0aG9uJywgJy1waCcsICc3LjAnLCAnLXRuJywgJzgnLCAnLW1hJywgJzIwMCcsICctbWV0YWxfYmluZGluZycsICctaW1hZScsICc8aW5maWxlLm1hZT4nLCAnLW9tYWUnLCAnPG91dGZpbGUubWFlPic=

> <r_epik_Ionization_Penalty>
2.48068

> <r_epik_Ionization_Penalty_Charging>
2.47625

> <r_epik_Ionization_Penalty_Neutral>
0.00443673

> <r_epik_State_Penalty>
2.66159

> <r_epik_Charging_Adjusted_Penalty>
5.13784

> <i_epik_Tot_Q>
1

> <i_epik_Tot_abs_Q>
1

> <r_epik_Metal_State_Penalty>
2.66159

> <b_epik_Metal_Only>
0

> <s_lp_Force_Field>
OPLS_2005

> <r_lp_Energy>
35.5709

> <b_lp_Chiralities_Consistent>
1

> <s_lp_Variant>
AV-unprocessed.smi:587-2

> <Gold.Version>
5.8.1

> <Gold.Id.Protein>
6NUR|6NUR_protein|mol2

> <Gold.PLP.Fitness>
38.1643

> <Gold.PLP.PLP>
-35.2932

> <Gold.PLP.part.hbond>
-1.4730

> <Gold.PLP.part.metal>
0.0000

> <Gold.PLP.part.buried>
-5.9085

> <Gold.PLP.part.nonpolar>
-29.2883

> <Gold.PLP.part.repulsive>
0.3429

> <Gold.PLP.ligand.clash>
0.0000

> <Gold.PLP.ligand.torsion>
0.1536

> <Gold.PLP.Chemscore.Hbond>
0.9913

> <Gold.PLP.Chemscore.CHOScore>
0.0000

> <Gold.PLP.Chemscore.Metal>
0.0000

> <Gold.Chemscore.Hbonds>
donor molecule, donor type, donor heavy atom, donor atom, acceptor molecule, acceptor atom, score
      P1  H  6896  6909       L1    13  0.98

> <Gold.PLP.Chemscore.Internal.Correction>
0.2045

> <Gold.Rescore>
     Score         DG    S(hbond)    S(metal)    S(lipo)     H(rot)  DE(clash)    DE(int)     intcor
     11.35     -13.07       0.99        0.00      77.48       1.87       0.00       1.71       ----

> <Gold.Chemscore.Fitness>
11.3520

> <Gold.Chemscore.DG>
-13.0672

> <Gold.Chemscore.ZeroCoef>
-5.4800

> <Gold.Chemscore.Hbond>
0.9887

> <Gold.Chemscore.Metal>
0.0000

> <Gold.Chemscore.Lipo>
77.4788

> <Gold.Chemscore.Internal_Hbond>
0.0000

> <Gold.Chemscore.DEClash>
0.0004

> <Gold.Chemscore.DEInternal>
1.7148

> <Gold.Chemscore.Rot>
1.8672

> <Gold.Chemscore.Internal.Correction>
   9.000000E+99

> <Gold.Chemscore.Hbonds>
donor molecule, donor type, donor heavy atom, donor atom, acceptor molecule, acceptor atom, score
      P1  H  6896  6909       L1    13  0.91

> <Gold.Chemscore.Hbond.Weighted>
-3.3021

> <Gold.Chemscore.Metal.Weighted>
-0.0000

> <Gold.Chemscore.Lipo.Weighted>
-9.0650

> <Gold.Chemscore.Internal_Hbond.Weighted>
0.0000

> <Gold.Chemscore.DEClash.Weighted>
0.0004

> <Gold.Chemscore.DEInternal.Weighted>
1.7148

> <Gold.Chemscore.Rot.Weighted>
4.7799

> <Gold.Chemscore.Internal.Correction.Weighted>
   9.000000E+99

> <Gold.Protein.RotatedTorsions>
[ 6907 6896 6895 6894 ] final   82.08 input  -60.11 | X-H torsion
[ 7974 7965 7964 7962 ] final  -50.67 input  175.53 | X-H torsion
[ 8008 7997 7996 7995 ] final   87.71 input   59.86 | X-H torsion
[ 10167 10162 10161 10158 ] final   48.32 input  -65.29 | X-H torsion
[ 10718 10713 10712 10709 ] final   19.84 input   66.30 | X-H torsion
[ 10763 10752 10751 10750 ] final -163.86 input  -60.55 | X-H torsion
[ 11005 11000 10999 10996 ] final  -73.20 input  -57.11 | X-H torsion

> <Gold.Protein.ActiveResidues>
 VAL166  LYS551  ARG553  GLY616  TRP617  ASP618  TYR619  PRO620  LYS621  CYS622 
 ASP623  PHE694  ASN695  SER759  ASP760  ASP761  ALA762  ILE779  LEU786  VAL792 
 PHE793  MET794  SER795  GLU796  ALA797  LYS798  CYS799  TRP800  GLU811  SER814 

> <Gold.Protein.RotatedAtoms>
  152.5288  134.3105  159.9111 H   0  0  0  0  0  0  0  0  0  0  0  0  # atno 6907 bound_to 6896
  151.3054  133.4097  159.2650 H   0  0  0  0  0  0  0  0  0  0  0  0  # atno 6908 bound_to 6896
  151.0083  134.9393  159.8050 H   0  0  0  0  0  0  0  0  0  0  0  0  # atno 6909 bound_to 6896
  145.9273  140.7781  142.9617 H   0  0  0  0  0  0  0  0  0  0  0  0  # atno 7974 bound_to 7965
  155.9787  140.3379  155.6643 H   0  0  0  0  0  0  0  0  0  0  0  0  # atno 8008 bound_to 7997
  155.6577  140.0712  157.2583 H   0  0  0  0  0  0  0  0  0  0  0  0  # atno 8009 bound_to 7997
  154.4186  140.1714  156.1730 H   0  0  0  0  0  0  0  0  0  0  0  0  # atno 8010 bound_to 7997
  140.2945  144.3006  150.6233 H   0  0  0  0  0  0  0  0  0  0  0  0  # atno 10167 bound_to 10162
  157.1161  130.6530  149.5911 H   0  0  0  0  0  0  0  0  0  0  0  0  # atno 10718 bound_to 10713
  154.7083  135.3001  154.9237 H   0  0  0  0  0  0  0  0  0  0  0  0  # atno 10763 bound_to 10752
  154.0147  135.6690  153.4772 H   0  0  0  0  0  0  0  0  0  0  0  0  # atno 10764 bound_to 10752
  153.0734  135.5048  154.8266 H   0  0  0  0  0  0  0  0  0  0  0  0  # atno 10765 bound_to 10752
  141.1619  133.6871  156.7176 H   0  0  0  0  0  0  0  0  0  0  0  0  # atno 11005 bound_to 11000
  144.6760  140.2070  143.7381 LP  0  0  0  0  0  0  0  0  0  0  0  0  # atno 17320 bound_to 7965
  145.8472  139.2158  143.1793 LP  0  0  0  0  0  0  0  0  0  0  0  0  # atno 17321 bound_to 7965
  140.5703  143.2181  151.7610 LP  0  0  0  0  0  0  0  0  0  0  0  0  # atno 17342 bound_to 10162
  139.4929  144.4225  151.9962 LP  0  0  0  0  0  0  0  0  0  0  0  0  # atno 17343 bound_to 10162
  155.9839  130.4861  150.6956 LP  0  0  0  0  0  0  0  0  0  0  0  0  # atno 17370 bound_to 10713
  157.4517  131.0873  151.0839 LP  0  0  0  0  0  0  0  0  0  0  0  0  # atno 17371 bound_to 10713
  140.2840  134.8294  157.3959 LP  0  0  0  0  0  0  0  0  0  0  0  0  # atno 17394 bound_to 11000
  140.1407  134.4976  155.8034 LP  0  0  0  0  0  0  0  0  0  0  0  0  # atno 17395 bound_to 11000

$$$$
