AV-unprocessed.smi:3130|AV-procd|sdf|11926|dock6
  -GOLD-   2272017313D 1   1.00000     0.00000
 Structure written by MMmdl.
 40 40  0  0  0  0  0  0  0  0  2 V2000
  143.8896  131.7071  150.5664 C   0  0  0  0  0  0  0  0  0  0  0  0
  144.2565  133.0783  151.0558 C   0  0  0  0  0  0  0  0  0  0  0  0
  143.7970  133.7419  152.2290 C   0  0  0  0  0  0  0  0  0  0  0  0
  144.3119  134.9528  152.3696 N   0  0  0  0  0  0  0  0  0  0  0  0
  145.1179  135.1032  151.2976 N   0  0  0  0  0  0  0  0  0  0  0  0
  145.8511  136.3413  151.1161 C   0  0  0  0  0  0  0  0  0  0  0  0
  145.7121  137.2731  152.3290 C   0  0  0  0  0  0  0  0  0  0  0  0
  145.8406  138.6875  151.9284 N   0  3  0  0  0  0  0  0  0  0  0  0
  147.1600  139.2779  152.2268 C   0  0  0  0  0  0  0  0  0  0  0  0
  147.0378  140.4052  153.2661 C   0  0  0  0  0  0  0  0  0  0  0  0
  148.3747  140.7471  153.9305 C   0  0  0  0  0  0  0  0  0  0  0  0
  148.7322  141.9197  154.0432 O   0  0  0  0  0  0  0  0  0  0  0  0
  149.1065  139.7080  154.3628 N   0  0  0  0  0  0  0  0  0  0  0  0
  150.4096  139.8016  155.0153 C   0  0  0  0  0  0  0  0  0  0  0  0
  151.1053  138.4349  154.9613 C   0  0  0  0  0  0  0  0  0  0  0  0
  150.2548  140.3012  156.4606 C   0  0  0  0  0  0  0  0  0  0  0  0
  145.1012  133.9885  150.4863 C   0  0  0  0  0  0  0  0  0  0  0  0
  143.2877  131.1629  151.2947 H   0  0  0  0  0  0  0  0  0  0  0  0
  144.7735  131.1017  150.3644 H   0  0  0  0  0  0  0  0  0  0  0  0
  143.3121  131.7527  149.6429 H   0  0  0  0  0  0  0  0  0  0  0  0
  143.1060  133.3819  152.9771 H   0  0  0  0  0  0  0  0  0  0  0  0
  146.9005  136.0995  150.9416 H   0  0  0  0  0  0  0  0  0  0  0  0
  145.4836  136.8298  150.2124 H   0  0  0  0  0  0  0  0  0  0  0  0
  144.7426  137.1256  152.8071 H   0  0  0  0  0  0  0  0  0  0  0  0
  146.4775  137.0389  153.0703 H   0  0  0  0  0  0  0  0  0  0  0  0
  145.6735  138.7562  150.9346 H   0  0  0  0  0  0  0  0  0  0  0  0
  147.8214  138.4914  152.5940 H   0  0  0  0  0  0  0  0  0  0  0  0
  147.5958  139.6635  151.3035 H   0  0  0  0  0  0  0  0  0  0  0  0
  146.6337  141.2999  152.7897 H   0  0  0  0  0  0  0  0  0  0  0  0
  146.3319  140.1196  154.0469 H   0  0  0  0  0  0  0  0  0  0  0  0
  148.7363  138.7785  154.2266 H   0  0  0  0  0  0  0  0  0  0  0  0
  151.0312  140.5119  154.4671 H   0  0  0  0  0  0  0  0  0  0  0  0
  152.0942  138.4798  155.4183 H   0  0  0  0  0  0  0  0  0  0  0  0
  151.2349  138.0996  153.9317 H   0  0  0  0  0  0  0  0  0  0  0  0
  150.5297  137.6744  155.4900 H   0  0  0  0  0  0  0  0  0  0  0  0
  151.2243  140.3756  156.9540 H   0  0  0  0  0  0  0  0  0  0  0  0
  149.6332  139.6265  157.0500 H   0  0  0  0  0  0  0  0  0  0  0  0
  149.7962  141.2901  156.4920 H   0  0  0  0  0  0  0  0  0  0  0  0
  145.6843  133.9344  149.5787 H   0  0  0  0  0  0  0  0  0  0  0  0
  145.1341  139.2226  152.4130 H   0  0  0  0  0  0  0  0  0  0  0  0
  1  2  1  0  0  0  0
  1 18  1  0  0  0  0
  1 19  1  0  0  0  0
  1 20  1  0  0  0  0
  2 17  2  0  0  0  0
  2  3  1  0  0  0  0
  3  4  2  0  0  0  0
  3 21  1  0  0  0  0
  4  5  1  0  0  0  0
  5  6  1  0  0  0  0
  5 17  1  0  0  0  0
  6  7  1  0  0  0  0
  6 22  1  0  0  0  0
  6 23  1  0  0  0  0
  7  8  1  0  0  0  0
  7 24  1  0  0  0  0
  7 25  1  0  0  0  0
  8  9  1  0  0  0  0
  8 26  1  0  0  0  0
  8 40  1  0  0  0  0
  9 10  1  0  0  0  0
  9 27  1  0  0  0  0
  9 28  1  0  0  0  0
 10 11  1  0  0  0  0
 10 29  1  0  0  0  0
 10 30  1  0  0  0  0
 11 12  2  0  0  0  0
 11 13  1  0  0  0  0
 13 14  1  0  0  0  0
 13 31  1  0  0  0  0
 14 15  1  0  0  0  0
 14 16  1  0  0  0  0
 14 32  1  0  0  0  0
 15 33  1  0  0  0  0
 15 34  1  0  0  0  0
 15 35  1  0  0  0  0
 16 36  1  0  0  0  0
 16 37  1  0  0  0  0
 16 38  1  0  0  0  0
 17 39  1  0  0  0  0
M  CHG  1   8   1
M  END
> <s_m_source_file>
AV-unprocessed.smi

> <i_m_source_file_index>
3130

> <i_lp_mmshare_version>
43012

> <i_f3d_flags>
0

> <s_epik_input>
W0NIM11jMVtjSF1ubihbY0hdMSlbQ0gyXVtDSDJdW05IXVtDSDJdW0NIMl1DKD1PKVtOSF1bQ0hdKFtDSDNdKVtDSDNd

> <s_epik_cmdline>
J2VwaWtfcHl0aG9uJywgJy1waCcsICc3LjAnLCAnLXRuJywgJzgnLCAnLW1hJywgJzIwMCcsICctbWV0YWxfYmluZGluZycsICctaW1hZScsICc8aW5maWxlLm1hZT4nLCAnLW9tYWUnLCAnPG91dGZpbGUubWFlPic=

> <r_lp_tautomer_probability>
1

> <r_epik_Ionization_Penalty>
0.00578341

> <r_epik_Ionization_Penalty_Charging>
0.00577767

> <r_epik_Ionization_Penalty_Neutral>
5.73237e-06

> <r_epik_State_Penalty>
-0

> <r_epik_Charging_Adjusted_Penalty>
0.00577767

> <i_epik_Tot_Q>
1

> <i_epik_Tot_abs_Q>
1

> <r_epik_Metal_State_Penalty>
-0

> <b_epik_Metal_Only>
0

> <s_lp_Force_Field>
OPLS_2005

> <r_lp_Energy>
3.33075

> <b_lp_Chiralities_Consistent>
1

> <s_lp_Variant>
AV-unprocessed.smi:3130-1

> <Gold.Version>
5.8.1

> <Gold.Id.Protein>
6NUR|6NUR_protein|mol2

> <Gold.PLP.Fitness>
47.2355

> <Gold.PLP.PLP>
-34.3654

> <Gold.PLP.part.hbond>
-3.9499

> <Gold.PLP.part.metal>
0.0000

> <Gold.PLP.part.buried>
3.9120

> <Gold.PLP.part.nonpolar>
-34.5328

> <Gold.PLP.part.repulsive>
0.4626

> <Gold.PLP.ligand.clash>
0.0000

> <Gold.PLP.ligand.torsion>
1.3083

> <Gold.PLP.Chemscore.Hbond>
3.1188

> <Gold.PLP.Chemscore.CHOScore>
2.0000

> <Gold.PLP.Chemscore.Metal>
0.0000

> <Gold.Chemscore.Hbonds>
donor molecule, donor type, donor heavy atom, donor atom, acceptor molecule, acceptor atom, score
      L1  H     8    26       P1 10171  0.51
      L1  H     8    40       P1 10175  2.00
      P1  H  8011  8017       L1    12  0.41
      L1  C     3    21       P1 10957  1.00
      L1  C    17    39       P1  7921  1.00

> <Gold.PLP.Chemscore.Internal.Correction>
0.1303

> <Gold.Rescore>
     Score         DG    S(hbond)    S(metal)    S(lipo)     H(rot)  DE(clash)    DE(int)     intcor
     13.15     -15.81       2.13        0.00      76.99       2.26       1.62       1.03       ----

> <Gold.Chemscore.Fitness>
13.1533

> <Gold.Chemscore.DG>
-15.8075

> <Gold.Chemscore.ZeroCoef>
-5.4800

> <Gold.Chemscore.Hbond>
2.1267

> <Gold.Chemscore.Metal>
0.0000

> <Gold.Chemscore.Lipo>
76.9886

> <Gold.Chemscore.Internal_Hbond>
0.0000

> <Gold.Chemscore.DEClash>
1.6194

> <Gold.Chemscore.DEInternal>
1.0348

> <Gold.Chemscore.Rot>
2.2591

> <Gold.Chemscore.Internal.Correction>
   9.000000E+99

> <Gold.Chemscore.Hbonds>
donor molecule, donor type, donor heavy atom, donor atom, acceptor molecule, acceptor atom, score
      L1  H     8    26       P1 10171  0.50
      L1  H     8    40       P1 10175  0.96
      P1  H  8011  8017       L1    12  0.26

> <Gold.Chemscore.Hbond.Weighted>
-7.1033

> <Gold.Chemscore.Metal.Weighted>
-0.0000

> <Gold.Chemscore.Lipo.Weighted>
-9.0077

> <Gold.Chemscore.Internal_Hbond.Weighted>
0.0000

> <Gold.Chemscore.DEClash.Weighted>
1.6194

> <Gold.Chemscore.DEInternal.Weighted>
1.0348

> <Gold.Chemscore.Rot.Weighted>
5.7834

> <Gold.Chemscore.Internal.Correction.Weighted>
   9.000000E+99

> <Gold.Protein.RotatedTorsions>
[ 6907 6896 6895 6894 ] final  -23.94 input  -60.11 | X-H torsion
[ 7974 7965 7964 7962 ] final   33.98 input  175.53 | X-H torsion
[ 8008 7997 7996 7995 ] final  -18.34 input   59.86 | X-H torsion
[ 10167 10162 10161 10158 ] final -144.82 input  -65.29 | X-H torsion
[ 10718 10713 10712 10709 ] final -155.61 input   66.30 | X-H torsion
[ 10763 10752 10751 10750 ] final  153.50 input  -60.55 | X-H torsion
[ 11005 11000 10999 10996 ] final   78.98 input  -57.11 | X-H torsion

> <Gold.Protein.ActiveResidues>
 VAL166  LYS551  ARG553  GLY616  TRP617  ASP618  TYR619  PRO620  LYS621  CYS622 
 ASP623  PHE694  ASN695  SER759  ASP760  ASP761  ALA762  ILE779  LEU786  VAL792 
 PHE793  MET794  SER795  GLU796  ALA797  LYS798  CYS799  TRP800  GLU811  SER814 

> <Gold.Protein.RotatedAtoms>
  151.1967  135.0425  159.8854 H   0  0  0  0  0  0  0  0  0  0  0  0  # atno 6907 bound_to 6896
  152.5435  134.0895  159.8281 H   0  0  0  0  0  0  0  0  0  0  0  0  # atno 6908 bound_to 6896
  151.1031  133.5181  159.2641 H   0  0  0  0  0  0  0  0  0  0  0  0  # atno 6909 bound_to 6896
  146.1384  139.6327  142.9180 H   0  0  0  0  0  0  0  0  0  0  0  0  # atno 7974 bound_to 7965
  154.4913  140.2118  155.9542 H   0  0  0  0  0  0  0  0  0  0  0  0  # atno 8008 bound_to 7997
  156.1309  140.3197  155.8317 H   0  0  0  0  0  0  0  0  0  0  0  0  # atno 8009 bound_to 7997
  155.4297  140.0502  157.3010 H   0  0  0  0  0  0  0  0  0  0  0  0  # atno 8010 bound_to 7997
  139.7863  143.8029  152.2645 H   0  0  0  0  0  0  0  0  0  0  0  0  # atno 10167 bound_to 10162
  156.5152  130.8453  151.2661 H   0  0  0  0  0  0  0  0  0  0  0  0  # atno 10718 bound_to 10713
  154.1371  135.2823  155.3170 H   0  0  0  0  0  0  0  0  0  0  0  0  # atno 10763 bound_to 10752
  154.6313  135.5434  153.7687 H   0  0  0  0  0  0  0  0  0  0  0  0  # atno 10764 bound_to 10752
  153.0262  135.6463  154.1520 H   0  0  0  0  0  0  0  0  0  0  0  0  # atno 10765 bound_to 10752
  139.9191  134.7806  156.1719 H   0  0  0  0  0  0  0  0  0  0  0  0  # atno 11005 bound_to 11000
  145.5104  141.0435  143.2491 LP  0  0  0  0  0  0  0  0  0  0  0  0  # atno 17320 bound_to 7965
  144.7765  139.6619  143.7173 LP  0  0  0  0  0  0  0  0  0  0  0  0  # atno 17321 bound_to 7965
  139.8107  144.7337  150.9701 LP  0  0  0  0  0  0  0  0  0  0  0  0  # atno 17342 bound_to 10162
  140.7819  143.4253  151.0777 LP  0  0  0  0  0  0  0  0  0  0  0  0  # atno 17343 bound_to 10162
  157.7445  130.9936  150.2677 LP  0  0  0  0  0  0  0  0  0  0  0  0  # atno 17370 bound_to 10713
  156.3201  130.3784  149.7582 LP  0  0  0  0  0  0  0  0  0  0  0  0  # atno 17371 bound_to 10713
  141.0695  133.6803  156.2112 LP  0  0  0  0  0  0  0  0  0  0  0  0  # atno 17394 bound_to 11000
  140.6530  134.5047  157.5579 LP  0  0  0  0  0  0  0  0  0  0  0  0  # atno 17395 bound_to 11000

$$$$
