#       Name:                AV-unprocessed.smi:53
#       Creating user name   scv26
#       Creation time:       Thu Mar 26 16:38:50 2020


#       File generated by GOLD software.
#

@<TRIPOS>MOLECULE
AV-unprocessed.smi:53
    41    42     1
SMALL
NO_CHARGES


@<TRIPOS>ATOM
      1 ****        -4.9904  -0.2305   0.0147 N.pl3          1 S1                 0.0000
      2 ****        -3.6663  -0.4085  -0.0924 C.2            1 S1                 0.0000
      3 ****        -2.8530   0.5599  -0.7907 C.2            1 S1                 0.0000
      4 ****        -1.5257   0.3136  -0.8513 C.2            1 S1                 0.0000
      5 ****        -0.9477  -0.8015  -0.2533 N.am           1 S1                 0.0000
      6 ****         0.5413  -1.0996  -0.3449 C.3            1 S1                 0.0000
      7 ****         1.1837  -0.1043  -1.0823 O.3            1 S1                 0.0000
      8 ****         1.6613   0.9042  -0.2009 C.3            1 S1                 0.0000
      9 ****         2.7388   1.7448  -0.9016 C.3            1 S1                 0.0000
     10 ****         2.1310   2.7370  -1.7011 O.3            1 S1                 0.0000
     11 ****         2.1908   0.0744   0.9699 C.3            1 S1                 0.0000
     12 ****         2.1626   0.8338   2.1621 O.3            1 S1                 0.0000
     13 ****         1.2120  -1.0965   1.0500 C.3            1 S1                 0.0000
     14 ****         1.9144  -2.2985   1.2972 O.3            1 S1                 0.0000
     15 ****        -1.7813  -1.7514   0.3876 C.2            1 S1                 0.0000
     16 ****        -1.3273  -2.7857   0.8753 O.2            1 S1                 0.0000
     17 ****        -3.1225  -1.4835   0.4428 N.2            1 S1                 0.0000
     18 ****         0.5997  -2.0509  -0.8783 H              1 S1                 0.0000
     19 ****         0.8340   1.5316   0.1372 H              1 S1                 0.0000
     20 ****         3.2046  -0.2716   0.7605 H              1 S1                 0.0000
     21 ****         0.4655  -0.9373   1.8296 H              1 S1                 0.0000
     22 ****        -5.5569  -0.9120   0.4986 H              1 S1                 0.0000
     23 ****        -5.4199   0.5867  -0.3942 H              1 S1                 0.0000
     24 ****        -3.2551   1.4492  -1.2548 H              1 S1                 0.0000
     25 ****        -0.9246   1.0303  -1.3896 H              1 S1                 0.0000
     26 ****         3.3568   2.2541  -0.1615 H              1 S1                 0.0000
     27 ****         3.4002   1.1219  -1.5045 H              1 S1                 0.0000
     28 ****         2.8102   3.2502  -2.1115 H              1 S1                 0.0000
     29 ****         2.4279   0.2760   2.8778 H              1 S1                 0.0000
     30 ****         2.5343  -2.4338   0.5970 H              1 S1                 0.0000
     31 ****         0.5386   0.2986  -1.7315 LP             1 S1                 0.0000
     32 ****         1.9533  -0.5030  -1.5810 LP             1 S1                 0.0000
     33 ****         1.5608   3.3276  -1.1300 LP             1 S1                 0.0000
     34 ****         1.5649   2.3045  -2.4027 LP             1 S1                 0.0000
     35 ****         1.2362   1.1736   2.3243 LP             1 S1                 0.0000
     36 ****         2.7924   1.6068   2.0851 LP             1 S1                 0.0000
     37 ****         1.2716  -3.0637   1.3310 LP             1 S1                 0.0000
     38 ****         2.3998  -2.2321   2.1691 LP             1 S1                 0.0000
     39 ****        -0.3463  -2.9735   0.8252 LP             1 S1                 0.0000
     40 ****        -1.9392  -3.4385   1.3218 LP             1 S1                 0.0000
     41 ****        -3.7188  -2.1349   0.9120 LP             1 S1                 0.0000
@<TRIPOS>BOND
    1    1    2 1     
    2    1   22 1     
    3    1   23 1     
    4    2   17 2     
    5    2    3 1     
    6    3    4 2     
    7    3   24 1     
    8    4    5 1     
    9    4   25 1     
   10    5    6 1     
   11    5   15 am    
   12    6   18 1     
   13    6   13 1     
   14    6    7 1     
   15    7    8 1     
   16    8   19 1     
   17    8    9 1     
   18    8   11 1     
   19    9   10 1     
   20    9   26 1     
   21    9   27 1     
   22   10   28 1     
   23   11   20 1     
   24   11   12 1     
   25   11   13 1     
   26   12   29 1     
   27   13   21 1     
   28   13   14 1     
   29   14   30 1     
   30   15   16 2     
   31   15   17 1     
   32    7   31 1     
   33    7   32 1     
   34   10   33 1     
   35   10   34 1     
   36   12   35 1     
   37   12   36 1     
   38   14   37 1     
   39   14   38 1     
   40   16   39 1     
   41   16   40 1     
   42   17   41 1     
@<TRIPOS>SUBSTRUCTURE
      1 S1             1
@<TRIPOS>SET
LONE_PAIRS      STATIC     ATOMS    <user>   **** ""
11 31 32 33 34 35 36 37 38 39 40 41
DONOR_HYDROGENS      STATIC     ATOMS    <user>   **** ""
5 22 23 28 29 30
ATOM$BLUE        STATIC     ATOMS    COLORGROUP SYSTEM
11 31 32 33 34 35 36 37 38 39 40 41
ATOM$RED        STATIC     ATOMS    COLORGROUP SYSTEM
5 22 23 28 29 30
