#       Name:                AV-unprocessed.smi:126
#       Creating user name   scv26
#       Creation time:       Thu Mar 26 18:28:49 2020


#       File generated by GOLD software.
#

@<TRIPOS>MOLECULE
AV-unprocessed.smi:126
    48    50     1
SMALL
NO_CHARGES


@<TRIPOS>ATOM
      1 ****        -1.3221  -1.1313  -0.6380 O.2            1 S1                 0.0000
      2 ****        -0.8316  -1.8228   0.2557 C.2            1 S1                 0.0000
      3 ****         0.6886  -2.0358   0.3294 C.3            1 S1                 0.0000
      4 ****         1.4593  -1.0782  -0.4937 N.am           1 S1                 0.0000
      5 ****         1.8092  -1.4409  -1.8180 C.2            1 S1                 0.0000
      6 ****         1.4902  -2.5344  -2.2868 O.2            1 S1                 0.0000
      7 ****         2.5544  -0.4373  -2.5696 C.2            1 S1                 0.0000
      8 ****         2.9348  -0.6981  -3.8318 F              1 S1                 0.0000
      9 ****         2.8698   0.7527  -2.0179 C.2            1 S1                 0.0000
     10 ****         2.5121   1.0972  -0.7269 N.am           1 S1                 0.0000
     11 ****         2.8607   2.4427  -0.1287 C.3            1 S1                 0.0000
     12 ****         1.6327   3.3701  -0.1344 C.3            1 S1                 0.0000
     13 ****         2.1859   4.6462  -0.7355 C.3            1 S1                 0.0000
     14 ****         3.2683   4.1112  -1.6611 C.3            1 S1                 0.0000
     15 ****         3.8519   3.0628  -0.8981 O.3            1 S1                 0.0000
     16 ****         1.7902   0.1789   0.0654 C.2            1 S1                 0.0000
     17 ****         1.4506   0.4718   1.2140 O.2            1 S1                 0.0000
     18 ****        -1.5438  -2.4667   1.1983 N.am           1 S1                 0.0000
     19 ****        -2.9491  -2.4579   1.4098 C.ar           1 S1                 0.0000
     20 ****        -3.5058  -3.5559   2.0991 C.ar           1 S1                 0.0000
     21 ****        -4.8882  -3.6080   2.3625 C.ar           1 S1                 0.0000
     22 ****        -5.7245  -2.5549   1.9473 C.ar           1 S1                 0.0000
     23 ****        -5.1759  -1.4471   1.2744 C.ar           1 S1                 0.0000
     24 ****        -3.7934  -1.3932   1.0098 C.ar           1 S1                 0.0000
     25 ****         1.0037  -1.9796   1.3730 H              1 S1                 0.0000
     26 ****         0.9019  -3.0674   0.0456 H              1 S1                 0.0000
     27 ****         3.4234   1.4506  -2.6268 H              1 S1                 0.0000
     28 ****         3.2599   2.2358   0.8658 H              1 S1                 0.0000
     29 ****         0.8513   2.9563  -0.7740 H              1 S1                 0.0000
     30 ****         1.2350   3.5016   0.8723 H              1 S1                 0.0000
     31 ****         1.4313   5.2367  -1.2554 H              1 S1                 0.0000
     32 ****         2.6321   5.2662   0.0431 H              1 S1                 0.0000
     33 ****         2.8313   3.7120  -2.5773 H              1 S1                 0.0000
     34 ****         4.0051   4.8677  -1.9320 H              1 S1                 0.0000
     35 ****        -1.0191  -3.0815   1.8034 H              1 S1                 0.0000
     36 ****        -2.8732  -4.3687   2.4251 H              1 S1                 0.0000
     37 ****        -5.3066  -4.4555   2.8850 H              1 S1                 0.0000
     38 ****        -6.7845  -2.5933   2.1506 H              1 S1                 0.0000
     39 ****        -5.8152  -0.6334   0.9652 H              1 S1                 0.0000
     40 ****        -3.4018  -0.5193   0.5125 H              1 S1                 0.0000
     41 ****        -0.7302  -0.7043  -1.3217 LP             1 S1                 0.0000
     42 ****        -2.3121  -0.9970  -0.6799 LP             1 S1                 0.0000
     43 ****         0.9744  -3.1857  -1.7303 LP             1 S1                 0.0000
     44 ****         1.7471  -2.7708  -3.2239 LP             1 S1                 0.0000
     45 ****         4.2653   2.3919  -1.5138 LP             1 S1                 0.0000
     46 ****         4.5552   3.4400  -0.2956 LP             1 S1                 0.0000
     47 ****         0.9335  -0.1832   1.7649 LP             1 S1                 0.0000
     48 ****         1.6923   1.3644   1.5946 LP             1 S1                 0.0000
@<TRIPOS>BOND
    1    1    2 2     
    2    2    3 1     
    3    2   18 am    
    4    3    4 1     
    5    3   25 1     
    6    3   26 1     
    7    4   16 am    
    8    4    5 am    
    9    5    6 2     
   10    5    7 1     
   11    7    8 1     
   12    7    9 2     
   13    9   10 1     
   14    9   27 1     
   15   10   11 1     
   16   10   16 am    
   17   11   15 1     
   18   11   12 1     
   19   11   28 1     
   20   12   13 1     
   21   12   29 1     
   22   12   30 1     
   23   13   14 1     
   24   13   31 1     
   25   13   32 1     
   26   14   15 1     
   27   14   33 1     
   28   14   34 1     
   29   16   17 2     
   30   18   19 1     
   31   18   35 1     
   32   19   24 ar    
   33   19   20 ar    
   34   20   21 ar    
   35   20   36 1     
   36   21   22 ar    
   37   21   37 1     
   38   22   23 ar    
   39   22   38 1     
   40   23   24 ar    
   41   23   39 1     
   42   24   40 1     
   43    1   41 1     
   44    1   42 1     
   45    6   43 1     
   46    6   44 1     
   47   15   45 1     
   48   15   46 1     
   49   17   47 1     
   50   17   48 1     
@<TRIPOS>SUBSTRUCTURE
      1 S1             1
@<TRIPOS>SET
LONE_PAIRS      STATIC     ATOMS    <user>   **** ""
8 41 42 43 44 45 46 47 48
DONOR_HYDROGENS      STATIC     ATOMS    <user>   **** ""
1 35
ATOM$BLUE        STATIC     ATOMS    COLORGROUP SYSTEM
8 41 42 43 44 45 46 47 48
ATOM$RED        STATIC     ATOMS    COLORGROUP SYSTEM
1 35
