#       Name:                AV-unprocessed.smi:2879
#       Creating user name   scv26
#       Creation time:       Fri Mar 27 15:51:55 2020


#       File generated by GOLD software.
#

@<TRIPOS>MOLECULE
AV-unprocessed.smi:2879
    47    48     1
SMALL
NO_CHARGES


@<TRIPOS>ATOM
      1 ****        -5.8018   3.9864  -2.8380 C.3            1 S1                 0.0000
      2 ****        -4.8546   2.8258  -2.7548 C.2            1 S1                 0.0000
      3 ****        -4.5277   2.0356  -1.6140 C.2            1 S1                 0.0000
      4 ****        -3.6249   1.1221  -2.0818 C.2            1 S1                 0.0000
      5 ****        -2.9016   0.0076  -1.3934 C.3            1 S1                 0.0000
      6 ****        -1.4206   0.3322  -1.1764 C.2            1 S1                 0.0000
      7 ****        -1.0796   1.4408  -0.7623 O.2            1 S1                 0.0000
      8 ****        -0.5508  -0.6522  -1.4529 N.am           1 S1                 0.0000
      9 ****         0.9020  -0.5642  -1.3344 C.3            1 S1                 0.0000
     10 ****         1.4314  -1.2251  -0.0439 C.3            1 S1                 0.0000
     11 ****         0.9515  -0.5114   1.2378 C.3            1 S1                 0.0000
     12 ****         1.5226  -1.1633   2.5100 C.3            1 S1                 0.0000
     13 ****         3.0670  -1.2608   2.5140 C.3            1 S1                 0.0000
     14 ****         3.7079   0.1366   2.6622 C.3            1 S1                 0.0000
     15 ****         3.5111  -2.1143   3.7177 C.3            1 S1                 0.0000
     16 ****         3.5343  -1.9501   1.2095 C.3            1 S1                 0.0000
     17 ****         2.9702  -1.2930  -0.0629 C.3            1 S1                 0.0000
     18 ****        -3.4655   1.3948  -3.4224 N.pl3          1 S1                 0.0000
     19 ****        -4.2094   2.4342  -3.8435 N.2            1 S1                 0.0000
     20 ****        -2.8568   0.8909  -4.0515 H              1 S1                 0.0000
     21 ****        -6.3060   4.1524  -1.8858 H              1 S1                 0.0000
     22 ****        -6.5688   3.8148  -3.5936 H              1 S1                 0.0000
     23 ****        -5.2748   4.9044  -3.0993 H              1 S1                 0.0000
     24 ****        -4.9003   2.1268  -0.6043 H              1 S1                 0.0000
     25 ****        -3.0044  -0.9098  -1.9751 H              1 S1                 0.0000
     26 ****        -3.3576  -0.1872  -0.4223 H              1 S1                 0.0000
     27 ****        -0.9239  -1.5316  -1.7801 H              1 S1                 0.0000
     28 ****         1.3235  -1.0714  -2.2028 H              1 S1                 0.0000
     29 ****         1.2400   0.4717  -1.3989 H              1 S1                 0.0000
     30 ****         1.0571  -2.2498  -0.0167 H              1 S1                 0.0000
     31 ****         1.2264   0.5430   1.2013 H              1 S1                 0.0000
     32 ****        -0.1363  -0.5361   1.2974 H              1 S1                 0.0000
     33 ****         1.1787  -0.6140   3.3873 H              1 S1                 0.0000
     34 ****         1.0974  -2.1639   2.6002 H              1 S1                 0.0000
     35 ****         4.7964   0.0711   2.6789 H              1 S1                 0.0000
     36 ****         3.3966   0.6161   3.5910 H              1 S1                 0.0000
     37 ****         3.4390   0.8089   1.8487 H              1 S1                 0.0000
     38 ****         4.5964  -2.2150   3.7540 H              1 S1                 0.0000
     39 ****         3.0913  -3.1199   3.6728 H              1 S1                 0.0000
     40 ****         3.1908  -1.6687   4.6602 H              1 S1                 0.0000
     41 ****         4.6239  -1.9645   1.1610 H              1 S1                 0.0000
     42 ****         3.2226  -2.9957   1.2214 H              1 S1                 0.0000
     43 ****         3.3016  -1.8608  -0.9330 H              1 S1                 0.0000
     44 ****         3.3857  -0.2922  -0.1826 H              1 S1                 0.0000
     45 ****        -1.7714   2.1355  -0.5655 LP             1 S1                 0.0000
     46 ****        -0.1109   1.6462  -0.6228 LP             1 S1                 0.0000
     47 ****        -4.2627   2.8210  -4.7641 LP             1 S1                 0.0000
@<TRIPOS>BOND
    1    1   21 1     
    2    1   22 1     
    3    1   23 1     
    4    1    2 1     
    5    2   19 2     
    6    2    3 1     
    7    3    4 2     
    8    3   24 1     
    9    4   18 1     
   10    4    5 1     
   11    5    6 1     
   12    5   25 1     
   13    5   26 1     
   14    6    7 2     
   15    6    8 am    
   16    8    9 1     
   17    8   27 1     
   18    9   10 1     
   19    9   28 1     
   20    9   29 1     
   21   10   17 1     
   22   10   11 1     
   23   10   30 1     
   24   11   12 1     
   25   11   31 1     
   26   11   32 1     
   27   12   13 1     
   28   12   33 1     
   29   12   34 1     
   30   13   14 1     
   31   13   15 1     
   32   13   16 1     
   33   14   35 1     
   34   14   36 1     
   35   14   37 1     
   36   15   38 1     
   37   15   39 1     
   38   15   40 1     
   39   16   17 1     
   40   16   41 1     
   41   16   42 1     
   42   17   43 1     
   43   17   44 1     
   44   18   19 1     
   45   18   20 1     
   46    7   45 1     
   47    7   46 1     
   48   19   47 1     
@<TRIPOS>SUBSTRUCTURE
      1 S1             1
@<TRIPOS>SET
LONE_PAIRS      STATIC     ATOMS    <user>   **** ""
3 45 46 47
DONOR_HYDROGENS      STATIC     ATOMS    <user>   **** ""
2 27 20
ATOM$BLUE        STATIC     ATOMS    COLORGROUP SYSTEM
3 45 46 47
ATOM$RED        STATIC     ATOMS    COLORGROUP SYSTEM
2 27 20
