AV-unprocessed.smi:2099|AV-procd|sdf|8569|dock2
  -GOLD-   2272011303D 1   1.00000     0.00000
 Structure written by MMmdl.
 32 33  0  0  0  0  0  0  0  0  1 V2000
  153.2571  143.0699  162.0191 C   0  0  0  0  0  0  0  0  0  0  0  0
  152.2127  142.9900  160.8964 C   0  0  2  0  0  0  0  0  0  0  0  0
  152.3722  141.7012  160.0670 C   0  0  0  0  0  0  0  0  0  0  0  0
  151.3309  141.6205  158.9385 C   0  0  0  0  0  0  0  0  0  0  0  0
  151.3940  142.8578  158.0248 C   0  0  1  0  0  0  0  0  0  0  0  0
  150.3558  142.7682  157.0015 N   0  0  0  0  0  0  0  0  0  0  0  0
  150.0787  141.6755  156.2745 C   0  0  0  0  0  0  0  0  0  0  0  0
  150.6844  140.6098  156.3930 O   0  0  0  0  0  0  0  0  0  0  0  0
  149.0694  141.9047  155.4159 N   0  0  0  0  0  0  0  0  0  0  0  0
  148.4922  141.0094  154.4765 C   0  0  0  0  0  0  0  0  0  0  0  0
  147.5033  141.3489  153.6346 N   0  0  0  0  0  0  0  0  0  0  0  0
  147.1226  140.2869  152.8245 N   0  0  0  0  0  0  0  0  0  0  0  0
  147.8380  139.1895  153.0867 C   0  0  0  0  0  0  0  0  0  0  0  0
  149.0483  139.3467  154.3480 S   0  0  0  0  0  0  0  0  0  0  0  0
  151.2350  144.1503  158.8508 C   0  0  0  0  0  0  0  0  0  0  0  0
  152.2751  144.2273  159.9804 C   0  0  0  0  0  0  0  0  0  0  0  0
  154.2708  143.0909  161.6177 H   0  0  0  0  0  0  0  0  0  0  0  0
  153.1812  142.2122  162.6880 H   0  0  0  0  0  0  0  0  0  0  0  0
  153.1190  143.9688  162.6206 H   0  0  0  0  0  0  0  0  0  0  0  0
  151.2280  142.9685  161.3657 H   0  0  0  0  0  0  0  0  0  0  0  0
  153.3747  141.6605  159.6383 H   0  0  0  0  0  0  0  0  0  0  0  0
  152.2781  140.8275  160.7127 H   0  0  0  0  0  0  0  0  0  0  0  0
  151.4958  140.7150  158.3534 H   0  0  0  0  0  0  0  0  0  0  0  0
  150.3343  141.5306  159.3730 H   0  0  0  0  0  0  0  0  0  0  0  0
  152.3713  142.8678  157.5382 H   0  0  0  0  0  0  0  0  0  0  0  0
  149.8102  143.6013  156.8352 H   0  0  0  0  0  0  0  0  0  0  0  0
  148.6678  142.8303  155.4336 H   0  0  0  0  0  0  0  0  0  0  0  0
  147.6518  138.2813  152.5329 H   0  0  0  0  0  0  0  0  0  0  0  0
  151.3336  145.0247  158.2065 H   0  0  0  0  0  0  0  0  0  0  0  0
  150.2325  144.1944  159.2789 H   0  0  0  0  0  0  0  0  0  0  0  0
  152.1104  145.1330  160.5652 H   0  0  0  0  0  0  0  0  0  0  0  0
  153.2730  144.3172  159.5488 H   0  0  0  0  0  0  0  0  0  0  0  0
  1  2  1  0  0  0  0
  1 17  1  0  0  0  0
  1 18  1  0  0  0  0
  1 19  1  0  0  0  0
  2 16  1  0  0  0  0
  2  3  1  0  0  0  0
  2 20  1  0  0  0  0
  3  4  1  0  0  0  0
  3 21  1  0  0  0  0
  3 22  1  0  0  0  0
  4  5  1  0  0  0  0
  4 23  1  0  0  0  0
  4 24  1  0  0  0  0
  5  6  1  0  0  0  0
  5 15  1  0  0  0  0
  5 25  1  0  0  0  0
  6  7  1  0  0  0  0
  6 26  1  0  0  0  0
  7  8  2  0  0  0  0
  7  9  1  0  0  0  0
  9 10  1  0  0  0  0
  9 27  1  0  0  0  0
 10 14  1  0  0  0  0
 10 11  2  0  0  0  0
 11 12  1  0  0  0  0
 12 13  2  0  0  0  0
 13 14  1  0  0  0  0
 13 28  1  0  0  0  0
 15 16  1  0  0  0  0
 15 29  1  0  0  0  0
 15 30  1  0  0  0  0
 16 31  1  0  0  0  0
 16 32  1  0  0  0  0
M  END
> <s_m_source_file>
AV-unprocessed.smi

> <i_m_source_file_index>
2099

> <i_lp_mmshare_version>
43012

> <i_f3d_flags>
0

> <s_epik_input>
W0NIM11bQ0BASF0xW0NIMl1bQ0gyXVtDQEhdKFtDSDJdW0NIMl0xKVtOSF1DKD1PKVtOSF1jMm5uW2NIXXMy

> <s_epik_cmdline>
J2VwaWtfcHl0aG9uJywgJy1waCcsICc3LjAnLCAnLXRuJywgJzgnLCAnLW1hJywgJzIwMCcsICctbWV0YWxfYmluZGluZycsICctaW1hZScsICc8aW5maWxlLm1hZT4nLCAnLW9tYWUnLCAnPG91dGZpbGUubWFlPic=

> <r_lp_tautomer_probability>
1

> <r_epik_Ionization_Penalty>
0.000322846

> <r_epik_Ionization_Penalty_Charging>
0

> <r_epik_Ionization_Penalty_Neutral>
0.000322846

> <r_epik_State_Penalty>
-0

> <r_epik_Charging_Adjusted_Penalty>
0

> <i_epik_Tot_Q>
0

> <i_epik_Tot_abs_Q>
0

> <r_epik_Metal_State_Penalty>
0.17121

> <b_epik_Metal_Only>
0

> <s_lp_Force_Field>
OPLS_2005

> <r_lp_Energy>
7.94157

> <b_lp_Chiralities_Consistent>
1

> <s_lp_Variant>
AV-unprocessed.smi:2099-1

> <Gold.Version>
5.8.1

> <Gold.Id.Protein>
6NUR|6NUR_protein|mol2

> <Gold.PLP.Fitness>
39.0847

> <Gold.PLP.PLP>
-30.3798

> <Gold.PLP.part.hbond>
-2.0000

> <Gold.PLP.part.metal>
0.0000

> <Gold.PLP.part.buried>
-3.8101

> <Gold.PLP.part.nonpolar>
-26.1388

> <Gold.PLP.part.repulsive>
1.3082

> <Gold.PLP.ligand.clash>
0.0000

> <Gold.PLP.ligand.torsion>
0.1491

> <Gold.PLP.Chemscore.Hbond>
2.0000

> <Gold.PLP.Chemscore.CHOScore>
1.0000

> <Gold.PLP.Chemscore.Metal>
0.0000

> <Gold.Chemscore.Hbonds>
donor molecule, donor type, donor heavy atom, donor atom, acceptor molecule, acceptor atom, score
      L1  H     6    26       P1  8028  1.00
      L1  H     9    27       P1  8028  1.00
      L1  C    13    28       P1  7948  1.00

> <Gold.PLP.Chemscore.Internal.Correction>
0.0030

> <Gold.Rescore>
     Score         DG    S(hbond)    S(metal)    S(lipo)     H(rot)  DE(clash)    DE(int)     intcor
     15.28     -19.15       1.96        0.00      82.79       1.00       1.09       2.78       ----

> <Gold.Chemscore.Fitness>
15.2816

> <Gold.Chemscore.DG>
-19.1478

> <Gold.Chemscore.ZeroCoef>
-5.4800

> <Gold.Chemscore.Hbond>
1.9583

> <Gold.Chemscore.Metal>
0.0000

> <Gold.Chemscore.Lipo>
82.7944

> <Gold.Chemscore.Internal_Hbond>
0.0000

> <Gold.Chemscore.DEClash>
1.0912

> <Gold.Chemscore.DEInternal>
2.7750

> <Gold.Chemscore.Rot>
1.0000

> <Gold.Chemscore.Internal.Correction>
   9.000000E+99

> <Gold.Chemscore.Hbonds>
donor molecule, donor type, donor heavy atom, donor atom, acceptor molecule, acceptor atom, score
      L1  H     6    26       P1  8028  0.95
      L1  H     9    27       P1  8028  0.94

> <Gold.Chemscore.Hbond.Weighted>
-6.5409

> <Gold.Chemscore.Metal.Weighted>
-0.0000

> <Gold.Chemscore.Lipo.Weighted>
-9.6869

> <Gold.Chemscore.Internal_Hbond.Weighted>
0.0000

> <Gold.Chemscore.DEClash.Weighted>
1.0912

> <Gold.Chemscore.DEInternal.Weighted>
2.7750

> <Gold.Chemscore.Rot.Weighted>
2.5600

> <Gold.Chemscore.Internal.Correction.Weighted>
   9.000000E+99

> <Gold.Protein.RotatedTorsions>
[ 6907 6896 6895 6894 ] final -176.66 input  -60.11 | X-H torsion
[ 7974 7965 7964 7962 ] final   77.53 input  175.53 | X-H torsion
[ 8008 7997 7996 7995 ] final  -43.75 input   59.86 | X-H torsion
[ 10167 10162 10161 10158 ] final  175.23 input  -65.29 | X-H torsion
[ 10718 10713 10712 10709 ] final   35.48 input   66.30 | X-H torsion
[ 10763 10752 10751 10750 ] final -110.65 input  -60.55 | X-H torsion
[ 11005 11000 10999 10996 ] final -119.80 input  -57.11 | X-H torsion

> <Gold.Protein.ActiveResidues>
 VAL166  LYS551  ARG553  GLY616  TRP617  ASP618  TYR619  PRO620  LYS621  CYS622 
 ASP623  PHE694  ASN695  SER759  ASP760  ASP761  ALA762  ILE779  LEU786  VAL792 
 PHE793  MET794  SER795  GLU796  ALA797  LYS798  CYS799  TRP800  GLU811  SER814 

> <Gold.Protein.RotatedAtoms>
  151.6083  133.3349  159.3061 H   0  0  0  0  0  0  0  0  0  0  0  0  # atno 6907 bound_to 6896
  150.8170  134.7361  159.6750 H   0  0  0  0  0  0  0  0  0  0  0  0  # atno 6908 bound_to 6896
  152.4265  134.5863  160.0013 H   0  0  0  0  0  0  0  0  0  0  0  0  # atno 6909 bound_to 6896
  145.6888  139.2546  143.1771 H   0  0  0  0  0  0  0  0  0  0  0  0  # atno 7974 bound_to 7965
  154.3997  140.1439  156.3571 H   0  0  0  0  0  0  0  0  0  0  0  0  # atno 8008 bound_to 7997
  155.8216  140.3469  155.5496 H   0  0  0  0  0  0  0  0  0  0  0  0  # atno 8009 bound_to 7997
  155.8282  140.0908  157.1799 H   0  0  0  0  0  0  0  0  0  0  0  0  # atno 8010 bound_to 7997
  139.5170  144.3055  152.0340 H   0  0  0  0  0  0  0  0  0  0  0  0  # atno 10167 bound_to 10162
  157.3232  130.7459  149.6799 H   0  0  0  0  0  0  0  0  0  0  0  0  # atno 10718 bound_to 10713
  154.8259  135.4556  154.0918 H   0  0  0  0  0  0  0  0  0  0  0  0  # atno 10763 bound_to 10752
  153.2232  135.6896  153.7982 H   0  0  0  0  0  0  0  0  0  0  0  0  # atno 10764 bound_to 10752
  153.7391  135.3315  155.3277 H   0  0  0  0  0  0  0  0  0  0  0  0  # atno 10765 bound_to 10752
  141.0190  134.0153  157.3310 H   0  0  0  0  0  0  0  0  0  0  0  0  # atno 11005 bound_to 11000
  146.0900  140.7667  142.9600 LP  0  0  0  0  0  0  0  0  0  0  0  0  # atno 17320 bound_to 7965
  144.7003  140.3622  143.7161 LP  0  0  0  0  0  0  0  0  0  0  0  0  # atno 17321 bound_to 7965
  140.2501  144.4178  150.6225 LP  0  0  0  0  0  0  0  0  0  0  0  0  # atno 17342 bound_to 10162
  140.6230  143.2178  151.6654 LP  0  0  0  0  0  0  0  0  0  0  0  0  # atno 17343 bound_to 10162
  155.9688  130.4217  150.4481 LP  0  0  0  0  0  0  0  0  0  0  0  0  # atno 17370 bound_to 10713
  157.2500  131.0544  151.2385 LP  0  0  0  0  0  0  0  0  0  0  0  0  # atno 17371 bound_to 10713
  139.9134  135.0193  156.7785 LP  0  0  0  0  0  0  0  0  0  0  0  0  # atno 17394 bound_to 11000
  140.6606  133.9649  155.7803 LP  0  0  0  0  0  0  0  0  0  0  0  0  # atno 17395 bound_to 11000

$$$$
