AV-unprocessed.smi:3031|AV-procd|sdf|11556|dock2
  -GOLD-   2272016523D 1   1.00000     0.00000
 Structure written by MMmdl.
 46 47  0  0  0  0  0  0  0  0  1 V2000
  153.7212  142.1516  162.2080 C   0  0  0  0  0  0  0  0  0  0  0  0
  153.2857  141.9853  160.7808 C   0  0  0  0  0  0  0  0  0  0  0  0
  153.6140  140.9291  159.8847 C   0  0  0  0  0  0  0  0  0  0  0  0
  153.0761  141.0858  158.6864 N   0  0  0  0  0  0  0  0  0  0  0  0
  152.3711  142.2338  158.7784 N   0  0  0  0  0  0  0  0  0  0  0  0
  151.6591  142.7398  157.6163 C   0  0  0  0  0  0  0  0  0  0  0  0
  150.4105  141.9067  157.2356 C   0  0  1  0  0  0  0  0  0  0  0  0
  149.2836  142.1328  158.2532 C   0  0  0  0  0  0  0  0  0  0  0  0
  149.8962  142.2197  155.8982 N   0  0  0  0  0  0  0  0  0  0  0  0
  148.8117  141.3727  155.4043 C   0  0  0  0  0  0  0  0  0  0  0  0
  149.3273  140.3338  154.3908 C   0  0  1  0  0  0  0  0  0  0  0  0
  149.5310  141.0106  153.1685 O   0  0  0  0  0  0  0  0  0  0  0  0
  150.6818  139.6974  154.7788 C   0  0  0  0  0  0  0  0  0  0  0  0
  150.6332  138.2984  155.2068 N   0  0  0  0  0  0  0  0  0  0  0  0
  151.9381  137.8406  155.6692 C   0  0  0  0  0  0  0  0  0  0  0  0
  151.8958  136.3777  156.1436 C   0  0  0  0  0  0  0  0  0  0  0  0
  151.4127  135.5491  155.0912 O   0  0  0  0  0  0  0  0  0  0  0  0
  150.1205  135.9367  154.6356 C   0  0  0  0  0  0  0  0  0  0  0  0
  150.1575  137.3990  154.1579 C   0  0  0  0  0  0  0  0  0  0  0  0
  152.4951  142.8060  160.0275 C   0  0  0  0  0  0  0  0  0  0  0  0
  153.9035  141.1907  162.6895 H   0  0  0  0  0  0  0  0  0  0  0  0
  152.9691  142.6701  162.8028 H   0  0  0  0  0  0  0  0  0  0  0  0
  154.6437  142.7277  162.2810 H   0  0  0  0  0  0  0  0  0  0  0  0
  154.2295  140.0607  160.0672 H   0  0  0  0  0  0  0  0  0  0  0  0
  151.3616  143.7610  157.8579 H   0  0  0  0  0  0  0  0  0  0  0  0
  152.3423  142.8162  156.7683 H   0  0  0  0  0  0  0  0  0  0  0  0
  150.6610  140.8465  157.2810 H   0  0  0  0  0  0  0  0  0  0  0  0
  149.5984  141.8500  159.2582 H   0  0  0  0  0  0  0  0  0  0  0  0
  148.4051  141.5350  158.0073 H   0  0  0  0  0  0  0  0  0  0  0  0
  148.9772  143.1792  158.2819 H   0  0  0  0  0  0  0  0  0  0  0  0
  149.5935  143.1891  155.8741 H   0  0  0  0  0  0  0  0  0  0  0  0
  148.3525  140.8471  156.2398 H   0  0  0  0  0  0  0  0  0  0  0  0
  148.0311  141.9805  154.9449 H   0  0  0  0  0  0  0  0  0  0  0  0
  148.5683  139.5736  154.2062 H   0  0  0  0  0  0  0  0  0  0  0  0
  149.3227  140.4192  152.4614 H   0  0  0  0  0  0  0  0  0  0  0  0
  151.3723  139.7869  153.9383 H   0  0  0  0  0  0  0  0  0  0  0  0
  151.1154  140.2973  155.5806 H   0  0  0  0  0  0  0  0  0  0  0  0
  152.6708  137.9388  154.8665 H   0  0  0  0  0  0  0  0  0  0  0  0
  152.2844  138.4739  156.4869 H   0  0  0  0  0  0  0  0  0  0  0  0
  152.8920  136.0431  156.4329 H   0  0  0  0  0  0  0  0  0  0  0  0
  151.2545  136.2746  157.0206 H   0  0  0  0  0  0  0  0  0  0  0  0
  149.8160  135.2783  153.8220 H   0  0  0  0  0  0  0  0  0  0  0  0
  149.3919  135.8125  155.4386 H   0  0  0  0  0  0  0  0  0  0  0  0
  149.1561  137.6831  153.8377 H   0  0  0  0  0  0  0  0  0  0  0  0
  150.8017  137.4779  153.2809 H   0  0  0  0  0  0  0  0  0  0  0  0
  152.0146  143.7410  160.2759 H   0  0  0  0  0  0  0  0  0  0  0  0
  1  2  1  0  0  0  0
  1 21  1  0  0  0  0
  1 22  1  0  0  0  0
  1 23  1  0  0  0  0
  2 20  2  0  0  0  0
  2  3  1  0  0  0  0
  3  4  2  0  0  0  0
  3 24  1  0  0  0  0
  4  5  1  0  0  0  0
  5  6  1  0  0  0  0
  5 20  1  0  0  0  0
  6  7  1  0  0  0  0
  6 25  1  0  0  0  0
  6 26  1  0  0  0  0
  7  8  1  0  0  0  0
  7  9  1  0  0  0  0
  7 27  1  0  0  0  0
  8 28  1  0  0  0  0
  8 29  1  0  0  0  0
  8 30  1  0  0  0  0
  9 10  1  0  0  0  0
  9 31  1  0  0  0  0
 10 11  1  0  0  0  0
 10 32  1  0  0  0  0
 10 33  1  0  0  0  0
 11 12  1  0  0  0  0
 11 13  1  0  0  0  0
 11 34  1  0  0  0  0
 12 35  1  0  0  0  0
 13 14  1  0  0  0  0
 13 36  1  0  0  0  0
 13 37  1  0  0  0  0
 14 19  1  0  0  0  0
 14 15  1  0  0  0  0
 15 16  1  0  0  0  0
 15 38  1  0  0  0  0
 15 39  1  0  0  0  0
 16 17  1  0  0  0  0
 16 40  1  0  0  0  0
 16 41  1  0  0  0  0
 17 18  1  0  0  0  0
 18 19  1  0  0  0  0
 18 42  1  0  0  0  0
 18 43  1  0  0  0  0
 19 44  1  0  0  0  0
 19 45  1  0  0  0  0
 20 46  1  0  0  0  0
M  END
> <s_m_source_file>
AV-unprocessed.smi

> <i_m_source_file_index>
3031

> <i_lp_mmshare_version>
43012

> <i_f3d_flags>
0

> <s_epik_input>
W0NIM11jMVtjSF1ubihbY0hdMSlbQ0gyXVtDQEhdKFtDSDNdKVtOSF1bQ0gyXVtDQEhdKFtPSF0pW0NIMl1OMltDSDJdW0NIMl1PW0NIMl1bQ0gyXTI=

> <s_epik_cmdline>
J2VwaWtfcHl0aG9uJywgJy1waCcsICc3LjAnLCAnLXRuJywgJzgnLCAnLW1hJywgJzIwMCcsICctbWV0YWxfYmluZGluZycsICctaW1hZScsICc8aW5maWxlLm1hZT4nLCAnLW9tYWUnLCAnPG91dGZpbGUubWFlPic=

> <r_lp_tautomer_probability>
1

> <r_epik_Ionization_Penalty>
2.8101

> <r_epik_Ionization_Penalty_Charging>
0

> <r_epik_Ionization_Penalty_Neutral>
2.8101

> <r_epik_State_Penalty>
2.12351

> <r_epik_Charging_Adjusted_Penalty>
2.12351

> <i_epik_Tot_Q>
0

> <i_epik_Tot_abs_Q>
0

> <r_epik_Metal_State_Penalty>
2.12345

> <b_epik_Metal_Only>
0

> <s_lp_Force_Field>
OPLS_2005

> <r_lp_Energy>
29.6213

> <b_lp_Chiralities_Consistent>
1

> <s_lp_Variant>
AV-unprocessed.smi:3031-16

> <Gold.Version>
5.8.1

> <Gold.Id.Protein>
6NUR|6NUR_protein|mol2

> <Gold.PLP.Fitness>
52.1161

> <Gold.PLP.PLP>
-42.1772

> <Gold.PLP.part.hbond>
-4.0137

> <Gold.PLP.part.metal>
0.0000

> <Gold.PLP.part.buried>
-4.5316

> <Gold.PLP.part.nonpolar>
-32.9228

> <Gold.PLP.part.repulsive>
0.0335

> <Gold.PLP.ligand.clash>
0.0000

> <Gold.PLP.ligand.torsion>
1.3317

> <Gold.PLP.Chemscore.Hbond>
4.0880

> <Gold.PLP.Chemscore.CHOScore>
0.0000

> <Gold.PLP.Chemscore.Metal>
0.0000

> <Gold.Chemscore.Hbonds>
donor molecule, donor type, donor heavy atom, donor atom, acceptor molecule, acceptor atom, score
      L1  H     9    31       P1  8028  1.00
      L1  H    12    35       P1  7957  0.58
      P1  H  7989  7998       L1    12  0.06
      P1  H  8011  8017       L1    12  1.00

> <Gold.PLP.Chemscore.Internal.Correction>
0.3383

> <Gold.Rescore>
     Score         DG    S(hbond)    S(metal)    S(lipo)     H(rot)  DE(clash)    DE(int)     intcor
     19.86     -21.28       3.03        0.00     104.01       2.53       0.07       1.34       ----

> <Gold.Chemscore.Fitness>
19.8620

> <Gold.Chemscore.DG>
-21.2784

> <Gold.Chemscore.ZeroCoef>
-5.4800

> <Gold.Chemscore.Hbond>
3.0284

> <Gold.Chemscore.Metal>
0.0000

> <Gold.Chemscore.Lipo>
104.0054

> <Gold.Chemscore.Internal_Hbond>
0.0000

> <Gold.Chemscore.DEClash>
0.0750

> <Gold.Chemscore.DEInternal>
1.3415

> <Gold.Chemscore.Rot>
2.5333

> <Gold.Chemscore.Internal.Correction>
   9.000000E+99

> <Gold.Chemscore.Hbonds>
donor molecule, donor type, donor heavy atom, donor atom, acceptor molecule, acceptor atom, score
      L1  H     9    31       P1  8028  1.00
      L1  H    12    35       P1  7957  0.55
      P1  H  8011  8017       L1    12  0.25

> <Gold.Chemscore.Hbond.Weighted>
-10.1150

> <Gold.Chemscore.Metal.Weighted>
-0.0000

> <Gold.Chemscore.Lipo.Weighted>
-12.1686

> <Gold.Chemscore.Internal_Hbond.Weighted>
0.0000

> <Gold.Chemscore.DEClash.Weighted>
0.0750

> <Gold.Chemscore.DEInternal.Weighted>
1.3415

> <Gold.Chemscore.Rot.Weighted>
6.4852

> <Gold.Chemscore.Internal.Correction.Weighted>
   9.000000E+99

> <Gold.Protein.RotatedTorsions>
[ 6907 6896 6895 6894 ] final   66.10 input  -60.11 | X-H torsion
[ 7974 7965 7964 7962 ] final -179.54 input  175.53 | X-H torsion
[ 8008 7997 7996 7995 ] final  -32.58 input   59.86 | X-H torsion
[ 10167 10162 10161 10158 ] final  -72.81 input  -65.29 | X-H torsion
[ 10718 10713 10712 10709 ] final  176.05 input   66.30 | X-H torsion
[ 10763 10752 10751 10750 ] final -145.96 input  -60.55 | X-H torsion
[ 11005 11000 10999 10996 ] final   55.45 input  -57.11 | X-H torsion

> <Gold.Protein.ActiveResidues>
 VAL166  LYS551  ARG553  GLY616  TRP617  ASP618  TYR619  PRO620  LYS621  CYS622 
 ASP623  PHE694  ASN695  SER759  ASP760  ASP761  ALA762  ILE779  LEU786  VAL792 
 PHE793  MET794  SER795  GLU796  ALA797  LYS798  CYS799  TRP800  GLU811  SER814 

> <Gold.Protein.RotatedAtoms>
  152.4456  134.5501  159.9863 H   0  0  0  0  0  0  0  0  0  0  0  0  # atno 6907 bound_to 6896
  151.5586  133.3401  159.2975 H   0  0  0  0  0  0  0  0  0  0  0  0  # atno 6908 bound_to 6896
  150.8372  134.7682  159.6966 H   0  0  0  0  0  0  0  0  0  0  0  0  # atno 6909 bound_to 6896
  144.7137  140.0702  143.6429 H   0  0  0  0  0  0  0  0  0  0  0  0  # atno 7974 bound_to 7965
  154.4175  140.1733  156.1750 H   0  0  0  0  0  0  0  0  0  0  0  0  # atno 8008 bound_to 7997
  155.9729  140.3384  155.6568 H   0  0  0  0  0  0  0  0  0  0  0  0  # atno 8009 bound_to 7997
  155.6602  140.0700  157.2547 H   0  0  0  0  0  0  0  0  0  0  0  0  # atno 8010 bound_to 7997
  140.5162  143.2338  151.7509 H   0  0  0  0  0  0  0  0  0  0  0  0  # atno 10167 bound_to 10162
  156.9259  130.9955  151.2996 H   0  0  0  0  0  0  0  0  0  0  0  0  # atno 10718 bound_to 10713
  154.8359  135.3399  154.6586 H   0  0  0  0  0  0  0  0  0  0  0  0  # atno 10763 bound_to 10752
  153.7201  135.6958  153.5019 H   0  0  0  0  0  0  0  0  0  0  0  0  # atno 10764 bound_to 10752
  153.2388  135.4391  155.0628 H   0  0  0  0  0  0  0  0  0  0  0  0  # atno 10765 bound_to 10752
  140.0606  134.5608  155.9157 H   0  0  0  0  0  0  0  0  0  0  0  0  # atno 11005 bound_to 11000
  145.9789  139.2926  143.1053 LP  0  0  0  0  0  0  0  0  0  0  0  0  # atno 17320 bound_to 7965
  145.9032  140.9229  143.0492 LP  0  0  0  0  0  0  0  0  0  0  0  0  # atno 17321 bound_to 7965
  139.4910  144.4321  151.9861 LP  0  0  0  0  0  0  0  0  0  0  0  0  # atno 17342 bound_to 10162
  140.3415  144.3197  150.5966 LP  0  0  0  0  0  0  0  0  0  0  0  0  # atno 17343 bound_to 10162
  157.5878  130.8422  149.8615 LP  0  0  0  0  0  0  0  0  0  0  0  0  # atno 17370 bound_to 10713
  156.0469  130.3726  150.1295 LP  0  0  0  0  0  0  0  0  0  0  0  0  # atno 17371 bound_to 10713
  141.1971  133.6595  156.5726 LP  0  0  0  0  0  0  0  0  0  0  0  0  # atno 17394 bound_to 11000
  140.3776  134.7551  157.4640 LP  0  0  0  0  0  0  0  0  0  0  0  0  # atno 17395 bound_to 11000

$$$$
