AV-unprocessed.smi:415|AV-procd|sdf|2518|dock8
  -GOLD-   2262022473D 1   1.00000     0.00000
 Structure written by MMmdl.
 53 54  0  0  0  0  0  0  0  0  1 V2000
  153.3800  136.4203  163.6314 C   0  0  0  0  0  0  0  0  0  0  0  0
  154.0050  136.4513  162.3607 O   0  0  0  0  0  0  0  0  0  0  0  0
  155.1511  137.2857  162.3372 C   0  0  0  0  0  0  0  0  0  0  0  0
  155.7906  137.2616  160.9394 C   0  0  0  0  0  0  0  0  0  0  0  0
  154.8722  136.8332  159.9008 N   0  0  0  0  0  0  0  0  0  0  0  0
  155.0837  135.6967  159.1253 C   0  0  0  0  0  0  0  0  0  0  0  0
  156.2006  134.9126  159.3522 N   0  0  0  0  0  0  0  0  0  0  0  0
  154.2141  135.3317  158.1574 C   0  0  0  0  0  0  0  0  0  0  0  0
  153.0113  136.1018  157.8740 C   0  0  0  0  0  0  0  0  0  0  0  0
  152.2248  135.8052  156.9743 O   0  0  0  0  0  0  0  0  0  0  0  0
  152.7999  137.2342  158.6936 N   0  0  0  0  0  0  0  0  0  0  0  0
  151.6031  138.0740  158.4497 C   0  0  0  0  0  0  0  0  0  0  0  0
  151.8920  139.5779  158.2911 C   0  0  0  0  0  0  0  0  0  0  0  0
  152.7352  139.9405  157.4721 O   0  0  0  0  0  0  0  0  0  0  0  0
  151.1937  140.4368  159.0542 N   0  0  0  0  0  0  0  0  0  0  0  0
  151.2763  141.8945  159.0249 C   0  0  2  0  0  0  0  0  0  0  0  0
  151.0172  142.3695  157.5823 C   0  0  0  0  0  0  0  0  0  0  0  0
  151.1834  143.8886  157.4398 C   0  0  0  0  0  0  0  0  0  0  0  0
  152.5659  144.3434  157.9333 C   0  0  0  0  0  0  0  0  0  0  0  0
  152.8405  143.9032  159.3858 C   0  0  1  0  0  0  0  0  0  0  0  0
  152.0174  144.7295  160.3949 C   0  0  0  0  0  0  0  0  0  0  0  0
  152.6656  142.3677  159.5292 C   0  0  1  0  0  0  0  0  0  0  0  0
  152.9975  141.8685  160.9497 C   0  0  0  0  0  0  0  0  0  0  0  0
  153.7051  137.6170  159.7106 C   0  0  0  0  0  0  0  0  0  0  0  0
  153.4787  138.6173  160.3969 O   0  0  0  0  0  0  0  0  0  0  0  0
  152.5038  135.7731  163.5926 H   0  0  0  0  0  0  0  0  0  0  0  0
  153.0503  137.4152  163.9340 H   0  0  0  0  0  0  0  0  0  0  0  0
  154.0552  136.0274  164.3927 H   0  0  0  0  0  0  0  0  0  0  0  0
  154.8574  138.3074  162.5821 H   0  0  0  0  0  0  0  0  0  0  0  0
  155.8722  136.9669  163.0913 H   0  0  0  0  0  0  0  0  0  0  0  0
  156.2223  138.2244  160.6623 H   0  0  0  0  0  0  0  0  0  0  0  0
  156.6270  136.5637  160.9097 H   0  0  0  0  0  0  0  0  0  0  0  0
  156.8746  135.1398  160.0694 H   0  0  0  0  0  0  0  0  0  0  0  0
  156.3992  134.0937  158.7957 H   0  0  0  0  0  0  0  0  0  0  0  0
  154.4095  134.4464  157.5691 H   0  0  0  0  0  0  0  0  0  0  0  0
  151.0597  137.7397  157.5646 H   0  0  0  0  0  0  0  0  0  0  0  0
  150.8792  137.9524  159.2570 H   0  0  0  0  0  0  0  0  0  0  0  0
  150.5246  140.0417  159.6988 H   0  0  0  0  0  0  0  0  0  0  0  0
  150.5049  142.3237  159.6659 H   0  0  0  0  0  0  0  0  0  0  0  0
  151.7081  141.8704  156.9007 H   0  0  0  0  0  0  0  0  0  0  0  0
  150.0135  142.0798  157.2687 H   0  0  0  0  0  0  0  0  0  0  0  0
  151.0506  144.1775  156.3968 H   0  0  0  0  0  0  0  0  0  0  0  0
  150.3989  144.3990  157.9994 H   0  0  0  0  0  0  0  0  0  0  0  0
  153.3312  143.9220  157.2801 H   0  0  0  0  0  0  0  0  0  0  0  0
  152.6569  145.4264  157.8424 H   0  0  0  0  0  0  0  0  0  0  0  0
  153.8876  144.1312  159.5898 H   0  0  0  0  0  0  0  0  0  0  0  0
  150.9480  144.5394  160.3089 H   0  0  0  0  0  0  0  0  0  0  0  0
  152.1736  145.7972  160.2398 H   0  0  0  0  0  0  0  0  0  0  0  0
  152.3094  144.5135  161.4223 H   0  0  0  0  0  0  0  0  0  0  0  0
  153.4108  141.9152  158.8724 H   0  0  0  0  0  0  0  0  0  0  0  0
  152.2258  142.1529  161.6653 H   0  0  0  0  0  0  0  0  0  0  0  0
  153.9465  142.2765  161.2987 H   0  0  0  0  0  0  0  0  0  0  0  0
  153.0861  140.7822  160.9803 H   0  0  0  0  0  0  0  0  0  0  0  0
  1  2  1  0  0  0  0
  1 26  1  0  0  0  0
  1 27  1  0  0  0  0
  1 28  1  0  0  0  0
  2  3  1  0  0  0  0
  3  4  1  0  0  0  0
  3 29  1  0  0  0  0
  3 30  1  0  0  0  0
  4  5  1  0  0  0  0
  4 31  1  0  0  0  0
  4 32  1  0  0  0  0
  5 24  1  0  0  0  0
  5  6  1  0  0  0  0
  6  7  1  0  0  0  0
  6  8  2  0  0  0  0
  7 33  1  0  0  0  0
  7 34  1  0  0  0  0
  8  9  1  0  0  0  0
  8 35  1  0  0  0  0
  9 10  2  0  0  0  0
  9 11  1  0  0  0  0
 11 12  1  0  0  0  0
 11 24  1  0  0  0  0
 12 13  1  0  0  0  0
 12 36  1  0  0  0  0
 12 37  1  0  0  0  0
 13 14  2  0  0  0  0
 13 15  1  0  0  0  0
 15 16  1  0  0  0  0
 15 38  1  0  0  0  0
 16 22  1  0  0  0  0
 16 17  1  0  0  0  0
 16 39  1  0  0  0  0
 17 18  1  0  0  0  0
 17 40  1  0  0  0  0
 17 41  1  0  0  0  0
 18 19  1  0  0  0  0
 18 42  1  0  0  0  0
 18 43  1  0  0  0  0
 19 20  1  0  0  0  0
 19 44  1  0  0  0  0
 19 45  1  0  0  0  0
 20 21  1  0  0  0  0
 20 22  1  0  0  0  0
 20 46  1  0  0  0  0
 21 47  1  0  0  0  0
 21 48  1  0  0  0  0
 21 49  1  0  0  0  0
 22 23  1  0  0  0  0
 22 50  1  0  0  0  0
 23 51  1  0  0  0  0
 23 52  1  0  0  0  0
 23 53  1  0  0  0  0
 24 25  2  0  0  0  0
M  END
> <s_m_source_file>
AV-unprocessed.smi

> <i_m_source_file_index>
415

> <i_lp_mmshare_version>
43012

> <i_f3d_flags>
0

> <s_epik_input>
W0NIM11PW0NIMl1bQ0gyXW4xYyhbTkgyXSlbY0hdYyg9TyluKGMxPU8pW0NIMl1DKD1PKVtOSF1bQ0BASF0yW0NIMl1bQ0gyXVtDSDJdW0NAQEhdKFtDSDNdKVtDQEhdMltDSDNd

> <s_epik_cmdline>
J2VwaWtfcHl0aG9uJywgJy1waCcsICc3LjAnLCAnLXRuJywgJzgnLCAnLW1hJywgJzIwMCcsICctbWV0YWxfYmluZGluZycsICctaW1hZScsICc8aW5maWxlLm1hZT4nLCAnLW9tYWUnLCAnPG91dGZpbGUubWFlPic=

> <r_lp_tautomer_probability>
1

> <r_epik_Ionization_Penalty>
8.6647e-06

> <r_epik_Ionization_Penalty_Charging>
1.81162e-08

> <r_epik_Ionization_Penalty_Neutral>
8.64658e-06

> <r_epik_State_Penalty>
-0

> <r_epik_Charging_Adjusted_Penalty>
1.81162e-08

> <i_epik_Tot_Q>
0

> <i_epik_Tot_abs_Q>
0

> <r_epik_Metal_State_Penalty>
-0

> <b_epik_Metal_Only>
0

> <s_lp_Force_Field>
OPLS_2005

> <r_lp_Energy>
23.489

> <b_lp_Chiralities_Consistent>
1

> <s_lp_Variant>
AV-unprocessed.smi:415-1

> <Gold.Version>
5.8.1

> <Gold.Id.Protein>
6NUR|6NUR_protein|mol2

> <Gold.PLP.Fitness>
46.3547

> <Gold.PLP.PLP>
-41.2133

> <Gold.PLP.part.hbond>
-1.9493

> <Gold.PLP.part.metal>
0.0000

> <Gold.PLP.part.buried>
-3.5896

> <Gold.PLP.part.nonpolar>
-35.9833

> <Gold.PLP.part.repulsive>
0.1931

> <Gold.PLP.ligand.clash>
0.0000

> <Gold.PLP.ligand.torsion>
0.4455

> <Gold.PLP.Chemscore.Hbond>
1.9913

> <Gold.PLP.Chemscore.CHOScore>
0.0000

> <Gold.PLP.Chemscore.Metal>
0.0000

> <Gold.Chemscore.Hbonds>
donor molecule, donor type, donor heavy atom, donor atom, acceptor molecule, acceptor atom, score
      P1  H  7997  8009       L1    14  1.00
      P1  H 10752 10763       L1    10  0.70

> <Gold.PLP.Chemscore.Internal.Correction>
0.0587

> <Gold.Rescore>
     Score         DG    S(hbond)    S(metal)    S(lipo)     H(rot)  DE(clash)    DE(int)     intcor
     17.46     -18.83       1.99        0.00     106.85       2.26       0.00       1.36       ----

> <Gold.Chemscore.Fitness>
17.4568

> <Gold.Chemscore.DG>
-18.8261

> <Gold.Chemscore.ZeroCoef>
-5.4800

> <Gold.Chemscore.Hbond>
1.9885

> <Gold.Chemscore.Metal>
0.0000

> <Gold.Chemscore.Lipo>
106.8506

> <Gold.Chemscore.Internal_Hbond>
0.0000

> <Gold.Chemscore.DEClash>
0.0044

> <Gold.Chemscore.DEInternal>
1.3649

> <Gold.Chemscore.Rot>
2.2645

> <Gold.Chemscore.Internal.Correction>
   9.000000E+99

> <Gold.Chemscore.Hbonds>
donor molecule, donor type, donor heavy atom, donor atom, acceptor molecule, acceptor atom, score
      P1  H  7997  8009       L1    14  0.99
      P1  H 10752 10763       L1    10  0.24

> <Gold.Chemscore.Hbond.Weighted>
-6.6417

> <Gold.Chemscore.Metal.Weighted>
-0.0000

> <Gold.Chemscore.Lipo.Weighted>
-12.5015

> <Gold.Chemscore.Internal_Hbond.Weighted>
0.0000

> <Gold.Chemscore.DEClash.Weighted>
0.0044

> <Gold.Chemscore.DEInternal.Weighted>
1.3649

> <Gold.Chemscore.Rot.Weighted>
5.7972

> <Gold.Chemscore.Internal.Correction.Weighted>
   9.000000E+99

> <Gold.Protein.RotatedTorsions>
[ 6907 6896 6895 6894 ] final  -84.70 input  -60.11 | X-H torsion
[ 7974 7965 7964 7962 ] final  120.00 input  175.53 | X-H torsion
[ 8008 7997 7996 7995 ] final  172.28 input   59.86 | X-H torsion
[ 10167 10162 10161 10158 ] final  110.58 input  -65.29 | X-H torsion
[ 10718 10713 10712 10709 ] final   16.81 input   66.30 | X-H torsion
[ 10763 10752 10751 10750 ] final  120.40 input  -60.55 | X-H torsion
[ 11005 11000 10999 10996 ] final   15.32 input  -57.11 | X-H torsion

> <Gold.Protein.ActiveResidues>
 VAL166  LYS551  ARG553  GLY616  TRP617  ASP618  TYR619  PRO620  LYS621  CYS622 
 ASP623  PHE694  ASN695  SER759  ASP760  ASP761  ALA762  ILE779  LEU786  VAL792 
 PHE793  MET794  SER795  GLU796  ALA797  LYS798  CYS799  TRP800  GLU811  SER814 

> <Gold.Protein.RotatedAtoms>
  150.6874  134.3318  159.4830 H   0  0  0  0  0  0  0  0  0  0  0  0  # atno 6907 bound_to 6896
  152.1182  134.9222  160.0573 H   0  0  0  0  0  0  0  0  0  0  0  0  # atno 6908 bound_to 6896
  152.0439  133.3954  159.4385 H   0  0  0  0  0  0  0  0  0  0  0  0  # atno 6909 bound_to 6896
  145.1364  139.3295  143.4639 H   0  0  0  0  0  0  0  0  0  0  0  0  # atno 7974 bound_to 7965
  156.1189  140.1490  156.9232 H   0  0  0  0  0  0  0  0  0  0  0  0  # atno 8008 bound_to 7997
  154.4821  140.0876  156.7444 H   0  0  0  0  0  0  0  0  0  0  0  0  # atno 8009 bound_to 7997
  155.4463  140.3433  155.4298 H   0  0  0  0  0  0  0  0  0  0  0  0  # atno 8010 bound_to 7997
  139.6677  144.7127  151.1745 H   0  0  0  0  0  0  0  0  0  0  0  0  # atno 10167 bound_to 10162
  157.0732  130.6357  149.5810 H   0  0  0  0  0  0  0  0  0  0  0  0  # atno 10718 bound_to 10713
  153.5980  135.3453  155.2935 H   0  0  0  0  0  0  0  0  0  0  0  0  # atno 10763 bound_to 10752
  154.8641  135.4220  154.2444 H   0  0  0  0  0  0  0  0  0  0  0  0  # atno 10764 bound_to 10752
  153.3266  135.7041  153.7055 H   0  0  0  0  0  0  0  0  0  0  0  0  # atno 10765 bound_to 10752
  140.4597  134.1140  155.7714 H   0  0  0  0  0  0  0  0  0  0  0  0  # atno 11005 bound_to 11000
  146.3509  140.1383  142.8595 LP  0  0  0  0  0  0  0  0  0  0  0  0  # atno 17320 bound_to 7965
  145.0580  140.9066  143.4956 LP  0  0  0  0  0  0  0  0  0  0  0  0  # atno 17321 bound_to 7965
  140.7606  143.5893  150.8813 LP  0  0  0  0  0  0  0  0  0  0  0  0  # atno 17342 bound_to 10162
  139.9556  143.6222  152.3017 LP  0  0  0  0  0  0  0  0  0  0  0  0  # atno 17343 bound_to 10162
  155.9944  130.5008  150.7420 LP  0  0  0  0  0  0  0  0  0  0  0  0  # atno 17370 bound_to 10713
  157.4861  131.0907  151.0481 LP  0  0  0  0  0  0  0  0  0  0  0  0  # atno 17371 bound_to 10713
  141.1627  133.8762  157.1803 LP  0  0  0  0  0  0  0  0  0  0  0  0  # atno 17394 bound_to 11000
  139.9953  135.0049  157.0069 LP  0  0  0  0  0  0  0  0  0  0  0  0  # atno 17395 bound_to 11000

$$$$
