#       Name:                AV-unprocessed.smi:2273
#       Creating user name   scv26
#       Creation time:       Fri Mar 27 12:37:56 2020


#       File generated by GOLD software.
#

@<TRIPOS>MOLECULE
AV-unprocessed.smi:2273
    59    60     1
SMALL
NO_CHARGES


@<TRIPOS>ATOM
      1 ****         6.6315   2.6806  -3.5158 C.3            1 S1                 0.0000
      2 ****         6.8089   1.8069  -4.7648 C.3            1 S1                 0.0000
      3 ****         6.0431   0.4550  -4.7740 C.3            1 S1                 0.0000
      4 ****         6.3848  -0.3411  -6.0621 C.3            1 S1                 0.0000
      5 ****         7.8682  -0.7049  -6.2308 C.3            1 S1                 0.0000
      6 ****         4.5057   0.6521  -4.6039 C.3            1 S1                 0.0000
      7 ****         4.0476   0.6023  -3.1279 C.3            1 S1                 0.0000
      8 ****         2.5331   0.8551  -3.0163 C.3            1 S1                 0.0000
      9 ****         2.0721   0.7372  -1.6311 N.am           1 S1                 0.0000
     10 ****         2.2174   1.6245  -0.6300 C.2            1 S1                 0.0000
     11 ****         2.8085   2.6902  -0.7969 O.2            1 S1                 0.0000
     12 ****         1.6815   1.2288   0.5426 N.am           1 S1                 0.0000
     13 ****         1.6893   1.9368   1.7537 C.2            1 S1                 0.0000
     14 ****         2.1260   1.3065   2.8756 C.2            1 S1                 0.0000
     15 ****         2.6391  -0.1246   2.8410 C.3            1 S1                 0.0000
     16 ****         2.1198   2.0235   4.1337 C.2            1 S1                 0.0000
     17 ****         1.6728   3.2858   4.1703 C.2            1 S1                 0.0000
     18 ****         1.1923   3.9308   3.0217 N.am           1 S1                 0.0000
     19 ****         0.7062   5.3053   3.1685 C.3            1 S1                 0.0000
     20 ****         1.1361   3.3121   1.8073 C.2            1 S1                 0.0000
     21 ****         0.6309   3.8774   0.8347 O.2            1 S1                 0.0000
     22 ****         1.7954  -0.1578  -3.9010 C.3            1 S1                 0.0000
     23 ****         2.3686  -0.1420  -5.3261 C.3            1 S1                 0.0000
     24 ****         3.7743  -0.3683  -5.2860 O.3            1 S1                 0.0000
     25 ****         7.3141   3.5305  -3.5447 H              1 S1                 0.0000
     26 ****         6.8442   2.1204  -2.6051 H              1 S1                 0.0000
     27 ****         5.6223   3.0865  -3.4489 H              1 S1                 0.0000
     28 ****         6.5333   2.3892  -5.6449 H              1 S1                 0.0000
     29 ****         7.8772   1.6171  -4.8563 H              1 S1                 0.0000
     30 ****         6.4000  -0.1446  -3.9354 H              1 S1                 0.0000
     31 ****         5.8410  -1.2859  -6.0622 H              1 S1                 0.0000
     32 ****         6.0417   0.2067  -6.9408 H              1 S1                 0.0000
     33 ****         7.9994  -1.3890  -7.0694 H              1 S1                 0.0000
     34 ****         8.2589  -1.1972  -5.3397 H              1 S1                 0.0000
     35 ****         8.4840   0.1703  -6.4357 H              1 S1                 0.0000
     36 ****         4.2312   1.6108  -5.0482 H              1 S1                 0.0000
     37 ****         4.2870  -0.3761  -2.7085 H              1 S1                 0.0000
     38 ****         4.5881   1.3236  -2.5214 H              1 S1                 0.0000
     39 ****         2.3054   1.8562  -3.3879 H              1 S1                 0.0000
     40 ****         1.5800  -0.1154  -1.4053 H              1 S1                 0.0000
     41 ****         1.3299   0.2840   0.5899 H              1 S1                 0.0000
     42 ****         2.9802  -0.4462   3.8253 H              1 S1                 0.0000
     43 ****         3.4777  -0.2150   2.1497 H              1 S1                 0.0000
     44 ****         1.8500  -0.8052   2.5198 H              1 S1                 0.0000
     45 ****         2.4796   1.5523   5.0367 H              1 S1                 0.0000
     46 ****         1.6469   3.8716   5.0776 H              1 S1                 0.0000
     47 ****         1.2167   5.9710   2.4708 H              1 S1                 0.0000
     48 ****         0.8675   5.7044   4.1704 H              1 S1                 0.0000
     49 ****        -0.3642   5.3552   2.9648 H              1 S1                 0.0000
     50 ****         1.9011  -1.1605  -3.4840 H              1 S1                 0.0000
     51 ****         0.7273   0.0610  -3.9236 H              1 S1                 0.0000
     52 ****         1.9034  -0.9255  -5.9241 H              1 S1                 0.0000
     53 ****         2.1549   0.8057  -5.8227 H              1 S1                 0.0000
     54 ****         3.1940   2.9133  -1.6923 LP             1 S1                 0.0000
     55 ****         2.9035   3.3336  -0.0373 LP             1 S1                 0.0000
     56 ****         0.5793   3.4067  -0.0461 LP             1 S1                 0.0000
     57 ****         0.2728   4.8065   0.9268 LP             1 S1                 0.0000
     58 ****         3.9400  -1.2383  -4.8217 LP             1 S1                 0.0000
     59 ****         4.1114  -0.4225  -6.2259 LP             1 S1                 0.0000
@<TRIPOS>BOND
    1    1    2 1     
    2    1   25 1     
    3    1   26 1     
    4    1   27 1     
    5    2    3 1     
    6    2   28 1     
    7    2   29 1     
    8    3    4 1     
    9    3    6 1     
   10    3   30 1     
   11    4    5 1     
   12    4   31 1     
   13    4   32 1     
   14    5   33 1     
   15    5   34 1     
   16    5   35 1     
   17    6   24 1     
   18    6    7 1     
   19    6   36 1     
   20    7    8 1     
   21    7   37 1     
   22    7   38 1     
   23    8    9 1     
   24    8   22 1     
   25    8   39 1     
   26    9   10 am    
   27    9   40 1     
   28   10   11 2     
   29   10   12 am    
   30   12   13 1     
   31   12   41 1     
   32   13   20 1     
   33   13   14 2     
   34   14   15 1     
   35   14   16 1     
   36   15   42 1     
   37   15   43 1     
   38   15   44 1     
   39   16   17 2     
   40   16   45 1     
   41   17   18 1     
   42   17   46 1     
   43   18   19 1     
   44   18   20 am    
   45   19   47 1     
   46   19   48 1     
   47   19   49 1     
   48   20   21 2     
   49   22   23 1     
   50   22   50 1     
   51   22   51 1     
   52   23   24 1     
   53   23   52 1     
   54   23   53 1     
   55   11   54 1     
   56   11   55 1     
   57   21   56 1     
   58   21   57 1     
   59   24   58 1     
   60   24   59 1     
@<TRIPOS>SUBSTRUCTURE
      1 S1             1
@<TRIPOS>SET
LONE_PAIRS      STATIC     ATOMS    <user>   **** ""
6 54 55 56 57 58 59
DONOR_HYDROGENS      STATIC     ATOMS    <user>   **** ""
2 40 41
ATOM$BLUE        STATIC     ATOMS    COLORGROUP SYSTEM
6 54 55 56 57 58 59
ATOM$RED        STATIC     ATOMS    COLORGROUP SYSTEM
2 40 41
