AV-unprocessed.smi:1768|AV-procd|sdf|7144|dock6
  -GOLD-   22720 8383D 1   1.00000     0.00000
 Structure written by MMmdl.
 33 34  0  0  0  0  0  0  0  0  1 V2000
  152.5259  139.6515  158.3070 C   0  0  0  0  0  0  0  0  0  0  0  0
  151.9603  139.4226  156.9472 C   0  0  0  0  0  0  0  0  0  0  0  0
  152.6415  139.6812  155.8242 N   0  0  0  0  0  0  0  0  0  0  0  0
  151.9084  139.3837  154.6842 N   0  0  0  0  0  0  0  0  0  0  0  0
  150.6917  138.9079  154.9824 C   0  0  0  0  0  0  0  0  0  0  0  0
  149.7362  138.5174  154.0078 N   0  0  0  0  0  0  0  0  0  0  0  0
  148.4525  138.9019  153.8986 C   0  0  0  0  0  0  0  0  0  0  0  0
  147.8718  139.6671  154.6688 O   0  0  0  0  0  0  0  0  0  0  0  0
  147.8717  138.3389  152.8292 N   0  0  0  0  0  0  0  0  0  0  0  0
  146.4816  138.5199  152.4161 C   0  0  1  0  0  0  0  0  0  0  0  0
  146.4588  138.9794  150.9501 C   0  0  0  0  0  0  0  0  0  0  0  0
  145.7085  137.2052  152.6381 C   0  0  2  0  0  0  0  0  0  0  0  0
  145.6367  136.2930  151.4118 C   0  0  0  0  0  0  0  0  0  0  0  0
  144.3864  135.4933  151.6957 C   0  0  0  0  0  0  0  0  0  0  0  0
  143.4789  136.5513  152.3135 C   0  0  0  0  0  0  0  0  0  0  0  0
  144.3456  137.4769  152.9637 O   0  0  0  0  0  0  0  0  0  0  0  0
  150.3389  138.7870  156.6976 S   0  0  0  0  0  0  0  0  0  0  0  0
  153.5338  140.0629  158.2412 H   0  0  0  0  0  0  0  0  0  0  0  0
  152.5674  138.7104  158.8552 H   0  0  0  0  0  0  0  0  0  0  0  0
  151.8978  140.3510  158.8584 H   0  0  0  0  0  0  0  0  0  0  0  0
  150.0726  137.8766  153.3044 H   0  0  0  0  0  0  0  0  0  0  0  0
  148.4316  137.7217  152.2599 H   0  0  0  0  0  0  0  0  0  0  0  0
  146.0069  139.2982  153.0162 H   0  0  0  0  0  0  0  0  0  0  0  0
  145.4415  139.1713  150.6090 H   0  0  0  0  0  0  0  0  0  0  0  0
  146.8960  138.2287  150.2908 H   0  0  0  0  0  0  0  0  0  0  0  0
  147.0227  139.9040  150.8222 H   0  0  0  0  0  0  0  0  0  0  0  0
  146.1407  136.6481  153.4714 H   0  0  0  0  0  0  0  0  0  0  0  0
  145.5034  136.8794  150.5014 H   0  0  0  0  0  0  0  0  0  0  0  0
  146.5229  135.6693  151.2916 H   0  0  0  0  0  0  0  0  0  0  0  0
  143.9587  135.0305  150.8059 H   0  0  0  0  0  0  0  0  0  0  0  0
  144.6003  134.7087  152.4227 H   0  0  0  0  0  0  0  0  0  0  0  0
  142.9280  137.0820  151.5361 H   0  0  0  0  0  0  0  0  0  0  0  0
  142.7562  136.1248  153.0096 H   0  0  0  0  0  0  0  0  0  0  0  0
  1  2  1  0  0  0  0
  1 18  1  0  0  0  0
  1 19  1  0  0  0  0
  1 20  1  0  0  0  0
  2 17  1  0  0  0  0
  2  3  2  0  0  0  0
  3  4  1  0  0  0  0
  4  5  2  0  0  0  0
  5  6  1  0  0  0  0
  5 17  1  0  0  0  0
  6  7  1  0  0  0  0
  6 21  1  0  0  0  0
  7  8  2  0  0  0  0
  7  9  1  0  0  0  0
  9 10  1  0  0  0  0
  9 22  1  0  0  0  0
 10 11  1  0  0  0  0
 10 12  1  0  0  0  0
 10 23  1  0  0  0  0
 11 24  1  0  0  0  0
 11 25  1  0  0  0  0
 11 26  1  0  0  0  0
 12 16  1  0  0  0  0
 12 13  1  0  0  0  0
 12 27  1  0  0  0  0
 13 14  1  0  0  0  0
 13 28  1  0  0  0  0
 13 29  1  0  0  0  0
 14 15  1  0  0  0  0
 14 30  1  0  0  0  0
 14 31  1  0  0  0  0
 15 16  1  0  0  0  0
 15 32  1  0  0  0  0
 15 33  1  0  0  0  0
M  END
> <s_m_source_file>
AV-unprocessed.smi

> <i_m_source_file_index>
1768

> <i_lp_mmshare_version>
43012

> <i_f3d_flags>
0

> <s_epik_input>
W0NIM11jMW5uYyhzMSlbTkhdQyg9TylbTkhdW0NASF0oW0NIM10pW0NAQEhdMltDSDJdW0NIMl1bQ0gyXU8y

> <s_epik_cmdline>
J2VwaWtfcHl0aG9uJywgJy1waCcsICc3LjAnLCAnLXRuJywgJzgnLCAnLW1hJywgJzIwMCcsICctbWV0YWxfYmluZGluZycsICctaW1hZScsICc8aW5maWxlLm1hZT4nLCAnLW9tYWUnLCAnPG91dGZpbGUubWFlPic=

> <r_lp_tautomer_probability>
1

> <r_epik_Ionization_Penalty>
0.000523083

> <r_epik_Ionization_Penalty_Charging>
0

> <r_epik_Ionization_Penalty_Neutral>
0.000523083

> <r_epik_State_Penalty>
-0

> <r_epik_Charging_Adjusted_Penalty>
0

> <i_epik_Tot_Q>
0

> <i_epik_Tot_abs_Q>
0

> <r_epik_Metal_State_Penalty>
0.223408

> <b_epik_Metal_Only>
0

> <s_lp_Force_Field>
OPLS_2005

> <r_lp_Energy>
16.97

> <b_lp_Chiralities_Consistent>
1

> <s_lp_Variant>
AV-unprocessed.smi:1768-2

> <Gold.Version>
5.8.1

> <Gold.Id.Protein>
6NUR|6NUR_protein|mol2

> <Gold.PLP.Fitness>
32.5401

> <Gold.PLP.PLP>
-26.1291

> <Gold.PLP.part.hbond>
-4.7785

> <Gold.PLP.part.metal>
0.0000

> <Gold.PLP.part.buried>
-0.0439

> <Gold.PLP.part.nonpolar>
-21.7208

> <Gold.PLP.part.repulsive>
0.8509

> <Gold.PLP.ligand.clash>
0.0000

> <Gold.PLP.ligand.torsion>
1.3749

> <Gold.PLP.Chemscore.Hbond>
3.0494

> <Gold.PLP.Chemscore.CHOScore>
0.0000

> <Gold.PLP.Chemscore.Metal>
0.0000

> <Gold.Chemscore.Hbonds>
donor molecule, donor type, donor heavy atom, donor atom, acceptor molecule, acceptor atom, score
      L1  H     6    21       P1  7948  0.03
      L1  H     9    22       P1  7948  1.00
      P1  H  7989  7998       L1     4  0.98
      P1  H  7997  8009       L1     3  1.00

> <Gold.PLP.Chemscore.Internal.Correction>
0.0124

> <Gold.Rescore>
     Score         DG    S(hbond)    S(metal)    S(lipo)     H(rot)  DE(clash)    DE(int)     intcor
     15.63     -17.24       2.73        0.00      50.86       1.29       0.62       0.99       ----

> <Gold.Chemscore.Fitness>
15.6317

> <Gold.Chemscore.DG>
-17.2377

> <Gold.Chemscore.ZeroCoef>
-5.4800

> <Gold.Chemscore.Hbond>
2.7287

> <Gold.Chemscore.Metal>
0.0000

> <Gold.Chemscore.Lipo>
50.8645

> <Gold.Chemscore.Internal_Hbond>
0.0000

> <Gold.Chemscore.DEClash>
0.6158

> <Gold.Chemscore.DEInternal>
0.9902

> <Gold.Chemscore.Rot>
1.2919

> <Gold.Chemscore.Internal.Correction>
   9.000000E+99

> <Gold.Chemscore.Hbonds>
donor molecule, donor type, donor heavy atom, donor atom, acceptor molecule, acceptor atom, score
      L1  H     6    21       P1  7948  0.03
      L1  H     9    22       P1  7948  0.96
      P1  H  7989  7998       L1     4  0.50
      P1  H  7997  8009       L1     3  0.88

> <Gold.Chemscore.Hbond.Weighted>
-9.1137

> <Gold.Chemscore.Metal.Weighted>
-0.0000

> <Gold.Chemscore.Lipo.Weighted>
-5.9511

> <Gold.Chemscore.Internal_Hbond.Weighted>
0.0000

> <Gold.Chemscore.DEClash.Weighted>
0.6158

> <Gold.Chemscore.DEInternal.Weighted>
0.9902

> <Gold.Chemscore.Rot.Weighted>
3.3072

> <Gold.Chemscore.Internal.Correction.Weighted>
   9.000000E+99

> <Gold.Protein.RotatedTorsions>
[ 6907 6896 6895 6894 ] final  -54.60 input  -60.11 | X-H torsion
[ 7974 7965 7964 7962 ] final  -54.67 input  175.53 | X-H torsion
[ 8008 7997 7996 7995 ] final -148.19 input   59.86 | X-H torsion
[ 10167 10162 10161 10158 ] final -101.92 input  -65.29 | X-H torsion
[ 10718 10713 10712 10709 ] final -138.96 input   66.30 | X-H torsion
[ 10763 10752 10751 10750 ] final  -44.26 input  -60.55 | X-H torsion
[ 11005 11000 10999 10996 ] final  -82.95 input  -57.11 | X-H torsion

> <Gold.Protein.ActiveResidues>
 VAL166  LYS551  ARG553  GLY616  TRP617  ASP618  TYR619  PRO620  LYS621  CYS622 
 ASP623  PHE694  ASN695  SER759  ASP760  ASP761  ALA762  ILE779  LEU786  VAL792 
 PHE793  MET794  SER795  GLU796  ALA797  LYS798  CYS799  TRP800  GLU811  SER814 

> <Gold.Protein.RotatedAtoms>
  150.8324  134.7583  159.6864 H   0  0  0  0  0  0  0  0  0  0  0  0  # atno 6907 bound_to 6896
  152.4426  134.5556  159.9889 H   0  0  0  0  0  0  0  0  0  0  0  0  # atno 6908 bound_to 6896
  151.5714  133.3352  159.3026 H   0  0  0  0  0  0  0  0  0  0  0  0  # atno 6909 bound_to 6896
  145.8830  140.8130  142.9830 H   0  0  0  0  0  0  0  0  0  0  0  0  # atno 7974 bound_to 7965
  155.5877  140.0649  157.2767 H   0  0  0  0  0  0  0  0  0  0  0  0  # atno 8008 bound_to 7997
  154.4314  140.1841  156.1088 H   0  0  0  0  0  0  0  0  0  0  0  0  # atno 8009 bound_to 7997
  156.0257  140.3312  155.7089 H   0  0  0  0  0  0  0  0  0  0  0  0  # atno 8010 bound_to 7997
  140.2362  143.3571  152.0843 H   0  0  0  0  0  0  0  0  0  0  0  0  # atno 10167 bound_to 10162
  156.3053  130.7452  151.1514 H   0  0  0  0  0  0  0  0  0  0  0  0  # atno 10718 bound_to 10713
  154.0092  135.6683  153.4764 H   0  0  0  0  0  0  0  0  0  0  0  0  # atno 10763 bound_to 10752
  153.0628  135.5018  154.8129 H   0  0  0  0  0  0  0  0  0  0  0  0  # atno 10764 bound_to 10752
  154.7006  135.3078  154.9310 H   0  0  0  0  0  0  0  0  0  0  0  0  # atno 10765 bound_to 10752
  141.1660  133.7270  156.8648 H   0  0  0  0  0  0  0  0  0  0  0  0  # atno 11005 bound_to 11000
  144.6728  140.1412  143.7437 LP  0  0  0  0  0  0  0  0  0  0  0  0  # atno 17320 bound_to 7965
  145.9001  139.2425  143.1498 LP  0  0  0  0  0  0  0  0  0  0  0  0  # atno 17321 bound_to 7965
  139.5093  144.6865  151.5874 LP  0  0  0  0  0  0  0  0  0  0  0  0  # atno 17342 bound_to 10162
  140.6148  143.9368  150.6480 LP  0  0  0  0  0  0  0  0  0  0  0  0  # atno 17343 bound_to 10162
  157.7378  131.0548  150.5333 LP  0  0  0  0  0  0  0  0  0  0  0  0  # atno 17370 bound_to 10713
  156.5466  130.4221  149.6128 LP  0  0  0  0  0  0  0  0  0  0  0  0  # atno 17371 bound_to 10713
  140.1823  134.9024  157.2963 LP  0  0  0  0  0  0  0  0  0  0  0  0  # atno 17394 bound_to 11000
  140.2381  134.3828  155.7492 LP  0  0  0  0  0  0  0  0  0  0  0  0  # atno 17395 bound_to 11000

$$$$
