#       Name:                AV-unprocessed.smi:1713
#       Creating user name   scv26
#       Creation time:       Fri Mar 27 08:11:03 2020


#       File generated by GOLD software.
#

@<TRIPOS>MOLECULE
AV-unprocessed.smi:1713
    43    44     1
SMALL
NO_CHARGES


@<TRIPOS>ATOM
      1 ****        -6.4873  -2.3837   0.5554 C.3            1 S1                 0.0000
      2 ****        -5.7422  -2.2480  -0.7775 C.3            1 S1                 0.0000
      3 ****        -4.5352  -1.4578  -0.6363 N.pl3          1 S1                 0.0000
      4 ****        -3.2514  -1.8989  -0.3846 C.2            1 S1                 0.0000
      5 ****        -2.4775  -0.7791  -0.3309 C.2            1 S1                 0.0000
      6 ****        -1.0815  -0.7717  -0.0868 N.am           1 S1                 0.0000
      7 ****        -0.2722   0.2981  -0.0292 C.2            1 S1                 0.0000
      8 ****        -0.6276   1.4645  -0.1977 O.2            1 S1                 0.0000
      9 ****         0.9920  -0.0623   0.2350 N.am           1 S1                 0.0000
     10 ****         2.1211   0.8541   0.3659 C.3            1 S1                 0.0000
     11 ****         2.6850   1.2256  -1.0217 C.3            1 S1                 0.0000
     12 ****         3.9244   2.1273  -0.9025 C.3            1 S1                 0.0000
     13 ****         5.0049   1.4724  -0.0253 C.3            1 S1                 0.0000
     14 ****         6.0966   2.3561   0.1184 O.3            1 S1                 0.0000
     15 ****         4.4473   1.1133   1.3627 C.3            1 S1                 0.0000
     16 ****         3.2100   0.2088   1.2445 C.3            1 S1                 0.0000
     17 ****        -3.3598   0.3146  -0.5597 C.2            1 S1                 0.0000
     18 ****        -4.6023  -0.1077  -0.7412 N.2            1 S1                 0.0000
     19 ****        -7.3899  -2.9830   0.4361 H              1 S1                 0.0000
     20 ****        -6.7837  -1.4085   0.9428 H              1 S1                 0.0000
     21 ****        -5.8632  -2.8678   1.3073 H              1 S1                 0.0000
     22 ****        -5.4706  -3.2326  -1.1599 H              1 S1                 0.0000
     23 ****        -6.3853  -1.7835  -1.5264 H              1 S1                 0.0000
     24 ****        -3.0095  -2.9447  -0.2661 H              1 S1                 0.0000
     25 ****        -0.6558  -1.6743   0.0654 H              1 S1                 0.0000
     26 ****         1.1895  -1.0446   0.3579 H              1 S1                 0.0000
     27 ****         1.7821   1.7648   0.8638 H              1 S1                 0.0000
     28 ****         2.9490   0.3191  -1.5681 H              1 S1                 0.0000
     29 ****         1.9231   1.7322  -1.6153 H              1 S1                 0.0000
     30 ****         4.3237   2.3378  -1.8955 H              1 S1                 0.0000
     31 ****         3.6318   3.0879  -0.4761 H              1 S1                 0.0000
     32 ****         5.3683   0.5678  -0.5145 H              1 S1                 0.0000
     33 ****         5.7910   3.1459   0.5378 H              1 S1                 0.0000
     34 ****         5.2136   0.6140   1.9571 H              1 S1                 0.0000
     35 ****         4.1793   2.0227   1.9024 H              1 S1                 0.0000
     36 ****         2.8130  -0.0000   2.2387 H              1 S1                 0.0000
     37 ****         3.5060  -0.7524   0.8217 H              1 S1                 0.0000
     38 ****        -3.1576   1.3744  -0.5985 H              1 S1                 0.0000
     39 ****        -1.5858   1.6717  -0.3949 LP             1 S1                 0.0000
     40 ****         0.0419   2.2048  -0.1374 LP             1 S1                 0.0000
     41 ****         6.4728   2.5762  -0.7816 LP             1 S1                 0.0000
     42 ****         6.8048   1.9284   0.6802 LP             1 S1                 0.0000
     43 ****        -5.4141   0.4489  -0.9174 LP             1 S1                 0.0000
@<TRIPOS>BOND
    1    1    2 1     
    2    1   19 1     
    3    1   20 1     
    4    1   21 1     
    5    2    3 1     
    6    2   22 1     
    7    2   23 1     
    8    3   18 1     
    9    3    4 1     
   10    4    5 2     
   11    4   24 1     
   12    5    6 1     
   13    5   17 1     
   14    6    7 am    
   15    6   25 1     
   16    7    8 2     
   17    7    9 am    
   18    9   10 1     
   19    9   26 1     
   20   10   16 1     
   21   10   11 1     
   22   10   27 1     
   23   11   12 1     
   24   11   28 1     
   25   11   29 1     
   26   12   13 1     
   27   12   30 1     
   28   12   31 1     
   29   13   14 1     
   30   13   15 1     
   31   13   32 1     
   32   14   33 1     
   33   15   16 1     
   34   15   34 1     
   35   15   35 1     
   36   16   36 1     
   37   16   37 1     
   38   17   18 2     
   39   17   38 1     
   40    8   39 1     
   41    8   40 1     
   42   14   41 1     
   43   14   42 1     
   44   18   43 1     
@<TRIPOS>SUBSTRUCTURE
      1 S1             1
@<TRIPOS>SET
LONE_PAIRS      STATIC     ATOMS    <user>   **** ""
5 39 40 41 42 43
DONOR_HYDROGENS      STATIC     ATOMS    <user>   **** ""
3 25 26 33
ATOM$BLUE        STATIC     ATOMS    COLORGROUP SYSTEM
5 39 40 41 42 43
ATOM$RED        STATIC     ATOMS    COLORGROUP SYSTEM
3 25 26 33
