#       Name:                AV-unprocessed.smi:2046
#       Creating user name   scv26
#       Creation time:       Fri Mar 27 10:58:03 2020


#       File generated by GOLD software.
#

@<TRIPOS>MOLECULE
AV-unprocessed.smi:2046
    36    37     1
SMALL
NO_CHARGES


@<TRIPOS>ATOM
      1 ****         2.1824   0.1452  -0.0671 O.2            1 S1                 0.0000
      2 ****         1.6471  -0.9230   0.2387 C.2            1 S1                 0.0000
      3 ****         2.2768  -2.0975   0.4705 N.pl3          1 S1                -1.0000
      4 ****         3.6131  -2.1769   0.3595 C.2            1 S1                 0.0000
      5 ****         4.4264  -2.1358   1.4270 N.2            1 S1                 0.0000
      6 ****         5.7703  -2.2404   1.0940 N.2            1 S1                 0.0000
      7 ****         5.9361  -2.3679  -0.2224 C.2            1 S1                 0.0000
      8 ****         4.4666  -2.3727  -1.1741 S.3            1 S1                 0.0000
      9 ****         0.3132  -0.9910   0.3686 N.am           1 S1                 0.0000
     10 ****        -0.6355   0.1068   0.1686 C.3            1 S1                 0.0000
     11 ****        -1.9575  -0.2662   0.8856 C.3            1 S1                 0.0000
     12 ****        -3.2111   0.5426   0.4828 C.3            1 S1                 0.0000
     13 ****        -2.9994   2.0658   0.3638 C.3            1 S1                 0.0000
     14 ****        -1.9647   2.5457  -0.6870 C.3            1 S1                 0.0000
     15 ****        -1.5391   1.5229  -1.6427 N.am           1 S1                 0.0000
     16 ****        -0.9071   0.3791  -1.3284 C.2            1 S1                 0.0000
     17 ****        -0.5848  -0.4328  -2.1951 O.2            1 S1                 0.0000
     18 ****         6.9293  -2.4623  -0.6352 H              1 S1                 0.0000
     19 ****        -0.0788  -1.8881   0.6138 H              1 S1                 0.0000
     20 ****        -0.2171   1.0025   0.6293 H              1 S1                 0.0000
     21 ****        -2.1793  -1.3230   0.7285 H              1 S1                 0.0000
     22 ****        -1.8012  -0.1574   1.9596 H              1 S1                 0.0000
     23 ****        -3.6048   0.1611  -0.4604 H              1 S1                 0.0000
     24 ****        -3.9973   0.3499   1.2134 H              1 S1                 0.0000
     25 ****        -3.9632   2.5148   0.1212 H              1 S1                 0.0000
     26 ****        -2.7303   2.4711   1.3397 H              1 S1                 0.0000
     27 ****        -2.3797   3.3828  -1.2487 H              1 S1                 0.0000
     28 ****        -1.0818   2.9451  -0.1861 H              1 S1                 0.0000
     29 ****        -1.7290   1.7010  -2.6181 H              1 S1                 0.0000
     30 ****         3.1763   0.1964  -0.1647 LP             1 S1                 0.0000
     31 ****         1.6225   0.9600  -0.2173 LP             1 S1                 0.0000
     32 ****         1.7474  -2.9070   0.7246 LP             1 S1                 0.0000
     33 ****         4.0977  -2.0397   2.3665 LP             1 S1                 0.0000
     34 ****         6.5185  -2.2224   1.7573 LP             1 S1                 0.0000
     35 ****        -0.1376  -1.2891  -1.9366 LP             1 S1                 0.0000
     36 ****        -0.7700  -0.2364  -3.1579 LP             1 S1                 0.0000
@<TRIPOS>BOND
    1    1    2 2     
    2    2    3 1     
    3    2    9 am    
    4    3    4 1     
    5    4    8 1     
    6    4    5 2     
    7    5    6 1     
    8    6    7 2     
    9    7    8 1     
   10    7   18 1     
   11    9   10 1     
   12    9   19 1     
   13   10   16 1     
   14   10   11 1     
   15   10   20 1     
   16   11   12 1     
   17   11   21 1     
   18   11   22 1     
   19   12   13 1     
   20   12   23 1     
   21   12   24 1     
   22   13   14 1     
   23   13   25 1     
   24   13   26 1     
   25   14   15 1     
   26   14   27 1     
   27   14   28 1     
   28   15   16 am    
   29   15   29 1     
   30   16   17 2     
   31    1   30 1     
   32    1   31 1     
   33    3   32 1     
   34    5   33 1     
   35    6   34 1     
   36   17   35 1     
   37   17   36 1     
@<TRIPOS>SUBSTRUCTURE
      1 S1             1
@<TRIPOS>SET
LONE_PAIRS      STATIC     ATOMS    <user>   **** ""
7 30 31 32 33 34 35 36
DONOR_HYDROGENS      STATIC     ATOMS    <user>   **** ""
2 19 29
ATOM$BLUE        STATIC     ATOMS    COLORGROUP SYSTEM
7 30 31 32 33 34 35 36
ATOM$RED        STATIC     ATOMS    COLORGROUP SYSTEM
2 19 29
