AV-unprocessed.smi:3202|AV-procd|sdf|12242|dock8
  -GOLD-   2272018 73D 1   1.00000     0.00000
 Structure written by MMmdl.
 43 44  0  0  0  0  0  0  0  0  2 V2000
  146.6888  138.1216  153.5465 C   0  0  0  0  0  0  0  0  0  0  0  0
  147.8171  139.0241  153.9150 C   0  0  0  0  0  0  0  0  0  0  0  0
  147.8372  140.2354  154.5473 C   0  0  0  0  0  0  0  0  0  0  0  0
  149.2184  140.5857  154.5963 C   0  0  0  0  0  0  0  0  0  0  0  0
  149.8353  141.8254  155.1866 C   0  0  0  0  0  0  0  0  0  0  0  0
  150.0802  141.7314  156.7089 C   0  0  1  0  0  0  0  0  0  0  0  0
  150.9953  140.5590  157.0997 C   0  0  0  0  0  0  0  0  0  0  0  0
  150.6778  142.9913  157.2068 N   0  3  0  0  0  0  0  0  0  0  0  0
  150.6875  143.1706  158.6778 C   0  0  2  0  0  0  0  0  0  0  0  0
  149.6192  144.1418  159.1949 C   0  0  0  0  0  0  0  0  0  0  0  0
  150.1492  144.6414  160.5446 C   0  0  0  0  0  0  0  0  0  0  0  0
  151.6157  144.1883  160.6305 C   0  0  0  0  0  0  0  0  0  0  0  0
  152.0217  143.7295  159.2171 C   0  0  0  0  0  0  0  0  0  0  0  0
  153.1136  142.6445  159.2745 C   0  0  0  0  0  0  0  0  0  0  0  0
  152.5382  144.9392  158.4032 C   0  0  0  0  0  0  0  0  0  0  0  0
  149.9925  139.6639  154.0409 N   0  0  0  0  0  0  0  0  0  0  0  0
  149.1277  138.7180  153.6297 N   0  0  0  0  0  0  0  0  0  0  0  0
  149.4416  137.8810  153.1587 H   0  0  0  0  0  0  0  0  0  0  0  0
  145.7729  138.4126  154.0612 H   0  0  0  0  0  0  0  0  0  0  0  0
  146.9118  137.0888  153.8156 H   0  0  0  0  0  0  0  0  0  0  0  0
  146.4986  138.1591  152.4737 H   0  0  0  0  0  0  0  0  0  0  0  0
  146.9893  140.7917  154.9190 H   0  0  0  0  0  0  0  0  0  0  0  0
  150.7773  142.0437  154.6812 H   0  0  0  0  0  0  0  0  0  0  0  0
  149.1869  142.6737  154.9703 H   0  0  0  0  0  0  0  0  0  0  0  0
  149.1221  141.5724  157.2065 H   0  0  0  0  0  0  0  0  0  0  0  0
  150.5411  139.5973  156.8607 H   0  0  0  0  0  0  0  0  0  0  0  0
  151.1942  140.5587  158.1722 H   0  0  0  0  0  0  0  0  0  0  0  0
  151.9545  140.6137  156.5838 H   0  0  0  0  0  0  0  0  0  0  0  0
  151.6432  142.9963  156.9097 H   0  0  0  0  0  0  0  0  0  0  0  0
  150.5155  142.1974  159.1419 H   0  0  0  0  0  0  0  0  0  0  0  0
  149.5118  144.9888  158.5162 H   0  0  0  0  0  0  0  0  0  0  0  0
  148.6407  143.6687  159.2861 H   0  0  0  0  0  0  0  0  0  0  0  0
  150.0698  145.7277  160.6040 H   0  0  0  0  0  0  0  0  0  0  0  0
  149.5730  144.2273  161.3729 H   0  0  0  0  0  0  0  0  0  0  0  0
  152.2663  144.9713  161.0226 H   0  0  0  0  0  0  0  0  0  0  0  0
  151.6793  143.3510  161.3274 H   0  0  0  0  0  0  0  0  0  0  0  0
  154.0261  143.0287  159.7318 H   0  0  0  0  0  0  0  0  0  0  0  0
  153.3700  142.2878  158.2765 H   0  0  0  0  0  0  0  0  0  0  0  0
  152.7937  141.7809  159.8586 H   0  0  0  0  0  0  0  0  0  0  0  0
  153.4276  145.3690  158.8652 H   0  0  0  0  0  0  0  0  0  0  0  0
  151.7966  145.7350  158.3328 H   0  0  0  0  0  0  0  0  0  0  0  0
  152.8139  144.6550  157.3873 H   0  0  0  0  0  0  0  0  0  0  0  0
  150.2117  143.7759  156.7742 H   0  0  0  0  0  0  0  0  0  0  0  0
  1  2  1  0  0  0  0
  1 19  1  0  0  0  0
  1 20  1  0  0  0  0
  1 21  1  0  0  0  0
  2 17  1  0  0  0  0
  2  3  2  0  0  0  0
  3  4  1  0  0  0  0
  3 22  1  0  0  0  0
  4  5  1  0  0  0  0
  4 16  2  0  0  0  0
  5  6  1  0  0  0  0
  5 23  1  0  0  0  0
  5 24  1  0  0  0  0
  6  7  1  0  0  0  0
  6  8  1  0  0  0  0
  6 25  1  0  0  0  0
  7 26  1  0  0  0  0
  7 27  1  0  0  0  0
  7 28  1  0  0  0  0
  8  9  1  0  0  0  0
  8 29  1  0  0  0  0
  8 43  1  0  0  0  0
  9 13  1  0  0  0  0
  9 10  1  0  0  0  0
  9 30  1  0  0  0  0
 10 11  1  0  0  0  0
 10 31  1  0  0  0  0
 10 32  1  0  0  0  0
 11 12  1  0  0  0  0
 11 33  1  0  0  0  0
 11 34  1  0  0  0  0
 12 13  1  0  0  0  0
 12 35  1  0  0  0  0
 12 36  1  0  0  0  0
 13 14  1  0  0  0  0
 13 15  1  0  0  0  0
 14 37  1  0  0  0  0
 14 38  1  0  0  0  0
 14 39  1  0  0  0  0
 15 40  1  0  0  0  0
 15 41  1  0  0  0  0
 15 42  1  0  0  0  0
 16 17  1  0  0  0  0
 17 18  1  0  0  0  0
M  CHG  1   8   1
M  END
> <s_m_source_file>
AV-unprocessed.smi

> <i_m_source_file_index>
3202

> <i_lp_mmshare_version>
43012

> <i_f3d_flags>
0

> <s_epik_input>
W0NIM11jMVtjSF1jKG5bbkhdMSlbQ0gyXVtDQEhdKFtDSDNdKVtOSF1bQ0BASF0oQzIoW0NIM10pW0NIM10pW0NIMl1bQ0gyXVtDSDJdMg==

> <s_epik_cmdline>
J2VwaWtfcHl0aG9uJywgJy1waCcsICc3LjAnLCAnLXRuJywgJzgnLCAnLW1hJywgJzIwMCcsICctbWV0YWxfYmluZGluZycsICctaW1hZScsICc8aW5maWxlLm1hZT4nLCAnLW9tYWUnLCAnPG91dGZpbGUubWFlPic=

> <r_lp_tautomer_probability>
0.5

> <r_epik_Ionization_Penalty>
0.000341671

> <r_epik_Ionization_Penalty_Charging>
0.000281809

> <r_epik_Ionization_Penalty_Neutral>
5.9862e-05

> <r_epik_State_Penalty>
0.41068

> <r_epik_Charging_Adjusted_Penalty>
0.410962

> <i_epik_Tot_Q>
1

> <i_epik_Tot_abs_Q>
1

> <r_epik_Metal_State_Penalty>
0.410672

> <b_epik_Metal_Only>
0

> <s_lp_Force_Field>
OPLS_2005

> <r_lp_Energy>
29.8366

> <b_lp_Chiralities_Consistent>
1

> <s_lp_Variant>
AV-unprocessed.smi:3202-2

> <Gold.Version>
5.8.1

> <Gold.Id.Protein>
6NUR|6NUR_protein|mol2

> <Gold.PLP.Fitness>
44.5094

> <Gold.PLP.PLP>
-35.4083

> <Gold.PLP.part.hbond>
-4.0000

> <Gold.PLP.part.metal>
0.0000

> <Gold.PLP.part.buried>
-4.1389

> <Gold.PLP.part.nonpolar>
-29.3861

> <Gold.PLP.part.repulsive>
1.5946

> <Gold.PLP.ligand.clash>
0.0000

> <Gold.PLP.ligand.torsion>
1.0253

> <Gold.PLP.Chemscore.Hbond>
3.7114

> <Gold.PLP.Chemscore.CHOScore>
0.0000

> <Gold.PLP.Chemscore.Metal>
0.0000

> <Gold.Chemscore.Hbonds>
donor molecule, donor type, donor heavy atom, donor atom, acceptor molecule, acceptor atom, score
      L1  H     8    43       P1  8028  2.00
      L1  H    17    18       P1  7948  0.76
      P1  H  7989  7998       L1    16  0.84

> <Gold.PLP.Chemscore.Internal.Correction>
0.0175

> <Gold.Rescore>
     Score         DG    S(hbond)    S(metal)    S(lipo)     H(rot)  DE(clash)    DE(int)     intcor
     19.97     -21.24       1.87        0.00     113.11       1.46       0.27       1.00       ----

> <Gold.Chemscore.Fitness>
19.9701

> <Gold.Chemscore.DG>
-21.2371

> <Gold.Chemscore.ZeroCoef>
-5.4800

> <Gold.Chemscore.Hbond>
1.8741

> <Gold.Chemscore.Metal>
0.0000

> <Gold.Chemscore.Lipo>
113.1123

> <Gold.Chemscore.Internal_Hbond>
0.0000

> <Gold.Chemscore.DEClash>
0.2676

> <Gold.Chemscore.DEInternal>
0.9994

> <Gold.Chemscore.Rot>
1.4596

> <Gold.Chemscore.Internal.Correction>
   9.000000E+99

> <Gold.Chemscore.Hbonds>
donor molecule, donor type, donor heavy atom, donor atom, acceptor molecule, acceptor atom, score
      L1  H     8    43       P1  8028  0.98
      L1  H    17    18       P1  7948  0.66
      P1  H  7989  7998       L1    16  0.20

> <Gold.Chemscore.Hbond.Weighted>
-6.2594

> <Gold.Chemscore.Metal.Weighted>
-0.0000

> <Gold.Chemscore.Lipo.Weighted>
-13.2341

> <Gold.Chemscore.Internal_Hbond.Weighted>
0.0000

> <Gold.Chemscore.DEClash.Weighted>
0.2676

> <Gold.Chemscore.DEInternal.Weighted>
0.9994

> <Gold.Chemscore.Rot.Weighted>
3.7365

> <Gold.Chemscore.Internal.Correction.Weighted>
   9.000000E+99

> <Gold.Protein.RotatedTorsions>
[ 6907 6896 6895 6894 ] final  155.38 input  -60.11 | X-H torsion
[ 7974 7965 7964 7962 ] final   87.79 input  175.53 | X-H torsion
[ 8008 7997 7996 7995 ] final -167.92 input   59.86 | X-H torsion
[ 10167 10162 10161 10158 ] final  -62.45 input  -65.29 | X-H torsion
[ 10718 10713 10712 10709 ] final  -32.99 input   66.30 | X-H torsion
[ 10763 10752 10751 10750 ] final  146.15 input  -60.55 | X-H torsion
[ 11005 11000 10999 10996 ] final  -37.32 input  -57.11 | X-H torsion

> <Gold.Protein.ActiveResidues>
 VAL166  LYS551  ARG553  GLY616  TRP617  ASP618  TYR619  PRO620  LYS621  CYS622 
 ASP623  PHE694  ASN695  SER759  ASP760  ASP761  ALA762  ILE779  LEU786  VAL792 
 PHE793  MET794  SER795  GLU796  ALA797  LYS798  CYS799  TRP800  GLU811  SER814 

> <Gold.Protein.RotatedAtoms>
  152.0450  133.3994  159.4352 H   0  0  0  0  0  0  0  0  0  0  0  0  # atno 6907 bound_to 6896
  150.6873  134.3372  159.4862 H   0  0  0  0  0  0  0  0  0  0  0  0  # atno 6908 bound_to 6896
  152.1175  134.9229  160.0615 H   0  0  0  0  0  0  0  0  0  0  0  0  # atno 6909 bound_to 6896
  145.5543  139.2298  143.2495 H   0  0  0  0  0  0  0  0  0  0  0  0  # atno 7974 bound_to 7965
  155.8843  140.1014  157.1463 H   0  0  0  0  0  0  0  0  0  0  0  0  # atno 8008 bound_to 7997
  154.4008  140.1323  156.4299 H   0  0  0  0  0  0  0  0  0  0  0  0  # atno 8009 bound_to 7997
  155.7607  140.3463  155.5199 H   0  0  0  0  0  0  0  0  0  0  0  0  # atno 8010 bound_to 7997
  140.5938  143.2347  151.6081 H   0  0  0  0  0  0  0  0  0  0  0  0  # atno 10167 bound_to 10162
  156.3681  130.4335  149.7568 H   0  0  0  0  0  0  0  0  0  0  0  0  # atno 10718 bound_to 10713
  154.0171  135.2909  155.3385 H   0  0  0  0  0  0  0  0  0  0  0  0  # atno 10763 bound_to 10752
  154.7068  135.5166  153.8610 H   0  0  0  0  0  0  0  0  0  0  0  0  # atno 10764 bound_to 10752
  153.0697  135.6643  154.0397 H   0  0  0  0  0  0  0  0  0  0  0  0  # atno 10765 bound_to 10752
  140.9943  133.6988  156.1906 H   0  0  0  0  0  0  0  0  0  0  0  0  # atno 11005 bound_to 11000
  146.1895  140.6366  142.9152 LP  0  0  0  0  0  0  0  0  0  0  0  0  # atno 17320 bound_to 7965
  144.7514  140.5200  143.6799 LP  0  0  0  0  0  0  0  0  0  0  0  0  # atno 17321 bound_to 7965
  139.5245  144.3103  152.0999 LP  0  0  0  0  0  0  0  0  0  0  0  0  # atno 17342 bound_to 10162
  140.2272  144.4406  150.6316 LP  0  0  0  0  0  0  0  0  0  0  0  0  # atno 17343 bound_to 10162
  156.4705  130.7994  151.3012 LP  0  0  0  0  0  0  0  0  0  0  0  0  # atno 17370 bound_to 10713
  157.7481  131.0037  150.3048 LP  0  0  0  0  0  0  0  0  0  0  0  0  # atno 17371 bound_to 10713
  140.6991  134.4583  157.5587 LP  0  0  0  0  0  0  0  0  0  0  0  0  # atno 17394 bound_to 11000
  139.9007  134.8563  156.1909 LP  0  0  0  0  0  0  0  0  0  0  0  0  # atno 17395 bound_to 11000

$$$$
