AV-unprocessed.smi:1198|AV-procd|sdf|5011|dock6
  -GOLD-   22720 4 23D 1   1.00000     0.00000
 Structure written by MMmdl.
 40 41  0  0  0  0  0  0  0  0  2 V2000
  150.4216  142.3517  157.4285 C   0  0  0  0  0  0  0  0  0  0  0  0
  151.0092  141.7876  156.2611 O   0  0  0  0  0  0  0  0  0  0  0  0
  150.2814  140.8599  155.5447 C   0  0  0  0  0  0  0  0  0  0  0  0
  148.8759  140.9475  155.5603 C   0  0  0  0  0  0  0  0  0  0  0  0
  148.1305  140.0035  154.8295 C   0  0  0  0  0  0  0  0  0  0  0  0
  148.8052  139.0010  154.1035 C   0  0  0  0  0  0  0  0  0  0  0  0
  148.0098  138.0665  153.3833 N   0  0  0  0  0  0  0  0  0  0  0  0
  146.6719  137.9796  153.2816 C   0  0  0  0  0  0  0  0  0  0  0  0
  145.8601  138.7322  153.8180 O   0  0  0  0  0  0  0  0  0  0  0  0
  146.3144  136.9397  152.5141 N   0  0  0  0  0  0  0  0  0  0  0  0
  144.9424  136.5590  152.1898 C   0  0  0  0  0  0  0  0  0  0  0  0
  144.8456  135.1050  151.6883 C   0  0  1  0  0  0  0  0  0  0  0  0
  143.8435  134.2198  152.4302 C   0  0  0  0  0  0  0  0  0  0  0  0
  143.6018  133.0852  151.4396 C   0  0  0  0  0  0  0  0  0  0  0  0
  143.6376  133.7204  150.1054 N   0  3  2  0  0  0  0  0  0  0  0  0
  144.0981  132.8277  149.0213 C   0  0  0  0  0  0  0  0  0  0  0  0
  144.3973  134.9878  150.2235 C   0  0  0  0  0  0  0  0  0  0  0  0
  150.2215  138.9953  154.1562 C   0  0  0  0  0  0  0  0  0  0  0  0
  150.9421  139.8985  154.8545 N   0  0  0  0  0  0  0  0  0  0  0  0
  151.1184  143.0599  157.8766 H   0  0  0  0  0  0  0  0  0  0  0  0
  150.2022  141.5864  158.1746 H   0  0  0  0  0  0  0  0  0  0  0  0
  149.5053  142.8945  157.1917 H   0  0  0  0  0  0  0  0  0  0  0  0
  148.3787  141.7241  156.1223 H   0  0  0  0  0  0  0  0  0  0  0  0
  147.0511  140.0524  154.8280 H   0  0  0  0  0  0  0  0  0  0  0  0
  148.5318  137.3548  152.8932 H   0  0  0  0  0  0  0  0  0  0  0  0
  147.0482  136.3728  152.1146 H   0  0  0  0  0  0  0  0  0  0  0  0
  144.2851  136.7151  153.0471 H   0  0  0  0  0  0  0  0  0  0  0  0
  144.5894  137.2353  151.4110 H   0  0  0  0  0  0  0  0  0  0  0  0
  145.8287  134.6384  151.7732 H   0  0  0  0  0  0  0  0  0  0  0  0
  144.2166  133.8655  153.3917 H   0  0  0  0  0  0  0  0  0  0  0  0
  142.9137  134.7629  152.6065 H   0  0  0  0  0  0  0  0  0  0  0  0
  144.4063  132.3526  151.5256 H   0  0  0  0  0  0  0  0  0  0  0  0
  142.6572  132.5692  151.6136 H   0  0  0  0  0  0  0  0  0  0  0  0
  145.1251  132.5012  149.1901 H   0  0  0  0  0  0  0  0  0  0  0  0
  144.0546  133.3413  148.0605 H   0  0  0  0  0  0  0  0  0  0  0  0
  143.4621  131.9439  148.9604 H   0  0  0  0  0  0  0  0  0  0  0  0
  143.7266  135.8042  149.9530 H   0  0  0  0  0  0  0  0  0  0  0  0
  145.2515  135.0294  149.5458 H   0  0  0  0  0  0  0  0  0  0  0  0
  150.8198  138.2603  153.6436 H   0  0  0  0  0  0  0  0  0  0  0  0
  142.6873  133.9859  149.8889 H   0  0  0  0  0  0  0  0  0  0  0  0
  1  2  1  0  0  0  0
  1 20  1  0  0  0  0
  1 21  1  0  0  0  0
  1 22  1  0  0  0  0
  2  3  1  0  0  0  0
  3 19  1  0  0  0  0
  3  4  2  0  0  0  0
  4  5  1  0  0  0  0
  4 23  1  0  0  0  0
  5  6  2  0  0  0  0
  5 24  1  0  0  0  0
  6  7  1  0  0  0  0
  6 18  1  0  0  0  0
  7  8  1  0  0  0  0
  7 25  1  0  0  0  0
  8  9  2  0  0  0  0
  8 10  1  0  0  0  0
 10 11  1  0  0  0  0
 10 26  1  0  0  0  0
 11 12  1  0  0  0  0
 11 27  1  0  0  0  0
 11 28  1  0  0  0  0
 12 17  1  0  0  0  0
 12 13  1  0  0  0  0
 12 29  1  0  0  0  0
 13 14  1  0  0  0  0
 13 30  1  0  0  0  0
 13 31  1  0  0  0  0
 14 15  1  0  0  0  0
 14 32  1  0  0  0  0
 14 33  1  0  0  0  0
 15 16  1  0  0  0  0
 15 17  1  0  0  0  0
 15 40  1  0  0  0  0
 16 34  1  0  0  0  0
 16 35  1  0  0  0  0
 16 36  1  0  0  0  0
 17 37  1  0  0  0  0
 17 38  1  0  0  0  0
 18 19  2  0  0  0  0
 18 39  1  0  0  0  0
M  CHG  1  15   1
M  END
> <s_m_source_file>
AV-unprocessed.smi

> <i_m_source_file_index>
1198

> <i_lp_mmshare_version>
43012

> <i_f3d_flags>
0

> <s_epik_input>
W0NIM11PYzFbY0hdW2NIXWMoW2NIXW4xKVtOSF1DKD1PKVtOSF1bQ0gyXVtDQEBIXTJbQ0gyXVtDSDJdTihbQ0gzXSlbQ0gyXTI=

> <s_epik_cmdline>
J2VwaWtfcHl0aG9uJywgJy1waCcsICc3LjAnLCAnLXRuJywgJzgnLCAnLW1hJywgJzIwMCcsICctbWV0YWxfYmluZGluZycsICctaW1hZScsICc8aW5maWxlLm1hZT4nLCAnLW9tYWUnLCAnPG91dGZpbGUubWFlPic=

> <r_lp_tautomer_probability>
1

> <r_epik_Ionization_Penalty>
0.00131396

> <r_epik_Ionization_Penalty_Charging>
0.0012301

> <r_epik_Ionization_Penalty_Neutral>
8.38549e-05

> <r_epik_State_Penalty>
0.00081314

> <r_epik_Charging_Adjusted_Penalty>
0.00204324

> <i_epik_Tot_Q>
1

> <i_epik_Tot_abs_Q>
1

> <r_epik_Metal_State_Penalty>
-0

> <b_epik_Metal_Only>
0

> <s_lp_Force_Field>
OPLS_2005

> <r_lp_Energy>
29.7758

> <b_lp_Chiralities_Consistent>
1

> <s_lp_Variant>
AV-unprocessed.smi:1198-2

> <Gold.Version>
5.8.1

> <Gold.Id.Protein>
6NUR|6NUR_protein|mol2

> <Gold.PLP.Fitness>
44.7475

> <Gold.PLP.PLP>
-32.4720

> <Gold.PLP.part.hbond>
-4.0000

> <Gold.PLP.part.metal>
0.0000

> <Gold.PLP.part.buried>
-3.0973

> <Gold.PLP.part.nonpolar>
-25.3443

> <Gold.PLP.part.repulsive>
0.6197

> <Gold.PLP.ligand.clash>
0.0000

> <Gold.PLP.ligand.torsion>
1.2336

> <Gold.PLP.Chemscore.Hbond>
4.9120

> <Gold.PLP.Chemscore.CHOScore>
0.0000

> <Gold.PLP.Chemscore.Metal>
0.0000

> <Gold.Chemscore.Hbonds>
donor molecule, donor type, donor heavy atom, donor atom, acceptor molecule, acceptor atom, score
      L1  H     7    25       P1  7948  1.00
      L1  H    10    26       P1  7948  0.91
      L1  H    15    40       P1 10186  2.00
      P1  H  7989  7998       L1    19  1.00

> <Gold.PLP.Chemscore.Internal.Correction>
0.0068

> <Gold.Rescore>
     Score         DG    S(hbond)    S(metal)    S(lipo)     H(rot)  DE(clash)    DE(int)     intcor
     17.24     -19.92       3.03        0.00      69.98       1.51       0.08       2.59       ----

> <Gold.Chemscore.Fitness>
17.2430

> <Gold.Chemscore.DG>
-19.9200

> <Gold.Chemscore.ZeroCoef>
-5.4800

> <Gold.Chemscore.Hbond>
3.0332

> <Gold.Chemscore.Metal>
0.0000

> <Gold.Chemscore.Lipo>
69.9778

> <Gold.Chemscore.Internal_Hbond>
0.0000

> <Gold.Chemscore.DEClash>
0.0839

> <Gold.Chemscore.DEInternal>
2.5931

> <Gold.Chemscore.Rot>
1.5149

> <Gold.Chemscore.Internal.Correction>
   9.000000E+99

> <Gold.Chemscore.Hbonds>
donor molecule, donor type, donor heavy atom, donor atom, acceptor molecule, acceptor atom, score
      L1  H     7    25       P1  7948  0.97
      L1  H    10    26       P1  7948  0.88
      L1  H    15    40       P1 10186  1.00
      P1  H  7989  7998       L1    19  0.08

> <Gold.Chemscore.Hbond.Weighted>
-10.1307

> <Gold.Chemscore.Metal.Weighted>
-0.0000

> <Gold.Chemscore.Lipo.Weighted>
-8.1874

> <Gold.Chemscore.Internal_Hbond.Weighted>
0.0000

> <Gold.Chemscore.DEClash.Weighted>
0.0839

> <Gold.Chemscore.DEInternal.Weighted>
2.5931

> <Gold.Chemscore.Rot.Weighted>
3.8781

> <Gold.Chemscore.Internal.Correction.Weighted>
   9.000000E+99

> <Gold.Protein.RotatedTorsions>
[ 6907 6896 6895 6894 ] final  -98.42 input  -60.11 | X-H torsion
[ 7974 7965 7964 7962 ] final  -39.53 input  175.53 | X-H torsion
[ 8008 7997 7996 7995 ] final -142.99 input   59.86 | X-H torsion
[ 10167 10162 10161 10158 ] final  116.36 input  -65.29 | X-H torsion
[ 10718 10713 10712 10709 ] final  -19.49 input   66.30 | X-H torsion
[ 10763 10752 10751 10750 ] final -164.76 input  -60.55 | X-H torsion
[ 11005 11000 10999 10996 ] final  162.02 input  -57.11 | X-H torsion

> <Gold.Protein.ActiveResidues>
 VAL166  LYS551  ARG553  GLY616  TRP617  ASP618  TYR619  PRO620  LYS621  CYS622 
 ASP623  PHE694  ASN695  SER759  ASP760  ASP761  ALA762  ILE779  LEU786  VAL792 
 PHE793  MET794  SER795  GLU796  ALA797  LYS798  CYS799  TRP800  GLU811  SER814 

> <Gold.Protein.RotatedAtoms>
  150.7046  134.1197  159.4030 H   0  0  0  0  0  0  0  0  0  0  0  0  # atno 6907 bound_to 6896
  151.9184  135.0307  160.0529 H   0  0  0  0  0  0  0  0  0  0  0  0  # atno 6908 bound_to 6896
  152.2277  133.4998  159.5235 H   0  0  0  0  0  0  0  0  0  0  0  0  # atno 6909 bound_to 6896
  146.0388  140.6636  142.9097 H   0  0  0  0  0  0  0  0  0  0  0  0  # atno 7974 bound_to 7965
  155.5032  140.0577  157.2935 H   0  0  0  0  0  0  0  0  0  0  0  0  # atno 8008 bound_to 7997
  154.4579  140.1982  156.0276 H   0  0  0  0  0  0  0  0  0  0  0  0  # atno 8009 bound_to 7997
  156.0834  140.3243  155.7727 H   0  0  0  0  0  0  0  0  0  0  0  0  # atno 8010 bound_to 7997
  139.6252  144.7107  151.2548 H   0  0  0  0  0  0  0  0  0  0  0  0  # atno 10167 bound_to 10162
  156.5449  130.4687  149.6480 H   0  0  0  0  0  0  0  0  0  0  0  0  # atno 10718 bound_to 10713
  154.6997  135.2985  154.9359 H   0  0  0  0  0  0  0  0  0  0  0  0  # atno 10763 bound_to 10752
  154.0295  135.6672  153.4783 H   0  0  0  0  0  0  0  0  0  0  0  0  # atno 10764 bound_to 10752
  153.0672  135.5081  154.8135 H   0  0  0  0  0  0  0  0  0  0  0  0  # atno 10765 bound_to 10752
  140.2216  134.8192  157.3226 H   0  0  0  0  0  0  0  0  0  0  0  0  # atno 11005 bound_to 11000
  144.7064  140.3869  143.7114 LP  0  0  0  0  0  0  0  0  0  0  0  0  # atno 17320 bound_to 7965
  145.6919  139.1641  143.2642 LP  0  0  0  0  0  0  0  0  0  0  0  0  # atno 17321 bound_to 7965
  140.7407  143.6580  150.8189 LP  0  0  0  0  0  0  0  0  0  0  0  0  # atno 17342 bound_to 10162
  140.0197  143.5555  152.2805 LP  0  0  0  0  0  0  0  0  0  0  0  0  # atno 17343 bound_to 10162
  156.2938  130.7139  151.1994 LP  0  0  0  0  0  0  0  0  0  0  0  0  # atno 17370 bound_to 10713
  157.7398  131.0524  150.5205 LP  0  0  0  0  0  0  0  0  0  0  0  0  # atno 17371 bound_to 10713
  140.1843  134.4450  155.7753 LP  0  0  0  0  0  0  0  0  0  0  0  0  # atno 17394 bound_to 11000
  141.2222  133.6998  156.7922 LP  0  0  0  0  0  0  0  0  0  0  0  0  # atno 17395 bound_to 11000

$$$$
