AV-unprocessed.smi:3268|AV-procd|sdf|12509|dock7
  -GOLD-   2272018413D 1   1.00000     0.00000
 Structure written by MMmdl.
 40 41  0  0  0  0  0  0  0  0  2 V2000
  145.5888  133.3133  149.1616 C   0  0  0  0  0  0  0  0  0  0  0  0
  146.3691  134.0929  150.2399 C   0  0  1  0  0  0  0  0  0  0  0  0
  145.5198  135.1722  150.9348 C   0  0  0  0  0  0  0  0  0  0  0  0
  144.2896  135.1387  150.8831 O   0  0  0  0  0  0  0  0  0  0  0  0
  146.1928  136.1376  151.5822 N   0  0  0  0  0  0  0  0  0  0  0  0
  145.5751  137.2247  152.3321 C   0  0  0  0  0  0  0  0  0  0  0  0
  146.6057  138.3010  152.7243 C   0  0  0  0  0  0  0  0  0  0  0  0
  146.0903  139.2332  153.7591 N   0  3  0  0  0  0  0  0  0  0  0  0
  146.9633  140.4257  153.9221 C   0  0  0  0  0  0  0  0  0  0  0  0
  146.3408  141.4456  154.8906 C   0  0  0  0  0  0  0  0  0  0  0  0
  146.0405  140.8015  156.2499 C   0  0  0  0  0  0  0  0  0  0  0  0
  145.1672  139.5558  156.0559 C   0  0  0  0  0  0  0  0  0  0  0  0
  145.8175  138.5749  155.0655 C   0  0  0  0  0  0  0  0  0  0  0  0
  146.9686  133.1975  151.2224 N   0  0  0  0  0  0  0  0  0  0  0  0
  147.7096  133.4743  152.2975 C   0  0  0  0  0  0  0  0  0  0  0  0
  148.0635  132.4058  152.9975 N   0  0  0  0  0  0  0  0  0  0  0  0
  147.4637  131.4335  152.2487 C   0  0  0  0  0  0  0  0  0  0  0  0
  146.7876  131.8538  151.1796 N   0  0  0  0  0  0  0  0  0  0  0  0
  145.2092  133.9814  148.3879 H   0  0  0  0  0  0  0  0  0  0  0  0
  144.7376  132.7760  149.5819 H   0  0  0  0  0  0  0  0  0  0  0  0
  146.2309  132.5805  148.6721 H   0  0  0  0  0  0  0  0  0  0  0  0
  147.1871  134.6107  149.7366 H   0  0  0  0  0  0  0  0  0  0  0  0
  147.2019  136.0985  151.5774 H   0  0  0  0  0  0  0  0  0  0  0  0
  144.7637  137.6653  151.7501 H   0  0  0  0  0  0  0  0  0  0  0  0
  145.1176  136.7825  153.2162 H   0  0  0  0  0  0  0  0  0  0  0  0
  147.5341  137.8423  153.0681 H   0  0  0  0  0  0  0  0  0  0  0  0
  146.8582  138.8743  151.8309 H   0  0  0  0  0  0  0  0  0  0  0  0
  147.9441  140.1127  154.2839 H   0  0  0  0  0  0  0  0  0  0  0  0
  147.1204  140.9049  152.9549 H   0  0  0  0  0  0  0  0  0  0  0  0
  147.0129  142.2945  155.0213 H   0  0  0  0  0  0  0  0  0  0  0  0
  145.4200  141.8430  154.4618 H   0  0  0  0  0  0  0  0  0  0  0  0
  146.9739  140.5253  156.7423 H   0  0  0  0  0  0  0  0  0  0  0  0
  145.5400  141.5157  156.9047 H   0  0  0  0  0  0  0  0  0  0  0  0
  145.0026  139.0637  157.0150 H   0  0  0  0  0  0  0  0  0  0  0  0
  144.1839  139.8508  155.6870 H   0  0  0  0  0  0  0  0  0  0  0  0
  145.1528  137.7225  154.9332 H   0  0  0  0  0  0  0  0  0  0  0  0
  146.7492  138.1867  155.4799 H   0  0  0  0  0  0  0  0  0  0  0  0
  147.9931  134.4785  152.5764 H   0  0  0  0  0  0  0  0  0  0  0  0
  147.5221  130.3854  152.5027 H   0  0  0  0  0  0  0  0  0  0  0  0
  145.2064  139.5799  153.4138 H   0  0  0  0  0  0  0  0  0  0  0  0
  1  2  1  0  0  0  0
  1 19  1  0  0  0  0
  1 20  1  0  0  0  0
  1 21  1  0  0  0  0
  2  3  1  0  0  0  0
  2 14  1  0  0  0  0
  2 22  1  0  0  0  0
  3  4  2  0  0  0  0
  3  5  1  0  0  0  0
  5  6  1  0  0  0  0
  5 23  1  0  0  0  0
  6  7  1  0  0  0  0
  6 24  1  0  0  0  0
  6 25  1  0  0  0  0
  7  8  1  0  0  0  0
  7 26  1  0  0  0  0
  7 27  1  0  0  0  0
  8 13  1  0  0  0  0
  8  9  1  0  0  0  0
  8 40  1  0  0  0  0
  9 10  1  0  0  0  0
  9 28  1  0  0  0  0
  9 29  1  0  0  0  0
 10 11  1  0  0  0  0
 10 30  1  0  0  0  0
 10 31  1  0  0  0  0
 11 12  1  0  0  0  0
 11 32  1  0  0  0  0
 11 33  1  0  0  0  0
 12 13  1  0  0  0  0
 12 34  1  0  0  0  0
 12 35  1  0  0  0  0
 13 36  1  0  0  0  0
 13 37  1  0  0  0  0
 14 18  1  0  0  0  0
 14 15  1  0  0  0  0
 15 16  2  0  0  0  0
 15 38  1  0  0  0  0
 16 17  1  0  0  0  0
 17 18  2  0  0  0  0
 17 39  1  0  0  0  0
M  CHG  1   8   1
M  END
> <s_m_source_file>
AV-unprocessed.smi

> <i_m_source_file_index>
3268

> <i_lp_mmshare_version>
43012

> <i_f3d_flags>
0

> <s_epik_input>
bjFbY0hdbltjSF1uMVtDQEhdKFtDSDNdKUMoPU8pW05IXVtDSDJdW0NIMl1OMltDSDJdW0NIMl1bQ0gyXVtDSDJdW0NIMl0y

> <s_epik_cmdline>
J2VwaWtfcHl0aG9uJywgJy1waCcsICc3LjAnLCAnLXRuJywgJzgnLCAnLW1hJywgJzIwMCcsICctbWV0YWxfYmluZGluZycsICctaW1hZScsICc8aW5maWxlLm1hZT4nLCAnLW9tYWUnLCAnPG91dGZpbGUubWFlPic=

> <r_lp_tautomer_probability>
1

> <r_epik_Ionization_Penalty>
0.00266407

> <r_epik_Ionization_Penalty_Charging>
0.00265606

> <r_epik_Ionization_Penalty_Neutral>
8.01095e-06

> <r_epik_State_Penalty>
0.00184955

> <r_epik_Charging_Adjusted_Penalty>
0.00450561

> <i_epik_Tot_Q>
1

> <i_epik_Tot_abs_Q>
1

> <r_epik_Metal_State_Penalty>
-0

> <b_epik_Metal_Only>
0

> <s_lp_Force_Field>
OPLS_2005

> <r_lp_Energy>
21.812

> <b_lp_Chiralities_Consistent>
1

> <s_lp_Variant>
AV-unprocessed.smi:3268-2

> <Gold.Version>
5.8.1

> <Gold.Id.Protein>
6NUR|6NUR_protein|mol2

> <Gold.PLP.Fitness>
39.8841

> <Gold.PLP.PLP>
-28.9205

> <Gold.PLP.part.hbond>
-2.0000

> <Gold.PLP.part.metal>
0.0000

> <Gold.PLP.part.buried>
-3.4503

> <Gold.PLP.part.nonpolar>
-24.1606

> <Gold.PLP.part.repulsive>
0.4245

> <Gold.PLP.ligand.clash>
0.0000

> <Gold.PLP.ligand.torsion>
0.5846

> <Gold.PLP.Chemscore.Hbond>
3.0000

> <Gold.PLP.Chemscore.CHOScore>
1.0000

> <Gold.PLP.Chemscore.Metal>
0.0000

> <Gold.Chemscore.Hbonds>
donor molecule, donor type, donor heavy atom, donor atom, acceptor molecule, acceptor atom, score
      L1  H     5    23       P1  7948  1.00
      L1  H     8    40       P1 10175  2.00
      L1  C    15    38       P1  7948  1.00

> <Gold.PLP.Chemscore.Internal.Correction>
0.1328

> <Gold.Rescore>
     Score         DG    S(hbond)    S(metal)    S(lipo)     H(rot)  DE(clash)    DE(int)     intcor
     11.21     -11.91       2.00        0.00      54.11       2.57       0.03       0.67       ----

> <Gold.Chemscore.Fitness>
11.2072

> <Gold.Chemscore.DG>
-11.9082

> <Gold.Chemscore.ZeroCoef>
-5.4800

> <Gold.Chemscore.Hbond>
1.9983

> <Gold.Chemscore.Metal>
0.0000

> <Gold.Chemscore.Lipo>
54.1067

> <Gold.Chemscore.Internal_Hbond>
0.0000

> <Gold.Chemscore.DEClash>
0.0262

> <Gold.Chemscore.DEInternal>
0.6748

> <Gold.Chemscore.Rot>
2.5690

> <Gold.Chemscore.Internal.Correction>
   9.000000E+99

> <Gold.Chemscore.Hbonds>
donor molecule, donor type, donor heavy atom, donor atom, acceptor molecule, acceptor atom, score
      L1  H     5    23       P1  7948  1.00
      L1  H     8    40       P1 10175  0.96

> <Gold.Chemscore.Hbond.Weighted>
-6.6743

> <Gold.Chemscore.Metal.Weighted>
-0.0000

> <Gold.Chemscore.Lipo.Weighted>
-6.3305

> <Gold.Chemscore.Internal_Hbond.Weighted>
0.0000

> <Gold.Chemscore.DEClash.Weighted>
0.0262

> <Gold.Chemscore.DEInternal.Weighted>
0.6748

> <Gold.Chemscore.Rot.Weighted>
6.5766

> <Gold.Chemscore.Internal.Correction.Weighted>
   9.000000E+99

> <Gold.Protein.RotatedTorsions>
[ 6907 6896 6895 6894 ] final   -2.98 input  -60.11 | X-H torsion
[ 7974 7965 7964 7962 ] final   65.60 input  175.53 | X-H torsion
[ 8008 7997 7996 7995 ] final  109.21 input   59.86 | X-H torsion
[ 10167 10162 10161 10158 ] final -121.52 input  -65.29 | X-H torsion
[ 10718 10713 10712 10709 ] final  -30.29 input   66.30 | X-H torsion
[ 10763 10752 10751 10750 ] final  102.81 input  -60.55 | X-H torsion
[ 11005 11000 10999 10996 ] final  -89.83 input  -57.11 | X-H torsion

> <Gold.Protein.ActiveResidues>
 VAL166  LYS551  ARG553  GLY616  TRP617  ASP618  TYR619  PRO620  LYS621  CYS622 
 ASP623  PHE694  ASN695  SER759  ASP760  ASP761  ALA762  ILE779  LEU786  VAL792 
 PHE793  MET794  SER795  GLU796  ALA797  LYS798  CYS799  TRP800  GLU811  SER814 

> <Gold.Protein.RotatedAtoms>
  151.5211  135.1067  159.9878 H   0  0  0  0  0  0  0  0  0  0  0  0  # atno 6907 bound_to 6896
  152.4620  133.7838  159.6875 H   0  0  0  0  0  0  0  0  0  0  0  0  # atno 6908 bound_to 6896
  150.8586  133.7613  159.3025 H   0  0  0  0  0  0  0  0  0  0  0  0  # atno 6909 bound_to 6896
  145.8365  139.3170  143.0956 H   0  0  0  0  0  0  0  0  0  0  0  0  # atno 7974 bound_to 7965
  156.1962  140.3062  155.9432 H   0  0  0  0  0  0  0  0  0  0  0  0  # atno 8008 bound_to 7997
  155.3060  140.0449  157.3049 H   0  0  0  0  0  0  0  0  0  0  0  0  # atno 8009 bound_to 7997
  154.5513  140.2292  155.8490 H   0  0  0  0  0  0  0  0  0  0  0  0  # atno 8010 bound_to 7997
  140.0241  143.5314  152.2207 H   0  0  0  0  0  0  0  0  0  0  0  0  # atno 10167 bound_to 10162
  156.4017  130.4391  149.7317 H   0  0  0  0  0  0  0  0  0  0  0  0  # atno 10718 bound_to 10713
  153.3444  135.3998  155.1597 H   0  0  0  0  0  0  0  0  0  0  0  0  # atno 10763 bound_to 10752
  154.8650  135.3641  154.5303 H   0  0  0  0  0  0  0  0  0  0  0  0  # atno 10764 bound_to 10752
  153.5751  135.7078  153.5547 H   0  0  0  0  0  0  0  0  0  0  0  0  # atno 10765 bound_to 10752
  141.1577  133.7654  156.9650 H   0  0  0  0  0  0  0  0  0  0  0  0  # atno 11005 bound_to 11000
  145.9513  140.8907  143.0258 LP  0  0  0  0  0  0  0  0  0  0  0  0  # atno 17320 bound_to 7965
  144.6736  140.1683  143.7416 LP  0  0  0  0  0  0  0  0  0  0  0  0  # atno 17321 bound_to 7965
  139.6120  144.7611  151.2931 LP  0  0  0  0  0  0  0  0  0  0  0  0  # atno 17342 bound_to 10162
  140.7330  143.6807  150.8003 LP  0  0  0  0  0  0  0  0  0  0  0  0  # atno 17343 bound_to 10162
  156.4331  130.7825  151.2845 LP  0  0  0  0  0  0  0  0  0  0  0  0  # atno 17370 bound_to 10713
  157.7504  131.0148  150.3478 LP  0  0  0  0  0  0  0  0  0  0  0  0  # atno 17371 bound_to 10713
  140.1167  134.9443  157.2145 LP  0  0  0  0  0  0  0  0  0  0  0  0  # atno 17394 bound_to 11000
  140.3124  134.3009  155.7264 LP  0  0  0  0  0  0  0  0  0  0  0  0  # atno 17395 bound_to 11000

$$$$
