#       Name:                AV-unprocessed.smi:1046
#       Creating user name   scv26
#       Creation time:       Fri Mar 27 02:59:26 2020


#       File generated by GOLD software.
#

@<TRIPOS>MOLECULE
AV-unprocessed.smi:1046
    59    61     1
SMALL
NO_CHARGES


@<TRIPOS>ATOM
      1 ****         0.7570   5.7320   1.7910 C.3            1 S1                 0.0000
      2 ****        -0.1459   4.6691   1.1901 C.ar           1 S1                 0.0000
      3 ****        -1.1686   4.1059   1.9862 C.ar           1 S1                 0.0000
      4 ****        -2.0296   3.1158   1.4651 C.ar           1 S1                 0.0000
      5 ****        -3.0779   2.4333   2.0577 N.2            1 S1                 0.0000
      6 ****        -3.4824   1.6469   1.0651 C.2            1 S1                 0.0000
      7 ****        -2.8115   1.7306  -0.0999 N.pl3          1 S1                 0.0000
      8 ****        -3.0623   0.9641  -1.3065 C.3            1 S1                 0.0000
      9 ****        -2.4463  -0.4472  -1.2437 C.3            1 S1                 0.0000
     10 ****        -2.7684  -1.1151  -2.4467 O.3            1 S1                 0.0000
     11 ****        -0.9109  -0.4466  -1.0719 C.3            1 S1                 0.0000
     12 ****        -0.3576  -1.8145  -0.9019 N.4            1 S1                 1.0000
     13 ****        -0.5496  -2.3619   0.4662 C.3            1 S1                 0.0000
     14 ****        -0.0346  -3.8103   0.5600 C.3            1 S1                 0.0000
     15 ****         1.3881  -3.9174   0.1510 N.4            1 S1                 1.0000
     16 ****         2.3425  -3.4336   1.1851 C.3            1 S1                 0.0000
     17 ****         3.7327  -4.0779   1.0496 C.3            1 S1                 0.0000
     18 ****         3.6426  -5.4674   1.2828 O.3            1 S1                 0.0000
     19 ****         1.5967  -3.3480  -1.2061 C.3            1 S1                 0.0000
     20 ****         1.0629  -1.9051  -1.3233 C.3            1 S1                 0.0000
     21 ****        -1.8385   2.7014   0.1145 C.ar           1 S1                 0.0000
     22 ****        -0.8247   3.2545  -0.6879 C.ar           1 S1                 0.0000
     23 ****         0.0270   4.2424  -0.1512 C.ar           1 S1                 0.0000
     24 ****         1.1177   4.8354  -1.0255 C.3            1 S1                 0.0000
     25 ****         0.4817   5.9518   2.8230 H              1 S1                 0.0000
     26 ****         0.6872   6.6592   1.2218 H              1 S1                 0.0000
     27 ****         1.7951   5.3992   1.7857 H              1 S1                 0.0000
     28 ****        -1.3008   4.4315   3.0077 H              1 S1                 0.0000
     29 ****        -4.3096   0.9641   1.1942 H              1 S1                 0.0000
     30 ****        -4.1422   0.8996  -1.4492 H              1 S1                 0.0000
     31 ****        -2.6689   1.5179  -2.1600 H              1 S1                 0.0000
     32 ****        -2.9204  -0.9884  -0.4256 H              1 S1                 0.0000
     33 ****        -2.4765  -0.5878  -3.1753 H              1 S1                 0.0000
     34 ****        -0.4666   0.0294  -1.9477 H              1 S1                 0.0000
     35 ****        -0.6083   0.1567  -0.2155 H              1 S1                 0.0000
     36 ****        -0.0335  -1.7294   1.1902 H              1 S1                 0.0000
     37 ****        -1.6048  -2.3461   0.7359 H              1 S1                 0.0000
     38 ****        -0.1728  -4.2045   1.5675 H              1 S1                 0.0000
     39 ****        -0.6286  -4.4474  -0.0967 H              1 S1                 0.0000
     40 ****         2.4273  -2.3478   1.1441 H              1 S1                 0.0000
     41 ****         1.9572  -3.6664   2.1790 H              1 S1                 0.0000
     42 ****         4.1793  -3.8963   0.0725 H              1 S1                 0.0000
     43 ****         4.4107  -3.6509   1.7892 H              1 S1                 0.0000
     44 ****         4.5139  -5.8351   1.2626 H              1 S1                 0.0000
     45 ****         2.6475  -3.3888  -1.4904 H              1 S1                 0.0000
     46 ****         1.0695  -3.9822  -1.9202 H              1 S1                 0.0000
     47 ****         1.1563  -1.5749  -2.3586 H              1 S1                 0.0000
     48 ****         1.6652  -1.2216  -0.7235 H              1 S1                 0.0000
     49 ****        -0.7039   2.9233  -1.7086 H              1 S1                 0.0000
     50 ****         1.1240   4.3817  -2.0169 H              1 S1                 0.0000
     51 ****         2.0984   4.6737  -0.5776 H              1 S1                 0.0000
     52 ****         0.9659   5.9080  -1.1495 H              1 S1                 0.0000
     53 ****        -0.8784  -2.4064  -1.5345 H              1 S1                 0.0000
     54 ****         1.5757  -4.9081   0.0790 H              1 S1                 0.0000
     55 ****        -3.4366   2.5113   2.9878 LP             1 S1                 0.0000
     56 ****        -3.7579  -1.2478  -2.5030 LP             1 S1                 0.0000
     57 ****        -2.3109  -2.0040  -2.4706 LP             1 S1                 0.0000
     58 ****         3.0815  -5.8922   0.5724 LP             1 S1                 0.0000
     59 ****         3.2284  -5.6323   2.1779 LP             1 S1                 0.0000
@<TRIPOS>BOND
    1    1    2 1     
    2    1   25 1     
    3    1   26 1     
    4    1   27 1     
    5    2   23 ar    
    6    2    3 ar    
    7    3    4 ar    
    8    3   28 1     
    9    4   21 ar    
   10    4    5 1     
   11    5    6 2     
   12    6    7 1     
   13    6   29 1     
   14    7    8 1     
   15    7   21 1     
   16    8    9 1     
   17    8   30 1     
   18    8   31 1     
   19    9   10 1     
   20    9   11 1     
   21    9   32 1     
   22   10   33 1     
   23   11   12 1     
   24   11   34 1     
   25   11   35 1     
   26   12   20 1     
   27   12   13 1     
   28   12   53 1     
   29   13   14 1     
   30   13   36 1     
   31   13   37 1     
   32   14   15 1     
   33   14   38 1     
   34   14   39 1     
   35   15   16 1     
   36   15   19 1     
   37   15   54 1     
   38   16   17 1     
   39   16   40 1     
   40   16   41 1     
   41   17   18 1     
   42   17   42 1     
   43   17   43 1     
   44   18   44 1     
   45   19   20 1     
   46   19   45 1     
   47   19   46 1     
   48   20   47 1     
   49   20   48 1     
   50   21   22 ar    
   51   22   23 ar    
   52   22   49 1     
   53   23   24 1     
   54   24   50 1     
   55   24   51 1     
   56   24   52 1     
   57    5   55 1     
   58   10   56 1     
   59   10   57 1     
   60   18   58 1     
   61   18   59 1     
@<TRIPOS>SUBSTRUCTURE
      1 S1             1
@<TRIPOS>SET
LONE_PAIRS      STATIC     ATOMS    <user>   **** ""
5 55 56 57 58 59
DONOR_HYDROGENS      STATIC     ATOMS    <user>   **** ""
4 33 53 54 44
ATOM$BLUE        STATIC     ATOMS    COLORGROUP SYSTEM
5 55 56 57 58 59
ATOM$RED        STATIC     ATOMS    COLORGROUP SYSTEM
4 33 53 54 44
