#       Name:                AV-unprocessed.smi:2226
#       Creating user name   scv26
#       Creation time:       Fri Mar 27 12:21:51 2020


#       File generated by GOLD software.
#

@<TRIPOS>MOLECULE
AV-unprocessed.smi:2226
    45    47     1
SMALL
NO_CHARGES


@<TRIPOS>ATOM
      1 ****        -2.9814  -3.1239  -0.4913 C.3            1 S1                 0.0000
      2 ****        -2.4254  -1.7497  -0.4914 N.4            1 S1                 1.0000
      3 ****        -1.6433  -1.3947  -1.6994 C.3            1 S1                 0.0000
      4 ****        -0.2960  -2.1588  -1.7468 C.3            1 S1                 0.0000
      5 ****         0.5359  -2.0545  -0.4555 C.3            1 S1                 0.0000
      6 ****        -0.3256  -2.1486   0.8164 C.3            1 S1                 0.0000
      7 ****        -1.6693  -1.3827   0.7299 C.3            1 S1                 0.0000
      8 ****        -1.5552   0.1577   0.8104 C.3            1 S1                 0.0000
      9 ****        -1.1030   0.8710  -0.4940 C.3            1 S1                 0.0000
     10 ****         0.3230   1.1883  -0.5068 N.am           1 S1                 0.0000
     11 ****         0.9294   2.1605   0.1916 C.2            1 S1                 0.0000
     12 ****         0.2968   2.9107   0.9415 O.2            1 S1                 0.0000
     13 ****         2.2945   2.1382  -0.0545 N.2            1 S1                 0.0000
     14 ****         3.1021   2.8053   0.7121 C.2            1 S1                 0.0000
     15 ****         2.9029   3.6010   1.8374 N.pl3          1 S1                 0.0000
     16 ****         4.1202   4.0612   2.2551 C.2            1 S1                 0.0000
     17 ****         5.0472   3.5781   1.4335 C.2            1 S1                 0.0000
     18 ****         4.4545   2.8054   0.4802 O.3            1 S1                 0.0000
     19 ****        -1.5341   0.1453  -1.7942 C.3            1 S1                 0.0000
     20 ****        -2.2023  -3.8854  -0.4808 H              1 S1                 0.0000
     21 ****        -3.5974  -3.2842  -1.3766 H              1 S1                 0.0000
     22 ****        -3.6154  -3.2779   0.3823 H              1 S1                 0.0000
     23 ****        -2.2175  -1.7121  -2.5714 H              1 S1                 0.0000
     24 ****        -0.4995  -3.2129  -1.9373 H              1 S1                 0.0000
     25 ****         0.2979  -1.8224  -2.5972 H              1 S1                 0.0000
     26 ****         1.2865  -2.8452  -0.4436 H              1 S1                 0.0000
     27 ****         1.1152  -1.1376  -0.4510 H              1 S1                 0.0000
     28 ****        -0.5344  -3.2009   1.0112 H              1 S1                 0.0000
     29 ****         0.2489  -1.8042   1.6771 H              1 S1                 0.0000
     30 ****        -2.2639  -1.6887   1.5921 H              1 S1                 0.0000
     31 ****        -2.5499   0.5362   1.0507 H              1 S1                 0.0000
     32 ****        -0.9342   0.4477   1.6587 H              1 S1                 0.0000
     33 ****        -1.6040   1.8409  -0.5146 H              1 S1                 0.0000
     34 ****         0.9067   0.6135  -1.0975 H              1 S1                 0.0000
     35 ****         2.0327   3.8289   2.2966 H              1 S1                 0.0000
     36 ****         4.1947   4.7034   3.1203 H              1 S1                 0.0000
     37 ****         6.1211   3.6863   1.3946 H              1 S1                 0.0000
     38 ****        -0.8968   0.4334  -2.6315 H              1 S1                 0.0000
     39 ****        -2.5264   0.5169  -2.0547 H              1 S1                 0.0000
     40 ****        -3.2353  -1.1463  -0.5029 H              1 S1                 0.0000
     41 ****        -0.6924   2.8016   1.0397 LP             1 S1                 0.0000
     42 ****         0.7738   3.6273   1.4505 LP             1 S1                 0.0000
     43 ****         2.6561   1.6086  -0.8218 LP             1 S1                 0.0000
     44 ****         4.6429   3.1820  -0.4268 LP             1 S1                 0.0000
     45 ****         4.8076   1.8713   0.5332 LP             1 S1                 0.0000
@<TRIPOS>BOND
    1    1    2 1     
    2    1   20 1     
    3    1   21 1     
    4    1   22 1     
    5    2    7 1     
    6    2    3 1     
    7    2   40 1     
    8    3   19 1     
    9    3    4 1     
   10    3   23 1     
   11    4    5 1     
   12    4   24 1     
   13    4   25 1     
   14    5    6 1     
   15    5   26 1     
   16    5   27 1     
   17    6    7 1     
   18    6   28 1     
   19    6   29 1     
   20    7    8 1     
   21    7   30 1     
   22    8    9 1     
   23    8   31 1     
   24    8   32 1     
   25    9   10 1     
   26    9   19 1     
   27    9   33 1     
   28   10   34 1     
   29   10   11 am    
   30   11   13 1     
   31   11   12 2     
   32   13   14 2     
   33   14   18 1     
   34   14   15 1     
   35   15   35 1     
   36   15   16 1     
   37   16   36 1     
   38   16   17 2     
   39   17   37 1     
   40   17   18 1     
   41   19   38 1     
   42   19   39 1     
   43   12   41 1     
   44   12   42 1     
   45   13   43 1     
   46   18   44 1     
   47   18   45 1     
@<TRIPOS>SUBSTRUCTURE
      1 S1             1
@<TRIPOS>SET
LONE_PAIRS      STATIC     ATOMS    <user>   **** ""
5 41 42 43 44 45
DONOR_HYDROGENS      STATIC     ATOMS    <user>   **** ""
3 40 34 35
ATOM$BLUE        STATIC     ATOMS    COLORGROUP SYSTEM
5 41 42 43 44 45
ATOM$RED        STATIC     ATOMS    COLORGROUP SYSTEM
3 40 34 35
