#       Name:                AV-unprocessed.smi:1363
#       Creating user name   scv26
#       Creation time:       Fri Mar 27 05:15:46 2020


#       File generated by GOLD software.
#

@<TRIPOS>MOLECULE
AV-unprocessed.smi:1363
    49    50     1
SMALL
NO_CHARGES


@<TRIPOS>ATOM
      1 ****        -4.2262   5.4770  -0.7724 C.3            1 S1                 0.0000
      2 ****        -3.8577   4.0139  -0.6472 C.2            1 S1                 0.0000
      3 ****        -3.3604   3.4849   0.4221 N.2            1 S1                 0.0000
      4 ****        -3.0538   2.1170   0.4168 C.2            1 S1                 0.0000
      5 ****        -2.4656   1.5713   1.7069 C.3            1 S1                 0.0000
      6 ****        -3.2712   1.3387  -0.6839 C.2            1 S1                 0.0000
      7 ****        -2.9406  -0.1528  -0.7213 C.3            1 S1                 0.0000
      8 ****        -1.4716  -0.5018  -0.9728 C.2            1 S1                 0.0000
      9 ****        -0.7580   0.2501  -1.6374 O.2            1 S1                 0.0000
     10 ****        -1.0296  -1.6443  -0.4260 N.am           1 S1                 0.0000
     11 ****         0.3376  -2.1420  -0.5188 C.3            1 S1                 0.0000
     12 ****         1.2576  -1.4483   0.5053 C.3            1 S1                 0.0000
     13 ****         2.7114  -1.9102   0.5121 C.2            1 S1                 0.0000
     14 ****         3.2123  -2.8613  -0.3054 C.2            1 S1                 0.0000
     15 ****         4.6678  -3.2954  -0.3205 C.3            1 S1                 0.0000
     16 ****         5.5825  -2.3089   0.4229 C.3            1 S1                 0.0000
     17 ****         4.9519  -1.8674   1.7481 C.3            1 S1                 0.0000
     18 ****         3.5925  -1.1826   1.5211 C.3            1 S1                 0.0000
     19 ****        -3.8406   1.9532  -1.8989 C.2            1 S1                 0.0000
     20 ****        -4.0706   1.3484  -2.9450 O.2            1 S1                 0.0000
     21 ****        -4.1041   3.2757  -1.8037 N.am           1 S1                 0.0000
     22 ****        -4.4926   3.7432  -2.6099 H              1 S1                 0.0000
     23 ****        -3.3481   6.1004  -0.6024 H              1 S1                 0.0000
     24 ****        -4.9815   5.7383  -0.0311 H              1 S1                 0.0000
     25 ****        -4.6231   5.7099  -1.7615 H              1 S1                 0.0000
     26 ****        -3.1289   0.8255   2.1449 H              1 S1                 0.0000
     27 ****        -2.3224   2.3635   2.4427 H              1 S1                 0.0000
     28 ****        -1.4955   1.1093   1.5237 H              1 S1                 0.0000
     29 ****        -3.2492  -0.5965   0.2260 H              1 S1                 0.0000
     30 ****        -3.5436  -0.6611  -1.4743 H              1 S1                 0.0000
     31 ****        -1.6843  -2.2027   0.1027 H              1 S1                 0.0000
     32 ****         0.3113  -3.2161  -0.3332 H              1 S1                 0.0000
     33 ****         0.7123  -2.0040  -1.5346 H              1 S1                 0.0000
     34 ****         1.2548  -0.3725   0.3257 H              1 S1                 0.0000
     35 ****         0.8528  -1.5944   1.5074 H              1 S1                 0.0000
     36 ****         2.5768  -3.3792  -1.0073 H              1 S1                 0.0000
     37 ****         4.7294  -4.2843   0.1348 H              1 S1                 0.0000
     38 ****         5.0004  -3.4005  -1.3536 H              1 S1                 0.0000
     39 ****         6.5581  -2.7631   0.5976 H              1 S1                 0.0000
     40 ****         5.7567  -1.4310  -0.2009 H              1 S1                 0.0000
     41 ****         4.8173  -2.7404   2.3881 H              1 S1                 0.0000
     42 ****         5.6229  -1.1943   2.2823 H              1 S1                 0.0000
     43 ****         3.7453  -0.1652   1.1594 H              1 S1                 0.0000
     44 ****         3.0673  -1.1014   2.4735 H              1 S1                 0.0000
     45 ****        -3.1975   4.0406   1.2373 LP             1 S1                 0.0000
     46 ****        -1.1374   1.0942  -2.0163 LP             1 S1                 0.0000
     47 ****         0.2010   0.0167  -1.7983 LP             1 S1                 0.0000
     48 ****        -3.8699   0.3711  -3.0120 LP             1 S1                 0.0000
     49 ****        -4.4583   1.8341  -3.7285 LP             1 S1                 0.0000
@<TRIPOS>BOND
    1    1    2 1     
    2    1   23 1     
    3    1   24 1     
    4    1   25 1     
    5    2   21 1     
    6    2    3 2     
    7    3    4 1     
    8    4    5 1     
    9    4    6 2     
   10    5   26 1     
   11    5   27 1     
   12    5   28 1     
   13    6    7 1     
   14    6   19 1     
   15    7    8 1     
   16    7   29 1     
   17    7   30 1     
   18    8    9 2     
   19    8   10 am    
   20   10   11 1     
   21   10   31 1     
   22   11   12 1     
   23   11   32 1     
   24   11   33 1     
   25   12   13 1     
   26   12   34 1     
   27   12   35 1     
   28   13   18 1     
   29   13   14 2     
   30   14   15 1     
   31   14   36 1     
   32   15   16 1     
   33   15   37 1     
   34   15   38 1     
   35   16   17 1     
   36   16   39 1     
   37   16   40 1     
   38   17   18 1     
   39   17   41 1     
   40   17   42 1     
   41   18   43 1     
   42   18   44 1     
   43   19   20 2     
   44   19   21 am    
   45   21   22 1     
   46    3   45 1     
   47    9   46 1     
   48    9   47 1     
   49   20   48 1     
   50   20   49 1     
@<TRIPOS>SUBSTRUCTURE
      1 S1             1
@<TRIPOS>SET
LONE_PAIRS      STATIC     ATOMS    <user>   **** ""
5 45 46 47 48 49
DONOR_HYDROGENS      STATIC     ATOMS    <user>   **** ""
2 31 22
ATOM$BLUE        STATIC     ATOMS    COLORGROUP SYSTEM
5 45 46 47 48 49
ATOM$RED        STATIC     ATOMS    COLORGROUP SYSTEM
2 31 22
