AV-unprocessed.smi:1878|AV-procd|sdf|7630|dock8
  -GOLD-   22720 9353D 1   1.00000     0.00000
 Structure written by MMmdl.
 35 36  0  0  0  0  0  0  0  0  3 V2000
  150.8427  140.3305  157.4902 O   0  0  0  0  0  0  0  0  0  0  0  0
  150.8135  141.3176  156.7548 C   0  0  0  0  0  0  0  0  0  0  0  0
  151.1033  142.5206  157.2669 N   0  0  0  0  0  0  0  0  0  0  0  0
  151.4577  142.7800  158.6576 C   0  0  0  0  0  0  0  0  0  0  0  0
  151.7858  144.2636  158.8788 C   0  0  0  0  0  0  0  0  0  0  0  0
  150.6926  144.9939  158.6616 F   0  0  0  0  0  0  0  0  0  0  0  0
  152.1943  144.4671  160.1315 F   0  0  0  0  0  0  0  0  0  0  0  0
  152.7394  144.6596  158.0355 F   0  0  0  0  0  0  0  0  0  0  0  0
  150.5140  141.3638  155.4317 N   0  5  0  0  0  0  0  0  0  0  0  0
  149.5551  140.6630  154.7887 C   0  0  0  0  0  0  0  0  0  0  0  0
  148.2539  141.2187  154.7753 C   0  0  0  0  0  0  0  0  0  0  0  0
  147.1853  140.5626  154.1327 C   0  0  0  0  0  0  0  0  0  0  0  0
  147.4219  139.3295  153.4892 C   0  0  0  0  0  0  0  0  0  0  0  0
  146.4345  138.5915  152.8219 N   0  0  0  0  0  0  0  0  0  0  0  0
  146.1870  137.2640  153.3597 C   0  0  0  0  0  0  0  0  0  0  0  0
  145.4249  136.5138  152.2644 C   0  0  0  0  0  0  0  0  0  0  0  0
  145.7561  137.2645  150.9691 C   0  0  0  0  0  0  0  0  0  0  0  0
  146.6771  138.4088  151.4008 C   0  0  0  0  0  0  0  0  0  0  0  0
  148.6666  138.8131  153.5137 N   0  3  0  0  0  0  0  0  0  0  0  0
  149.7107  139.4167  154.1220 C   0  0  0  0  0  0  0  0  0  0  0  0
  151.0748  143.3160  156.6459 H   0  0  0  0  0  0  0  0  0  0  0  0
  150.6290  142.4829  159.3021 H   0  0  0  0  0  0  0  0  0  0  0  0
  152.3159  142.1649  158.9326 H   0  0  0  0  0  0  0  0  0  0  0  0
  148.0673  142.1634  155.2661 H   0  0  0  0  0  0  0  0  0  0  0  0
  146.2010  141.0065  154.1412 H   0  0  0  0  0  0  0  0  0  0  0  0
  147.1253  136.7530  153.5787 H   0  0  0  0  0  0  0  0  0  0  0  0
  145.6102  137.3171  154.2837 H   0  0  0  0  0  0  0  0  0  0  0  0
  145.7132  135.4631  152.2217 H   0  0  0  0  0  0  0  0  0  0  0  0
  144.3514  136.5562  152.4530 H   0  0  0  0  0  0  0  0  0  0  0  0
  146.2347  136.6230  150.2284 H   0  0  0  0  0  0  0  0  0  0  0  0
  144.8419  137.6598  150.5248 H   0  0  0  0  0  0  0  0  0  0  0  0
  146.4656  139.3238  150.8466 H   0  0  0  0  0  0  0  0  0  0  0  0
  147.7193  138.1403  151.2215 H   0  0  0  0  0  0  0  0  0  0  0  0
  150.6323  138.8626  154.0436 H   0  0  0  0  0  0  0  0  0  0  0  0
  148.8305  137.9202  153.0488 H   0  0  0  0  0  0  0  0  0  0  0  0
  1  2  2  0  0  0  0
  2  3  1  0  0  0  0
  2  9  1  0  0  0  0
  3  4  1  0  0  0  0
  3 21  1  0  0  0  0
  4  5  1  0  0  0  0
  4 22  1  0  0  0  0
  4 23  1  0  0  0  0
  5  6  1  0  0  0  0
  5  7  1  0  0  0  0
  5  8  1  0  0  0  0
  9 10  1  0  0  0  0
 10 20  1  0  0  0  0
 10 11  2  0  0  0  0
 11 12  1  0  0  0  0
 11 24  1  0  0  0  0
 12 13  2  0  0  0  0
 12 25  1  0  0  0  0
 13 14  1  0  0  0  0
 13 19  1  0  0  0  0
 14 18  1  0  0  0  0
 14 15  1  0  0  0  0
 15 16  1  0  0  0  0
 15 26  1  0  0  0  0
 15 27  1  0  0  0  0
 16 17  1  0  0  0  0
 16 28  1  0  0  0  0
 16 29  1  0  0  0  0
 17 18  1  0  0  0  0
 17 30  1  0  0  0  0
 17 31  1  0  0  0  0
 18 32  1  0  0  0  0
 18 33  1  0  0  0  0
 19 20  2  0  0  0  0
 19 35  1  0  0  0  0
 20 34  1  0  0  0  0
M  CHG  1   9  -1
M  CHG  1  19   1
M  END
> <s_m_source_file>
AV-unprocessed.smi

> <i_m_source_file_index>
1878

> <i_lp_mmshare_version>
43012

> <i_f3d_flags>
0

> <s_epik_input>
RkMoRikoRilbQ0gyXVtOSF1DKD1PKVtOSF1jMVtjSF1bY0hdYyhuW2NIXTEpTjJbQ0gyXVtDSDJdW0NIMl1bQ0gyXTI=

> <s_epik_cmdline>
J2VwaWtfcHl0aG9uJywgJy1waCcsICc3LjAnLCAnLXRuJywgJzgnLCAnLW1hJywgJzIwMCcsICctbWV0YWxfYmluZGluZycsICctaW1hZScsICc8aW5maWxlLm1hZT4nLCAnLW9tYWUnLCAnPG91dGZpbGUubWFlPic=

> <r_lp_tautomer_probability>
0.999994

> <r_epik_Ionization_Penalty>
6.00991

> <r_epik_Ionization_Penalty_Charging>
6.00991

> <r_epik_Ionization_Penalty_Neutral>
1.33916e-07

> <r_epik_State_Penalty>
7.27363

> <r_epik_Charging_Adjusted_Penalty>
13.2835

> <i_epik_Tot_Q>
0

> <i_epik_Tot_abs_Q>
2

> <r_epik_Metal_State_Penalty>
3.28277

> <b_epik_Metal_Only>
1

> <s_lp_Force_Field>
OPLS_2005

> <r_lp_Energy>
31.9355

> <b_lp_Chiralities_Consistent>
1

> <s_lp_Variant>
AV-unprocessed.smi:1878-5

> <Gold.Version>
5.8.1

> <Gold.Id.Protein>
6NUR|6NUR_protein|mol2

> <Gold.PLP.Fitness>
43.2635

> <Gold.PLP.PLP>
-39.3041

> <Gold.PLP.part.hbond>
-2.9708

> <Gold.PLP.part.metal>
0.0000

> <Gold.PLP.part.buried>
4.7922

> <Gold.PLP.part.nonpolar>
-41.6346

> <Gold.PLP.part.repulsive>
0.4642

> <Gold.PLP.ligand.clash>
0.0000

> <Gold.PLP.ligand.torsion>
1.0769

> <Gold.PLP.Chemscore.Hbond>
2.0128

> <Gold.PLP.Chemscore.CHOScore>
0.0000

> <Gold.PLP.Chemscore.Metal>
0.0000

> <Gold.Chemscore.Hbonds>
donor molecule, donor type, donor heavy atom, donor atom, acceptor molecule, acceptor atom, score
      L1  H    19    35       P1  7948  1.92
      P1  H  7989  7998       L1     9  0.01

> <Gold.PLP.Chemscore.Internal.Correction>
0.0748

> <Gold.Rescore>
     Score         DG    S(hbond)    S(metal)    S(lipo)     H(rot)  DE(clash)    DE(int)     intcor
     11.60     -14.27       0.98        0.00      76.31       1.33       1.58       1.09       ----

> <Gold.Chemscore.Fitness>
11.5972

> <Gold.Chemscore.DG>
-14.2668

> <Gold.Chemscore.ZeroCoef>
-5.4800

> <Gold.Chemscore.Hbond>
0.9785

> <Gold.Chemscore.Metal>
0.0000

> <Gold.Chemscore.Lipo>
76.3061

> <Gold.Chemscore.Internal_Hbond>
0.0000

> <Gold.Chemscore.DEClash>
1.5810

> <Gold.Chemscore.DEInternal>
1.0886

> <Gold.Chemscore.Rot>
1.3317

> <Gold.Chemscore.Internal.Correction>
   9.000000E+99

> <Gold.Chemscore.Hbonds>
donor molecule, donor type, donor heavy atom, donor atom, acceptor molecule, acceptor atom, score
      L1  H    19    35       P1  7948  0.91

> <Gold.Chemscore.Hbond.Weighted>
-3.2682

> <Gold.Chemscore.Metal.Weighted>
-0.0000

> <Gold.Chemscore.Lipo.Weighted>
-8.9278

> <Gold.Chemscore.Internal_Hbond.Weighted>
0.0000

> <Gold.Chemscore.DEClash.Weighted>
1.5810

> <Gold.Chemscore.DEInternal.Weighted>
1.0886

> <Gold.Chemscore.Rot.Weighted>
3.4092

> <Gold.Chemscore.Internal.Correction.Weighted>
   9.000000E+99

> <Gold.Protein.RotatedTorsions>
[ 6907 6896 6895 6894 ] final  -49.20 input  -60.11 | X-H torsion
[ 7974 7965 7964 7962 ] final  -30.12 input  175.53 | X-H torsion
[ 8008 7997 7996 7995 ] final  -91.04 input   59.86 | X-H torsion
[ 10167 10162 10161 10158 ] final  -59.62 input  -65.29 | X-H torsion
[ 10718 10713 10712 10709 ] final  -46.96 input   66.30 | X-H torsion
[ 10763 10752 10751 10750 ] final  128.44 input  -60.55 | X-H torsion
[ 11005 11000 10999 10996 ] final   75.11 input  -57.11 | X-H torsion

> <Gold.Protein.ActiveResidues>
 VAL166  LYS551  ARG553  GLY616  TRP617  ASP618  TYR619  PRO620  LYS621  CYS622 
 ASP623  PHE694  ASN695  SER759  ASP760  ASP761  ALA762  ILE779  LEU786  VAL792 
 PHE793  MET794  SER795  GLU796  ALA797  LYS798  CYS799  TRP800  GLU811  SER814 

> <Gold.Protein.RotatedAtoms>
  150.8829  134.8222  159.7237 H   0  0  0  0  0  0  0  0  0  0  0  0  # atno 6907 bound_to 6896
  152.4789  134.4769  159.9663 H   0  0  0  0  0  0  0  0  0  0  0  0  # atno 6908 bound_to 6896
  151.4841  133.3501  159.2878 H   0  0  0  0  0  0  0  0  0  0  0  0  # atno 6909 bound_to 6896
  146.1167  140.5499  142.8754 H   0  0  0  0  0  0  0  0  0  0  0  0  # atno 7974 bound_to 7965
  154.7059  140.0524  157.0503 H   0  0  0  0  0  0  0  0  0  0  0  0  # atno 8008 bound_to 7997
  155.0621  140.3190  155.4638 H   0  0  0  0  0  0  0  0  0  0  0  0  # atno 8009 bound_to 7997
  156.2774  140.2097  156.5748 H   0  0  0  0  0  0  0  0  0  0  0  0  # atno 8010 bound_to 7997
  140.6123  143.2391  151.5680 H   0  0  0  0  0  0  0  0  0  0  0  0  # atno 10167 bound_to 10162
  156.2131  130.4162  149.9088 H   0  0  0  0  0  0  0  0  0  0  0  0  # atno 10718 bound_to 10713
  153.7256  135.3246  155.3275 H   0  0  0  0  0  0  0  0  0  0  0  0  # atno 10763 bound_to 10752
  154.8342  135.4510  154.1174 H   0  0  0  0  0  0  0  0  0  0  0  0  # atno 10764 bound_to 10752
  153.2306  135.6959  153.7974 H   0  0  0  0  0  0  0  0  0  0  0  0  # atno 10765 bound_to 10752
  139.9359  134.7490  156.1231 H   0  0  0  0  0  0  0  0  0  0  0  0  # atno 11005 bound_to 11000
  144.7559  140.5306  143.6769 LP  0  0  0  0  0  0  0  0  0  0  0  0  # atno 17320 bound_to 7965
  145.5553  139.1478  143.3371 LP  0  0  0  0  0  0  0  0  0  0  0  0  # atno 17321 bound_to 7965
  139.5371  144.2751  152.1274 LP  0  0  0  0  0  0  0  0  0  0  0  0  # atno 17342 bound_to 10162
  140.1953  144.4712  150.6458 LP  0  0  0  0  0  0  0  0  0  0  0  0  # atno 17343 bound_to 10162
  156.6760  130.8839  151.3569 LP  0  0  0  0  0  0  0  0  0  0  0  0  # atno 17370 bound_to 10713
  157.7049  130.9374  150.0900 LP  0  0  0  0  0  0  0  0  0  0  0  0  # atno 17371 bound_to 10713
  141.0972  133.6691  156.2672 LP  0  0  0  0  0  0  0  0  0  0  0  0  # atno 17394 bound_to 11000
  140.6078  134.5490  157.5528 LP  0  0  0  0  0  0  0  0  0  0  0  0  # atno 17395 bound_to 11000

$$$$
