AV-unprocessed.smi:671|AV-procd|sdf|3275|dock8
  -GOLD-   22720 0233D 1   1.00000     0.00000
 Structure written by MMmdl.
 49 50  0  0  0  0  0  0  0  0  1 V2000
  147.2568  137.8781  155.8184 C   0  0  0  0  0  0  0  0  0  0  0  0
  148.7518  137.8306  155.6788 C   0  0  0  0  0  0  0  0  0  0  0  0
  149.4211  136.8728  156.2978 N   0  0  0  0  0  0  0  0  0  0  0  0
  150.7126  137.0974  155.9849 N   0  0  0  0  0  0  0  0  0  0  0  0
  151.7355  136.2126  156.5078 C   0  0  0  0  0  0  0  0  0  0  0  0
  150.8606  138.2011  155.1678 C   0  0  0  0  0  0  0  0  0  0  0  0
  152.2003  138.6514  154.6808 C   0  0  0  0  0  0  0  0  0  0  0  0
  149.6066  138.7056  154.9448 C   0  0  0  0  0  0  0  0  0  0  0  0
  149.1999  139.9016  154.1208 C   0  0  0  0  0  0  0  0  0  0  0  0
  148.5020  140.9886  154.9610 C   0  0  2  0  0  0  0  0  0  0  0  0
  147.7260  142.0027  154.1006 C   0  0  0  0  0  0  0  0  0  0  0  0
  149.5076  141.6839  155.7686 N   0  0  0  0  0  0  0  0  0  0  0  0
  149.6894  141.6340  157.1009 C   0  0  0  0  0  0  0  0  0  0  0  0
  148.9746  140.9447  157.8258 O   0  0  0  0  0  0  0  0  0  0  0  0
  150.7040  142.3890  157.5541 N   0  0  0  0  0  0  0  0  0  0  0  0
  151.0896  142.5730  158.9528 C   0  0  1  0  0  0  0  0  0  0  0  0
  151.9293  141.3722  159.4360 C   0  0  0  0  0  0  0  0  0  0  0  0
  153.2802  141.9364  159.8895 C   0  0  0  0  0  0  0  0  0  0  0  0
  153.4124  143.2730  159.1655 C   0  0  0  0  0  0  0  0  0  0  0  0
  151.9843  143.8198  159.1465 C   0  0  1  0  0  0  0  0  0  0  0  0
  151.7778  144.9808  158.1569 C   0  0  0  0  0  0  0  0  0  0  0  0
  146.8097  138.5839  155.1188 H   0  0  0  0  0  0  0  0  0  0  0  0
  146.9688  138.1839  156.8243 H   0  0  0  0  0  0  0  0  0  0  0  0
  146.8126  136.9011  155.6266 H   0  0  0  0  0  0  0  0  0  0  0  0
  152.3116  135.7902  155.6845 H   0  0  0  0  0  0  0  0  0  0  0  0
  151.2872  135.3975  157.0776 H   0  0  0  0  0  0  0  0  0  0  0  0
  152.4046  136.7729  157.1612 H   0  0  0  0  0  0  0  0  0  0  0  0
  152.1213  139.5482  154.0673 H   0  0  0  0  0  0  0  0  0  0  0  0
  152.6716  137.8766  154.0763 H   0  0  0  0  0  0  0  0  0  0  0  0
  152.8609  138.8767  155.5183 H   0  0  0  0  0  0  0  0  0  0  0  0
  150.0800  140.3347  153.6438 H   0  0  0  0  0  0  0  0  0  0  0  0
  148.5497  139.6059  153.2970 H   0  0  0  0  0  0  0  0  0  0  0  0
  147.7966  140.4819  155.6217 H   0  0  0  0  0  0  0  0  0  0  0  0
  146.9305  141.5188  153.5340 H   0  0  0  0  0  0  0  0  0  0  0  0
  148.3841  142.5032  153.3896 H   0  0  0  0  0  0  0  0  0  0  0  0
  147.2582  142.7710  154.7168 H   0  0  0  0  0  0  0  0  0  0  0  0
  150.1709  142.2420  155.2505 H   0  0  0  0  0  0  0  0  0  0  0  0
  151.2369  142.9086  156.8723 H   0  0  0  0  0  0  0  0  0  0  0  0
  150.2029  142.6744  159.5809 H   0  0  0  0  0  0  0  0  0  0  0  0
  151.4357  140.8356  160.2469 H   0  0  0  0  0  0  0  0  0  0  0  0
  152.0857  140.6532  158.6298 H   0  0  0  0  0  0  0  0  0  0  0  0
  153.2619  142.1072  160.9668 H   0  0  0  0  0  0  0  0  0  0  0  0
  154.1092  141.2612  159.6764 H   0  0  0  0  0  0  0  0  0  0  0  0
  154.1135  143.9475  159.6578 H   0  0  0  0  0  0  0  0  0  0  0  0
  153.7658  143.1066  158.1469 H   0  0  0  0  0  0  0  0  0  0  0  0
  151.7781  144.2053  160.1465 H   0  0  0  0  0  0  0  0  0  0  0  0
  152.0344  144.6967  157.1359 H   0  0  0  0  0  0  0  0  0  0  0  0
  152.4032  145.8325  158.4248 H   0  0  0  0  0  0  0  0  0  0  0  0
  150.7410  145.3181  158.1619 H   0  0  0  0  0  0  0  0  0  0  0  0
  1  2  1  0  0  0  0
  1 22  1  0  0  0  0
  1 23  1  0  0  0  0
  1 24  1  0  0  0  0
  2  8  1  0  0  0  0
  2  3  2  0  0  0  0
  3  4  1  0  0  0  0
  4  5  1  0  0  0  0
  4  6  1  0  0  0  0
  5 25  1  0  0  0  0
  5 26  1  0  0  0  0
  5 27  1  0  0  0  0
  6  7  1  0  0  0  0
  6  8  2  0  0  0  0
  7 28  1  0  0  0  0
  7 29  1  0  0  0  0
  7 30  1  0  0  0  0
  8  9  1  0  0  0  0
  9 10  1  0  0  0  0
  9 31  1  0  0  0  0
  9 32  1  0  0  0  0
 10 11  1  0  0  0  0
 10 12  1  0  0  0  0
 10 33  1  0  0  0  0
 11 34  1  0  0  0  0
 11 35  1  0  0  0  0
 11 36  1  0  0  0  0
 12 13  1  0  0  0  0
 12 37  1  0  0  0  0
 13 14  2  0  0  0  0
 13 15  1  0  0  0  0
 15 16  1  0  0  0  0
 15 38  1  0  0  0  0
 16 20  1  0  0  0  0
 16 17  1  0  0  0  0
 16 39  1  0  0  0  0
 17 18  1  0  0  0  0
 17 40  1  0  0  0  0
 17 41  1  0  0  0  0
 18 19  1  0  0  0  0
 18 42  1  0  0  0  0
 18 43  1  0  0  0  0
 19 20  1  0  0  0  0
 19 44  1  0  0  0  0
 19 45  1  0  0  0  0
 20 21  1  0  0  0  0
 20 46  1  0  0  0  0
 21 47  1  0  0  0  0
 21 48  1  0  0  0  0
 21 49  1  0  0  0  0
M  END
> <s_m_source_file>
AV-unprocessed.smi

> <i_m_source_file_index>
671

> <i_lp_mmshare_version>
43012

> <i_f3d_flags>
0

> <s_epik_input>
W0NIM11jMW5uKFtDSDNdKWMoW0NIM10pYzFbQ0gyXVtDQEhdKFtDSDNdKVtOSF1DKD1PKVtOSF1bQ0BASF0yW0NIMl1bQ0gyXVtDSDJdW0NASF0yW0NIM10=

> <s_epik_cmdline>
J2VwaWtfcHl0aG9uJywgJy1waCcsICc3LjAnLCAnLXRuJywgJzgnLCAnLW1hJywgJzIwMCcsICctbWV0YWxfYmluZGluZycsICctaW1hZScsICc8aW5maWxlLm1hZT4nLCAnLW9tYWUnLCAnPG91dGZpbGUubWFlPic=

> <r_lp_tautomer_probability>
1

> <r_epik_Ionization_Penalty>
0.0126855

> <r_epik_Ionization_Penalty_Charging>
0

> <r_epik_Ionization_Penalty_Neutral>
0.0126855

> <r_epik_State_Penalty>
0.00977547

> <r_epik_Charging_Adjusted_Penalty>
0.00977547

> <i_epik_Tot_Q>
0

> <i_epik_Tot_abs_Q>
0

> <r_epik_Metal_State_Penalty>
0.00957132

> <b_epik_Metal_Only>
0

> <s_lp_Force_Field>
OPLS_2005

> <r_lp_Energy>
23.5654

> <b_lp_Chiralities_Consistent>
1

> <s_lp_Variant>
AV-unprocessed.smi:671-3

> <Gold.Version>
5.8.1

> <Gold.Id.Protein>
6NUR|6NUR_protein|mol2

> <Gold.PLP.Fitness>
36.1888

> <Gold.PLP.PLP>
-37.0748

> <Gold.PLP.part.hbond>
-0.7120

> <Gold.PLP.part.metal>
0.0000

> <Gold.PLP.part.buried>
-4.1357

> <Gold.PLP.part.nonpolar>
-32.5659

> <Gold.PLP.part.repulsive>
0.1901

> <Gold.PLP.ligand.clash>
0.0000

> <Gold.PLP.ligand.torsion>
0.4543

> <Gold.PLP.Chemscore.Hbond>
0.0000

> <Gold.PLP.Chemscore.CHOScore>
0.0000

> <Gold.PLP.Chemscore.Metal>
0.0000

> <Gold.PLP.Chemscore.Internal.Correction>
0.0227

> <Gold.Rescore>
     Score         DG    S(hbond)    S(metal)    S(lipo)     H(rot)  DE(clash)    DE(int)     intcor
     14.17     -14.78       0.00        0.00     111.22       1.45       0.04       0.57       ----

> <Gold.Chemscore.Fitness>
14.1666

> <Gold.Chemscore.DG>
-14.7811

> <Gold.Chemscore.ZeroCoef>
-5.4800

> <Gold.Chemscore.Hbond>
0.0000

> <Gold.Chemscore.Metal>
0.0000

> <Gold.Chemscore.Lipo>
111.2216

> <Gold.Chemscore.Internal_Hbond>
0.0000

> <Gold.Chemscore.DEClash>
0.0437

> <Gold.Chemscore.DEInternal>
0.5708

> <Gold.Chemscore.Rot>
1.4499

> <Gold.Chemscore.Internal.Correction>
   9.000000E+99

> <Gold.Chemscore.Hbond.Weighted>
-0.0000

> <Gold.Chemscore.Metal.Weighted>
-0.0000

> <Gold.Chemscore.Lipo.Weighted>
-13.0129

> <Gold.Chemscore.Internal_Hbond.Weighted>
0.0000

> <Gold.Chemscore.DEClash.Weighted>
0.0437

> <Gold.Chemscore.DEInternal.Weighted>
0.5708

> <Gold.Chemscore.Rot.Weighted>
3.7118

> <Gold.Chemscore.Internal.Correction.Weighted>
   9.000000E+99

> <Gold.Protein.RotatedTorsions>
[ 6907 6896 6895 6894 ] final  136.02 input  -60.11 | X-H torsion
[ 7974 7965 7964 7962 ] final  179.57 input  175.53 | X-H torsion
[ 8008 7997 7996 7995 ] final  -21.25 input   59.86 | X-H torsion
[ 10167 10162 10161 10158 ] final -127.98 input  -65.29 | X-H torsion
[ 10718 10713 10712 10709 ] final  124.98 input   66.30 | X-H torsion
[ 10763 10752 10751 10750 ] final -158.18 input  -60.55 | X-H torsion
[ 11005 11000 10999 10996 ] final  -47.16 input  -57.11 | X-H torsion

> <Gold.Protein.ActiveResidues>
 VAL166  LYS551  ARG553  GLY616  TRP617  ASP618  TYR619  PRO620  LYS621  CYS622 
 ASP623  PHE694  ASN695  SER759  ASP760  ASP761  ALA762  ILE779  LEU786  VAL792 
 PHE793  MET794  SER795  GLU796  ALA797  LYS798  CYS799  TRP800  GLU811  SER814 

> <Gold.Protein.RotatedAtoms>
  152.2940  133.5589  159.5575 H   0  0  0  0  0  0  0  0  0  0  0  0  # atno 6907 bound_to 6896
  150.7248  134.0387  159.3767 H   0  0  0  0  0  0  0  0  0  0  0  0  # atno 6908 bound_to 6896
  151.8292  135.0627  160.0485 H   0  0  0  0  0  0  0  0  0  0  0  0  # atno 6909 bound_to 6896
  144.7144  140.0568  143.6434 H   0  0  0  0  0  0  0  0  0  0  0  0  # atno 7974 bound_to 7965
  154.4717  140.2040  155.9978 H   0  0  0  0  0  0  0  0  0  0  0  0  # atno 8008 bound_to 7997
  156.1022  140.3242  155.7928 H   0  0  0  0  0  0  0  0  0  0  0  0  # atno 8009 bound_to 7997
  155.4778  140.0536  157.2962 H   0  0  0  0  0  0  0  0  0  0  0  0  # atno 8010 bound_to 7997
  139.9551  143.6012  152.2463 H   0  0  0  0  0  0  0  0  0  0  0  0  # atno 10167 bound_to 10162
  157.5541  131.1093  150.8652 H   0  0  0  0  0  0  0  0  0  0  0  0  # atno 10718 bound_to 10713
  154.7577  135.3109  154.8438 H   0  0  0  0  0  0  0  0  0  0  0  0  # atno 10763 bound_to 10752
  153.9208  135.6796  153.4752 H   0  0  0  0  0  0  0  0  0  0  0  0  # atno 10764 bound_to 10752
  153.1175  135.4837  154.9071 H   0  0  0  0  0  0  0  0  0  0  0  0  # atno 10765 bound_to 10752
  141.0624  133.6705  156.3258 H   0  0  0  0  0  0  0  0  0  0  0  0  # atno 11005 bound_to 11000
  145.9897  139.3005  143.0992 LP  0  0  0  0  0  0  0  0  0  0  0  0  # atno 17320 bound_to 7965
  145.8917  140.9300  143.0549 LP  0  0  0  0  0  0  0  0  0  0  0  0  # atno 17321 bound_to 7965
  139.6598  144.7662  151.1985 LP  0  0  0  0  0  0  0  0  0  0  0  0  # atno 17342 bound_to 10162
  140.7571  143.6028  150.8682 LP  0  0  0  0  0  0  0  0  0  0  0  0  # atno 17343 bound_to 10162
  156.9168  130.5301  149.5279 LP  0  0  0  0  0  0  0  0  0  0  0  0  # atno 17370 bound_to 10713
  156.0602  130.5656  150.9177 LP  0  0  0  0  0  0  0  0  0  0  0  0  # atno 17371 bound_to 10713
  140.5842  134.5715  157.5486 LP  0  0  0  0  0  0  0  0  0  0  0  0  # atno 17394 bound_to 11000
  139.9444  134.7728  156.0597 LP  0  0  0  0  0  0  0  0  0  0  0  0  # atno 17395 bound_to 11000

$$$$
