#       Name:                AV-unprocessed.smi:1213
#       Creating user name   scv26
#       Creation time:       Fri Mar 27 04:13:53 2020


#       File generated by GOLD software.
#

@<TRIPOS>MOLECULE
AV-unprocessed.smi:1213
    42    43     1
SMALL
NO_CHARGES


@<TRIPOS>ATOM
      1 ****        -4.2584   2.7613   2.1896 N.am           1 S1                 0.0000
      2 ****        -4.5416   2.3276   0.9587 C.2            1 S1                 0.0000
      3 ****        -5.2091   2.9876   0.1656 O.2            1 S1                 0.0000
      4 ****        -4.0044   0.9470   0.5641 C.3            1 S1                 0.0000
      5 ****        -2.5303   0.8144   0.6241 N.3            1 S1                 0.0000
      6 ****        -1.8463   1.7230  -0.3086 C.3            1 S1                 0.0000
      7 ****        -0.3189   1.5981  -0.1655 C.3            1 S1                 0.0000
      8 ****         0.1477   0.1567  -0.4116 C.3            1 S1                 0.0000
      9 ****         1.5822   0.0478  -0.1601 N.am           1 S1                 0.0000
     10 ****         2.4010  -0.8921  -0.6546 C.2            1 S1                 0.0000
     11 ****         1.9540  -1.7716  -1.3949 O.2            1 S1                 0.0000
     12 ****         3.6876  -0.7540  -0.2604 N.pl3          1 S1                -1.0000
     13 ****         4.6166  -1.6283  -0.6801 C.2            1 S1                 0.0000
     14 ****         5.0571  -2.6422   0.0736 N.2            1 S1                 0.0000
     15 ****         6.0272  -3.4229  -0.5576 C.2            1 S1                 0.0000
     16 ****         6.3396  -2.9875  -1.8182 C.2            1 S1                 0.0000
     17 ****         5.4192  -1.5755  -2.2525 S.3            1 S1                 0.0000
     18 ****        -0.6462  -0.7852   0.5080 C.3            1 S1                 0.0000
     19 ****        -2.1608  -0.5763   0.3376 C.3            1 S1                 0.0000
     20 ****        -4.5836   3.6685   2.4905 H              1 S1                 0.0000
     21 ****        -3.7118   2.1822   2.8108 H              1 S1                 0.0000
     22 ****        -4.4628   0.2190   1.2352 H              1 S1                 0.0000
     23 ****        -4.3548   0.7037  -0.4408 H              1 S1                 0.0000
     24 ****        -2.1486   1.5059  -1.3346 H              1 S1                 0.0000
     25 ****        -2.1188   2.7600  -0.1131 H              1 S1                 0.0000
     26 ****         0.1727   2.2730  -0.8673 H              1 S1                 0.0000
     27 ****        -0.0219   1.9217   0.8336 H              1 S1                 0.0000
     28 ****        -0.0579  -0.0977  -1.4531 H              1 S1                 0.0000
     29 ****         1.9930   0.7459   0.4425 H              1 S1                 0.0000
     30 ****         6.4425  -4.2707  -0.0336 H              1 S1                 0.0000
     31 ****         7.0510  -3.4069  -2.5134 H              1 S1                 0.0000
     32 ****        -0.3935  -1.8239   0.2914 H              1 S1                 0.0000
     33 ****        -0.3698  -0.6112   1.5493 H              1 S1                 0.0000
     34 ****        -2.6857  -1.2462   1.0201 H              1 S1                 0.0000
     35 ****        -2.4670  -0.8510  -0.6735 H              1 S1                 0.0000
     36 ****        -5.5615   3.8842   0.4336 LP             1 S1                 0.0000
     37 ****        -5.3998   2.6281  -0.7479 LP             1 S1                 0.0000
     38 ****        -2.2356   1.0691   1.5451 LP             1 S1                 0.0000
     39 ****         0.9812  -1.7837  -1.6263 LP             1 S1                 0.0000
     40 ****         2.5644  -2.4726  -1.7638 LP             1 S1                 0.0000
     41 ****         3.9471  -0.0006   0.3437 LP             1 S1                 0.0000
     42 ****         4.7239  -2.8232   0.9989 LP             1 S1                 0.0000
@<TRIPOS>BOND
    1    1    2 am    
    2    1   20 1     
    3    1   21 1     
    4    2    3 2     
    5    2    4 1     
    6    4    5 1     
    7    4   22 1     
    8    4   23 1     
    9    5   19 1     
   10    5    6 1     
   11    6    7 1     
   12    6   24 1     
   13    6   25 1     
   14    7    8 1     
   15    7   26 1     
   16    7   27 1     
   17    8    9 1     
   18    8   18 1     
   19    8   28 1     
   20    9   10 am    
   21    9   29 1     
   22   10   11 2     
   23   10   12 1     
   24   12   13 1     
   25   13   17 1     
   26   13   14 2     
   27   14   15 1     
   28   15   16 2     
   29   15   30 1     
   30   16   17 1     
   31   16   31 1     
   32   18   19 1     
   33   18   32 1     
   34   18   33 1     
   35   19   34 1     
   36   19   35 1     
   37    3   36 1     
   38    3   37 1     
   39    5   38 1     
   40   11   39 1     
   41   11   40 1     
   42   12   41 1     
   43   14   42 1     
@<TRIPOS>SUBSTRUCTURE
      1 S1             1
@<TRIPOS>SET
LONE_PAIRS      STATIC     ATOMS    <user>   **** ""
7 36 37 38 39 40 41 42
DONOR_HYDROGENS      STATIC     ATOMS    <user>   **** ""
3 20 21 29
ATOM$BLUE        STATIC     ATOMS    COLORGROUP SYSTEM
7 36 37 38 39 40 41 42
ATOM$RED        STATIC     ATOMS    COLORGROUP SYSTEM
3 20 21 29
