#       Name:                AV-unprocessed.smi:1832
#       Creating user name   scv26
#       Creation time:       Fri Mar 27 09:15:44 2020


#       File generated by GOLD software.
#

@<TRIPOS>MOLECULE
AV-unprocessed.smi:1832
    41    41     1
SMALL
NO_CHARGES


@<TRIPOS>ATOM
      1 ****        -4.8952  -2.7853   0.8841 C.3            1 S1                 0.0000
      2 ****        -3.3867  -2.5215   0.8316 C.3            1 S1                 0.0000
      3 ****        -2.8892  -1.7186   2.0444 C.3            1 S1                 0.0000
      4 ****        -1.4475  -1.5056   1.9953 N.am           1 S1                 0.0000
      5 ****        -0.8316  -0.5519   1.2805 C.2            1 S1                 0.0000
      6 ****        -1.4346   0.2492   0.5646 O.2            1 S1                 0.0000
      7 ****         0.7003  -0.5208   1.3824 C.3            1 S1                 0.0000
      8 ****         1.2878   0.7577   0.9468 N.am           1 S1                 0.0000
      9 ****         1.7357   0.8343  -0.3872 C.2            1 S1                 0.0000
     10 ****         2.2849   1.9579  -0.8997 C.2            1 S1                 0.0000
     11 ****         2.7501   2.0735  -2.2850 C.2            1 S1                 0.0000
     12 ****         3.2600   3.0888  -2.7607 O.2            1 S1                 0.0000
     13 ****         2.5749   0.9627  -3.0216 N.am           1 S1                 0.0000
     14 ****         2.9490   0.8334  -4.4217 C.3            1 S1                 0.0000
     15 ****         2.4041   3.1014  -0.0156 C.2            1 S1                 0.0000
     16 ****         1.9725   3.0363   1.2591 C.2            1 S1                 0.0000
     17 ****         1.3708   1.8176   1.8070 C.2            1 S1                 0.0000
     18 ****         0.9665   1.7534   2.9683 O.2            1 S1                 0.0000
     19 ****        -5.2205  -3.3565   0.0145 H              1 S1                 0.0000
     20 ****        -5.4571  -1.8511   0.8978 H              1 S1                 0.0000
     21 ****        -5.1650  -3.3531   1.7750 H              1 S1                 0.0000
     22 ****        -2.8574  -3.4736   0.7797 H              1 S1                 0.0000
     23 ****        -3.1514  -1.9870  -0.0894 H              1 S1                 0.0000
     24 ****        -3.4082  -0.7606   2.1094 H              1 S1                 0.0000
     25 ****        -3.1179  -2.2572   2.9644 H              1 S1                 0.0000
     26 ****        -0.8763  -2.1252   2.5518 H              1 S1                 0.0000
     27 ****         0.9982  -0.7432   2.4089 H              1 S1                 0.0000
     28 ****         1.0972  -1.3451   0.7884 H              1 S1                 0.0000
     29 ****         1.5865  -0.0773  -0.9478 H              1 S1                 0.0000
     30 ****         2.1508   0.1593  -2.5813 H              1 S1                 0.0000
     31 ****         2.6901  -0.1613  -4.7845 H              1 S1                 0.0000
     32 ****         4.0225   0.9756  -4.5517 H              1 S1                 0.0000
     33 ****         2.4226   1.5671  -5.0336 H              1 S1                 0.0000
     34 ****         2.8407   4.0239  -0.3706 H              1 S1                 0.0000
     35 ****         2.0720   3.9037   1.8949 H              1 S1                 0.0000
     36 ****        -2.4313   0.2069   0.4964 LP             1 S1                 0.0000
     37 ****        -0.9272   0.9417   0.0518 LP             1 S1                 0.0000
     38 ****         3.3781   3.9026  -2.1917 LP             1 S1                 0.0000
     39 ****         3.5559   3.0992  -3.7158 LP             1 S1                 0.0000
     40 ****         0.5612   0.9057   3.3105 LP             1 S1                 0.0000
     41 ****         1.0436   2.5489   3.5693 LP             1 S1                 0.0000
@<TRIPOS>BOND
    1    1    2 1     
    2    1   19 1     
    3    1   20 1     
    4    1   21 1     
    5    2    3 1     
    6    2   22 1     
    7    2   23 1     
    8    3    4 1     
    9    3   24 1     
   10    3   25 1     
   11    4    5 am    
   12    4   26 1     
   13    5    6 2     
   14    5    7 1     
   15    7    8 1     
   16    7   27 1     
   17    7   28 1     
   18    8   17 am    
   19    8    9 1     
   20    9   10 2     
   21    9   29 1     
   22   10   11 1     
   23   10   15 1     
   24   11   12 2     
   25   11   13 am    
   26   13   14 1     
   27   13   30 1     
   28   14   31 1     
   29   14   32 1     
   30   14   33 1     
   31   15   16 2     
   32   15   34 1     
   33   16   17 1     
   34   16   35 1     
   35   17   18 2     
   36    6   36 1     
   37    6   37 1     
   38   12   38 1     
   39   12   39 1     
   40   18   40 1     
   41   18   41 1     
@<TRIPOS>SUBSTRUCTURE
      1 S1             1
@<TRIPOS>SET
LONE_PAIRS      STATIC     ATOMS    <user>   **** ""
6 36 37 38 39 40 41
DONOR_HYDROGENS      STATIC     ATOMS    <user>   **** ""
2 26 30
ATOM$BLUE        STATIC     ATOMS    COLORGROUP SYSTEM
6 36 37 38 39 40 41
ATOM$RED        STATIC     ATOMS    COLORGROUP SYSTEM
2 26 30
