AV-unprocessed.smi:955|AV-procd|sdf|4261|dock7
  -GOLD-   22720 2173D 1   1.00000     0.00000
 Structure written by MMmdl.
 29 29  0  0  0  0  0  0  0  0  1 V2000
  148.2994  140.7476  157.1274 C   0  0  0  0  0  0  0  0  0  0  0  0
  149.8116  140.4715  157.0917 C   0  0  2  0  0  0  0  0  0  0  0  0
  150.4166  141.1290  158.2480 N   0  0  0  0  0  0  0  0  0  0  0  0
  151.7086  141.0411  158.6052 C   0  0  0  0  0  0  0  0  0  0  0  0
  152.5243  140.3379  158.0070 O   0  0  0  0  0  0  0  0  0  0  0  0
  152.1331  141.8839  159.8181 C   0  0  1  0  0  0  0  0  0  0  0  0
  153.6119  141.6773  160.2058 C   0  0  0  0  0  0  0  0  0  0  0  0
  151.8121  143.2886  159.5902 N   0  0  0  0  0  0  0  0  0  0  0  0
  152.0208  144.3547  160.4418 C   0  0  0  0  0  0  0  0  0  0  0  0
  151.5233  145.4711  159.8333 C   0  0  0  0  0  0  0  0  0  0  0  0
  151.0094  144.9827  158.6005 C   0  0  0  0  0  0  0  0  0  0  0  0
  151.1760  143.6781  158.4607 N   0  0  0  0  0  0  0  0  0  0  0  0
  150.3717  141.0631  155.7875 C   0  0  0  0  0  0  0  0  0  0  0  0
  150.1604  142.3644  155.5771 N   0  0  0  0  0  0  0  0  0  0  0  0
  150.9978  140.3657  154.9899 O   0  0  0  0  0  0  0  0  0  0  0  0
  147.7907  140.2778  156.2846 H   0  0  0  0  0  0  0  0  0  0  0  0
  148.0794  141.8160  157.0952 H   0  0  0  0  0  0  0  0  0  0  0  0
  147.8529  140.3473  158.0381 H   0  0  0  0  0  0  0  0  0  0  0  0
  149.9913  139.3952  157.1308 H   0  0  0  0  0  0  0  0  0  0  0  0
  149.8164  141.7331  158.7901 H   0  0  0  0  0  0  0  0  0  0  0  0
  151.5311  141.5516  160.6655 H   0  0  0  0  0  0  0  0  0  0  0  0
  153.8160  140.6303  160.4322 H   0  0  0  0  0  0  0  0  0  0  0  0
  153.8646  142.2579  161.0933 H   0  0  0  0  0  0  0  0  0  0  0  0
  154.2922  141.9809  159.4089 H   0  0  0  0  0  0  0  0  0  0  0  0
  152.4999  144.2311  161.4016 H   0  0  0  0  0  0  0  0  0  0  0  0
  151.5209  146.4815  160.2140 H   0  0  0  0  0  0  0  0  0  0  0  0
  150.5195  145.5325  157.8104 H   0  0  0  0  0  0  0  0  0  0  0  0
  150.5161  142.8049  154.7411 H   0  0  0  0  0  0  0  0  0  0  0  0
  149.6531  142.9058  156.2620 H   0  0  0  0  0  0  0  0  0  0  0  0
  1  2  1  0  0  0  0
  1 16  1  0  0  0  0
  1 17  1  0  0  0  0
  1 18  1  0  0  0  0
  2  3  1  0  0  0  0
  2 13  1  0  0  0  0
  2 19  1  0  0  0  0
  3  4  1  0  0  0  0
  3 20  1  0  0  0  0
  4  5  2  0  0  0  0
  4  6  1  0  0  0  0
  6  7  1  0  0  0  0
  6  8  1  0  0  0  0
  6 21  1  0  0  0  0
  7 22  1  0  0  0  0
  7 23  1  0  0  0  0
  7 24  1  0  0  0  0
  8 12  1  0  0  0  0
  8  9  1  0  0  0  0
  9 10  2  0  0  0  0
  9 25  1  0  0  0  0
 10 11  1  0  0  0  0
 10 26  1  0  0  0  0
 11 12  2  0  0  0  0
 11 27  1  0  0  0  0
 13 14  1  0  0  0  0
 13 15  2  0  0  0  0
 14 28  1  0  0  0  0
 14 29  1  0  0  0  0
M  END
> <s_m_source_file>
AV-unprocessed.smi

> <i_m_source_file_index>
955

> <i_lp_mmshare_version>
43012

> <i_f3d_flags>
0

> <s_epik_input>
W05IMl1DKD1PKVtDQEhdKFtDSDNdKVtOSF1DKD1PKVtDQEhdKFtDSDNdKW4xW2NIXVtjSF1bY0hdbjE=

> <s_epik_cmdline>
J2VwaWtfcHl0aG9uJywgJy1waCcsICc3LjAnLCAnLXRuJywgJzgnLCAnLW1hJywgJzIwMCcsICctbWV0YWxfYmluZGluZycsICctaW1hZScsICc8aW5maWxlLm1hZT4nLCAnLW9tYWUnLCAnPG91dGZpbGUubWFlPic=

> <r_lp_tautomer_probability>
1

> <r_epik_Ionization_Penalty>
2.8146e-05

> <r_epik_Ionization_Penalty_Charging>
0

> <r_epik_Ionization_Penalty_Neutral>
2.8146e-05

> <r_epik_State_Penalty>
-0

> <r_epik_Charging_Adjusted_Penalty>
0

> <i_epik_Tot_Q>
0

> <i_epik_Tot_abs_Q>
0

> <r_epik_Metal_State_Penalty>
-0

> <b_epik_Metal_Only>
0

> <s_lp_Force_Field>
OPLS_2005

> <r_lp_Energy>
4.42999

> <b_lp_Chiralities_Consistent>
1

> <s_lp_Variant>
AV-unprocessed.smi:955-3

> <Gold.Version>
5.8.1

> <Gold.Id.Protein>
6NUR|6NUR_protein|mol2

> <Gold.PLP.Fitness>
40.2866

> <Gold.PLP.PLP>
-32.3409

> <Gold.PLP.part.hbond>
-3.0000

> <Gold.PLP.part.metal>
0.0000

> <Gold.PLP.part.buried>
-4.4335

> <Gold.PLP.part.nonpolar>
-25.1823

> <Gold.PLP.part.repulsive>
0.4562

> <Gold.PLP.ligand.clash>
0.0000

> <Gold.PLP.ligand.torsion>
0.1349

> <Gold.PLP.Chemscore.Hbond>
2.0042

> <Gold.PLP.Chemscore.CHOScore>
0.6974

> <Gold.PLP.Chemscore.Metal>
0.0000

> <Gold.Chemscore.Hbonds>
donor molecule, donor type, donor heavy atom, donor atom, acceptor molecule, acceptor atom, score
      L1  H    14    29       P1  8028  0.33
      P1  H  7989  7998       L1    15  1.00
      P1  H  7997  8009       L1     5  0.38
      L1  C    11    27       P1  8028  0.16
      L1  C    11    27       P1  8029  0.35

> <Gold.PLP.Chemscore.Internal.Correction>
0.1107

> <Gold.Rescore>
     Score         DG    S(hbond)    S(metal)    S(lipo)     H(rot)  DE(clash)    DE(int)     intcor
     12.76     -14.39       2.17        0.00      64.56       2.30       0.03       1.60       ----

> <Gold.Chemscore.Fitness>
12.7591

> <Gold.Chemscore.DG>
-14.3867

> <Gold.Chemscore.ZeroCoef>
-5.4800

> <Gold.Chemscore.Hbond>
2.1658

> <Gold.Chemscore.Metal>
0.0000

> <Gold.Chemscore.Lipo>
64.5632

> <Gold.Chemscore.Internal_Hbond>
0.0000

> <Gold.Chemscore.DEClash>
0.0323

> <Gold.Chemscore.DEInternal>
1.5953

> <Gold.Chemscore.Rot>
2.2972

> <Gold.Chemscore.Internal.Correction>
   9.000000E+99

> <Gold.Chemscore.Hbonds>
donor molecule, donor type, donor heavy atom, donor atom, acceptor molecule, acceptor atom, score
      L1  H    14    29       P1  8028  0.32
      P1  H  7989  7998       L1    15  0.98
      P1  H  7997  8009       L1     5  0.38

> <Gold.Chemscore.Hbond.Weighted>
-7.2337

> <Gold.Chemscore.Metal.Weighted>
-0.0000

> <Gold.Chemscore.Lipo.Weighted>
-7.5539

> <Gold.Chemscore.Internal_Hbond.Weighted>
0.0000

> <Gold.Chemscore.DEClash.Weighted>
0.0323

> <Gold.Chemscore.DEInternal.Weighted>
1.5953

> <Gold.Chemscore.Rot.Weighted>
5.8809

> <Gold.Chemscore.Internal.Correction.Weighted>
   9.000000E+99

> <Gold.Protein.RotatedTorsions>
[ 6907 6896 6895 6894 ] final  166.27 input  -60.11 | X-H torsion
[ 7974 7965 7964 7962 ] final   60.99 input  175.53 | X-H torsion
[ 8008 7997 7996 7995 ] final  165.04 input   59.86 | X-H torsion
[ 10167 10162 10161 10158 ] final  -89.14 input  -65.29 | X-H torsion
[ 10718 10713 10712 10709 ] final  139.66 input   66.30 | X-H torsion
[ 10763 10752 10751 10750 ] final -157.73 input  -60.55 | X-H torsion
[ 11005 11000 10999 10996 ] final  154.71 input  -57.11 | X-H torsion

> <Gold.Protein.ActiveResidues>
 VAL166  LYS551  ARG553  GLY616  TRP617  ASP618  TYR619  PRO620  LYS621  CYS622 
 ASP623  PHE694  ASN695  SER759  ASP760  ASP761  ALA762  ILE779  LEU786  VAL792 
 PHE793  MET794  SER795  GLU796  ALA797  LYS798  CYS799  TRP800  GLU811  SER814 

> <Gold.Protein.RotatedAtoms>
  151.8815  133.3496  159.3767 H   0  0  0  0  0  0  0  0  0  0  0  0  # atno 6907 bound_to 6896
  150.7126  134.5014  159.5572 H   0  0  0  0  0  0  0  0  0  0  0  0  # atno 6908 bound_to 6896
  152.2566  134.8078  160.0488 H   0  0  0  0  0  0  0  0  0  0  0  0  # atno 6909 bound_to 6896
  145.8898  139.3503  143.0656 H   0  0  0  0  0  0  0  0  0  0  0  0  # atno 7974 bound_to 7965
  156.1832  140.1681  156.8234 H   0  0  0  0  0  0  0  0  0  0  0  0  # atno 8008 bound_to 7997
  154.5384  140.0742  156.8501 H   0  0  0  0  0  0  0  0  0  0  0  0  # atno 8009 bound_to 7997
  155.3264  140.3376  155.4242 H   0  0  0  0  0  0  0  0  0  0  0  0  # atno 8010 bound_to 7997
  140.3678  143.2809  151.9537 H   0  0  0  0  0  0  0  0  0  0  0  0  # atno 10167 bound_to 10162
  157.4119  131.1029  151.0445 H   0  0  0  0  0  0  0  0  0  0  0  0  # atno 10718 bound_to 10713
  154.7613  135.3118  154.8373 H   0  0  0  0  0  0  0  0  0  0  0  0  # atno 10763 bound_to 10752
  153.9133  135.6803  153.4754 H   0  0  0  0  0  0  0  0  0  0  0  0  # atno 10764 bound_to 10752
  153.1214  135.4821  154.9133 H   0  0  0  0  0  0  0  0  0  0  0  0  # atno 10765 bound_to 10752
  140.1515  134.8672  157.2460 H   0  0  0  0  0  0  0  0  0  0  0  0  # atno 11005 bound_to 11000
  145.8922  140.9296  143.0546 LP  0  0  0  0  0  0  0  0  0  0  0  0  # atno 17320 bound_to 7965
  144.6730  140.0921  143.7464 LP  0  0  0  0  0  0  0  0  0  0  0  0  # atno 17321 bound_to 7965
  139.4807  144.5934  151.7732 LP  0  0  0  0  0  0  0  0  0  0  0  0  # atno 17342 bound_to 10162
  140.5063  144.1092  150.5983 LP  0  0  0  0  0  0  0  0  0  0  0  0  # atno 17343 bound_to 10162
  157.1407  130.6141  149.5554 LP  0  0  0  0  0  0  0  0  0  0  0  0  # atno 17370 bound_to 10713
  155.9853  130.4882  150.7026 LP  0  0  0  0  0  0  0  0  0  0  0  0  # atno 17371 bound_to 10713
  140.2599  134.3583  155.7410 LP  0  0  0  0  0  0  0  0  0  0  0  0  # atno 17394 bound_to 11000
  141.2199  133.7364  156.9064 LP  0  0  0  0  0  0  0  0  0  0  0  0  # atno 17395 bound_to 11000

$$$$
