AV-unprocessed.smi:265|AV-procd|sdf|2018|dock6
  -GOLD-   2262021223D 1   1.00000     0.00000
 Structure written by MMmdl.
 52 56  0  0  0  0  0  0  0  0  1 V2000
  150.1163  132.0049  155.2012 C   0  0  0  0  0  0  0  0  0  0  0  0
  149.6260  133.1430  154.2925 C   0  0  1  0  0  0  0  0  0  0  0  0
  148.2021  133.0786  154.2556 O   0  0  0  0  0  0  0  0  0  0  0  0
  147.6820  134.3883  154.1104 C   0  0  0  0  0  0  0  0  0  0  0  0
  148.6018  135.2074  155.0020 C   0  0  0  0  0  0  0  0  0  0  0  0
  149.9729  134.5920  154.7373 C   0  0  2  0  0  0  0  0  0  0  0  0
  150.5412  135.2582  153.6214 O   0  0  0  0  0  0  0  0  0  0  0  0
  150.9575  134.7307  155.9280 C   0  0  0  0  0  0  0  0  0  0  0  0
  151.0936  136.0967  156.4109 N   0  0  0  0  0  0  0  0  0  0  0  0
  150.7917  136.5551  157.6733 C   0  0  0  0  0  0  0  0  0  0  0  0
  150.9998  137.8284  157.8676 N   0  0  0  0  0  0  0  0  0  0  0  0
  151.4724  138.2862  156.6434 C   0  0  0  0  0  0  0  0  0  0  0  0
  151.8926  139.5560  156.1559 C   0  0  0  0  0  0  0  0  0  0  0  0
  151.8679  140.6778  156.9188 N   0  0  0  0  0  0  0  0  0  0  0  0
  150.7412  141.6006  156.7412 C   0  0  0  0  0  0  0  0  0  0  0  0
  151.0266  142.9647  157.3981 C   0  0  0  0  0  0  0  0  0  0  0  0
  151.4243  142.7648  158.8664 C   0  0  2  0  0  0  0  0  0  0  0  0
  151.7966  143.9844  159.4902 O   0  0  0  0  0  0  0  0  0  0  0  0
  152.0210  143.8561  160.8987 C   0  0  0  0  0  0  0  0  0  0  0  0
  152.9078  142.6439  161.2559 C   0  0  0  0  0  0  0  0  0  0  0  0
  153.3855  142.5461  162.3837 O   0  0  0  0  0  0  0  0  0  0  0  0
  153.0971  141.6991  160.3205 N   0  0  0  0  0  0  0  0  0  0  0  0
  152.6496  141.8406  158.9416 C   0  0  1  0  0  0  0  0  0  0  0  0
  152.3228  140.4852  158.2976 C   0  0  0  0  0  0  0  0  0  0  0  0
  152.3264  139.6197  154.8684 N   0  0  0  0  0  0  0  0  0  0  0  0
  152.3350  138.5234  154.1043 C   0  0  0  0  0  0  0  0  0  0  0  0
  151.9623  137.2823  154.4219 N   0  0  0  0  0  0  0  0  0  0  0  0
  151.5396  137.2079  155.7164 C   0  0  0  0  0  0  0  0  0  0  0  0
  150.5784  142.3280  159.4022 H   0  0  0  0  0  0  0  0  0  0  0  0
  153.4743  142.2959  158.3899 H   0  0  0  0  0  0  0  0  0  0  0  0
  151.2044  131.9840  155.2632 H   0  0  0  0  0  0  0  0  0  0  0  0
  149.7951  131.0385  154.8124 H   0  0  0  0  0  0  0  0  0  0  0  0
  149.7175  132.0992  156.2115 H   0  0  0  0  0  0  0  0  0  0  0  0
  149.9927  132.9566  153.2813 H   0  0  0  0  0  0  0  0  0  0  0  0
  147.7566  134.7041  153.0688 H   0  0  0  0  0  0  0  0  0  0  0  0
  146.6372  134.4433  154.4168 H   0  0  0  0  0  0  0  0  0  0  0  0
  148.5511  136.2795  154.8066 H   0  0  0  0  0  0  0  0  0  0  0  0
  148.3122  135.0443  156.0406 H   0  0  0  0  0  0  0  0  0  0  0  0
  149.8845  135.8245  153.2457 H   0  0  0  0  0  0  0  0  0  0  0  0
  150.6356  134.1132  156.7668 H   0  0  0  0  0  0  0  0  0  0  0  0
  151.9483  134.3741  155.6434 H   0  0  0  0  0  0  0  0  0  0  0  0
  150.4157  135.9083  158.4526 H   0  0  0  0  0  0  0  0  0  0  0  0
  150.5410  141.7453  155.6786 H   0  0  0  0  0  0  0  0  0  0  0  0
  149.8452  141.1601  157.1809 H   0  0  0  0  0  0  0  0  0  0  0  0
  151.8300  143.4708  156.8612 H   0  0  0  0  0  0  0  0  0  0  0  0
  150.1488  143.6074  157.3275 H   0  0  0  0  0  0  0  0  0  0  0  0
  152.4802  144.7721  161.2710 H   0  0  0  0  0  0  0  0  0  0  0  0
  151.0619  143.7472  161.4063 H   0  0  0  0  0  0  0  0  0  0  0  0
  153.6473  140.8857  160.5556 H   0  0  0  0  0  0  0  0  0  0  0  0
  151.5358  139.9805  158.8600 H   0  0  0  0  0  0  0  0  0  0  0  0
  153.2012  139.8424  158.3421 H   0  0  0  0  0  0  0  0  0  0  0  0
  152.6892  138.6613  153.0934 H   0  0  0  0  0  0  0  0  0  0  0  0
  1  2  1  0  0  0  0
  1 31  1  0  0  0  0
  1 32  1  0  0  0  0
  1 33  1  0  0  0  0
  2  6  1  0  0  0  0
  2  3  1  0  0  0  0
  2 34  1  0  0  0  0
  3  4  1  0  0  0  0
  4  5  1  0  0  0  0
  4 35  1  0  0  0  0
  4 36  1  0  0  0  0
  5  6  1  0  0  0  0
  5 37  1  0  0  0  0
  5 38  1  0  0  0  0
  6  7  1  0  0  0  0
  6  8  1  0  0  0  0
  7 39  1  0  0  0  0
  8  9  1  0  0  0  0
  8 40  1  0  0  0  0
  8 41  1  0  0  0  0
  9 28  1  0  0  0  0
  9 10  1  0  0  0  0
 10 11  2  0  0  0  0
 10 42  1  0  0  0  0
 11 12  1  0  0  0  0
 12 28  2  0  0  0  0
 12 13  1  0  0  0  0
 13 14  1  0  0  0  0
 13 25  2  0  0  0  0
 14 24  1  0  0  0  0
 14 15  1  0  0  0  0
 15 16  1  0  0  0  0
 15 43  1  0  0  0  0
 15 44  1  0  0  0  0
 16 17  1  0  0  0  0
 16 45  1  0  0  0  0
 16 46  1  0  0  0  0
 17 29  1  0  0  0  0
 17 23  1  0  0  0  0
 17 18  1  0  0  0  0
 18 19  1  0  0  0  0
 19 20  1  0  0  0  0
 19 47  1  0  0  0  0
 19 48  1  0  0  0  0
 20 21  2  0  0  0  0
 20 22  1  0  0  0  0
 22 23  1  0  0  0  0
 22 49  1  0  0  0  0
 23 30  1  0  0  0  0
 23 24  1  0  0  0  0
 24 50  1  0  0  0  0
 24 51  1  0  0  0  0
 25 26  1  0  0  0  0
 26 27  2  0  0  0  0
 26 52  1  0  0  0  0
 27 28  1  0  0  0  0
M  END
> <s_m_source_file>
AV-unprocessed.smi

> <i_m_source_file_index>
265

> <i_lp_mmshare_version>
43012

> <i_f3d_flags>
0

> <s_epik_input>
W0NIMl0xW0NIMl1PW0NAQEhdKFtDSDNdKVtDQEBdMShbT0hdKVtDSDJdbihbY0hdbjIpYyhjMjMpbltjSF1uYzNOKFtDSDJdW0NIMl00KVtDSDJdW0NAQEhdKFtDQEhdNDUpW05IXUMoPU8pW0NIMl1PNQ==

> <s_epik_cmdline>
J2VwaWtfcHl0aG9uJywgJy1waCcsICc3LjAnLCAnLXRuJywgJzgnLCAnLW1hJywgJzIwMCcsICctbWV0YWxfYmluZGluZycsICctaW1hZScsICc8aW5maWxlLm1hZT4nLCAnLW9tYWUnLCAnPG91dGZpbGUubWFlPic=

> <r_lp_tautomer_probability>
1

> <r_epik_Ionization_Penalty>
0.00221504

> <r_epik_Ionization_Penalty_Charging>
0

> <r_epik_Ionization_Penalty_Neutral>
0.00221504

> <r_epik_State_Penalty>
-0

> <r_epik_Charging_Adjusted_Penalty>
0

> <i_epik_Tot_Q>
0

> <i_epik_Tot_abs_Q>
0

> <r_epik_Metal_State_Penalty>
-0

> <b_epik_Metal_Only>
0

> <s_lp_Force_Field>
OPLS_2005

> <r_lp_Energy>
44.0648

> <b_lp_Chiralities_Consistent>
1

> <s_lp_Variant>
AV-unprocessed.smi:265-4

> <Gold.Version>
5.8.1

> <Gold.Id.Protein>
6NUR|6NUR_protein|mol2

> <Gold.PLP.Fitness>
46.3746

> <Gold.PLP.PLP>
-39.5904

> <Gold.PLP.part.hbond>
-3.7495

> <Gold.PLP.part.metal>
0.0000

> <Gold.PLP.part.buried>
-4.8606

> <Gold.PLP.part.nonpolar>
-31.0396

> <Gold.PLP.part.repulsive>
0.3663

> <Gold.PLP.ligand.clash>
0.0000

> <Gold.PLP.ligand.torsion>
0.5832

> <Gold.PLP.Chemscore.Hbond>
2.5084

> <Gold.PLP.Chemscore.CHOScore>
0.0000

> <Gold.PLP.Chemscore.Metal>
0.0000

> <Gold.Chemscore.Hbonds>
donor molecule, donor type, donor heavy atom, donor atom, acceptor molecule, acceptor atom, score
      L1  H     7    39       P1  7948  0.31
      P1  H  7989  7998       L1    25  0.63
      P1  H 10752 10764       L1    27  0.90

> <Gold.PLP.Chemscore.Internal.Correction>
0.4256

> <Gold.Rescore>
     Score         DG    S(hbond)    S(metal)    S(lipo)     H(rot)  DE(clash)    DE(int)     intcor
     10.54     -14.26       1.44        0.00      83.14       2.25       0.73       3.00       ----

> <Gold.Chemscore.Fitness>
10.5398

> <Gold.Chemscore.DG>
-14.2631

> <Gold.Chemscore.ZeroCoef>
-5.4800

> <Gold.Chemscore.Hbond>
1.4381

> <Gold.Chemscore.Metal>
0.0000

> <Gold.Chemscore.Lipo>
83.1428

> <Gold.Chemscore.Internal_Hbond>
0.0000

> <Gold.Chemscore.DEClash>
0.7278

> <Gold.Chemscore.DEInternal>
2.9955

> <Gold.Chemscore.Rot>
2.2453

> <Gold.Chemscore.Internal.Correction>
   9.000000E+99

> <Gold.Chemscore.Hbonds>
donor molecule, donor type, donor heavy atom, donor atom, acceptor molecule, acceptor atom, score
      L1  H     7    39       P1  7948  0.01
      P1  H  7989  7998       L1    25  0.11
      P1  H 10752 10764       L1    27  0.20

> <Gold.Chemscore.Hbond.Weighted>
-4.8033

> <Gold.Chemscore.Metal.Weighted>
-0.0000

> <Gold.Chemscore.Lipo.Weighted>
-9.7277

> <Gold.Chemscore.Internal_Hbond.Weighted>
0.0000

> <Gold.Chemscore.DEClash.Weighted>
0.7278

> <Gold.Chemscore.DEInternal.Weighted>
2.9955

> <Gold.Chemscore.Rot.Weighted>
5.7479

> <Gold.Chemscore.Internal.Correction.Weighted>
   9.000000E+99

> <Gold.Protein.RotatedTorsions>
[ 6907 6896 6895 6894 ] final   -3.32 input  -60.11 | X-H torsion
[ 7974 7965 7964 7962 ] final  -40.40 input  175.53 | X-H torsion
[ 8008 7997 7996 7995 ] final   -3.77 input   59.86 | X-H torsion
[ 10167 10162 10161 10158 ] final  171.16 input  -65.29 | X-H torsion
[ 10718 10713 10712 10709 ] final  -11.25 input   66.30 | X-H torsion
[ 10763 10752 10751 10750 ] final  -74.32 input  -60.55 | X-H torsion
[ 11005 11000 10999 10996 ] final   57.66 input  -57.11 | X-H torsion

> <Gold.Protein.ActiveResidues>
 VAL166  LYS551  ARG553  GLY616  TRP617  ASP618  TYR619  PRO620  LYS621  CYS622 
 ASP623  PHE694  ASN695  SER759  ASP760  ASP761  ALA762  ILE779  LEU786  VAL792 
 PHE793  MET794  SER795  GLU796  ALA797  LYS798  CYS799  TRP800  GLU811  SER814 

> <Gold.Protein.RotatedAtoms>
  151.5156  135.1066  159.9864 H   0  0  0  0  0  0  0  0  0  0  0  0  # atno 6907 bound_to 6896
  152.4643  133.7884  159.6899 H   0  0  0  0  0  0  0  0  0  0  0  0  # atno 6908 bound_to 6896
  150.8619  133.7567  159.3015 H   0  0  0  0  0  0  0  0  0  0  0  0  # atno 6909 bound_to 6896
  146.0308  140.6734  142.9133 H   0  0  0  0  0  0  0  0  0  0  0  0  # atno 7974 bound_to 7965
  154.6213  140.2501  155.7546 H   0  0  0  0  0  0  0  0  0  0  0  0  # atno 8008 bound_to 7997
  156.2428  140.2926  156.0442 H   0  0  0  0  0  0  0  0  0  0  0  0  # atno 8009 bound_to 7997
  155.1892  140.0391  157.2887 H   0  0  0  0  0  0  0  0  0  0  0  0  # atno 8010 bound_to 7997
  139.5039  144.3516  151.9916 H   0  0  0  0  0  0  0  0  0  0  0  0  # atno 10167 bound_to 10162
  156.6617  130.4984  149.6028 H   0  0  0  0  0  0  0  0  0  0  0  0  # atno 10718 bound_to 10713
  154.4715  135.5868  153.6325 H   0  0  0  0  0  0  0  0  0  0  0  0  # atno 10763 bound_to 10752
  152.9835  135.6068  154.3360 H   0  0  0  0  0  0  0  0  0  0  0  0  # atno 10764 bound_to 10752
  154.3243  135.2843  155.2483 H   0  0  0  0  0  0  0  0  0  0  0  0  # atno 10765 bound_to 10752
  140.0436  134.5838  155.9351 H   0  0  0  0  0  0  0  0  0  0  0  0  # atno 11005 bound_to 11000
  144.7029  140.3732  143.7141 LP  0  0  0  0  0  0  0  0  0  0  0  0  # atno 17320 bound_to 7965
  145.7044  139.1669  143.2574 LP  0  0  0  0  0  0  0  0  0  0  0  0  # atno 17321 bound_to 7965
  140.2953  144.3707  150.6076 LP  0  0  0  0  0  0  0  0  0  0  0  0  # atno 17342 bound_to 10162
  140.5915  143.2168  151.7244 LP  0  0  0  0  0  0  0  0  0  0  0  0  # atno 17343 bound_to 10162
  156.2006  130.6617  151.1163 LP  0  0  0  0  0  0  0  0  0  0  0  0  # atno 17370 bound_to 10713
  157.7107  131.0735  150.6509 LP  0  0  0  0  0  0  0  0  0  0  0  0  # atno 17371 bound_to 10713
  141.1895  133.6566  156.5373 LP  0  0  0  0  0  0  0  0  0  0  0  0  # atno 17394 bound_to 11000
  140.4029  134.7340  157.4791 LP  0  0  0  0  0  0  0  0  0  0  0  0  # atno 17395 bound_to 11000

$$$$
