AV-unprocessed.smi:2022|AV-procd|sdf|8188|dock3
  -GOLD-   2272010443D 1   1.00000     0.00000
 Structure written by MMmdl.
 34 35  0  0  0  0  0  0  0  0  1 V2000
  153.7498  141.8828  160.9416 C   0  0  0  0  0  0  0  0  0  0  0  0
  152.9391  142.4622  159.8335 C   0  0  0  0  0  0  0  0  0  0  0  0
  151.9969  141.9346  158.9962 C   0  0  0  0  0  0  0  0  0  0  0  0
  151.6308  143.0432  158.1873 C   0  0  0  0  0  0  0  0  0  0  0  0
  150.6525  142.9095  157.1695 N   0  0  0  0  0  0  0  0  0  0  0  0
  150.1586  141.7714  156.6532 C   0  0  0  0  0  0  0  0  0  0  0  0
  150.4867  140.6350  156.9962 O   0  0  0  0  0  0  0  0  0  0  0  0
  149.2485  142.0242  155.7011 N   0  0  0  0  0  0  0  0  0  0  0  0
  148.5401  141.0188  154.9071 C   0  0  1  0  0  0  0  0  0  0  0  0
  147.6914  141.7038  153.8123 C   0  0  0  0  0  0  0  0  0  0  0  0
  146.5256  140.8447  153.2957 C   0  0  0  0  0  0  0  0  0  0  0  0
  146.9404  139.5362  152.6060 C   0  0  0  0  0  0  0  0  0  0  0  0
  147.6284  138.5324  153.5470 C   0  0  0  0  0  0  0  0  0  0  0  0
  149.0302  138.8565  153.7810 N   0  0  0  0  0  0  0  0  0  0  0  0
  149.5194  139.9557  154.3746 C   0  0  0  0  0  0  0  0  0  0  0  0
  150.7346  140.1171  154.4849 O   0  0  0  0  0  0  0  0  0  0  0  0
  152.2926  144.1470  158.5001 N   0  0  0  0  0  0  0  0  0  0  0  0
  153.1339  143.7803  159.5573 O   0  0  0  0  0  0  0  0  0  0  0  0
  153.6252  140.8009  160.9907 H   0  0  0  0  0  0  0  0  0  0  0  0
  153.4458  142.3019  161.9008 H   0  0  0  0  0  0  0  0  0  0  0  0
  154.8095  142.0947  160.7984 H   0  0  0  0  0  0  0  0  0  0  0  0
  151.6291  140.9196  158.9706 H   0  0  0  0  0  0  0  0  0  0  0  0
  150.2945  143.7733  156.7899 H   0  0  0  0  0  0  0  0  0  0  0  0
  149.0459  142.9887  155.4819 H   0  0  0  0  0  0  0  0  0  0  0  0
  147.8664  140.4967  155.5893 H   0  0  0  0  0  0  0  0  0  0  0  0
  147.2615  142.6250  154.2072 H   0  0  0  0  0  0  0  0  0  0  0  0
  148.3284  142.0105  152.9812 H   0  0  0  0  0  0  0  0  0  0  0  0
  145.8467  140.6219  154.1196 H   0  0  0  0  0  0  0  0  0  0  0  0
  145.9470  141.4395  152.5884 H   0  0  0  0  0  0  0  0  0  0  0  0
  146.0402  139.0680  152.2064 H   0  0  0  0  0  0  0  0  0  0  0  0
  147.5750  139.7449  151.7437 H   0  0  0  0  0  0  0  0  0  0  0  0
  147.0929  138.4468  154.4936 H   0  0  0  0  0  0  0  0  0  0  0  0
  147.6033  137.5423  153.0915 H   0  0  0  0  0  0  0  0  0  0  0  0
  149.7027  138.1824  153.4450 H   0  0  0  0  0  0  0  0  0  0  0  0
  1  2  1  0  0  0  0
  1 19  1  0  0  0  0
  1 20  1  0  0  0  0
  1 21  1  0  0  0  0
  2 18  1  0  0  0  0
  2  3  2  0  0  0  0
  3  4  1  0  0  0  0
  3 22  1  0  0  0  0
  4  5  1  0  0  0  0
  4 17  2  0  0  0  0
  5  6  1  0  0  0  0
  5 23  1  0  0  0  0
  6  7  2  0  0  0  0
  6  8  1  0  0  0  0
  8  9  1  0  0  0  0
  8 24  1  0  0  0  0
  9 15  1  0  0  0  0
  9 10  1  0  0  0  0
  9 25  1  0  0  0  0
 10 11  1  0  0  0  0
 10 26  1  0  0  0  0
 10 27  1  0  0  0  0
 11 12  1  0  0  0  0
 11 28  1  0  0  0  0
 11 29  1  0  0  0  0
 12 13  1  0  0  0  0
 12 30  1  0  0  0  0
 12 31  1  0  0  0  0
 13 14  1  0  0  0  0
 13 32  1  0  0  0  0
 13 33  1  0  0  0  0
 14 15  1  0  0  0  0
 14 34  1  0  0  0  0
 15 16  2  0  0  0  0
 17 18  1  0  0  0  0
M  END
> <s_m_source_file>
AV-unprocessed.smi

> <i_m_source_file_index>
2022

> <i_lp_mmshare_version>
43012

> <i_f3d_flags>
0

> <s_epik_input>
W0NIM11jMVtjSF1jKG5vMSlbTkhdQyg9TylbTkhdW0NAQEhdMltDSDJdW0NIMl1bQ0gyXVtDSDJdW05IXUMyPU8=

> <s_epik_cmdline>
J2VwaWtfcHl0aG9uJywgJy1waCcsICc3LjAnLCAnLXRuJywgJzgnLCAnLW1hJywgJzIwMCcsICctbWV0YWxfYmluZGluZycsICctaW1hZScsICc8aW5maWxlLm1hZT4nLCAnLW9tYWUnLCAnPG91dGZpbGUubWFlPic=

> <r_lp_tautomer_probability>
1

> <r_epik_Ionization_Penalty>
2.27343e-05

> <r_epik_Ionization_Penalty_Charging>
0

> <r_epik_Ionization_Penalty_Neutral>
2.27343e-05

> <r_epik_State_Penalty>
-0

> <r_epik_Charging_Adjusted_Penalty>
0

> <i_epik_Tot_Q>
0

> <i_epik_Tot_abs_Q>
0

> <r_epik_Metal_State_Penalty>
-0

> <b_epik_Metal_Only>
0

> <s_lp_Force_Field>
OPLS_2005

> <r_lp_Energy>
7.86792

> <b_lp_Chiralities_Consistent>
1

> <s_lp_Variant>
AV-unprocessed.smi:2022-2

> <Gold.Version>
5.8.1

> <Gold.Id.Protein>
6NUR|6NUR_protein|mol2

> <Gold.PLP.Fitness>
41.4616

> <Gold.PLP.PLP>
-32.7439

> <Gold.PLP.part.hbond>
-4.3266

> <Gold.PLP.part.metal>
0.0000

> <Gold.PLP.part.buried>
-2.4791

> <Gold.PLP.part.nonpolar>
-26.6784

> <Gold.PLP.part.repulsive>
0.3378

> <Gold.PLP.ligand.clash>
0.0000

> <Gold.PLP.ligand.torsion>
0.1429

> <Gold.PLP.Chemscore.Hbond>
2.9920

> <Gold.PLP.Chemscore.CHOScore>
0.0000

> <Gold.PLP.Chemscore.Metal>
0.0000

> <Gold.Chemscore.Hbonds>
donor molecule, donor type, donor heavy atom, donor atom, acceptor molecule, acceptor atom, score
      L1  H     5    23       P1  8028  0.99
      L1  H     8    24       P1  8028  1.00
      P1  H  7989  7998       L1    16  1.00

> <Gold.PLP.Chemscore.Internal.Correction>
0.0275

> <Gold.Rescore>
     Score         DG    S(hbond)    S(metal)    S(lipo)     H(rot)  DE(clash)    DE(int)     intcor
     13.46     -20.38       2.96        0.00      64.81       1.00       1.20       5.72       ----

> <Gold.Chemscore.Fitness>
13.4620

> <Gold.Chemscore.DG>
-20.3837

> <Gold.Chemscore.ZeroCoef>
-5.4800

> <Gold.Chemscore.Hbond>
2.9585

> <Gold.Chemscore.Metal>
0.0000

> <Gold.Chemscore.Lipo>
64.8052

> <Gold.Chemscore.Internal_Hbond>
0.0000

> <Gold.Chemscore.DEClash>
1.2006

> <Gold.Chemscore.DEInternal>
5.7210

> <Gold.Chemscore.Rot>
1.0000

> <Gold.Chemscore.Internal.Correction>
   9.000000E+99

> <Gold.Chemscore.Hbonds>
donor molecule, donor type, donor heavy atom, donor atom, acceptor molecule, acceptor atom, score
      L1  H     5    23       P1  8028  0.87
      L1  H     8    24       P1  8028  1.00
      P1  H  7989  7998       L1    16  0.93

> <Gold.Chemscore.Hbond.Weighted>
-9.8815

> <Gold.Chemscore.Metal.Weighted>
-0.0000

> <Gold.Chemscore.Lipo.Weighted>
-7.5822

> <Gold.Chemscore.Internal_Hbond.Weighted>
0.0000

> <Gold.Chemscore.DEClash.Weighted>
1.2006

> <Gold.Chemscore.DEInternal.Weighted>
5.7210

> <Gold.Chemscore.Rot.Weighted>
2.5600

> <Gold.Chemscore.Internal.Correction.Weighted>
   9.000000E+99

> <Gold.Protein.RotatedTorsions>
[ 6907 6896 6895 6894 ] final  167.38 input  -60.11 | X-H torsion
[ 7974 7965 7964 7962 ] final  159.55 input  175.53 | X-H torsion
[ 8008 7997 7996 7995 ] final  -83.89 input   59.86 | X-H torsion
[ 10167 10162 10161 10158 ] final  -60.05 input  -65.29 | X-H torsion
[ 10718 10713 10712 10709 ] final  138.21 input   66.30 | X-H torsion
[ 10763 10752 10751 10750 ] final  125.13 input  -60.55 | X-H torsion
[ 11005 11000 10999 10996 ] final   57.72 input  -57.11 | X-H torsion

> <Gold.Protein.ActiveResidues>
 VAL166  LYS551  ARG553  GLY616  TRP617  ASP618  TYR619  PRO620  LYS621  CYS622 
 ASP623  PHE694  ASN695  SER759  ASP760  ASP761  ALA762  ILE779  LEU786  VAL792 
 PHE793  MET794  SER795  GLU796  ALA797  LYS798  CYS799  TRP800  GLU811  SER814 

> <Gold.Protein.RotatedAtoms>
  151.8643  133.3463  159.3713 H   0  0  0  0  0  0  0  0  0  0  0  0  # atno 6907 bound_to 6896
  150.7170  134.5176  159.5647 H   0  0  0  0  0  0  0  0  0  0  0  0  # atno 6908 bound_to 6896
  152.2695  134.7948  160.0467 H   0  0  0  0  0  0  0  0  0  0  0  0  # atno 6909 bound_to 6896
  144.7784  139.7633  143.6269 H   0  0  0  0  0  0  0  0  0  0  0  0  # atno 7974 bound_to 7965
  154.6239  140.0612  156.9650 H   0  0  0  0  0  0  0  0  0  0  0  0  # atno 8008 bound_to 7997
  155.1773  140.3296  155.4363 H   0  0  0  0  0  0  0  0  0  0  0  0  # atno 8009 bound_to 7997
  156.2447  140.1904  156.6871 H   0  0  0  0  0  0  0  0  0  0  0  0  # atno 8010 bound_to 7997
  140.6096  143.2383  151.5740 H   0  0  0  0  0  0  0  0  0  0  0  0  # atno 10167 bound_to 10162
  157.4277  131.1045  151.0284 H   0  0  0  0  0  0  0  0  0  0  0  0  # atno 10718 bound_to 10713
  153.6724  135.3328  155.3157 H   0  0  0  0  0  0  0  0  0  0  0  0  # atno 10763 bound_to 10752
  154.8487  135.4389  154.1691 H   0  0  0  0  0  0  0  0  0  0  0  0  # atno 10764 bound_to 10752
  153.2686  135.6998  153.7580 H   0  0  0  0  0  0  0  0  0  0  0  0  # atno 10765 bound_to 10752
  140.0431  134.5845  155.9357 H   0  0  0  0  0  0  0  0  0  0  0  0  # atno 11005 bound_to 11000
  146.1978  139.5254  142.9763 LP  0  0  0  0  0  0  0  0  0  0  0  0  # atno 17320 bound_to 7965
  145.6120  141.0338  143.1961 LP  0  0  0  0  0  0  0  0  0  0  0  0  # atno 17321 bound_to 7965
  139.5351  144.2804  152.1234 LP  0  0  0  0  0  0  0  0  0  0  0  0  # atno 17342 bound_to 10162
  140.2001  144.4667  150.6436 LP  0  0  0  0  0  0  0  0  0  0  0  0  # atno 17343 bound_to 10162
  157.1191  130.6054  149.5500 LP  0  0  0  0  0  0  0  0  0  0  0  0  # atno 17370 bound_to 10713
  155.9902  130.4953  150.7248 LP  0  0  0  0  0  0  0  0  0  0  0  0  # atno 17371 bound_to 10713
  141.1893  133.6565  156.5362 LP  0  0  0  0  0  0  0  0  0  0  0  0  # atno 17394 bound_to 11000
  140.4037  134.7334  157.4795 LP  0  0  0  0  0  0  0  0  0  0  0  0  # atno 17395 bound_to 11000

$$$$
