AV-unprocessed.smi:2753|AV-procd|sdf|10610|dock7
  -GOLD-   2272015 63D 1   1.00000     0.00000
 Structure written by MMmdl.
 28 29  0  0  0  0  0  0  0  0  2 V2000
  150.7892  138.4221  153.9791 F   0  0  0  0  0  0  0  0  0  0  0  0
  151.4390  138.7463  155.0962 C   0  0  0  0  0  0  0  0  0  0  0  0
  151.2466  137.7619  155.9747 F   0  0  0  0  0  0  0  0  0  0  0  0
  152.7399  138.7834  154.8113 F   0  0  0  0  0  0  0  0  0  0  0  0
  150.9679  140.0690  155.6267 C   0  0  0  0  0  0  0  0  0  0  0  0
  150.0412  140.9276  155.0790 C   0  0  0  0  0  0  0  0  0  0  0  0
  149.9678  141.9999  155.9502 N   0  0  0  0  0  0  0  0  0  0  0  0
  150.8173  141.7693  156.9587 C   0  0  0  0  0  0  0  0  0  0  0  0
  150.9972  142.7273  158.0957 C   0  0  1  0  0  0  0  0  0  0  0  0
  152.0429  142.2278  159.1113 C   0  0  0  0  0  0  0  0  0  0  0  0
  152.2141  143.2419  160.2527 C   0  0  0  0  0  0  0  0  0  0  0  0
  152.5450  144.6391  159.7020 C   0  0  0  0  0  0  0  0  0  0  0  0
  151.5123  145.0792  158.7389 N   0  3  0  0  0  0  0  0  0  0  0  0
  151.3461  144.1467  157.6022 C   0  0  0  0  0  0  0  0  0  0  0  0
  151.4569  140.6113  156.8192 N   0  0  0  0  0  0  0  0  0  0  0  0
  149.3759  142.8115  155.8428 H   0  0  0  0  0  0  0  0  0  0  0  0
  149.4514  140.8642  154.1765 H   0  0  0  0  0  0  0  0  0  0  0  0
  150.0404  142.7889  158.6177 H   0  0  0  0  0  0  0  0  0  0  0  0
  151.7457  141.2593  159.5154 H   0  0  0  0  0  0  0  0  0  0  0  0
  153.0025  142.0769  158.6144 H   0  0  0  0  0  0  0  0  0  0  0  0
  151.2978  143.2872  160.8428 H   0  0  0  0  0  0  0  0  0  0  0  0
  153.0022  142.9116  160.9302 H   0  0  0  0  0  0  0  0  0  0  0  0
  152.6048  145.3625  160.5154 H   0  0  0  0  0  0  0  0  0  0  0  0
  153.5179  144.6331  159.2084 H   0  0  0  0  0  0  0  0  0  0  0  0
  150.6303  145.1535  159.2254 H   0  0  0  0  0  0  0  0  0  0  0  0
  152.2668  144.1347  157.0170 H   0  0  0  0  0  0  0  0  0  0  0  0
  150.5592  144.5258  156.9494 H   0  0  0  0  0  0  0  0  0  0  0  0
  151.7642  145.9898  158.3812 H   0  0  0  0  0  0  0  0  0  0  0  0
  1  2  1  0  0  0  0
  2  3  1  0  0  0  0
  2  4  1  0  0  0  0
  2  5  1  0  0  0  0
  5 15  1  0  0  0  0
  5  6  2  0  0  0  0
  6  7  1  0  0  0  0
  6 17  1  0  0  0  0
  7 16  1  0  0  0  0
  7  8  1  0  0  0  0
  8  9  1  0  0  0  0
  8 15  2  0  0  0  0
  9 14  1  0  0  0  0
  9 10  1  0  0  0  0
  9 18  1  0  0  0  0
 10 11  1  0  0  0  0
 10 19  1  0  0  0  0
 10 20  1  0  0  0  0
 11 12  1  0  0  0  0
 11 21  1  0  0  0  0
 11 22  1  0  0  0  0
 12 13  1  0  0  0  0
 12 23  1  0  0  0  0
 12 24  1  0  0  0  0
 13 14  1  0  0  0  0
 13 25  1  0  0  0  0
 13 28  1  0  0  0  0
 14 26  1  0  0  0  0
 14 27  1  0  0  0  0
M  CHG  1  13   1
M  END
> <s_m_source_file>
AV-unprocessed.smi

> <i_m_source_file_index>
2753

> <i_lp_mmshare_version>
43012

> <i_f3d_flags>
0

> <s_epik_input>
RkMoRikoRiljMVtjSF1bbkhdYyhuMSlbQ0BASF0yW0NIMl1bQ0gyXVtDSDJdW05IXVtDSDJdMg==

> <s_epik_cmdline>
J2VwaWtfcHl0aG9uJywgJy1waCcsICc3LjAnLCAnLXRuJywgJzgnLCAnLW1hJywgJzIwMCcsICctbWV0YWxfYmluZGluZycsICctaW1hZScsICc8aW5maWxlLm1hZT4nLCAnLW9tYWUnLCAnPG91dGZpbGUubWFlPic=

> <r_lp_tautomer_probability>
0.5

> <r_epik_Ionization_Penalty>
0.00052307

> <r_epik_Ionization_Penalty_Charging>
0.000431517

> <r_epik_Ionization_Penalty_Neutral>
9.15529e-05

> <r_epik_State_Penalty>
0.103148

> <r_epik_Charging_Adjusted_Penalty>
0.103579

> <i_epik_Tot_Q>
1

> <i_epik_Tot_abs_Q>
1

> <r_epik_Metal_State_Penalty>
0.166025

> <b_epik_Metal_Only>
0

> <s_lp_Force_Field>
OPLS_2005

> <r_lp_Energy>
16.8068

> <b_lp_Chiralities_Consistent>
1

> <s_lp_Variant>
AV-unprocessed.smi:2753-2

> <Gold.Version>
5.8.1

> <Gold.Id.Protein>
6NUR|6NUR_protein|mol2

> <Gold.PLP.Fitness>
36.6298

> <Gold.PLP.PLP>
-33.7162

> <Gold.PLP.part.hbond>
-1.0000

> <Gold.PLP.part.metal>
0.0000

> <Gold.PLP.part.buried>
-2.9635

> <Gold.PLP.part.nonpolar>
-29.1889

> <Gold.PLP.part.repulsive>
0.2621

> <Gold.PLP.ligand.clash>
0.0000

> <Gold.PLP.ligand.torsion>
0.0568

> <Gold.PLP.Chemscore.Hbond>
1.0000

> <Gold.PLP.Chemscore.CHOScore>
0.0000

> <Gold.PLP.Chemscore.Metal>
0.0000

> <Gold.Chemscore.Hbonds>
donor molecule, donor type, donor heavy atom, donor atom, acceptor molecule, acceptor atom, score
      L1  H     7    16       P1  8028  1.00

> <Gold.PLP.Chemscore.Internal.Correction>
0.0273

> <Gold.Rescore>
     Score         DG    S(hbond)    S(metal)    S(lipo)     H(rot)  DE(clash)    DE(int)     intcor
     15.01     -15.19       0.99        0.00      76.61       1.00       0.15       0.03       ----

> <Gold.Chemscore.Fitness>
15.0059

> <Gold.Chemscore.DG>
-15.1927

> <Gold.Chemscore.ZeroCoef>
-5.4800

> <Gold.Chemscore.Hbond>
0.9908

> <Gold.Chemscore.Metal>
0.0000

> <Gold.Chemscore.Lipo>
76.6094

> <Gold.Chemscore.Internal_Hbond>
0.0000

> <Gold.Chemscore.DEClash>
0.1520

> <Gold.Chemscore.DEInternal>
0.0348

> <Gold.Chemscore.Rot>
1.0000

> <Gold.Chemscore.Internal.Correction>
   9.000000E+99

> <Gold.Chemscore.Hbonds>
donor molecule, donor type, donor heavy atom, donor atom, acceptor molecule, acceptor atom, score
      L1  H     7    16       P1  8028  0.97

> <Gold.Chemscore.Hbond.Weighted>
-3.3094

> <Gold.Chemscore.Metal.Weighted>
-0.0000

> <Gold.Chemscore.Lipo.Weighted>
-8.9633

> <Gold.Chemscore.Internal_Hbond.Weighted>
0.0000

> <Gold.Chemscore.DEClash.Weighted>
0.1520

> <Gold.Chemscore.DEInternal.Weighted>
0.0348

> <Gold.Chemscore.Rot.Weighted>
2.5600

> <Gold.Chemscore.Internal.Correction.Weighted>
   9.000000E+99

> <Gold.Protein.RotatedTorsions>
[ 6907 6896 6895 6894 ] final   40.65 input  -60.11 | X-H torsion
[ 7974 7965 7964 7962 ] final   -9.63 input  175.53 | X-H torsion
[ 8008 7997 7996 7995 ] final  -11.31 input   59.86 | X-H torsion
[ 10167 10162 10161 10158 ] final   -6.33 input  -65.29 | X-H torsion
[ 10718 10713 10712 10709 ] final   10.35 input   66.30 | X-H torsion
[ 10763 10752 10751 10750 ] final -150.59 input  -60.55 | X-H torsion
[ 11005 11000 10999 10996 ] final  -79.34 input  -57.11 | X-H torsion

> <Gold.Protein.ActiveResidues>
 VAL166  LYS551  ARG553  GLY616  TRP617  ASP618  TYR619  PRO620  LYS621  CYS622 
 ASP623  PHE694  ASN695  SER759  ASP760  ASP761  ALA762  ILE779  LEU786  VAL792 
 PHE793  MET794  SER795  GLU796  ALA797  LYS798  CYS799  TRP800  GLU811  SER814 

> <Gold.Protein.RotatedAtoms>
  152.1852  134.8720  160.0522 H   0  0  0  0  0  0  0  0  0  0  0  0  # atno 6907 bound_to 6896
  151.9629  133.3696  159.4050 H   0  0  0  0  0  0  0  0  0  0  0  0  # atno 6908 bound_to 6896
  150.6925  134.4145  159.5221 H   0  0  0  0  0  0  0  0  0  0  0  0  # atno 6909 bound_to 6896
  146.2246  140.2645  142.8353 H   0  0  0  0  0  0  0  0  0  0  0  0  # atno 7974 bound_to 7965
  154.5476  140.2306  155.8537 H   0  0  0  0  0  0  0  0  0  0  0  0  # atno 8008 bound_to 7997
  156.1917  140.3075  155.9307 H   0  0  0  0  0  0  0  0  0  0  0  0  # atno 8009 bound_to 7997
  155.3134  140.0437  157.3026 H   0  0  0  0  0  0  0  0  0  0  0  0  # atno 8010 bound_to 7997
  140.6993  143.6207  150.8616 H   0  0  0  0  0  0  0  0  0  0  0  0  # atno 10167 bound_to 10162
  156.9797  130.6001  149.5675 H   0  0  0  0  0  0  0  0  0  0  0  0  # atno 10718 bound_to 10713
  154.8110  135.3281  154.7305 H   0  0  0  0  0  0  0  0  0  0  0  0  # atno 10763 bound_to 10752
  153.7955  135.6907  153.4869 H   0  0  0  0  0  0  0  0  0  0  0  0  # atno 10764 bound_to 10752
  153.1889  135.4558  155.0070 H   0  0  0  0  0  0  0  0  0  0  0  0  # atno 10765 bound_to 10752
  141.1667  133.7101  156.8107 H   0  0  0  0  0  0  0  0  0  0  0  0  # atno 11005 bound_to 11000
  144.9314  140.7979  143.5687 LP  0  0  0  0  0  0  0  0  0  0  0  0  # atno 17320 bound_to 7965
  145.2589  139.2000  143.4902 LP  0  0  0  0  0  0  0  0  0  0  0  0  # atno 17321 bound_to 7965
  139.9927  143.5829  152.2904 LP  0  0  0  0  0  0  0  0  0  0  0  0  # atno 17342 bound_to 10162
  139.6490  144.7660  151.2186 LP  0  0  0  0  0  0  0  0  0  0  0  0  # atno 17343 bound_to 10162
  156.0249  130.5343  150.8380 LP  0  0  0  0  0  0  0  0  0  0  0  0  # atno 17370 bound_to 10713
  157.5535  131.0944  150.9662 LP  0  0  0  0  0  0  0  0  0  0  0  0  # atno 17371 bound_to 10713
  140.2189  134.8772  157.3356 LP  0  0  0  0  0  0  0  0  0  0  0  0  # atno 17394 bound_to 11000
  140.2008  134.4257  155.7664 LP  0  0  0  0  0  0  0  0  0  0  0  0  # atno 17395 bound_to 11000

$$$$
