AV-unprocessed.smi:61|AV-procd|sdf|595|dock3
  -GOLD-   2262016493D 1   1.00000     0.00000
 Structure written by MMmdl.
 29 30  0  0  0  0  0  0  0  0  2 V2000
  146.7628  138.1007  152.3710 N   0  0  0  0  0  0  0  0  0  0  0  0
  147.2999  139.1551  153.0700 C   0  0  0  0  0  0  0  0  0  0  0  0
  146.5278  140.2225  153.3160 N   0  3  0  0  0  0  0  0  0  0  0  0
  147.0411  141.2708  154.0037 C   0  0  0  0  0  0  0  0  0  0  0  0
  148.3735  141.2409  154.4545 C   0  0  0  0  0  0  0  0  0  0  0  0
  149.1315  140.0882  154.1608 C   0  0  0  0  0  0  0  0  0  0  0  0
  150.4766  139.9850  154.5752 N   0  0  0  0  0  0  0  0  0  0  0  0
  151.1865  138.7607  154.2179 C   0  0  0  0  0  0  0  0  0  0  0  0
  152.1015  138.4341  155.4012 C   0  0  0  0  0  0  0  0  0  0  0  0
  152.2697  139.7753  156.1059 C   0  0  0  0  0  0  0  0  0  0  0  0
  150.9085  140.4465  155.8943 C   0  0  1  0  0  0  0  0  0  0  0  0
  150.9699  141.9834  156.0076 C   0  0  0  0  0  0  0  0  0  0  0  0
  149.9169  142.4481  156.8240 O   0  0  0  0  0  0  0  0  0  0  0  0
  148.5721  139.0665  153.4723 N   0  0  0  0  0  0  0  0  0  0  0  0
  147.3220  137.2839  152.1708 H   0  0  0  0  0  0  0  0  0  0  0  0
  145.8268  138.1555  151.9963 H   0  0  0  0  0  0  0  0  0  0  0  0
  146.3686  142.0993  154.1721 H   0  0  0  0  0  0  0  0  0  0  0  0
  148.7864  142.0710  155.0090 H   0  0  0  0  0  0  0  0  0  0  0  0
  150.5122  137.9288  154.0095 H   0  0  0  0  0  0  0  0  0  0  0  0
  151.7764  138.9516  153.3209 H   0  0  0  0  0  0  0  0  0  0  0  0
  151.6021  137.7311  156.0693 H   0  0  0  0  0  0  0  0  0  0  0  0
  153.0492  137.9913  155.0942 H   0  0  0  0  0  0  0  0  0  0  0  0
  152.5318  139.6709  157.1593 H   0  0  0  0  0  0  0  0  0  0  0  0
  153.0597  140.3475  155.6169 H   0  0  0  0  0  0  0  0  0  0  0  0
  150.2101  140.0533  156.6350 H   0  0  0  0  0  0  0  0  0  0  0  0
  151.9230  142.3047  156.4292 H   0  0  0  0  0  0  0  0  0  0  0  0
  150.8754  142.4628  155.0338 H   0  0  0  0  0  0  0  0  0  0  0  0
  149.6628  143.3088  156.5272 H   0  0  0  0  0  0  0  0  0  0  0  0
  145.5600  140.2566  152.9945 H   0  0  0  0  0  0  0  0  0  0  0  0
  1  2  1  0  0  0  0
  1 15  1  0  0  0  0
  1 16  1  0  0  0  0
  2 14  1  0  0  0  0
  2  3  2  0  0  0  0
  3  4  1  0  0  0  0
  3 29  1  0  0  0  0
  4  5  2  0  0  0  0
  4 17  1  0  0  0  0
  5  6  1  0  0  0  0
  5 18  1  0  0  0  0
  6  7  1  0  0  0  0
  6 14  2  0  0  0  0
  7 11  1  0  0  0  0
  7  8  1  0  0  0  0
  8  9  1  0  0  0  0
  8 19  1  0  0  0  0
  8 20  1  0  0  0  0
  9 10  1  0  0  0  0
  9 21  1  0  0  0  0
  9 22  1  0  0  0  0
 10 11  1  0  0  0  0
 10 23  1  0  0  0  0
 10 24  1  0  0  0  0
 11 12  1  0  0  0  0
 11 25  1  0  0  0  0
 12 13  1  0  0  0  0
 12 26  1  0  0  0  0
 12 27  1  0  0  0  0
 13 28  1  0  0  0  0
M  CHG  1   3   1
M  END
> <s_m_source_file>
AV-unprocessed.smi

> <i_m_source_file_index>
61

> <i_lp_mmshare_version>
43012

> <i_f3d_flags>
0

> <s_epik_input>
W05IMl1jMW5bY0hdW2NIXWMobjEpTjJbQ0gyXVtDSDJdW0NIMl1bQ0BIXTJbQ0gyXVtPSF0=

> <s_epik_cmdline>
J2VwaWtfcHl0aG9uJywgJy1waCcsICc3LjAnLCAnLXRuJywgJzgnLCAnLW1hJywgJzIwMCcsICctbWV0YWxfYmluZGluZycsICctaW1hZScsICc8aW5maWxlLm1hZT4nLCAnLW9tYWUnLCAnPG91dGZpbGUubWFlPic=

> <r_lp_tautomer_probability>
0.575011

> <r_epik_Ionization_Penalty>
0.303659

> <r_epik_Ionization_Penalty_Charging>
0.303655

> <r_epik_Ionization_Penalty_Neutral>
4.42648e-06

> <r_epik_State_Penalty>
0.524608

> <r_epik_Charging_Adjusted_Penalty>
0.828263

> <i_epik_Tot_Q>
1

> <i_epik_Tot_abs_Q>
1

> <r_epik_Metal_State_Penalty>
0.785265

> <b_epik_Metal_Only>
0

> <s_lp_Force_Field>
OPLS_2005

> <r_lp_Energy>
27.124

> <b_lp_Chiralities_Consistent>
1

> <s_lp_Variant>
AV-unprocessed.smi:61-1

> <Gold.Version>
5.8.1

> <Gold.Id.Protein>
6NUR|6NUR_protein|mol2

> <Gold.PLP.Fitness>
41.2498

> <Gold.PLP.PLP>
-26.1138

> <Gold.PLP.part.hbond>
-4.0000

> <Gold.PLP.part.metal>
0.0000

> <Gold.PLP.part.buried>
-3.9283

> <Gold.PLP.part.nonpolar>
-19.1513

> <Gold.PLP.part.repulsive>
1.9040

> <Gold.PLP.ligand.clash>
0.0000

> <Gold.PLP.ligand.torsion>
0.9385

> <Gold.PLP.Chemscore.Hbond>
5.5500

> <Gold.PLP.Chemscore.CHOScore>
0.0000

> <Gold.PLP.Chemscore.Metal>
0.0000

> <Gold.Chemscore.Hbonds>
donor molecule, donor type, donor heavy atom, donor atom, acceptor molecule, acceptor atom, score
      L1  H     1    15       P1  7948  2.00
      L1  H     3    29       P1 10175  2.00
      L1  H    13    28       P1  8028  1.00
      P1  H  7989  7998       L1     7  0.35

> <Gold.PLP.Chemscore.Internal.Correction>
0.3630

> <Gold.Rescore>
     Score         DG    S(hbond)    S(metal)    S(lipo)     H(rot)  DE(clash)    DE(int)     intcor
     14.72     -15.92       2.94        0.00      48.74       1.98       0.24       0.95       ----

> <Gold.Chemscore.Fitness>
14.7242

> <Gold.Chemscore.DG>
-15.9200

> <Gold.Chemscore.ZeroCoef>
-5.4800

> <Gold.Chemscore.Hbond>
2.9389

> <Gold.Chemscore.Metal>
0.0000

> <Gold.Chemscore.Lipo>
48.7416

> <Gold.Chemscore.Internal_Hbond>
0.0000

> <Gold.Chemscore.DEClash>
0.2424

> <Gold.Chemscore.DEInternal>
0.9534

> <Gold.Chemscore.Rot>
1.9838

> <Gold.Chemscore.Internal.Correction>
   9.000000E+99

> <Gold.Chemscore.Hbonds>
donor molecule, donor type, donor heavy atom, donor atom, acceptor molecule, acceptor atom, score
      L1  H     1    15       P1  7948  0.98
      L1  H     3    29       P1 10175  0.96
      L1  H    13    28       P1  8028  1.00

> <Gold.Chemscore.Hbond.Weighted>
-9.8159

> <Gold.Chemscore.Metal.Weighted>
-0.0000

> <Gold.Chemscore.Lipo.Weighted>
-5.7028

> <Gold.Chemscore.Internal_Hbond.Weighted>
0.0000

> <Gold.Chemscore.DEClash.Weighted>
0.2424

> <Gold.Chemscore.DEInternal.Weighted>
0.9534

> <Gold.Chemscore.Rot.Weighted>
5.0786

> <Gold.Chemscore.Internal.Correction.Weighted>
   9.000000E+99

> <Gold.Protein.RotatedTorsions>
[ 6907 6896 6895 6894 ] final  119.10 input  -60.11 | X-H torsion
[ 7974 7965 7964 7962 ] final   48.16 input  175.53 | X-H torsion
[ 8008 7997 7996 7995 ] final -133.06 input   59.86 | X-H torsion
[ 10167 10162 10161 10158 ] final  -68.71 input  -65.29 | X-H torsion
[ 10718 10713 10712 10709 ] final -140.99 input   66.30 | X-H torsion
[ 10763 10752 10751 10750 ] final   36.12 input  -60.55 | X-H torsion
[ 11005 11000 10999 10996 ] final  158.81 input  -57.11 | X-H torsion

> <Gold.Protein.ActiveResidues>
 VAL166  LYS551  ARG553  GLY616  TRP617  ASP618  TYR619  PRO620  LYS621  CYS622 
 ASP623  PHE694  ASN695  SER759  ASP760  ASP761  ALA762  ILE779  LEU786  VAL792 
 PHE793  MET794  SER795  GLU796  ALA797  LYS798  CYS799  TRP800  GLU811  SER814 

> <Gold.Protein.RotatedAtoms>
  152.4496  133.7603  159.6742 H   0  0  0  0  0  0  0  0  0  0  0  0  # atno 6907 bound_to 6896
  150.8404  133.7934  159.3069 H   0  0  0  0  0  0  0  0  0  0  0  0  # atno 6908 bound_to 6896
  151.5561  135.1069  160.0013 H   0  0  0  0  0  0  0  0  0  0  0  0  # atno 6909 bound_to 6896
  146.0230  139.4673  142.9885 H   0  0  0  0  0  0  0  0  0  0  0  0  # atno 7974 bound_to 7965
  155.3392  140.0471  157.3044 H   0  0  0  0  0  0  0  0  0  0  0  0  # atno 8008 bound_to 7997
  154.5286  140.2249  155.8810 H   0  0  0  0  0  0  0  0  0  0  0  0  # atno 8009 bound_to 7997
  156.1765  140.3084  155.9075 H   0  0  0  0  0  0  0  0  0  0  0  0  # atno 8010 bound_to 7997
  140.5486  143.2312  151.6954 H   0  0  0  0  0  0  0  0  0  0  0  0  # atno 10167 bound_to 10162
  156.3287  130.7574  151.1688 H   0  0  0  0  0  0  0  0  0  0  0  0  # atno 10718 bound_to 10713
  153.0090  135.6314  154.1935 H   0  0  0  0  0  0  0  0  0  0  0  0  # atno 10763 bound_to 10752
  154.1678  135.2820  155.3091 H   0  0  0  0  0  0  0  0  0  0  0  0  # atno 10764 bound_to 10752
  154.5932  135.5611  153.7359 H   0  0  0  0  0  0  0  0  0  0  0  0  # atno 10765 bound_to 10752
  140.1901  134.8414  157.2902 H   0  0  0  0  0  0  0  0  0  0  0  0  # atno 11005 bound_to 11000
  145.7163  141.0090  143.1426 LP  0  0  0  0  0  0  0  0  0  0  0  0  # atno 17320 bound_to 7965
  144.6998  139.8816  143.7447 LP  0  0  0  0  0  0  0  0  0  0  0  0  # atno 17321 bound_to 7965
  139.5018  144.3854  152.0334 LP  0  0  0  0  0  0  0  0  0  0  0  0  # atno 17342 bound_to 10162
  140.2969  144.3690  150.6071 LP  0  0  0  0  0  0  0  0  0  0  0  0  # atno 17343 bound_to 10162
  157.7426  131.0487  150.5010 LP  0  0  0  0  0  0  0  0  0  0  0  0  # atno 17370 bound_to 10713
  156.5173  130.4153  149.6269 LP  0  0  0  0  0  0  0  0  0  0  0  0  # atno 17371 bound_to 10713
  140.2170  134.4070  155.7584 LP  0  0  0  0  0  0  0  0  0  0  0  0  # atno 17394 bound_to 11000
  141.2226  133.7146  156.8429 LP  0  0  0  0  0  0  0  0  0  0  0  0  # atno 17395 bound_to 11000

$$$$
