AV-unprocessed.smi:278|AV-procd|sdf|2094|dock2
  -GOLD-   2262021373D 1   1.00000     0.00000
 Structure written by MMmdl.
 50 54  0  0  0  0  0  0  0  0  1 V2000
  152.5229  136.0339  156.7226 O   0  0  0  0  0  0  0  0  0  0  0  0
  151.5974  137.1398  157.0114 S   0  0  0  0  0  0  0  0  0  0  0  0
  150.1804  137.0541  156.6250 O   0  0  0  0  0  0  0  0  0  0  0  0
  151.7063  137.5578  158.7950 C   0  0  0  0  0  0  0  0  0  0  0  0
  152.5571  138.8312  158.8882 C   0  0  0  0  0  0  0  0  0  0  0  0
  152.3869  139.6487  157.5947 C   0  0  2  0  0  0  0  0  0  0  0  0
  151.0517  140.3953  157.5004 C   0  0  0  0  0  0  0  0  0  0  0  0
  150.7632  140.4790  156.0758 N   0  0  0  0  0  0  0  0  0  0  0  0
  149.5809  140.9726  155.6227 C   0  0  0  0  0  0  0  0  0  0  0  0
  149.3127  140.9054  154.2911 N   0  0  0  0  0  0  0  0  0  0  0  0
  148.1612  141.3760  153.8041 C   0  0  0  0  0  0  0  0  0  0  0  0
  147.1468  141.9403  154.4607 N   0  0  0  0  0  0  0  0  0  0  0  0
  147.4001  142.0011  155.7988 C   0  0  0  0  0  0  0  0  0  0  0  0
  148.5775  141.5456  156.4597 C   0  0  0  0  0  0  0  0  0  0  0  0
  148.4576  141.7685  157.8281 N   0  0  0  0  0  0  0  0  0  0  0  0
  147.2864  142.3268  157.9650 C   0  0  0  0  0  0  0  0  0  0  0  0
  146.5830  142.5014  156.7962 N   0  0  0  0  0  0  0  0  0  0  0  0
  145.2612  143.0848  156.6528 C   0  0  0  0  0  0  0  0  0  0  0  0
  144.6034  142.7191  155.3078 C   0  0  1  0  0  0  0  0  0  0  0  0
  143.9697  141.4556  155.3863 O   0  0  0  0  0  0  0  0  0  0  0  0
  143.6042  143.7857  154.8173 C   0  0  1  0  0  0  0  0  0  0  0  0
  142.8400  144.5430  155.9174 C   0  0  0  0  0  0  0  0  0  0  0  0
  143.1963  145.9975  155.6676 C   0  0  0  0  0  0  0  0  0  0  0  0
  143.5718  146.0017  154.1917 C   0  0  0  0  0  0  0  0  0  0  0  0
  144.2672  144.7759  154.0356 O   0  0  0  0  0  0  0  0  0  0  0  0
  151.4609  139.4240  155.3528 C   0  0  0  0  0  0  0  0  0  0  0  0
  152.3396  138.7083  156.3891 C   0  0  2  0  0  0  0  0  0  0  0  0
  153.2016  140.3644  157.4764 H   0  0  0  0  0  0  0  0  0  0  0  0
  153.3345  138.4817  156.0050 H   0  0  0  0  0  0  0  0  0  0  0  0
  150.6950  137.7399  159.1592 H   0  0  0  0  0  0  0  0  0  0  0  0
  152.1291  136.7221  159.3527 H   0  0  0  0  0  0  0  0  0  0  0  0
  152.3138  139.4159  159.7759 H   0  0  0  0  0  0  0  0  0  0  0  0
  153.6050  138.5426  158.9784 H   0  0  0  0  0  0  0  0  0  0  0  0
  150.2538  139.8412  157.9963 H   0  0  0  0  0  0  0  0  0  0  0  0
  151.1143  141.3843  157.9553 H   0  0  0  0  0  0  0  0  0  0  0  0
  148.0339  141.2856  152.7354 H   0  0  0  0  0  0  0  0  0  0  0  0
  146.8986  142.6229  158.9289 H   0  0  0  0  0  0  0  0  0  0  0  0
  144.6426  142.7533  157.4878 H   0  0  0  0  0  0  0  0  0  0  0  0
  145.3554  144.1675  156.7444 H   0  0  0  0  0  0  0  0  0  0  0  0
  145.3873  142.6258  154.5551 H   0  0  0  0  0  0  0  0  0  0  0  0
  143.9590  141.0747  154.5214 H   0  0  0  0  0  0  0  0  0  0  0  0
  142.8735  143.3044  154.1650 H   0  0  0  0  0  0  0  0  0  0  0  0
  141.7670  144.3903  155.7951 H   0  0  0  0  0  0  0  0  0  0  0  0
  143.1013  144.2290  156.9285 H   0  0  0  0  0  0  0  0  0  0  0  0
  142.3833  146.6844  155.9037 H   0  0  0  0  0  0  0  0  0  0  0  0
  144.0629  146.2749  156.2690 H   0  0  0  0  0  0  0  0  0  0  0  0
  142.6810  146.0010  153.5616 H   0  0  0  0  0  0  0  0  0  0  0  0
  144.1916  146.8548  153.9153 H   0  0  0  0  0  0  0  0  0  0  0  0
  150.7768  138.7384  154.8524 H   0  0  0  0  0  0  0  0  0  0  0  0
  152.0858  139.8867  154.5886 H   0  0  0  0  0  0  0  0  0  0  0  0
  1  2  2  0  0  0  0
  2 27  1  0  0  0  0
  2  3  2  0  0  0  0
  2  4  1  0  0  0  0
  4  5  1  0  0  0  0
  4 30  1  0  0  0  0
  4 31  1  0  0  0  0
  5  6  1  0  0  0  0
  5 32  1  0  0  0  0
  5 33  1  0  0  0  0
  6 28  1  0  0  0  0
  6 27  1  0  0  0  0
  6  7  1  0  0  0  0
  7  8  1  0  0  0  0
  7 34  1  0  0  0  0
  7 35  1  0  0  0  0
  8  9  1  0  0  0  0
  8 26  1  0  0  0  0
  9 14  1  0  0  0  0
  9 10  2  0  0  0  0
 10 11  1  0  0  0  0
 11 12  2  0  0  0  0
 11 36  1  0  0  0  0
 12 13  1  0  0  0  0
 13 17  1  0  0  0  0
 13 14  2  0  0  0  0
 14 15  1  0  0  0  0
 15 16  2  0  0  0  0
 16 17  1  0  0  0  0
 16 37  1  0  0  0  0
 17 18  1  0  0  0  0
 18 19  1  0  0  0  0
 18 38  1  0  0  0  0
 18 39  1  0  0  0  0
 19 20  1  0  0  0  0
 19 21  1  0  0  0  0
 19 40  1  0  0  0  0
 20 41  1  0  0  0  0
 21 25  1  0  0  0  0
 21 22  1  0  0  0  0
 21 42  1  0  0  0  0
 22 23  1  0  0  0  0
 22 43  1  0  0  0  0
 22 44  1  0  0  0  0
 23 24  1  0  0  0  0
 23 45  1  0  0  0  0
 23 46  1  0  0  0  0
 24 25  1  0  0  0  0
 24 47  1  0  0  0  0
 24 48  1  0  0  0  0
 26 27  1  0  0  0  0
 26 49  1  0  0  0  0
 26 50  1  0  0  0  0
 27 29  1  0  0  0  0
M  END
> <s_m_source_file>
AV-unprocessed.smi

> <i_m_source_file_index>
278

> <i_lp_mmshare_version>
43012

> <i_f3d_flags>
0

> <s_epik_input>
W0NIMl0xW0NIMl1TKD1PKSg9TylbQ0BASF0oW0NAQEhdMTIpW0NIMl1OKFtDSDJdMiljKG5bY0hdbjMpYyhjMzQpbltjSF1uNFtDSDJdW0NASF0oW09IXSlbQ0BASF01W0NIMl1bQ0gyXVtDSDJdTzU=

> <s_epik_cmdline>
J2VwaWtfcHl0aG9uJywgJy1waCcsICc3LjAnLCAnLXRuJywgJzgnLCAnLW1hJywgJzIwMCcsICctbWV0YWxfYmluZGluZycsICctaW1hZScsICc8aW5maWxlLm1hZT4nLCAnLW9tYWUnLCAnPG91dGZpbGUubWFlPic=

> <r_lp_tautomer_probability>
1

> <r_epik_Ionization_Penalty>
0.000636766

> <r_epik_Ionization_Penalty_Charging>
0

> <r_epik_Ionization_Penalty_Neutral>
0.000636766

> <r_epik_State_Penalty>
0.000329976

> <r_epik_Charging_Adjusted_Penalty>
0.000329976

> <i_epik_Tot_Q>
0

> <i_epik_Tot_abs_Q>
0

> <r_epik_Metal_State_Penalty>
-0

> <b_epik_Metal_Only>
0

> <s_lp_Force_Field>
OPLS_2005

> <r_lp_Energy>
51.0774

> <b_lp_Chiralities_Consistent>
1

> <s_lp_Variant>
AV-unprocessed.smi:278-8

> <Gold.Version>
5.8.1

> <Gold.Id.Protein>
6NUR|6NUR_protein|mol2

> <Gold.PLP.Fitness>
40.9267

> <Gold.PLP.PLP>
-33.8179

> <Gold.PLP.part.hbond>
-3.0000

> <Gold.PLP.part.metal>
0.0000

> <Gold.PLP.part.buried>
-1.3535

> <Gold.PLP.part.nonpolar>
-29.5979

> <Gold.PLP.part.repulsive>
0.5174

> <Gold.PLP.ligand.clash>
0.0000

> <Gold.PLP.ligand.torsion>
1.4589

> <Gold.PLP.Chemscore.Hbond>
2.2527

> <Gold.PLP.Chemscore.CHOScore>
1.0000

> <Gold.PLP.Chemscore.Metal>
0.0000

> <Gold.Chemscore.Hbonds>
donor molecule, donor type, donor heavy atom, donor atom, acceptor molecule, acceptor atom, score
      L1  H    20    41       P1 10175  0.80
      P1  H 10752 10765       L1     1  1.00
      L1  C    11    36       P1  7957  0.92

> <Gold.PLP.Chemscore.Internal.Correction>
0.2684

> <Gold.Rescore>
     Score         DG    S(hbond)    S(metal)    S(lipo)     H(rot)  DE(clash)    DE(int)     intcor
     10.34     -15.09       2.23        0.00      65.11       2.13       1.23       3.52       ----

> <Gold.Chemscore.Fitness>
10.3392

> <Gold.Chemscore.DG>
-15.0921

> <Gold.Chemscore.ZeroCoef>
-5.4800

> <Gold.Chemscore.Hbond>
2.2331

> <Gold.Chemscore.Metal>
0.0000

> <Gold.Chemscore.Lipo>
65.1137

> <Gold.Chemscore.Internal_Hbond>
0.0000

> <Gold.Chemscore.DEClash>
1.2292

> <Gold.Chemscore.DEInternal>
3.5236

> <Gold.Chemscore.Rot>
2.1346

> <Gold.Chemscore.Internal.Correction>
   9.000000E+99

> <Gold.Chemscore.Hbonds>
donor molecule, donor type, donor heavy atom, donor atom, acceptor molecule, acceptor atom, score
      L1  H    20    41       P1 10175  0.67
      P1  H  7989  7998       L1    10  0.01
      P1  H 10752 10765       L1     1  0.95

> <Gold.Chemscore.Hbond.Weighted>
-7.4584

> <Gold.Chemscore.Metal.Weighted>
-0.0000

> <Gold.Chemscore.Lipo.Weighted>
-7.6183

> <Gold.Chemscore.Internal_Hbond.Weighted>
0.0000

> <Gold.Chemscore.DEClash.Weighted>
1.2292

> <Gold.Chemscore.DEInternal.Weighted>
3.5236

> <Gold.Chemscore.Rot.Weighted>
5.4646

> <Gold.Chemscore.Internal.Correction.Weighted>
   9.000000E+99

> <Gold.Protein.RotatedTorsions>
[ 6907 6896 6895 6894 ] final  145.08 input  -60.11 | X-H torsion
[ 7974 7965 7964 7962 ] final  -26.74 input  175.53 | X-H torsion
[ 8008 7997 7996 7995 ] final  156.41 input   59.86 | X-H torsion
[ 10167 10162 10161 10158 ] final   30.36 input  -65.29 | X-H torsion
[ 10718 10713 10712 10709 ] final  110.61 input   66.30 | X-H torsion
[ 10763 10752 10751 10750 ] final -113.71 input  -60.55 | X-H torsion
[ 11005 11000 10999 10996 ] final   79.63 input  -57.11 | X-H torsion

> <Gold.Protein.ActiveResidues>
 VAL166  LYS551  ARG553  GLY616  TRP617  ASP618  TYR619  PRO620  LYS621  CYS622 
 ASP623  PHE694  ASN695  SER759  ASP760  ASP761  ALA762  ILE779  LEU786  VAL792 
 PHE793  MET794  SER795  GLU796  ALA797  LYS798  CYS799  TRP800  GLU811  SER814 

> <Gold.Protein.RotatedAtoms>
  152.1855  133.4736  159.4980 H   0  0  0  0  0  0  0  0  0  0  0  0  # atno 6907 bound_to 6896
  150.6942  134.1779  159.4246 H   0  0  0  0  0  0  0  0  0  0  0  0  # atno 6908 bound_to 6896
  151.9692  135.0085  160.0602 H   0  0  0  0  0  0  0  0  0  0  0  0  # atno 6909 bound_to 6896
  146.1405  140.5060  142.8654 H   0  0  0  0  0  0  0  0  0  0  0  0  # atno 7974 bound_to 7965
  156.2424  140.1913  156.6951 H   0  0  0  0  0  0  0  0  0  0  0  0  # atno 8008 bound_to 7997
  154.6222  140.0607  156.9656 H   0  0  0  0  0  0  0  0  0  0  0  0  # atno 8009 bound_to 7997
  155.1843  140.3279  155.4372 H   0  0  0  0  0  0  0  0  0  0  0  0  # atno 8010 bound_to 7997
  140.4684  144.0800  150.6230 H   0  0  0  0  0  0  0  0  0  0  0  0  # atno 10167 bound_to 10162
  157.6486  131.0936  150.6627 H   0  0  0  0  0  0  0  0  0  0  0  0  # atno 10718 bound_to 10713
  154.8408  135.4444  154.1392 H   0  0  0  0  0  0  0  0  0  0  0  0  # atno 10763 bound_to 10752
  153.2582  135.6933  153.7613 H   0  0  0  0  0  0  0  0  0  0  0  0  # atno 10764 bound_to 10752
  153.6899  135.3389  155.3175 H   0  0  0  0  0  0  0  0  0  0  0  0  # atno 10765 bound_to 10752
  139.9165  134.7858  156.1804 H   0  0  0  0  0  0  0  0  0  0  0  0  # atno 11005 bound_to 11000
  144.7787  140.5795  143.6620 LP  0  0  0  0  0  0  0  0  0  0  0  0  # atno 17320 bound_to 7965
  145.5058  139.1481  143.3632 LP  0  0  0  0  0  0  0  0  0  0  0  0  # atno 17321 bound_to 7965
  140.4007  143.2705  151.9951 LP  0  0  0  0  0  0  0  0  0  0  0  0  # atno 17342 bound_to 10162
  139.4815  144.6000  151.7623 LP  0  0  0  0  0  0  0  0  0  0  0  0  # atno 17343 bound_to 10162
  156.6941  130.4604  149.5591 LP  0  0  0  0  0  0  0  0  0  0  0  0  # atno 17370 bound_to 10713
  156.1841  130.6518  151.0986 LP  0  0  0  0  0  0  0  0  0  0  0  0  # atno 17371 bound_to 10713
  141.0646  133.6825  156.2019 LP  0  0  0  0  0  0  0  0  0  0  0  0  # atno 17394 bound_to 11000
  140.6606  134.4971  157.5583 LP  0  0  0  0  0  0  0  0  0  0  0  0  # atno 17395 bound_to 11000

$$$$
