#       Name:                AV-unprocessed.smi:1633
#       Creating user name   scv26
#       Creation time:       Fri Mar 27 07:21:19 2020


#       File generated by GOLD software.
#

@<TRIPOS>MOLECULE
AV-unprocessed.smi:1633
    56    58     1
SMALL
NO_CHARGES


@<TRIPOS>ATOM
      1 ****        -5.1287  -4.9977  -0.8537 C.3            1 S1                 0.0000
      2 ****        -4.7791  -3.9461  -1.9090 C.2            1 S1                 0.0000
      3 ****        -5.0808  -4.1787  -3.0792 O.2            1 S1                 0.0000
      4 ****        -4.1562  -2.8051  -1.5282 N.am           1 S1                 0.0000
      5 ****        -3.7483  -1.7678  -2.4798 C.3            1 S1                 0.0000
      6 ****        -2.2112  -1.7002  -2.5236 C.3            1 S1                 0.0000
      7 ****        -1.6390  -1.4771  -1.1690 N.4            1 S1                 1.0000
      8 ****        -0.1573  -1.3739  -1.1930 C.3            1 S1                 0.0000
      9 ****         0.4032  -0.5819   0.0047 C.3            1 S1                 0.0000
     10 ****        -0.1082   0.7363  -0.0484 O.3            1 S1                 0.0000
     11 ****         1.9433  -0.5338  -0.0102 C.3            1 S1                 0.0000
     12 ****         2.4832   0.1824   1.1318 N.pl3          1 S1                 0.0000
     13 ****         2.7549  -0.3237   2.3501 C.2            1 S1                 0.0000
     14 ****         3.2363   0.5138   3.2636 N.2            1 S1                 0.0000
     15 ****         3.2868   1.7019   2.5549 C.ar           1 S1                 0.0000
     16 ****         3.7033   2.9907   2.9536 C.ar           1 S1                 0.0000
     17 ****         3.6644   4.0768   2.0504 C.ar           1 S1                 0.0000
     18 ****         4.1178   5.4468   2.5228 C.3            1 S1                 0.0000
     19 ****         3.2061   3.8808   0.7226 C.ar           1 S1                 0.0000
     20 ****         3.1582   5.0324  -0.2662 C.3            1 S1                 0.0000
     21 ****         2.7856   2.5999   0.3080 C.ar           1 S1                 0.0000
     22 ****         2.8259   1.5279   1.2171 C.ar           1 S1                 0.0000
     23 ****        -2.1551  -2.4454  -0.1619 C.3            1 S1                 0.0000
     24 ****        -3.6939  -2.4988  -0.1708 C.3            1 S1                 0.0000
     25 ****        -4.2291  -5.3663  -0.3599 H              1 S1                 0.0000
     26 ****        -5.6295  -5.8505  -1.3132 H              1 S1                 0.0000
     27 ****        -5.8021  -4.5830  -0.1030 H              1 S1                 0.0000
     28 ****        -4.1380  -1.9348  -3.4849 H              1 S1                 0.0000
     29 ****        -4.1573  -0.8084  -2.1592 H              1 S1                 0.0000
     30 ****        -1.8108  -2.6275  -2.9369 H              1 S1                 0.0000
     31 ****        -1.9027  -0.8941  -3.1907 H              1 S1                 0.0000
     32 ****         0.2738  -2.3756  -1.2270 H              1 S1                 0.0000
     33 ****         0.1583  -0.8760  -2.1116 H              1 S1                 0.0000
     34 ****         0.0840  -1.0343   0.9431 H              1 S1                 0.0000
     35 ****         0.2574   1.2300   0.6707 H              1 S1                 0.0000
     36 ****         2.3518  -1.5454  -0.0015 H              1 S1                 0.0000
     37 ****         2.3062  -0.0606  -0.9236 H              1 S1                 0.0000
     38 ****         2.5843  -1.3650   2.5811 H              1 S1                 0.0000
     39 ****         4.0530   3.1391   3.9648 H              1 S1                 0.0000
     40 ****         4.9764   5.7852   1.9428 H              1 S1                 0.0000
     41 ****         4.4089   5.4299   3.5734 H              1 S1                 0.0000
     42 ****         3.3146   6.1754   2.4111 H              1 S1                 0.0000
     43 ****         2.8073   4.7026  -1.2446 H              1 S1                 0.0000
     44 ****         4.1496   5.4669  -0.3964 H              1 S1                 0.0000
     45 ****         2.4820   5.8110   0.0873 H              1 S1                 0.0000
     46 ****         2.4313   2.4382  -0.6994 H              1 S1                 0.0000
     47 ****        -1.7519  -3.4372  -0.3729 H              1 S1                 0.0000
     48 ****        -1.8168  -2.1720   0.8365 H              1 S1                 0.0000
     49 ****        -4.1008  -1.5327   0.1316 H              1 S1                 0.0000
     50 ****        -4.0388  -3.2072   0.5808 H              1 S1                 0.0000
     51 ****        -1.9720  -0.5666  -0.8841 H              1 S1                 0.0000
     52 ****        -5.5405  -5.0345  -3.3164 LP             1 S1                 0.0000
     53 ****        -4.8663  -3.5119  -3.7929 LP             1 S1                 0.0000
     54 ****        -1.1049   0.7146   0.0298 LP             1 S1                 0.0000
     55 ****         0.1489   1.1630  -0.9155 LP             1 S1                 0.0000
     56 ****         3.4940   0.3330   4.2127 LP             1 S1                 0.0000
@<TRIPOS>BOND
    1    1    2 1     
    2    1   25 1     
    3    1   26 1     
    4    1   27 1     
    5    2    3 2     
    6    2    4 am    
    7    4   24 1     
    8    4    5 1     
    9    5    6 1     
   10    5   28 1     
   11    5   29 1     
   12    6    7 1     
   13    6   30 1     
   14    6   31 1     
   15    7    8 1     
   16    7   23 1     
   17    7   51 1     
   18    8    9 1     
   19    8   32 1     
   20    8   33 1     
   21    9   10 1     
   22    9   11 1     
   23    9   34 1     
   24   10   35 1     
   25   11   12 1     
   26   11   36 1     
   27   11   37 1     
   28   12   22 1     
   29   12   13 1     
   30   13   14 2     
   31   13   38 1     
   32   14   15 1     
   33   15   22 ar    
   34   15   16 ar    
   35   16   17 ar    
   36   16   39 1     
   37   17   18 1     
   38   17   19 ar    
   39   18   40 1     
   40   18   41 1     
   41   18   42 1     
   42   19   20 1     
   43   19   21 ar    
   44   20   43 1     
   45   20   44 1     
   46   20   45 1     
   47   21   22 ar    
   48   21   46 1     
   49   23   24 1     
   50   23   47 1     
   51   23   48 1     
   52   24   49 1     
   53   24   50 1     
   54    3   52 1     
   55    3   53 1     
   56   10   54 1     
   57   10   55 1     
   58   14   56 1     
@<TRIPOS>SUBSTRUCTURE
      1 S1             1
@<TRIPOS>SET
LONE_PAIRS      STATIC     ATOMS    <user>   **** ""
5 52 53 54 55 56
DONOR_HYDROGENS      STATIC     ATOMS    <user>   **** ""
2 51 35
ATOM$BLUE        STATIC     ATOMS    COLORGROUP SYSTEM
5 52 53 54 55 56
ATOM$RED        STATIC     ATOMS    COLORGROUP SYSTEM
2 51 35
