#       Name:                AV-unprocessed.smi:171
#       Creating user name   scv26
#       Creation time:       Thu Mar 26 19:18:10 2020


#       File generated by GOLD software.
#

@<TRIPOS>MOLECULE
AV-unprocessed.smi:171
    66    69     1
SMALL
NO_CHARGES


@<TRIPOS>ATOM
      1 ****        -5.4975  -3.4836   1.1110 C.3            1 S1                 0.0000
      2 ****        -4.1714  -3.1203   1.7971 C.3            1 S1                 0.0000
      3 ****        -4.1673  -3.6295   3.2475 C.3            1 S1                 0.0000
      4 ****        -3.8997  -1.6032   1.6799 C.3            1 S1                 0.0000
      5 ****        -2.4910  -1.1431   2.1505 C.3            1 S1                 0.0000
      6 ****        -2.5676  -0.4247   3.5214 C.2            1 S1                 0.0000
      7 ****        -2.7464  -1.0780   4.5464 O.2            1 S1                 0.0000
      8 ****        -2.4276   0.9126   3.5684 N.am           1 S1                 0.0000
      9 ****        -2.1806   1.7923   2.4261 C.3            1 S1                 0.0000
     10 ****        -2.4031   1.0956   1.0722 C.3            1 S1                 0.0000
     11 ****        -1.8983  -0.2749   1.1191 N.3            1 S1                 0.0000
     12 ****        -0.5721  -0.3915   0.8445 C.ar           1 S1                 0.0000
     13 ****         0.2992  -0.7679   1.8186 N.ar           1 S1                 0.0000
     14 ****         1.6059  -0.8629   1.5565 C.ar           1 S1                 0.0000
     15 ****         2.2454  -0.6297   0.4092 N.ar           1 S1                 0.0000
     16 ****         1.3777  -0.2508  -0.5722 C.ar           1 S1                 0.0000
     17 ****        -0.0328  -0.1101  -0.4417 C.ar           1 S1                 0.0000
     18 ****        -0.5843   0.2797  -1.6565 N.2            1 S1                 0.0000
     19 ****         0.4424   0.3716  -2.4569 C.2            1 S1                 0.0000
     20 ****         1.6605   0.0795  -1.8860 N.pl3          1 S1                 0.0000
     21 ****         2.9594   0.1088  -2.5400 C.3            1 S1                 0.0000
     22 ****         3.6527   1.4899  -2.4665 C.3            1 S1                 0.0000
     23 ****         3.8784   1.8139  -1.1038 O.3            1 S1                 0.0000
     24 ****         2.8572   2.6182  -3.1063 C.3            1 S1                 0.0000
     25 ****         3.9386   3.6397  -3.4365 C.3            1 S1                 0.0000
     26 ****         5.0748   2.8665  -3.8012 O.3            1 S1                 0.0000
     27 ****         4.9722   1.5472  -3.2668 C.3            1 S1                 0.0000
     28 ****         6.2530   1.1569  -2.5114 C.3            1 S1                 0.0000
     29 ****        -6.3412  -2.9908   1.5953 H              1 S1                 0.0000
     30 ****        -5.6768  -4.5585   1.1433 H              1 S1                 0.0000
     31 ****        -5.4946  -3.1854   0.0622 H              1 S1                 0.0000
     32 ****        -3.3801  -3.6447   1.2600 H              1 S1                 0.0000
     33 ****        -4.8774  -3.0784   3.8647 H              1 S1                 0.0000
     34 ****        -3.1811  -3.5358   3.7004 H              1 S1                 0.0000
     35 ****        -4.4367  -4.6849   3.2935 H              1 S1                 0.0000
     36 ****        -4.0276  -1.3393   0.6286 H              1 S1                 0.0000
     37 ****        -4.6841  -1.0491   2.1990 H              1 S1                 0.0000
     38 ****        -1.8701  -2.0323   2.2727 H              1 S1                 0.0000
     39 ****        -2.4807   1.3539   4.4751 H              1 S1                 0.0000
     40 ****        -2.8061   2.6814   2.5058 H              1 S1                 0.0000
     41 ****        -1.1458   2.1294   2.4949 H              1 S1                 0.0000
     42 ****        -3.4703   1.0611   0.8514 H              1 S1                 0.0000
     43 ****        -1.9529   1.6808   0.2701 H              1 S1                 0.0000
     44 ****         2.2281  -1.1672   2.3852 H              1 S1                 0.0000
     45 ****         0.3388   0.6616  -3.4924 H              1 S1                 0.0000
     46 ****         3.5923  -0.6568  -2.0893 H              1 S1                 0.0000
     47 ****         2.8174  -0.1872  -3.5801 H              1 S1                 0.0000
     48 ****         4.3489   2.6325  -1.0653 H              1 S1                 0.0000
     49 ****         2.3950   2.2736  -4.0323 H              1 S1                 0.0000
     50 ****         2.0691   3.0196  -2.4675 H              1 S1                 0.0000
     51 ****         3.6440   4.3209  -4.2352 H              1 S1                 0.0000
     52 ****         4.1848   4.2349  -2.5563 H              1 S1                 0.0000
     53 ****         4.8792   0.8927  -4.1346 H              1 S1                 0.0000
     54 ****         6.1719   0.1518  -2.0969 H              1 S1                 0.0000
     55 ****         6.4653   1.8443  -1.6924 H              1 S1                 0.0000
     56 ****         7.1138   1.1710  -3.1800 H              1 S1                 0.0000
     57 ****        -2.8423  -2.0721   4.4953 LP             1 S1                 0.0000
     58 ****        -2.7960  -0.6157   5.4317 LP             1 S1                 0.0000
     59 ****        -2.2899  -0.7265   0.3173 LP             1 S1                 0.0000
     60 ****        -0.0401  -0.9748   2.7362 LP             1 S1                 0.0000
     61 ****         3.2334  -0.7210   0.2849 LP             1 S1                 0.0000
     62 ****        -1.5466   0.4504  -1.8685 LP             1 S1                 0.0000
     63 ****         4.4192   1.0929  -0.6705 LP             1 S1                 0.0000
     64 ****         3.0030   1.9050  -0.6290 LP             1 S1                 0.0000
     65 ****         5.8996   3.3038  -3.4428 LP             1 S1                 0.0000
     66 ****         5.1315   2.8145  -4.7983 LP             1 S1                 0.0000
@<TRIPOS>BOND
    1    1    2 1     
    2    1   29 1     
    3    1   30 1     
    4    1   31 1     
    5    2    3 1     
    6    2    4 1     
    7    2   32 1     
    8    3   33 1     
    9    3   34 1     
   10    3   35 1     
   11    4    5 1     
   12    4   36 1     
   13    4   37 1     
   14    5   11 1     
   15    5    6 1     
   16    5   38 1     
   17    6    7 2     
   18    6    8 am    
   19    8    9 1     
   20    8   39 1     
   21    9   10 1     
   22    9   40 1     
   23    9   41 1     
   24   10   11 1     
   25   10   42 1     
   26   10   43 1     
   27   11   12 1     
   28   12   17 ar    
   29   12   13 ar    
   30   13   14 ar    
   31   14   15 ar    
   32   14   44 1     
   33   15   16 ar    
   34   16   20 1     
   35   16   17 ar    
   36   17   18 1     
   37   18   19 2     
   38   19   20 1     
   39   19   45 1     
   40   20   21 1     
   41   21   22 1     
   42   21   46 1     
   43   21   47 1     
   44   22   27 1     
   45   22   23 1     
   46   22   24 1     
   47   23   48 1     
   48   24   25 1     
   49   24   49 1     
   50   24   50 1     
   51   25   26 1     
   52   25   51 1     
   53   25   52 1     
   54   26   27 1     
   55   27   28 1     
   56   27   53 1     
   57   28   54 1     
   58   28   55 1     
   59   28   56 1     
   60    7   57 1     
   61    7   58 1     
   62   11   59 1     
   63   13   60 1     
   64   15   61 1     
   65   18   62 1     
   66   23   63 1     
   67   23   64 1     
   68   26   65 1     
   69   26   66 1     
@<TRIPOS>SUBSTRUCTURE
      1 S1             1
@<TRIPOS>SET
LONE_PAIRS      STATIC     ATOMS    <user>   **** ""
10 57 58 59 60 61 62 63 64 65 66
DONOR_HYDROGENS      STATIC     ATOMS    <user>   **** ""
2 39 48
ATOM$BLUE        STATIC     ATOMS    COLORGROUP SYSTEM
10 57 58 59 60 61 62 63 64 65 66
ATOM$RED        STATIC     ATOMS    COLORGROUP SYSTEM
2 39 48
