#       Name:                AV-unprocessed.smi:2226
#       Creating user name   scv26
#       Creation time:       Fri Mar 27 12:22:23 2020


#       File generated by GOLD software.
#

@<TRIPOS>MOLECULE
AV-unprocessed.smi:2226
    45    47     1
SMALL
NO_CHARGES


@<TRIPOS>ATOM
      1 ****        -3.3101  -2.6111   0.2485 C.3            1 S1                 0.0000
      2 ****        -2.0527  -1.8266   0.2673 N.4            1 S1                 1.0000
      3 ****        -1.7180  -1.2164   1.5768 C.3            1 S1                 0.0000
      4 ****        -2.6851  -0.0556   1.9222 C.3            1 S1                 0.0000
      5 ****        -2.8180   0.9995   0.8081 C.3            1 S1                 0.0000
      6 ****        -2.9071   0.3659  -0.5931 C.3            1 S1                 0.0000
      7 ****        -1.9306  -0.8174  -0.8124 C.3            1 S1                 0.0000
      8 ****        -0.4456  -0.4134  -0.9494 C.3            1 S1                 0.0000
      9 ****         0.2274   0.0280   0.3764 C.3            1 S1                 0.0000
     10 ****         1.6808  -0.0537   0.2509 N.am           1 S1                 0.0000
     11 ****         2.4698   0.8206  -0.3909 C.2            1 S1                 0.0000
     12 ****         1.9749   1.8056  -0.9436 O.2            1 S1                 0.0000
     13 ****         3.7810   0.4952  -0.3536 N.pl3          1 S1                -1.0000
     14 ****         4.6818   1.2820  -0.9639 C.2            1 S1                 0.0000
     15 ****         5.2599   1.0529  -2.1442 N.2            1 S1                 0.0000
     16 ****         6.1142   2.1228  -2.3616 C.2            1 S1                 0.0000
     17 ****         6.0173   2.9627  -1.2861 C.2            1 S1                 0.0000
     18 ****         5.1202   2.4409  -0.3956 O.3            1 S1                 0.0000
     19 ****        -0.2200  -0.8357   1.5804 C.3            1 S1                 0.0000
     20 ****        -4.1879  -1.9907   0.4267 H              1 S1                 0.0000
     21 ****        -3.2846  -3.3869   1.0142 H              1 S1                 0.0000
     22 ****        -3.4352  -3.1047  -0.7156 H              1 S1                 0.0000
     23 ****        -1.8437  -1.9820   2.3439 H              1 S1                 0.0000
     24 ****        -3.6733  -0.4696   2.1240 H              1 S1                 0.0000
     25 ****        -2.3780   0.4252   2.8515 H              1 S1                 0.0000
     26 ****        -3.7041   1.6089   0.9883 H              1 S1                 0.0000
     27 ****        -1.9915   1.7038   0.8528 H              1 S1                 0.0000
     28 ****        -3.9272   0.0136  -0.7473 H              1 S1                 0.0000
     29 ****        -2.7471   1.1306  -1.3539 H              1 S1                 0.0000
     30 ****        -2.2080  -1.2975  -1.7521 H              1 S1                 0.0000
     31 ****         0.0938  -1.2783  -1.3396 H              1 S1                 0.0000
     32 ****        -0.3365   0.3653  -1.7051 H              1 S1                 0.0000
     33 ****        -0.0200   1.0664   0.5837 H              1 S1                 0.0000
     34 ****         2.1337  -0.8427   0.6888 H              1 S1                 0.0000
     35 ****         6.7168   2.2005  -3.2542 H              1 S1                 0.0000
     36 ****         6.4824   3.8990  -1.0168 H              1 S1                 0.0000
     37 ****         0.0427  -0.3384   2.5148 H              1 S1                 0.0000
     38 ****         0.3510  -1.7659   1.5718 H              1 S1                 0.0000
     39 ****        -1.3247  -2.5037   0.0886 H              1 S1                 0.0000
     40 ****         0.9862   1.9519  -0.9130 LP             1 S1                 0.0000
     41 ****         2.5624   2.4581  -1.4224 LP             1 S1                 0.0000
     42 ****         4.0795  -0.3292   0.1272 LP             1 S1                 0.0000
     43 ****         5.1082   0.2703  -2.7480 LP             1 S1                 0.0000
     44 ****         5.5644   2.2551   0.4808 LP             1 S1                 0.0000
     45 ****         4.3578   3.0727  -0.2556 LP             1 S1                 0.0000
@<TRIPOS>BOND
    1    1    2 1     
    2    1   20 1     
    3    1   21 1     
    4    1   22 1     
    5    2    7 1     
    6    2    3 1     
    7    2   39 1     
    8    3   19 1     
    9    3    4 1     
   10    3   23 1     
   11    4    5 1     
   12    4   24 1     
   13    4   25 1     
   14    5    6 1     
   15    5   26 1     
   16    5   27 1     
   17    6    7 1     
   18    6   28 1     
   19    6   29 1     
   20    7    8 1     
   21    7   30 1     
   22    8    9 1     
   23    8   31 1     
   24    8   32 1     
   25    9   10 1     
   26    9   19 1     
   27    9   33 1     
   28   10   34 1     
   29   10   11 am    
   30   11   13 1     
   31   11   12 2     
   32   13   14 1     
   33   14   18 1     
   34   14   15 2     
   35   15   16 1     
   36   16   35 1     
   37   16   17 2     
   38   17   36 1     
   39   17   18 1     
   40   19   37 1     
   41   19   38 1     
   42   12   40 1     
   43   12   41 1     
   44   13   42 1     
   45   15   43 1     
   46   18   44 1     
   47   18   45 1     
@<TRIPOS>SUBSTRUCTURE
      1 S1             1
@<TRIPOS>SET
LONE_PAIRS      STATIC     ATOMS    <user>   **** ""
6 40 41 42 43 44 45
DONOR_HYDROGENS      STATIC     ATOMS    <user>   **** ""
2 39 34
ATOM$BLUE        STATIC     ATOMS    COLORGROUP SYSTEM
6 40 41 42 43 44 45
ATOM$RED        STATIC     ATOMS    COLORGROUP SYSTEM
2 39 34
