#       Name:                AV-unprocessed.smi:2061
#       Creating user name   scv26
#       Creation time:       Fri Mar 27 11:06:39 2020


#       File generated by GOLD software.
#

@<TRIPOS>MOLECULE
AV-unprocessed.smi:2061
    53    54     1
SMALL
NO_CHARGES


@<TRIPOS>ATOM
      1 ****        -3.9083   6.1711   3.3819 C.3            1 S1                 0.0000
      2 ****        -3.8686   5.0689   2.3792 C.2            1 S1                 0.0000
      3 ****        -2.8680   4.5583   1.6021 C.2            1 S1                 0.0000
      4 ****        -3.5138   3.5142   0.8852 C.2            1 S1                 0.0000
      5 ****        -2.9413   2.7107  -0.0244 N.pl3          1 S1                -1.0000
      6 ****        -2.2633   1.6099   0.3718 C.2            1 S1                 0.0000
      7 ****        -2.0968   1.2321   1.5337 O.2            1 S1                 0.0000
      8 ****        -1.7344   0.9110  -0.6434 N.am           1 S1                 0.0000
      9 ****        -0.9481  -0.3155  -0.5342 C.3            1 S1                 0.0000
     10 ****         0.5684  -0.0860  -0.7665 C.3            1 S1                 0.0000
     11 ****         1.1252   0.9723   0.2177 C.3            1 S1                 0.0000
     12 ****         1.2939  -1.3976  -0.7065 N.4            1 S1                 1.0000
     13 ****         1.1137  -2.2068  -1.9408 C.3            1 S1                 0.0000
     14 ****         1.7225  -3.6087  -1.7733 C.3            1 S1                 0.0000
     15 ****         1.6035  -4.4435  -3.0531 C.3            1 S1                 0.0000
     16 ****         3.1050  -3.4838  -1.4606 O.3            1 S1                 0.0000
     17 ****         3.3781  -2.7306  -0.2815 C.3            1 S1                 0.0000
     18 ****         2.9966  -3.4957   0.9988 C.3            1 S1                 0.0000
     19 ****         2.7433  -1.3277  -0.3724 C.3            1 S1                 0.0000
     20 ****        -4.7975   3.4133   1.1858 N.2            1 S1                 0.0000
     21 ****        -5.0318   4.4027   2.1483 O.3            1 S1                 0.0000
     22 ****        -3.7126   7.1316   2.9054 H              1 S1                 0.0000
     23 ****        -3.1549   6.0161   4.1542 H              1 S1                 0.0000
     24 ****        -4.8827   6.2269   3.8679 H              1 S1                 0.0000
     25 ****        -1.8370   4.8757   1.5575 H              1 S1                 0.0000
     26 ****        -1.8992   1.2638  -1.5750 H              1 S1                 0.0000
     27 ****        -1.1084  -0.8013   0.4297 H              1 S1                 0.0000
     28 ****        -1.3617  -0.9946  -1.2770 H              1 S1                 0.0000
     29 ****         0.7056   0.3231  -1.7690 H              1 S1                 0.0000
     30 ****         0.5832   1.9147   0.1472 H              1 S1                 0.0000
     31 ****         2.1642   1.2247   0.0069 H              1 S1                 0.0000
     32 ****         1.0550   0.6318   1.2513 H              1 S1                 0.0000
     33 ****         0.0598  -2.3157  -2.1891 H              1 S1                 0.0000
     34 ****         1.5812  -1.6925  -2.7822 H              1 S1                 0.0000
     35 ****         1.2054  -4.1417  -0.9751 H              1 S1                 0.0000
     36 ****         0.5597  -4.5817  -3.3363 H              1 S1                 0.0000
     37 ****         2.0429  -5.4319  -2.9157 H              1 S1                 0.0000
     38 ****         2.1165  -3.9645  -3.8875 H              1 S1                 0.0000
     39 ****         4.4605  -2.6004  -0.2548 H              1 S1                 0.0000
     40 ****         3.3432  -2.9629   1.8845 H              1 S1                 0.0000
     41 ****         3.4543  -4.4852   1.0113 H              1 S1                 0.0000
     42 ****         1.9192  -3.6230   1.1008 H              1 S1                 0.0000
     43 ****         3.2551  -0.7398  -1.1361 H              1 S1                 0.0000
     44 ****         2.9071  -0.8292   0.5825 H              1 S1                 0.0000
     45 ****         0.8653  -1.9135   0.0489 H              1 S1                 0.0000
     46 ****        -3.0163   2.9266  -0.9979 LP             1 S1                 0.0000
     47 ****        -2.4825   1.7592   2.2910 LP             1 S1                 0.0000
     48 ****        -1.5761   0.3987   1.7188 LP             1 S1                 0.0000
     49 ****         3.5601  -3.0356  -2.2300 LP             1 S1                 0.0000
     50 ****         3.4821  -4.4020  -1.3391 LP             1 S1                 0.0000
     51 ****        -5.4601   2.7676   0.8064 LP             1 S1                 0.0000
     52 ****        -5.7247   5.0412   1.8132 LP             1 S1                 0.0000
     53 ****        -5.3511   3.9790   2.9960 LP             1 S1                 0.0000
@<TRIPOS>BOND
    1    1    2 1     
    2    1   22 1     
    3    1   23 1     
    4    1   24 1     
    5    2   21 1     
    6    2    3 2     
    7    3    4 1     
    8    3   25 1     
    9    4    5 1     
   10    4   20 2     
   11    5    6 1     
   12    6    7 2     
   13    6    8 am    
   14    8    9 1     
   15    8   26 1     
   16    9   10 1     
   17    9   27 1     
   18    9   28 1     
   19   10   11 1     
   20   10   12 1     
   21   10   29 1     
   22   11   30 1     
   23   11   31 1     
   24   11   32 1     
   25   12   19 1     
   26   12   13 1     
   27   12   45 1     
   28   13   14 1     
   29   13   33 1     
   30   13   34 1     
   31   14   15 1     
   32   14   16 1     
   33   14   35 1     
   34   15   36 1     
   35   15   37 1     
   36   15   38 1     
   37   16   17 1     
   38   17   18 1     
   39   17   19 1     
   40   17   39 1     
   41   18   40 1     
   42   18   41 1     
   43   18   42 1     
   44   19   43 1     
   45   19   44 1     
   46   20   21 1     
   47    5   46 1     
   48    7   47 1     
   49    7   48 1     
   50   16   49 1     
   51   16   50 1     
   52   20   51 1     
   53   21   52 1     
   54   21   53 1     
@<TRIPOS>SUBSTRUCTURE
      1 S1             1
@<TRIPOS>SET
LONE_PAIRS      STATIC     ATOMS    <user>   **** ""
8 46 47 48 49 50 51 52 53
DONOR_HYDROGENS      STATIC     ATOMS    <user>   **** ""
2 26 45
ATOM$BLUE        STATIC     ATOMS    COLORGROUP SYSTEM
8 46 47 48 49 50 51 52 53
ATOM$RED        STATIC     ATOMS    COLORGROUP SYSTEM
2 26 45
