AV-unprocessed.smi:765|AV-procd|sdf|3646|dock2
  -GOLD-   22720 1 53D 1   1.00000     0.00000
 Structure written by MMmdl.
 39 40  0  0  0  0  0  0  0  0  1 V2000
  152.2096  142.4244  160.7738 C   0  0  0  0  0  0  0  0  0  0  0  0
  151.6437  142.9392  159.4426 C   0  0  1  0  0  0  0  0  0  0  0  0
  152.4554  144.1354  158.9130 C   0  0  0  0  0  0  0  0  0  0  0  0
  151.9153  144.6364  157.5661 C   0  0  0  0  0  0  0  0  0  0  0  0
  151.8715  143.4977  156.5326 C   0  0  0  0  0  0  0  0  0  0  0  0
  151.0357  142.2882  157.0203 C   0  0  2  0  0  0  0  0  0  0  0  0
  151.1519  141.1770  156.0570 C   0  0  0  0  0  0  0  0  0  0  0  0
  151.2423  140.3063  155.3004 N   0  0  0  0  0  0  0  0  0  0  0  0
  149.6323  142.6686  157.2013 N   0  0  0  0  0  0  0  0  0  0  0  0
  148.5613  141.8577  157.2072 C   0  0  0  0  0  0  0  0  0  0  0  0
  148.6398  140.6304  157.1492 O   0  0  0  0  0  0  0  0  0  0  0  0
  147.1969  142.5620  157.2543 C   0  0  2  0  0  0  0  0  0  0  0  0
  146.2210  141.9285  158.2640 C   0  0  0  0  0  0  0  0  0  0  0  0
  146.6182  142.6020  155.9167 N   0  0  0  0  0  0  0  0  0  0  0  0
  147.1413  142.1204  154.7320 C   0  0  0  0  0  0  0  0  0  0  0  0
  146.2527  142.4200  153.7400 C   0  0  0  0  0  0  0  0  0  0  0  0
  145.2021  143.0949  154.4213 C   0  0  0  0  0  0  0  0  0  0  0  0
  145.4247  143.2054  155.7211 N   0  0  0  0  0  0  0  0  0  0  0  0
  151.5854  141.8147  158.3852 C   0  0  0  0  0  0  0  0  0  0  0  0
  153.2310  142.0606  160.6568 H   0  0  0  0  0  0  0  0  0  0  0  0
  151.6073  141.6041  161.1653 H   0  0  0  0  0  0  0  0  0  0  0  0
  152.2215  143.2124  161.5271 H   0  0  0  0  0  0  0  0  0  0  0  0
  150.6270  143.2836  159.6366 H   0  0  0  0  0  0  0  0  0  0  0  0
  152.4369  144.9496  159.6385 H   0  0  0  0  0  0  0  0  0  0  0  0
  153.5016  143.8488  158.7987 H   0  0  0  0  0  0  0  0  0  0  0  0
  150.9185  145.0574  157.7018 H   0  0  0  0  0  0  0  0  0  0  0  0
  152.5416  145.4483  157.1958 H   0  0  0  0  0  0  0  0  0  0  0  0
  151.4897  143.8765  155.5841 H   0  0  0  0  0  0  0  0  0  0  0  0
  152.8913  143.1690  156.3280 H   0  0  0  0  0  0  0  0  0  0  0  0
  149.4515  143.6603  157.2617 H   0  0  0  0  0  0  0  0  0  0  0  0
  147.3791  143.5891  157.5767 H   0  0  0  0  0  0  0  0  0  0  0  0
  146.6353  141.9386  159.2728 H   0  0  0  0  0  0  0  0  0  0  0  0
  145.9876  140.8938  158.0099 H   0  0  0  0  0  0  0  0  0  0  0  0
  145.2811  142.4804  158.2926 H   0  0  0  0  0  0  0  0  0  0  0  0
  148.0958  141.6158  154.6941 H   0  0  0  0  0  0  0  0  0  0  0  0
  146.3409  142.1936  152.6879 H   0  0  0  0  0  0  0  0  0  0  0  0
  144.2918  143.5078  154.0122 H   0  0  0  0  0  0  0  0  0  0  0  0
  152.5881  141.4081  158.2438 H   0  0  0  0  0  0  0  0  0  0  0  0
  150.9784  140.9887  158.7591 H   0  0  0  0  0  0  0  0  0  0  0  0
  1  2  1  0  0  0  0
  1 20  1  0  0  0  0
  1 21  1  0  0  0  0
  1 22  1  0  0  0  0
  2 19  1  0  0  0  0
  2  3  1  0  0  0  0
  2 23  1  0  0  0  0
  3  4  1  0  0  0  0
  3 24  1  0  0  0  0
  3 25  1  0  0  0  0
  4  5  1  0  0  0  0
  4 26  1  0  0  0  0
  4 27  1  0  0  0  0
  5  6  1  0  0  0  0
  5 28  1  0  0  0  0
  5 29  1  0  0  0  0
  6  7  1  0  0  0  0
  6  9  1  0  0  0  0
  6 19  1  0  0  0  0
  7  8  3  0  0  0  0
  9 10  1  0  0  0  0
  9 30  1  0  0  0  0
 10 11  2  0  0  0  0
 10 12  1  0  0  0  0
 12 13  1  0  0  0  0
 12 14  1  0  0  0  0
 12 31  1  0  0  0  0
 13 32  1  0  0  0  0
 13 33  1  0  0  0  0
 13 34  1  0  0  0  0
 14 18  1  0  0  0  0
 14 15  1  0  0  0  0
 15 16  2  0  0  0  0
 15 35  1  0  0  0  0
 16 17  1  0  0  0  0
 16 36  1  0  0  0  0
 17 18  2  0  0  0  0
 17 37  1  0  0  0  0
 19 38  1  0  0  0  0
 19 39  1  0  0  0  0
M  END
> <s_m_source_file>
AV-unprocessed.smi

> <i_m_source_file_index>
765

> <i_lp_mmshare_version>
43012

> <i_f3d_flags>
0

> <s_epik_input>
W0NIM11bQ0BASF0oW0NIMl0xKVtDSDJdW0NIMl1bQ0gyXVtDQEBdMShDI04pW05IXUMoPU8pW0NASF0oW0NIM10pbjJbY0hdW2NIXVtjSF1uMg==

> <s_epik_cmdline>
J2VwaWtfcHl0aG9uJywgJy1waCcsICc3LjAnLCAnLXRuJywgJzgnLCAnLW1hJywgJzIwMCcsICctbWV0YWxfYmluZGluZycsICctaW1hZScsICc8aW5maWxlLm1hZT4nLCAnLW9tYWUnLCAnPG91dGZpbGUubWFlPic=

> <r_lp_tautomer_probability>
1

> <r_epik_Ionization_Penalty>
2.71142e-05

> <r_epik_Ionization_Penalty_Charging>
0

> <r_epik_Ionization_Penalty_Neutral>
2.71142e-05

> <r_epik_State_Penalty>
-0

> <r_epik_Charging_Adjusted_Penalty>
0

> <i_epik_Tot_Q>
0

> <i_epik_Tot_abs_Q>
0

> <r_epik_Metal_State_Penalty>
-0

> <b_epik_Metal_Only>
0

> <s_lp_Force_Field>
OPLS_2005

> <r_lp_Energy>
10.6921

> <b_lp_Chiralities_Consistent>
1

> <s_lp_Variant>
AV-unprocessed.smi:765-4

> <Gold.Version>
5.8.1

> <Gold.Id.Protein>
6NUR|6NUR_protein|mol2

> <Gold.PLP.Fitness>
38.9611

> <Gold.PLP.PLP>
-34.3857

> <Gold.PLP.part.hbond>
-2.0000

> <Gold.PLP.part.metal>
0.0000

> <Gold.PLP.part.buried>
-5.0820

> <Gold.PLP.part.nonpolar>
-28.2976

> <Gold.PLP.part.repulsive>
0.2254

> <Gold.PLP.ligand.clash>
0.0000

> <Gold.PLP.ligand.torsion>
0.9610

> <Gold.PLP.Chemscore.Hbond>
1.4800

> <Gold.PLP.Chemscore.CHOScore>
0.6613

> <Gold.PLP.Chemscore.Metal>
0.0000

> <Gold.Chemscore.Hbonds>
donor molecule, donor type, donor heavy atom, donor atom, acceptor molecule, acceptor atom, score
      L1  H     9    30       P1  8028  0.45
      P1  H  7989  7998       L1     8  1.00
      L1  C    17    37       P1 10174  0.62

> <Gold.PLP.Chemscore.Internal.Correction>
0.0735

> <Gold.Rescore>
     Score         DG    S(hbond)    S(metal)    S(lipo)     H(rot)  DE(clash)    DE(int)     intcor
     14.80     -18.41       1.59        0.00      96.22       1.42       2.01       1.60       ----

> <Gold.Chemscore.Fitness>
14.8037

> <Gold.Chemscore.DG>
-18.4142

> <Gold.Chemscore.ZeroCoef>
-5.4800

> <Gold.Chemscore.Hbond>
1.5890

> <Gold.Chemscore.Metal>
0.0000

> <Gold.Chemscore.Lipo>
96.2199

> <Gold.Chemscore.Internal_Hbond>
0.0000

> <Gold.Chemscore.DEClash>
2.0114

> <Gold.Chemscore.DEInternal>
1.5991

> <Gold.Chemscore.Rot>
1.4183

> <Gold.Chemscore.Internal.Correction>
   9.000000E+99

> <Gold.Chemscore.Hbonds>
donor molecule, donor type, donor heavy atom, donor atom, acceptor molecule, acceptor atom, score
      L1  H     9    30       P1  8028  0.31
      P1  H  7989  7998       L1     8  0.84

> <Gold.Chemscore.Hbond.Weighted>
-5.3074

> <Gold.Chemscore.Metal.Weighted>
-0.0000

> <Gold.Chemscore.Lipo.Weighted>
-11.2577

> <Gold.Chemscore.Internal_Hbond.Weighted>
0.0000

> <Gold.Chemscore.DEClash.Weighted>
2.0114

> <Gold.Chemscore.DEInternal.Weighted>
1.5991

> <Gold.Chemscore.Rot.Weighted>
3.6309

> <Gold.Chemscore.Internal.Correction.Weighted>
   9.000000E+99

> <Gold.Protein.RotatedTorsions>
[ 6907 6896 6895 6894 ] final  -66.06 input  -60.11 | X-H torsion
[ 7974 7965 7964 7962 ] final   18.39 input  175.53 | X-H torsion
[ 8008 7997 7996 7995 ] final -140.42 input   59.86 | X-H torsion
[ 10167 10162 10161 10158 ] final  -81.16 input  -65.29 | X-H torsion
[ 10718 10713 10712 10709 ] final  149.75 input   66.30 | X-H torsion
[ 10763 10752 10751 10750 ] final  112.40 input  -60.55 | X-H torsion
[ 11005 11000 10999 10996 ] final   17.33 input  -57.11 | X-H torsion

> <Gold.Protein.ActiveResidues>
 VAL166  LYS551  ARG553  GLY616  TRP617  ASP618  TYR619  PRO620  LYS621  CYS622 
 ASP623  PHE694  ASN695  SER759  ASP760  ASP761  ALA762  ILE779  LEU786  VAL792 
 PHE793  MET794  SER795  GLU796  ALA797  LYS798  CYS799  TRP800  GLU811  SER814 

> <Gold.Protein.RotatedAtoms>
  150.7487  134.6073  159.6067 H   0  0  0  0  0  0  0  0  0  0  0  0  # atno 6907 bound_to 6896
  152.3418  134.7122  160.0270 H   0  0  0  0  0  0  0  0  0  0  0  0  # atno 6908 bound_to 6896
  151.7572  133.3295  159.3444 H   0  0  0  0  0  0  0  0  0  0  0  0  # atno 6909 bound_to 6896
  146.2186  139.8464  142.8631 H   0  0  0  0  0  0  0  0  0  0  0  0  # atno 7974 bound_to 7965
  155.4611  140.0546  157.2991 H   0  0  0  0  0  0  0  0  0  0  0  0  # atno 8008 bound_to 7997
  154.4737  140.2051  155.9886 H   0  0  0  0  0  0  0  0  0  0  0  0  # atno 8009 bound_to 7997
  156.1097  140.3206  155.8060 H   0  0  0  0  0  0  0  0  0  0  0  0  # atno 8010 bound_to 7997
  140.4437  143.2506  151.8589 H   0  0  0  0  0  0  0  0  0  0  0  0  # atno 10167 bound_to 10162
  157.2921  131.0855  151.1454 H   0  0  0  0  0  0  0  0  0  0  0  0  # atno 10718 bound_to 10713
  153.4773  135.3687  155.2423 H   0  0  0  0  0  0  0  0  0  0  0  0  # atno 10763 bound_to 10752
  154.8756  135.3946  154.3741 H   0  0  0  0  0  0  0  0  0  0  0  0  # atno 10764 bound_to 10752
  153.4339  135.7083  153.6277 H   0  0  0  0  0  0  0  0  0  0  0  0  # atno 10765 bound_to 10752
  140.4371  134.1360  155.7686 H   0  0  0  0  0  0  0  0  0  0  0  0  # atno 11005 bound_to 11000
  145.2846  141.0149  143.3697 LP  0  0  0  0  0  0  0  0  0  0  0  0  # atno 17320 bound_to 7965
  144.9123  139.4513  143.6581 LP  0  0  0  0  0  0  0  0  0  0  0  0  # atno 17321 bound_to 7965
  139.4791  144.5200  151.8815 LP  0  0  0  0  0  0  0  0  0  0  0  0  # atno 17342 bound_to 10162
  140.4288  144.2143  150.5887 LP  0  0  0  0  0  0  0  0  0  0  0  0  # atno 17343 bound_to 10162
  157.2846  130.6766  149.6083 LP  0  0  0  0  0  0  0  0  0  0  0  0  # atno 17370 bound_to 10713
  155.9667  130.4439  150.5441 LP  0  0  0  0  0  0  0  0  0  0  0  0  # atno 17371 bound_to 10713
  141.1721  133.8587  157.1537 LP  0  0  0  0  0  0  0  0  0  0  0  0  # atno 17394 bound_to 11000
  140.0095  134.9994  157.0364 LP  0  0  0  0  0  0  0  0  0  0  0  0  # atno 17395 bound_to 11000

$$$$
