AV-unprocessed.smi:356|AV-procd|sdf|2412|dock3
  -GOLD-   2262022343D 1   1.00000     0.00000
 Structure written by MMmdl.
 42 44  0  0  0  0  0  0  0  0  2 V2000
  149.7127  140.7875  155.9227 C   0  0  0  0  0  0  0  0  0  0  0  0
  150.4009  141.6225  156.9498 C   0  0  0  0  0  0  0  0  0  0  0  0
  150.4344  142.9842  156.9871 N   0  3  0  0  0  0  0  0  0  0  0  0
  151.1734  143.4078  158.0926 C   0  0  0  0  0  0  0  0  0  0  0  0
  151.4813  144.6870  158.5453 C   0  0  0  0  0  0  0  0  0  0  0  0
  152.2610  144.7728  159.7172 C   0  0  0  0  0  0  0  0  0  0  0  0
  152.7031  143.6158  160.3912 C   0  0  0  0  0  0  0  0  0  0  0  0
  152.3854  142.3241  159.9220 C   0  0  0  0  0  0  0  0  0  0  0  0
  151.6138  142.2472  158.7624 C   0  0  0  0  0  0  0  0  0  0  0  0
  151.1127  141.1703  158.0210 N   0  0  0  0  0  0  0  0  0  0  0  0
  151.3875  139.7899  158.4494 C   0  0  0  0  0  0  0  0  0  0  0  0
  152.8563  139.3788  158.2192 C   0  0  2  0  0  0  0  0  0  0  0  0
  153.0709  139.1485  156.8418 O   0  0  0  0  0  0  0  0  0  0  0  0
  153.2425  138.0943  158.9797 C   0  0  0  0  0  0  0  0  0  0  0  0
  153.5039  138.2639  160.4098 N   0  0  0  0  0  0  0  0  0  0  0  0
  154.6432  139.1403  160.6757 C   0  0  0  0  0  0  0  0  0  0  0  0
  154.9210  139.2817  162.1824 C   0  0  0  0  0  0  0  0  0  0  0  0
  155.1258  137.9948  162.7554 O   0  0  0  0  0  0  0  0  0  0  0  0
  154.0161  137.1248  162.5596 C   0  0  0  0  0  0  0  0  0  0  0  0
  153.7382  136.9754  161.0537 C   0  0  0  0  0  0  0  0  0  0  0  0
  149.1498  141.4153  155.2317 H   0  0  0  0  0  0  0  0  0  0  0  0
  149.0218  140.0929  156.4006 H   0  0  0  0  0  0  0  0  0  0  0  0
  150.4445  140.2136  155.3540 H   0  0  0  0  0  0  0  0  0  0  0  0
  151.1434  145.5746  158.0307 H   0  0  0  0  0  0  0  0  0  0  0  0
  152.5247  145.7454  160.1073 H   0  0  0  0  0  0  0  0  0  0  0  0
  153.2975  143.7209  161.2870 H   0  0  0  0  0  0  0  0  0  0  0  0
  152.7273  141.4461  160.4491 H   0  0  0  0  0  0  0  0  0  0  0  0
  151.1480  139.7379  159.5119 H   0  0  0  0  0  0  0  0  0  0  0  0
  150.6979  139.1073  157.9527 H   0  0  0  0  0  0  0  0  0  0  0  0
  153.5163  140.1976  158.5032 H   0  0  0  0  0  0  0  0  0  0  0  0
  152.2310  139.0951  156.4122 H   0  0  0  0  0  0  0  0  0  0  0  0
  152.4343  137.3727  158.8506 H   0  0  0  0  0  0  0  0  0  0  0  0
  154.1183  137.6459  158.5072 H   0  0  0  0  0  0  0  0  0  0  0  0
  155.5337  138.7507  160.1798 H   0  0  0  0  0  0  0  0  0  0  0  0
  154.4638  140.1328  160.2648 H   0  0  0  0  0  0  0  0  0  0  0  0
  155.8093  139.8914  162.3483 H   0  0  0  0  0  0  0  0  0  0  0  0
  154.0906  139.7824  162.6824 H   0  0  0  0  0  0  0  0  0  0  0  0
  154.2422  136.1544  163.0018 H   0  0  0  0  0  0  0  0  0  0  0  0
  153.1398  137.5174  163.0778 H   0  0  0  0  0  0  0  0  0  0  0  0
  152.8723  136.3278  160.9119 H   0  0  0  0  0  0  0  0  0  0  0  0
  154.5836  136.4736  160.5806 H   0  0  0  0  0  0  0  0  0  0  0  0
  149.9829  143.5791  156.3042 H   0  0  0  0  0  0  0  0  0  0  0  0
  1  2  1  0  0  0  0
  1 21  1  0  0  0  0
  1 22  1  0  0  0  0
  1 23  1  0  0  0  0
  2 10  1  0  0  0  0
  2  3  2  0  0  0  0
  3  4  1  0  0  0  0
  3 42  1  0  0  0  0
  4  9  2  0  0  0  0
  4  5  1  0  0  0  0
  5  6  2  0  0  0  0
  5 24  1  0  0  0  0
  6  7  1  0  0  0  0
  6 25  1  0  0  0  0
  7  8  2  0  0  0  0
  7 26  1  0  0  0  0
  8  9  1  0  0  0  0
  8 27  1  0  0  0  0
  9 10  1  0  0  0  0
 10 11  1  0  0  0  0
 11 12  1  0  0  0  0
 11 28  1  0  0  0  0
 11 29  1  0  0  0  0
 12 13  1  0  0  0  0
 12 14  1  0  0  0  0
 12 30  1  0  0  0  0
 13 31  1  0  0  0  0
 14 15  1  0  0  0  0
 14 32  1  0  0  0  0
 14 33  1  0  0  0  0
 15 20  1  0  0  0  0
 15 16  1  0  0  0  0
 16 17  1  0  0  0  0
 16 34  1  0  0  0  0
 16 35  1  0  0  0  0
 17 18  1  0  0  0  0
 17 36  1  0  0  0  0
 17 37  1  0  0  0  0
 18 19  1  0  0  0  0
 19 20  1  0  0  0  0
 19 38  1  0  0  0  0
 19 39  1  0  0  0  0
 20 40  1  0  0  0  0
 20 41  1  0  0  0  0
M  CHG  1   3   1
M  END
> <s_m_source_file>
AV-unprocessed.smi

> <i_m_source_file_index>
356

> <i_lp_mmshare_version>
43012

> <i_f3d_flags>
0

> <s_epik_input>
W2NIXTFbY0hdW2NIXVtjSF1jKGMxMiluKGMobjIpW0NIM10pW0NIMl1bQ0BIXShbT0hdKVtDSDJdTjNbQ0gyXVtDSDJdT1tDSDJdW0NIMl0z

> <s_epik_cmdline>
J2VwaWtfcHl0aG9uJywgJy1waCcsICc3LjAnLCAnLXRuJywgJzgnLCAnLW1hJywgJzIwMCcsICctbWV0YWxfYmluZGluZycsICctaW1hZScsICc8aW5maWxlLm1hZT4nLCAnLW9tYWUnLCAnPG91dGZpbGUubWFlPic=

> <r_epik_Ionization_Penalty>
1.35865

> <r_epik_Ionization_Penalty_Charging>
1.14429

> <r_epik_Ionization_Penalty_Neutral>
0.214359

> <r_epik_State_Penalty>
1.39809

> <r_epik_Charging_Adjusted_Penalty>
2.54238

> <i_epik_Tot_Q>
1

> <i_epik_Tot_abs_Q>
1

> <r_epik_Metal_State_Penalty>
5.40564

> <b_epik_Metal_Only>
0

> <s_lp_Force_Field>
OPLS_2005

> <r_lp_Energy>
31.5146

> <b_lp_Chiralities_Consistent>
1

> <s_lp_Variant>
AV-unprocessed.smi:356-5

> <Gold.Version>
5.8.1

> <Gold.Id.Protein>
6NUR|6NUR_protein|mol2

> <Gold.PLP.Fitness>
49.3708

> <Gold.PLP.PLP>
-41.1166

> <Gold.PLP.part.hbond>
-2.0000

> <Gold.PLP.part.metal>
0.0000

> <Gold.PLP.part.buried>
-5.7144

> <Gold.PLP.part.nonpolar>
-34.0679

> <Gold.PLP.part.repulsive>
0.0348

> <Gold.PLP.ligand.clash>
0.0000

> <Gold.PLP.ligand.torsion>
0.4015

> <Gold.PLP.Chemscore.Hbond>
3.0000

> <Gold.PLP.Chemscore.CHOScore>
0.0000

> <Gold.PLP.Chemscore.Metal>
0.0000

> <Gold.Chemscore.Hbonds>
donor molecule, donor type, donor heavy atom, donor atom, acceptor molecule, acceptor atom, score
      L1  H     3    42       P1  8028  2.00
      P1  H  7997  8008       L1    13  1.00

> <Gold.PLP.Chemscore.Internal.Correction>
0.0572

> <Gold.Rescore>
     Score         DG    S(hbond)    S(metal)    S(lipo)     H(rot)  DE(clash)    DE(int)     intcor
     19.74     -20.16       1.90        0.00     116.07       2.05       0.11       0.31       ----

> <Gold.Chemscore.Fitness>
19.7438

> <Gold.Chemscore.DG>
-20.1629

> <Gold.Chemscore.ZeroCoef>
-5.4800

> <Gold.Chemscore.Hbond>
1.9044

> <Gold.Chemscore.Metal>
0.0000

> <Gold.Chemscore.Lipo>
116.0678

> <Gold.Chemscore.Internal_Hbond>
0.0000

> <Gold.Chemscore.DEClash>
0.1094

> <Gold.Chemscore.DEInternal>
0.3096

> <Gold.Chemscore.Rot>
2.0539

> <Gold.Chemscore.Internal.Correction>
   9.000000E+99

> <Gold.Chemscore.Hbonds>
donor molecule, donor type, donor heavy atom, donor atom, acceptor molecule, acceptor atom, score
      L1  H     3    42       P1  8028  0.99
      P1  H  7997  8008       L1    13  0.30

> <Gold.Chemscore.Hbond.Weighted>
-6.3608

> <Gold.Chemscore.Metal.Weighted>
-0.0000

> <Gold.Chemscore.Lipo.Weighted>
-13.5799

> <Gold.Chemscore.Internal_Hbond.Weighted>
0.0000

> <Gold.Chemscore.DEClash.Weighted>
0.1094

> <Gold.Chemscore.DEInternal.Weighted>
0.3096

> <Gold.Chemscore.Rot.Weighted>
5.2579

> <Gold.Chemscore.Internal.Correction.Weighted>
   9.000000E+99

> <Gold.Protein.RotatedTorsions>
[ 6907 6896 6895 6894 ] final  -71.80 input  -60.11 | X-H torsion
[ 7974 7965 7964 7962 ] final  -63.70 input  175.53 | X-H torsion
[ 8008 7997 7996 7995 ] final  -55.76 input   59.86 | X-H torsion
[ 10167 10162 10161 10158 ] final   22.04 input  -65.29 | X-H torsion
[ 10718 10713 10712 10709 ] final  -61.15 input   66.30 | X-H torsion
[ 10763 10752 10751 10750 ] final  -25.90 input  -60.55 | X-H torsion
[ 11005 11000 10999 10996 ] final   66.47 input  -57.11 | X-H torsion

> <Gold.Protein.ActiveResidues>
 VAL166  LYS551  ARG553  GLY616  TRP617  ASP618  TYR619  PRO620  LYS621  CYS622 
 ASP623  PHE694  ASN695  SER759  ASP760  ASP761  ALA762  ILE779  LEU786  VAL792 
 PHE793  MET794  SER795  GLU796  ALA797  LYS798  CYS799  TRP800  GLU811  SER814 

> <Gold.Protein.RotatedAtoms>
  150.7197  134.5256  159.5674 H   0  0  0  0  0  0  0  0  0  0  0  0  # atno 6907 bound_to 6896
  152.2801  134.7835  160.0407 H   0  0  0  0  0  0  0  0  0  0  0  0  # atno 6908 bound_to 6896
  151.8485  133.3400  159.3702 H   0  0  0  0  0  0  0  0  0  0  0  0  # atno 6909 bound_to 6896
  145.7759  140.8788  143.0356 H   0  0  0  0  0  0  0  0  0  0  0  0  # atno 7974 bound_to 7965
  154.4206  140.1145  156.5529 H   0  0  0  0  0  0  0  0  0  0  0  0  # atno 8008 bound_to 7997
  155.6392  140.3496  155.4690 H   0  0  0  0  0  0  0  0  0  0  0  0  # atno 8009 bound_to 7997
  155.9885  140.1174  157.0650 H   0  0  0  0  0  0  0  0  0  0  0  0  # atno 8010 bound_to 7997
  140.5380  143.9727  150.6502 H   0  0  0  0  0  0  0  0  0  0  0  0  # atno 10167 bound_to 10162
  156.0941  130.4195  150.0953 H   0  0  0  0  0  0  0  0  0  0  0  0  # atno 10718 bound_to 10713
  153.7072  135.6953  153.5047 H   0  0  0  0  0  0  0  0  0  0  0  0  # atno 10763 bound_to 10752
  153.2299  135.4341  155.0582 H   0  0  0  0  0  0  0  0  0  0  0  0  # atno 10764 bound_to 10752
  154.8326  135.3481  154.6610 H   0  0  0  0  0  0  0  0  0  0  0  0  # atno 10765 bound_to 10752
  139.9830  134.6714  156.0228 H   0  0  0  0  0  0  0  0  0  0  0  0  # atno 11005 bound_to 11000
  144.6804  139.9920  143.7484 LP  0  0  0  0  0  0  0  0  0  0  0  0  # atno 17320 bound_to 7965
  146.0123  139.3180  143.0862 LP  0  0  0  0  0  0  0  0  0  0  0  0  # atno 17321 bound_to 7965
  140.3120  143.3192  152.0869 LP  0  0  0  0  0  0  0  0  0  0  0  0  # atno 17342 bound_to 10162
  139.4978  144.6630  151.6421 LP  0  0  0  0  0  0  0  0  0  0  0  0  # atno 17343 bound_to 10162
  156.8956  130.9603  151.3583 LP  0  0  0  0  0  0  0  0  0  0  0  0  # atno 17370 bound_to 10713
  157.6098  130.8574  149.8933 LP  0  0  0  0  0  0  0  0  0  0  0  0  # atno 17371 bound_to 10713
  141.1499  133.6550  156.3981 LP  0  0  0  0  0  0  0  0  0  0  0  0  # atno 17394 bound_to 11000
  140.5059  134.6441  157.5266 LP  0  0  0  0  0  0  0  0  0  0  0  0  # atno 17395 bound_to 11000

$$$$
