AV-unprocessed.smi:1619|AV-procd|sdf|6489|dock7
  -GOLD-   22720 7153D 1   1.00000     0.00000
 Structure written by MMmdl.
 45 47  0  0  0  0  0  0  0  0  3 V2000
  152.8508  142.7326  160.3927 C   0  0  0  0  0  0  0  0  0  0  0  0
  152.4242  142.0634  159.0970 C   0  0  0  0  0  0  0  0  0  0  0  0
  151.4608  142.7099  158.2897 C   0  0  0  0  0  0  0  0  0  0  0  0
  151.0939  142.0752  157.1089 C   0  0  0  0  0  0  0  0  0  0  0  0
  150.1887  142.4468  156.1124 N   0  3  0  0  0  0  0  0  0  0  0  0
  150.1679  141.4945  155.1389 C   0  0  0  0  0  0  0  0  0  0  0  0
  151.0489  140.5210  155.4984 N   0  0  0  0  0  0  0  0  0  0  0  0
  151.4150  139.2744  154.8123 C   0  0  0  0  0  0  0  0  0  0  0  0
  150.2146  138.3303  154.6014 C   0  0  2  0  0  0  0  0  0  0  0  0
  150.6379  137.1970  153.8673 O   0  0  0  0  0  0  0  0  0  0  0  0
  149.0669  139.0226  153.8409 C   0  0  0  0  0  0  0  0  0  0  0  0
  148.0943  138.0571  153.2733 N   0  3  0  0  0  0  0  0  0  0  0  0
  147.3182  137.2805  154.2613 C   0  0  0  0  0  0  0  0  0  0  0  0
  146.0868  136.7642  153.5099 C   0  0  0  0  0  0  0  0  0  0  0  0
  145.9711  137.6387  152.2555 C   0  0  0  0  0  0  0  0  0  0  0  0
  147.0992  138.6658  152.3716 C   0  0  0  0  0  0  0  0  0  0  0  0
  151.6480  140.8397  156.7218 C   0  0  0  0  0  0  0  0  0  0  0  0
  152.5963  140.1877  157.5061 C   0  0  0  0  0  0  0  0  0  0  0  0
  152.9851  140.8187  158.7095 C   0  0  0  0  0  0  0  0  0  0  0  0
  154.0220  140.1344  159.5841 C   0  0  0  0  0  0  0  0  0  0  0  0
  152.3018  143.6595  160.5625 H   0  0  0  0  0  0  0  0  0  0  0  0
  153.9136  142.9743  160.3658 H   0  0  0  0  0  0  0  0  0  0  0  0
  152.6659  142.0767  161.2437 H   0  0  0  0  0  0  0  0  0  0  0  0
  151.0296  143.6575  158.5782 H   0  0  0  0  0  0  0  0  0  0  0  0
  149.5645  141.5117  154.2427 H   0  0  0  0  0  0  0  0  0  0  0  0
  151.8820  139.5320  153.8607 H   0  0  0  0  0  0  0  0  0  0  0  0
  152.1840  138.7843  155.4113 H   0  0  0  0  0  0  0  0  0  0  0  0
  149.8611  137.9912  155.5750 H   0  0  0  0  0  0  0  0  0  0  0  0
  150.0297  137.0491  153.1589 H   0  0  0  0  0  0  0  0  0  0  0  0
  148.5402  139.7137  154.5009 H   0  0  0  0  0  0  0  0  0  0  0  0
  149.4812  139.6260  153.0314 H   0  0  0  0  0  0  0  0  0  0  0  0
  147.9051  136.4691  154.6928 H   0  0  0  0  0  0  0  0  0  0  0  0
  146.9999  137.9356  155.0741 H   0  0  0  0  0  0  0  0  0  0  0  0
  146.2240  135.7208  153.2231 H   0  0  0  0  0  0  0  0  0  0  0  0
  145.1921  136.8188  154.1313 H   0  0  0  0  0  0  0  0  0  0  0  0
  146.1123  137.0253  151.3647 H   0  0  0  0  0  0  0  0  0  0  0  0
  144.9953  138.1186  152.1734 H   0  0  0  0  0  0  0  0  0  0  0  0
  146.7137  139.5820  152.8225 H   0  0  0  0  0  0  0  0  0  0  0  0
  147.5328  138.9223  151.4043 H   0  0  0  0  0  0  0  0  0  0  0  0
  153.0220  139.2400  157.2119 H   0  0  0  0  0  0  0  0  0  0  0  0
  154.3700  139.2031  159.1368 H   0  0  0  0  0  0  0  0  0  0  0  0
  153.6019  139.8974  160.5618 H   0  0  0  0  0  0  0  0  0  0  0  0
  154.8889  140.7797  159.7262 H   0  0  0  0  0  0  0  0  0  0  0  0
  148.6126  137.3910  152.7179 H   0  0  0  0  0  0  0  0  0  0  0  0
  149.6261  143.2880  156.0954 H   0  0  0  0  0  0  0  0  0  0  0  0
  1  2  1  0  0  0  0
  1 21  1  0  0  0  0
  1 22  1  0  0  0  0
  1 23  1  0  0  0  0
  2 19  1  0  0  0  0
  2  3  2  0  0  0  0
  3  4  1  0  0  0  0
  3 24  1  0  0  0  0
  4 17  2  0  0  0  0
  4  5  1  0  0  0  0
  5  6  2  0  0  0  0
  5 45  1  0  0  0  0
  6  7  1  0  0  0  0
  6 25  1  0  0  0  0
  7  8  1  0  0  0  0
  7 17  1  0  0  0  0
  8  9  1  0  0  0  0
  8 26  1  0  0  0  0
  8 27  1  0  0  0  0
  9 10  1  0  0  0  0
  9 11  1  0  0  0  0
  9 28  1  0  0  0  0
 10 29  1  0  0  0  0
 11 12  1  0  0  0  0
 11 30  1  0  0  0  0
 11 31  1  0  0  0  0
 12 16  1  0  0  0  0
 12 13  1  0  0  0  0
 12 44  1  0  0  0  0
 13 14  1  0  0  0  0
 13 32  1  0  0  0  0
 13 33  1  0  0  0  0
 14 15  1  0  0  0  0
 14 34  1  0  0  0  0
 14 35  1  0  0  0  0
 15 16  1  0  0  0  0
 15 36  1  0  0  0  0
 15 37  1  0  0  0  0
 16 38  1  0  0  0  0
 16 39  1  0  0  0  0
 17 18  1  0  0  0  0
 18 19  2  0  0  0  0
 18 40  1  0  0  0  0
 19 20  1  0  0  0  0
 20 41  1  0  0  0  0
 20 42  1  0  0  0  0
 20 43  1  0  0  0  0
M  CHG  1   5   1
M  CHG  1  12   1
M  END
> <s_m_source_file>
AV-unprocessed.smi

> <i_m_source_file_index>
1619

> <i_lp_mmshare_version>
43012

> <i_f3d_flags>
0

> <s_epik_input>
W0NIM11jKFtjSF0xKWMoW0NIM10pW2NIXWMoYzEyKW4oW2NIXW4yKVtDSDJdW0NASF0oW09IXSlbQ0gyXU4zW0NIMl1bQ0gyXVtDSDJdW0NIMl0z

> <s_epik_cmdline>
J2VwaWtfcHl0aG9uJywgJy1waCcsICc3LjAnLCAnLXRuJywgJzgnLCAnLW1hJywgJzIwMCcsICctbWV0YWxfYmluZGluZycsICctaW1hZScsICc8aW5maWxlLm1hZT4nLCAnLW9tYWUnLCAnPG91dGZpbGUubWFlPic=

> <r_epik_Ionization_Penalty>
1.18067

> <r_epik_Ionization_Penalty_Charging>
1.18067

> <r_epik_Ionization_Penalty_Neutral>
1.08888e-06

> <r_epik_State_Penalty>
1.26407

> <r_epik_Charging_Adjusted_Penalty>
2.44473

> <i_epik_Tot_Q>
2

> <i_epik_Tot_abs_Q>
2

> <r_epik_Metal_State_Penalty>
5.27628

> <b_epik_Metal_Only>
0

> <s_lp_Force_Field>
OPLS_2005

> <r_lp_Energy>
41.212

> <b_lp_Chiralities_Consistent>
1

> <s_lp_Variant>
AV-unprocessed.smi:1619-3

> <Gold.Version>
5.8.1

> <Gold.Id.Protein>
6NUR|6NUR_protein|mol2

> <Gold.PLP.Fitness>
54.9836

> <Gold.PLP.PLP>
-40.3287

> <Gold.PLP.part.hbond>
-4.0000

> <Gold.PLP.part.metal>
0.0000

> <Gold.PLP.part.buried>
-1.3839

> <Gold.PLP.part.nonpolar>
-34.9063

> <Gold.PLP.part.repulsive>
0.1187

> <Gold.PLP.ligand.clash>
0.0000

> <Gold.PLP.ligand.torsion>
0.1853

> <Gold.PLP.Chemscore.Hbond>
5.0000

> <Gold.PLP.Chemscore.CHOScore>
0.0000

> <Gold.PLP.Chemscore.Metal>
0.0000

> <Gold.Chemscore.Hbonds>
donor molecule, donor type, donor heavy atom, donor atom, acceptor molecule, acceptor atom, score
      L1  H     5    45       P1  8028  2.00
      L1  H    10    29       P1  7948  0.80
      L1  H    12    44       P1  7948  1.66

> <Gold.PLP.Chemscore.Internal.Correction>
0.0255

> <Gold.Rescore>
     Score         DG    S(hbond)    S(metal)    S(lipo)     H(rot)  DE(clash)    DE(int)     intcor
     20.81     -21.35       2.87        0.00      99.37       2.08       0.40       0.14       ----

> <Gold.Chemscore.Fitness>
20.8069

> <Gold.Chemscore.DG>
-21.3501

> <Gold.Chemscore.ZeroCoef>
-5.4800

> <Gold.Chemscore.Hbond>
2.8655

> <Gold.Chemscore.Metal>
0.0000

> <Gold.Chemscore.Lipo>
99.3736

> <Gold.Chemscore.Internal_Hbond>
0.0000

> <Gold.Chemscore.DEClash>
0.4004

> <Gold.Chemscore.DEInternal>
0.1427

> <Gold.Chemscore.Rot>
2.0811

> <Gold.Chemscore.Internal.Correction>
   9.000000E+99

> <Gold.Chemscore.Hbonds>
donor molecule, donor type, donor heavy atom, donor atom, acceptor molecule, acceptor atom, score
      L1  H     5    45       P1  8028  1.00
      L1  H    10    29       P1  7948  0.12
      L1  H    12    44       P1  7948  0.82

> <Gold.Chemscore.Hbond.Weighted>
-9.5709

> <Gold.Chemscore.Metal.Weighted>
-0.0000

> <Gold.Chemscore.Lipo.Weighted>
-11.6267

> <Gold.Chemscore.Internal_Hbond.Weighted>
0.0000

> <Gold.Chemscore.DEClash.Weighted>
0.4004

> <Gold.Chemscore.DEInternal.Weighted>
0.1427

> <Gold.Chemscore.Rot.Weighted>
5.3275

> <Gold.Chemscore.Internal.Correction.Weighted>
   9.000000E+99

> <Gold.Protein.RotatedTorsions>
[ 6907 6896 6895 6894 ] final  149.67 input  -60.11 | X-H torsion
[ 7974 7965 7964 7962 ] final   31.78 input  175.53 | X-H torsion
[ 8008 7997 7996 7995 ] final  157.29 input   59.86 | X-H torsion
[ 10167 10162 10161 10158 ] final -107.79 input  -65.29 | X-H torsion
[ 10718 10713 10712 10709 ] final   86.18 input   66.30 | X-H torsion
[ 10763 10752 10751 10750 ] final   60.73 input  -60.55 | X-H torsion
[ 11005 11000 10999 10996 ] final  103.23 input  -57.11 | X-H torsion

> <Gold.Protein.ActiveResidues>
 VAL166  LYS551  ARG553  GLY616  TRP617  ASP618  TYR619  PRO620  LYS621  CYS622 
 ASP623  PHE694  ASN695  SER759  ASP760  ASP761  ALA762  ILE779  LEU786  VAL792 
 PHE793  MET794  SER795  GLU796  ALA797  LYS798  CYS799  TRP800  GLU811  SER814 

> <Gold.Protein.RotatedAtoms>
  152.1248  133.4374  159.4692 H   0  0  0  0  0  0  0  0  0  0  0  0  # atno 6907 bound_to 6896
  150.6874  134.2491  159.4512 H   0  0  0  0  0  0  0  0  0  0  0  0  # atno 6908 bound_to 6896
  152.0370  134.9733  160.0624 H   0  0  0  0  0  0  0  0  0  0  0  0  # atno 6909 bound_to 6896
  146.1529  139.6612  142.9086 H   0  0  0  0  0  0  0  0  0  0  0  0  # atno 7974 bound_to 7965
  156.2373  140.1889  156.7086 H   0  0  0  0  0  0  0  0  0  0  0  0  # atno 8008 bound_to 7997
  154.6130  140.0619  156.9545 H   0  0  0  0  0  0  0  0  0  0  0  0  # atno 8009 bound_to 7997
  155.1986  140.3290  155.4349 H   0  0  0  0  0  0  0  0  0  0  0  0  # atno 8010 bound_to 7997
  140.1732  143.4026  152.1338 H   0  0  0  0  0  0  0  0  0  0  0  0  # atno 10167 bound_to 10162
  157.6925  131.0205  150.2934 H   0  0  0  0  0  0  0  0  0  0  0  0  # atno 10718 bound_to 10713
  152.9929  135.5526  154.5921 H   0  0  0  0  0  0  0  0  0  0  0  0  # atno 10763 bound_to 10752
  154.5280  135.2812  155.1207 H   0  0  0  0  0  0  0  0  0  0  0  0  # atno 10764 bound_to 10752
  154.2533  135.6394  153.5301 H   0  0  0  0  0  0  0  0  0  0  0  0  # atno 10765 bound_to 10752
  139.8782  134.9255  156.5178 H   0  0  0  0  0  0  0  0  0  0  0  0  # atno 11005 bound_to 11000
  145.4780  141.0437  143.2661 LP  0  0  0  0  0  0  0  0  0  0  0  0  # atno 17320 bound_to 7965
  144.7926  139.6298  143.7106 LP  0  0  0  0  0  0  0  0  0  0  0  0  # atno 17321 bound_to 7965
  139.5329  144.7178  151.4995 LP  0  0  0  0  0  0  0  0  0  0  0  0  # atno 17342 bound_to 10162
  140.6568  143.8582  150.6844 LP  0  0  0  0  0  0  0  0  0  0  0  0  # atno 17343 bound_to 10162
  156.3462  130.3823  149.7367 LP  0  0  0  0  0  0  0  0  0  0  0  0  # atno 17370 bound_to 10713
  156.4860  130.8063  151.3075 LP  0  0  0  0  0  0  0  0  0  0  0  0  # atno 17371 bound_to 10713
  140.8472  133.8159  155.9133 LP  0  0  0  0  0  0  0  0  0  0  0  0  # atno 17394 bound_to 11000
  140.9179  134.2178  157.4945 LP  0  0  0  0  0  0  0  0  0  0  0  0  # atno 17395 bound_to 11000

$$$$
