#       Name:                AV-unprocessed.smi:1530
#       Creating user name   scv26
#       Creation time:       Fri Mar 27 06:30:22 2020


#       File generated by GOLD software.
#

@<TRIPOS>MOLECULE
AV-unprocessed.smi:1530
    51    52     1
SMALL
NO_CHARGES


@<TRIPOS>ATOM
      1 ****        -3.4713  -4.5596  -0.3362 C.3            1 S1                 0.0000
      2 ****        -2.8186  -3.2957  -0.3890 O.3            1 S1                 0.0000
      3 ****        -3.5859  -2.1511  -0.2799 C.ar           1 S1                 0.0000
      4 ****        -4.9292  -2.2872  -0.1466 N.ar           1 S1                 0.0000
      5 ****        -5.6805  -1.1732  -0.0347 C.ar           1 S1                 0.0000
      6 ****        -5.1381   0.1243  -0.0440 C.ar           1 S1                 0.0000
      7 ****        -3.7451   0.2687  -0.1813 C.ar           1 S1                 0.0000
      8 ****        -2.9420  -0.8915  -0.3120 C.ar           1 S1                 0.0000
      9 ****        -1.5246  -0.8764  -0.4490 N.am           1 S1                 0.0000
     10 ****        -0.6999   0.1533  -0.7063 C.2            1 S1                 0.0000
     11 ****        -1.0435   1.3231  -0.8709 O.2            1 S1                 0.0000
     12 ****         0.5744  -0.2585  -0.7660 N.am           1 S1                 0.0000
     13 ****         1.7408   0.5955  -0.9988 C.3            1 S1                 0.0000
     14 ****         2.6288   0.8187   0.2639 C.3            1 S1                 0.0000
     15 ****         3.1441  -0.5597   0.7624 C.2            1 S1                 0.0000
     16 ****         4.3484  -0.9775   0.3577 N.am           1 S1                 0.0000
     17 ****         2.4522  -1.2567   1.5038 O.2            1 S1                 0.0000
     18 ****         3.8199   1.7583  -0.0805 C.3            1 S1                 0.0000
     19 ****         3.3957   3.2254  -0.2800 C.3            1 S1                 0.0000
     20 ****         2.7072   3.6971   0.8695 O.3            1 S1                 0.0000
     21 ****         1.5096   2.9757   1.1222 C.3            1 S1                 0.0000
     22 ****         1.8405   1.5025   1.4163 C.3            1 S1                 0.0000
     23 ****        -2.7291  -5.3519  -0.4323 H              1 S1                 0.0000
     24 ****        -4.1857  -4.6752  -1.1524 H              1 S1                 0.0000
     25 ****        -3.9866  -4.7031   0.6147 H              1 S1                 0.0000
     26 ****        -6.7451  -1.3204   0.0704 H              1 S1                 0.0000
     27 ****        -5.7759   0.9900   0.0556 H              1 S1                 0.0000
     28 ****        -3.3317   1.2641  -0.1724 H              1 S1                 0.0000
     29 ****        -1.0835  -1.7820  -0.3782 H              1 S1                 0.0000
     30 ****         0.7590  -1.2398  -0.6163 H              1 S1                 0.0000
     31 ****         2.3342   0.1166  -1.7786 H              1 S1                 0.0000
     32 ****         1.4277   1.5460  -1.4298 H              1 S1                 0.0000
     33 ****         4.7014  -1.8725   0.6642 H              1 S1                 0.0000
     34 ****         4.8988  -0.3976  -0.2589 H              1 S1                 0.0000
     35 ****         4.5583   1.7330   0.7229 H              1 S1                 0.0000
     36 ****         4.3337   1.4141  -0.9793 H              1 S1                 0.0000
     37 ****         4.2783   3.8463  -0.4333 H              1 S1                 0.0000
     38 ****         2.7749   3.3484  -1.1676 H              1 S1                 0.0000
     39 ****         1.0114   3.4216   1.9831 H              1 S1                 0.0000
     40 ****         0.8238   3.0727   0.2800 H              1 S1                 0.0000
     41 ****         0.9184   0.9653   1.6400 H              1 S1                 0.0000
     42 ****         2.4302   1.4689   2.3341 H              1 S1                 0.0000
     43 ****        -2.3396  -3.2474  -1.2655 LP             1 S1                 0.0000
     44 ****        -2.1523  -3.2764   0.3565 LP             1 S1                 0.0000
     45 ****        -5.3524  -3.1931  -0.1316 LP             1 S1                 0.0000
     46 ****        -2.0104   1.5725  -0.8168 LP             1 S1                 0.0000
     47 ****        -0.3559   2.0244  -1.0587 LP             1 S1                 0.0000
     48 ****         1.5491  -0.9375   1.7910 LP             1 S1                 0.0000
     49 ****         2.7930  -2.1424   1.8192 LP             1 S1                 0.0000
     50 ****         2.4780   4.6608   0.7328 LP             1 S1                 0.0000
     51 ****         3.3091   3.6069   1.6630 LP             1 S1                 0.0000
@<TRIPOS>BOND
    1    1    2 1     
    2    1   23 1     
    3    1   24 1     
    4    1   25 1     
    5    2    3 1     
    6    3    8 ar    
    7    3    4 ar    
    8    4    5 ar    
    9    5    6 ar    
   10    5   26 1     
   11    6    7 ar    
   12    6   27 1     
   13    7    8 ar    
   14    7   28 1     
   15    8    9 1     
   16    9   10 am    
   17    9   29 1     
   18   10   11 2     
   19   10   12 am    
   20   12   13 1     
   21   12   30 1     
   22   13   14 1     
   23   13   31 1     
   24   13   32 1     
   25   14   22 1     
   26   14   15 1     
   27   14   18 1     
   28   15   16 am    
   29   15   17 2     
   30   16   33 1     
   31   16   34 1     
   32   18   19 1     
   33   18   35 1     
   34   18   36 1     
   35   19   20 1     
   36   19   37 1     
   37   19   38 1     
   38   20   21 1     
   39   21   22 1     
   40   21   39 1     
   41   21   40 1     
   42   22   41 1     
   43   22   42 1     
   44    2   43 1     
   45    2   44 1     
   46    4   45 1     
   47   11   46 1     
   48   11   47 1     
   49   17   48 1     
   50   17   49 1     
   51   20   50 1     
   52   20   51 1     
@<TRIPOS>SUBSTRUCTURE
      1 S1             1
@<TRIPOS>SET
LONE_PAIRS      STATIC     ATOMS    <user>   **** ""
9 43 44 45 46 47 48 49 50 51
DONOR_HYDROGENS      STATIC     ATOMS    <user>   **** ""
4 29 30 33 34
ATOM$BLUE        STATIC     ATOMS    COLORGROUP SYSTEM
9 43 44 45 46 47 48 49 50 51
ATOM$RED        STATIC     ATOMS    COLORGROUP SYSTEM
4 29 30 33 34
