AV-unprocessed.smi:3062|AV-procd|sdf|11683|dock5
  -GOLD-   2272017 83D 1   1.00000     0.00000
 Structure written by MMmdl.
 39 40  0  0  0  0  0  0  0  0  1 V2000
  148.0236  142.6376  158.1399 C   0  0  0  0  0  0  0  0  0  0  0  0
  148.6818  141.8133  157.0665 C   0  0  0  0  0  0  0  0  0  0  0  0
  147.9865  141.5850  156.0011 N   0  0  0  0  0  0  0  0  0  0  0  0
  148.4955  140.8404  154.9560 N   0  0  0  0  0  0  0  0  0  0  0  0
  147.5692  140.6890  153.8278 C   0  0  0  0  0  0  0  0  0  0  0  0
  147.4503  139.2200  153.3673 C   0  0  2  0  0  0  0  0  0  0  0  0
  147.3922  139.1474  151.9567 O   0  0  0  0  0  0  0  0  0  0  0  0
  146.2061  138.5138  153.9300 C   0  0  0  0  0  0  0  0  0  0  0  0
  146.1276  137.1859  153.4251 O   0  0  0  0  0  0  0  0  0  0  0  0
  145.2176  137.0299  152.3445 C   0  0  0  0  0  0  0  0  0  0  0  0
  143.9223  136.4967  152.8754 C   0  0  0  0  0  0  0  0  0  0  0  0
  142.7256  137.1614  152.9621 C   0  0  0  0  0  0  0  0  0  0  0  0
  141.6836  136.3727  153.5331 C   0  0  0  0  0  0  0  0  0  0  0  0
  142.0998  135.1160  153.8832 C   0  0  0  0  0  0  0  0  0  0  0  0
  143.7873  134.8779  153.5224 S   0  0  0  0  0  0  0  0  0  0  0  0
  149.7418  140.2873  154.9304 C   0  0  0  0  0  0  0  0  0  0  0  0
  150.1588  139.6375  153.9704 O   0  0  0  0  0  0  0  0  0  0  0  0
  150.5238  140.5472  156.1414 C   0  0  0  0  0  0  0  0  0  0  0  0
  151.8354  139.9842  156.1578 C   0  0  0  0  0  0  0  0  0  0  0  0
  152.8907  139.5084  156.1698 N   0  0  0  0  0  0  0  0  0  0  0  0
  150.0342  141.2758  157.1757 C   0  0  0  0  0  0  0  0  0  0  0  0
  150.8052  141.5766  158.4537 C   0  0  0  0  0  0  0  0  0  0  0  0
  148.6206  143.5194  158.3739 H   0  0  0  0  0  0  0  0  0  0  0  0
  147.9042  142.0564  159.0546 H   0  0  0  0  0  0  0  0  0  0  0  0
  147.0337  142.9832  157.8374 H   0  0  0  0  0  0  0  0  0  0  0  0
  146.5871  141.0588  154.1285 H   0  0  0  0  0  0  0  0  0  0  0  0
  147.8642  141.3276  152.9927 H   0  0  0  0  0  0  0  0  0  0  0  0
  148.3258  138.6529  153.6847 H   0  0  0  0  0  0  0  0  0  0  0  0
  148.2439  139.3660  151.6109 H   0  0  0  0  0  0  0  0  0  0  0  0
  146.2185  138.5120  155.0212 H   0  0  0  0  0  0  0  0  0  0  0  0
  145.3210  139.0734  153.6237 H   0  0  0  0  0  0  0  0  0  0  0  0
  145.0478  138.0074  151.8934 H   0  0  0  0  0  0  0  0  0  0  0  0
  145.6293  136.3849  151.5667 H   0  0  0  0  0  0  0  0  0  0  0  0
  142.5629  138.1781  152.6359 H   0  0  0  0  0  0  0  0  0  0  0  0
  140.6805  136.7501  153.6667 H   0  0  0  0  0  0  0  0  0  0  0  0
  141.5228  134.3215  154.3331 H   0  0  0  0  0  0  0  0  0  0  0  0
  151.7904  141.1112  158.4615 H   0  0  0  0  0  0  0  0  0  0  0  0
  150.2629  141.2080  159.3251 H   0  0  0  0  0  0  0  0  0  0  0  0
  150.9495  142.6514  158.5677 H   0  0  0  0  0  0  0  0  0  0  0  0
  1  2  1  0  0  0  0
  1 23  1  0  0  0  0
  1 24  1  0  0  0  0
  1 25  1  0  0  0  0
  2 21  1  0  0  0  0
  2  3  2  0  0  0  0
  3  4  1  0  0  0  0
  4  5  1  0  0  0  0
  4 16  1  0  0  0  0
  5  6  1  0  0  0  0
  5 26  1  0  0  0  0
  5 27  1  0  0  0  0
  6  7  1  0  0  0  0
  6  8  1  0  0  0  0
  6 28  1  0  0  0  0
  7 29  1  0  0  0  0
  8  9  1  0  0  0  0
  8 30  1  0  0  0  0
  8 31  1  0  0  0  0
  9 10  1  0  0  0  0
 10 11  1  0  0  0  0
 10 32  1  0  0  0  0
 10 33  1  0  0  0  0
 11 15  1  0  0  0  0
 11 12  2  0  0  0  0
 12 13  1  0  0  0  0
 12 34  1  0  0  0  0
 13 14  2  0  0  0  0
 13 35  1  0  0  0  0
 14 15  1  0  0  0  0
 14 36  1  0  0  0  0
 16 17  2  0  0  0  0
 16 18  1  0  0  0  0
 18 19  1  0  0  0  0
 18 21  2  0  0  0  0
 19 20  3  0  0  0  0
 21 22  1  0  0  0  0
 22 37  1  0  0  0  0
 22 38  1  0  0  0  0
 22 39  1  0  0  0  0
M  END
> <s_m_source_file>
AV-unprocessed.smi

> <i_m_source_file_index>
3062

> <i_lp_mmshare_version>
43012

> <i_f3d_flags>
0

> <s_epik_input>
TiNDYyhjMVtDSDNdKWMoPU8pbihuYzFbQ0gzXSlbQ0gyXVtDQEhdKFtPSF0pW0NIMl1PW0NIMl1jMltjSF1bY0hdW2NIXXMy

> <s_epik_cmdline>
J2VwaWtfcHl0aG9uJywgJy1waCcsICc3LjAnLCAnLXRuJywgJzgnLCAnLW1hJywgJzIwMCcsICctbWV0YWxfYmluZGluZycsICctaW1hZScsICc8aW5maWxlLm1hZT4nLCAnLW9tYWUnLCAnPG91dGZpbGUubWFlPic=

> <r_lp_tautomer_probability>
1

> <r_epik_Ionization_Penalty>
6.86395e-08

> <r_epik_Ionization_Penalty_Charging>
2.24757e-10

> <r_epik_Ionization_Penalty_Neutral>
6.84147e-08

> <r_epik_State_Penalty>
-0

> <r_epik_Charging_Adjusted_Penalty>
2.24757e-10

> <i_epik_Tot_Q>
0

> <i_epik_Tot_abs_Q>
0

> <r_epik_Metal_State_Penalty>
-0

> <b_epik_Metal_Only>
0

> <s_lp_Force_Field>
OPLS_2005

> <r_lp_Energy>
26.0533

> <b_lp_Chiralities_Consistent>
1

> <s_lp_Variant>
AV-unprocessed.smi:3062-1

> <Gold.Version>
5.8.1

> <Gold.Id.Protein>
6NUR|6NUR_protein|mol2

> <Gold.PLP.Fitness>
43.2952

> <Gold.PLP.PLP>
-33.5562

> <Gold.PLP.part.hbond>
-2.9500

> <Gold.PLP.part.metal>
0.0000

> <Gold.PLP.part.buried>
-6.7015

> <Gold.PLP.part.nonpolar>
-27.1442

> <Gold.PLP.part.repulsive>
2.1761

> <Gold.PLP.ligand.clash>
0.0000

> <Gold.PLP.ligand.torsion>
1.2906

> <Gold.PLP.Chemscore.Hbond>
2.9000

> <Gold.PLP.Chemscore.CHOScore>
1.1825

> <Gold.PLP.Chemscore.Metal>
0.0000

> <Gold.Chemscore.Hbonds>
donor molecule, donor type, donor heavy atom, donor atom, acceptor molecule, acceptor atom, score
      L1  H     7    29       P1  7957  1.00
      P1  H  7989  7998       L1    17  0.85
      P1  H  7997  8008       L1    20  1.00
      L1  C    14    36       P1 10957  0.25
      L1  C    14    36       P1 11000  0.82

> <Gold.PLP.Chemscore.Internal.Correction>
0.0727

> <Gold.Rescore>
     Score         DG    S(hbond)    S(metal)    S(lipo)     H(rot)  DE(clash)    DE(int)     intcor
     12.72     -15.56       2.88        0.00      58.96       2.51       0.20       2.64       ----

> <Gold.Chemscore.Fitness>
12.7220

> <Gold.Chemscore.DG>
-15.5612

> <Gold.Chemscore.ZeroCoef>
-5.4800

> <Gold.Chemscore.Hbond>
2.8781

> <Gold.Chemscore.Metal>
0.0000

> <Gold.Chemscore.Lipo>
58.9634

> <Gold.Chemscore.Internal_Hbond>
0.0000

> <Gold.Chemscore.DEClash>
0.1973

> <Gold.Chemscore.DEInternal>
2.6419

> <Gold.Chemscore.Rot>
2.5119

> <Gold.Chemscore.Internal.Correction>
   9.000000E+99

> <Gold.Chemscore.Hbonds>
donor molecule, donor type, donor heavy atom, donor atom, acceptor molecule, acceptor atom, score
      L1  H     7    29       P1  7957  0.94
      P1  H  7989  7998       L1    17  0.14
      P1  H  7997  8008       L1    20  0.98

> <Gold.Chemscore.Hbond.Weighted>
-9.6129

> <Gold.Chemscore.Metal.Weighted>
-0.0000

> <Gold.Chemscore.Lipo.Weighted>
-6.8987

> <Gold.Chemscore.Internal_Hbond.Weighted>
0.0000

> <Gold.Chemscore.DEClash.Weighted>
0.1973

> <Gold.Chemscore.DEInternal.Weighted>
2.6419

> <Gold.Chemscore.Rot.Weighted>
6.4305

> <Gold.Chemscore.Internal.Correction.Weighted>
   9.000000E+99

> <Gold.Protein.RotatedTorsions>
[ 6907 6896 6895 6894 ] final  -70.27 input  -60.11 | X-H torsion
[ 7974 7965 7964 7962 ] final  141.41 input  175.53 | X-H torsion
[ 8008 7997 7996 7995 ] final  -33.13 input   59.86 | X-H torsion
[ 10167 10162 10161 10158 ] final -106.95 input  -65.29 | X-H torsion
[ 10718 10713 10712 10709 ] final   58.62 input   66.30 | X-H torsion
[ 10763 10752 10751 10750 ] final   81.66 input  -60.55 | X-H torsion
[ 11005 11000 10999 10996 ] final -119.92 input  -57.11 | X-H torsion

> <Gold.Protein.ActiveResidues>
 VAL166  LYS551  ARG553  GLY616  TRP617  ASP618  TYR619  PRO620  LYS621  CYS622 
 ASP623  PHE694  ASN695  SER759  ASP760  ASP761  ALA762  ILE779  LEU786  VAL792 
 PHE793  MET794  SER795  GLU796  ALA797  LYS798  CYS799  TRP800  GLU811  SER814 

> <Gold.Protein.RotatedAtoms>
  150.7266  134.5477  159.5778 H   0  0  0  0  0  0  0  0  0  0  0  0  # atno 6907 bound_to 6896
  152.2972  134.7650  160.0374 H   0  0  0  0  0  0  0  0  0  0  0  0  # atno 6908 bound_to 6896
  151.8243  133.3363  159.3630 H   0  0  0  0  0  0  0  0  0  0  0  0  # atno 6909 bound_to 6896
  144.9099  139.5307  143.5713 H   0  0  0  0  0  0  0  0  0  0  0  0  # atno 7974 bound_to 7965
  154.4158  140.1719  156.1839 H   0  0  0  0  0  0  0  0  0  0  0  0  # atno 8008 bound_to 7997
  155.9659  140.3389  155.6508 H   0  0  0  0  0  0  0  0  0  0  0  0  # atno 8009 bound_to 7997
  155.6688  140.0709  157.2518 H   0  0  0  0  0  0  0  0  0  0  0  0  # atno 8010 bound_to 7997
  140.1822  143.3958  152.1272 H   0  0  0  0  0  0  0  0  0  0  0  0  # atno 10167 bound_to 10162
  157.5611  130.8836  149.9112 H   0  0  0  0  0  0  0  0  0  0  0  0  # atno 10718 bound_to 10713
  153.1136  135.4757  154.9077 H   0  0  0  0  0  0  0  0  0  0  0  0  # atno 10763 bound_to 10752
  154.7506  135.3105  154.8567 H   0  0  0  0  0  0  0  0  0  0  0  0  # atno 10764 bound_to 10752
  153.9150  135.6861  153.4803 H   0  0  0  0  0  0  0  0  0  0  0  0  # atno 10765 bound_to 10752
  141.0180  134.0166  157.3322 H   0  0  0  0  0  0  0  0  0  0  0  0  # atno 11005 bound_to 11000
  146.3153  139.7897  142.8988 LP  0  0  0  0  0  0  0  0  0  0  0  0  # atno 17320 bound_to 7965
  145.3472  141.0300  143.3359 LP  0  0  0  0  0  0  0  0  0  0  0  0  # atno 17321 bound_to 7965
  139.5291  144.7138  151.5120 LP  0  0  0  0  0  0  0  0  0  0  0  0  # atno 17342 bound_to 10162
  140.6512  143.8693  150.6787 LP  0  0  0  0  0  0  0  0  0  0  0  0  # atno 17343 bound_to 10162
  156.0663  130.3691  150.0870 LP  0  0  0  0  0  0  0  0  0  0  0  0  # atno 17370 bound_to 10713
  156.9034  130.9628  151.3573 LP  0  0  0  0  0  0  0  0  0  0  0  0  # atno 17371 bound_to 10713
  139.9129  135.0193  156.7764 LP  0  0  0  0  0  0  0  0  0  0  0  0  # atno 17394 bound_to 11000
  140.6621  133.9636  155.7810 LP  0  0  0  0  0  0  0  0  0  0  0  0  # atno 17395 bound_to 11000

$$$$
