#       Name:                AV-unprocessed.smi:170
#       Creating user name   scv26
#       Creation time:       Thu Mar 26 19:17:20 2020


#       File generated by GOLD software.
#

@<TRIPOS>MOLECULE
AV-unprocessed.smi:170
    67    71     1
SMALL
NO_CHARGES


@<TRIPOS>ATOM
      1 ****        -3.5305   0.2856   0.4721 O.3            1 S1                 0.0000
      2 ****        -3.9798  -1.0217   0.7775 C.3            1 S1                 0.0000
      3 ****        -3.2087  -2.0741  -0.0431 C.3            1 S1                 0.0000
      4 ****        -1.7742  -1.9925   0.1671 N.pl3          1 S1                 0.0000
      5 ****        -1.0667  -2.5157   1.2259 C.2            1 S1                 0.0000
      6 ****         0.2204  -2.2990   1.1968 N.2            1 S1                 0.0000
      7 ****         0.4114  -1.5708   0.0290 C.ar           1 S1                 0.0000
      8 ****         1.5485  -1.0028  -0.6036 C.ar           1 S1                 0.0000
      9 ****         2.7916  -1.1268  -0.0808 N.3            1 S1                 0.0000
     10 ****         3.4124  -2.3559  -0.5633 C.3            1 S1                 0.0000
     11 ****         4.7460  -2.6014   0.1530 C.3            1 S1                 0.0000
     12 ****         5.5852  -1.4722  -0.0427 O.3            1 S1                 0.0000
     13 ****         5.0268  -0.2947   0.5276 C.3            1 S1                 0.0000
     14 ****         3.6723   0.0491  -0.1380 C.3            1 S1                 0.0000
     15 ****         3.0266   1.2965   0.5224 C.3            1 S1                 0.0000
     16 ****         3.8817   2.5603   0.4456 C.3            1 S1                 0.0000
     17 ****         3.2369   3.9319   0.6950 C.3            1 S1                 0.0000
     18 ****         4.1906   4.5180  -0.3501 C.3            1 S1                 0.0000
     19 ****         4.3271   3.1038  -0.9208 C.3            1 S1                 0.0000
     20 ****         1.3592  -0.3488  -1.7810 N.ar           1 S1                 0.0000
     21 ****         0.1300  -0.2399  -2.2947 C.ar           1 S1                 0.0000
     22 ****        -1.0229  -0.7064  -1.8088 N.ar           1 S1                 0.0000
     23 ****        -0.8313  -1.3739  -0.6345 C.ar           1 S1                 0.0000
     24 ****        -5.5085  -1.1162   0.5954 C.3            1 S1                 0.0000
     25 ****        -6.3319  -0.0440   1.3292 C.3            1 S1                 0.0000
     26 ****        -7.0010   0.7220   0.2039 C.3            1 S1                 0.0000
     27 ****        -7.0892  -0.3282  -0.8950 C.3            1 S1                 0.0000
     28 ****        -5.8539  -1.0169  -0.7847 O.3            1 S1                 0.0000
     29 ****        -3.7123   0.4571  -0.4396 H              1 S1                 0.0000
     30 ****        -3.7594  -1.1829   1.8336 H              1 S1                 0.0000
     31 ****        -3.5375  -3.0781   0.2278 H              1 S1                 0.0000
     32 ****        -3.4112  -1.9572  -1.1085 H              1 S1                 0.0000
     33 ****        -1.5401  -3.0619   2.0289 H              1 S1                 0.0000
     34 ****         2.7478  -3.2055  -0.3984 H              1 S1                 0.0000
     35 ****         3.5783  -2.2812  -1.6393 H              1 S1                 0.0000
     36 ****         4.5929  -2.7825   1.2181 H              1 S1                 0.0000
     37 ****         5.2357  -3.4851  -0.2561 H              1 S1                 0.0000
     38 ****         4.9107  -0.4247   1.6051 H              1 S1                 0.0000
     39 ****         5.7447   0.5117   0.3813 H              1 S1                 0.0000
     40 ****         3.8654   0.2698  -1.1889 H              1 S1                 0.0000
     41 ****         2.0636   1.5084   0.0589 H              1 S1                 0.0000
     42 ****         2.8012   1.0732   1.5658 H              1 S1                 0.0000
     43 ****         4.7582   2.4780   1.0910 H              1 S1                 0.0000
     44 ****         2.1926   3.9756   0.3808 H              1 S1                 0.0000
     45 ****         3.3692   4.3222   1.7045 H              1 S1                 0.0000
     46 ****         3.7383   5.2433  -1.0270 H              1 S1                 0.0000
     47 ****         5.1192   4.8909   0.0851 H              1 S1                 0.0000
     48 ****         5.3390   2.8232  -1.2150 H              1 S1                 0.0000
     49 ****         3.6062   2.8981  -1.7139 H              1 S1                 0.0000
     50 ****         0.0604   0.2971  -3.2293 H              1 S1                 0.0000
     51 ****        -5.8400  -2.0972   0.9393 H              1 S1                 0.0000
     52 ****        -7.0877  -0.5232   1.9531 H              1 S1                 0.0000
     53 ****        -5.7370   0.6027   1.9749 H              1 S1                 0.0000
     54 ****        -7.9718   1.1324   0.4826 H              1 S1                 0.0000
     55 ****        -6.3612   1.5442  -0.1196 H              1 S1                 0.0000
     56 ****        -7.9119  -1.0203  -0.7075 H              1 S1                 0.0000
     57 ****        -7.2208   0.1061  -1.8863 H              1 S1                 0.0000
     58 ****        -2.5468   0.3525   0.6390 LP             1 S1                 0.0000
     59 ****        -4.0116   0.9505   1.0435 LP             1 S1                 0.0000
     60 ****         0.9091  -2.5897   1.8610 LP             1 S1                 0.0000
     61 ****         2.6522  -1.1908   0.9074 LP             1 S1                 0.0000
     62 ****         5.7109  -1.3284  -1.0243 LP             1 S1                 0.0000
     63 ****         6.4718  -1.6498   0.3843 LP             1 S1                 0.0000
     64 ****         2.1395   0.0505  -2.2623 LP             1 S1                 0.0000
     65 ****        -1.9122  -0.5825  -2.2490 LP             1 S1                 0.0000
     66 ****        -5.9429  -1.9327  -1.1762 LP             1 S1                 0.0000
     67 ****        -5.1425  -0.5128  -1.2744 LP             1 S1                 0.0000
@<TRIPOS>BOND
    1    1    2 1     
    2    1   29 1     
    3    2    3 1     
    4    2   24 1     
    5    2   30 1     
    6    3    4 1     
    7    3   31 1     
    8    3   32 1     
    9    4   23 1     
   10    4    5 1     
   11    5    6 2     
   12    5   33 1     
   13    6    7 1     
   14    7   23 ar    
   15    7    8 ar    
   16    8    9 1     
   17    8   20 ar    
   18    9   14 1     
   19    9   10 1     
   20   10   11 1     
   21   10   34 1     
   22   10   35 1     
   23   11   12 1     
   24   11   36 1     
   25   11   37 1     
   26   12   13 1     
   27   13   14 1     
   28   13   38 1     
   29   13   39 1     
   30   14   15 1     
   31   14   40 1     
   32   15   16 1     
   33   15   41 1     
   34   15   42 1     
   35   16   19 1     
   36   16   17 1     
   37   16   43 1     
   38   17   18 1     
   39   17   44 1     
   40   17   45 1     
   41   18   19 1     
   42   18   46 1     
   43   18   47 1     
   44   19   48 1     
   45   19   49 1     
   46   20   21 ar    
   47   21   22 ar    
   48   21   50 1     
   49   22   23 ar    
   50   24   28 1     
   51   24   25 1     
   52   24   51 1     
   53   25   26 1     
   54   25   52 1     
   55   25   53 1     
   56   26   27 1     
   57   26   54 1     
   58   26   55 1     
   59   27   28 1     
   60   27   56 1     
   61   27   57 1     
   62    1   58 1     
   63    1   59 1     
   64    6   60 1     
   65    9   61 1     
   66   12   62 1     
   67   12   63 1     
   68   20   64 1     
   69   22   65 1     
   70   28   66 1     
   71   28   67 1     
@<TRIPOS>SUBSTRUCTURE
      1 S1             1
@<TRIPOS>SET
LONE_PAIRS      STATIC     ATOMS    <user>   **** ""
10 58 59 60 61 62 63 64 65 66 67
DONOR_HYDROGENS      STATIC     ATOMS    <user>   **** ""
1 29
ATOM$BLUE        STATIC     ATOMS    COLORGROUP SYSTEM
10 58 59 60 61 62 63 64 65 66 67
ATOM$RED        STATIC     ATOMS    COLORGROUP SYSTEM
1 29
