AV-unprocessed.smi:2191|AV-procd|sdf|8893|dock9
  -GOLD-   2272012103D 1   1.00000     0.00000
 Structure written by MMmdl.
 36 38  0  0  0  0  0  0  0  0  1 V2000
  149.0665  142.6047  157.5268 O   0  0  0  0  0  0  0  0  0  0  0  0
  149.9981  141.6543  157.0476 C   0  0  1  0  0  0  0  0  0  0  0  0
  149.6470  141.3274  155.5878 C   0  0  0  0  0  0  0  0  0  0  0  0
  150.6493  140.4717  155.0554 O   0  0  0  0  0  0  0  0  0  0  0  0
  150.3498  139.1360  154.8919 C   0  0  0  0  0  0  0  0  0  0  0  0
  151.3655  138.3139  154.3615 C   0  0  0  0  0  0  0  0  0  0  0  0
  151.1473  136.9376  154.1586 C   0  0  0  0  0  0  0  0  0  0  0  0
  149.9038  136.3669  154.4867 C   0  0  0  0  0  0  0  0  0  0  0  0
  148.8814  137.1748  155.0184 C   0  0  0  0  0  0  0  0  0  0  0  0
  149.0997  138.5518  155.2203 C   0  0  0  0  0  0  0  0  0  0  0  0
  151.4209  142.2316  157.1801 C   0  0  0  0  0  0  0  0  0  0  0  0
  151.7038  142.7231  158.5173 N   0  0  0  0  0  0  0  0  0  0  0  0
  151.3593  143.9204  159.0293 C   0  0  0  0  0  0  0  0  0  0  0  0
  151.7157  144.1718  160.2857 N   0  0  0  0  0  0  0  0  0  0  0  0
  152.3674  143.0001  160.6306 C   0  0  0  0  0  0  0  0  0  0  0  0
  152.9872  142.6184  161.8421 C   0  0  0  0  0  0  0  0  0  0  0  0
  153.5952  141.3515  161.9654 C   0  0  0  0  0  0  0  0  0  0  0  0
  153.5953  140.4497  160.8814 C   0  0  0  0  0  0  0  0  0  0  0  0
  152.9857  140.8084  159.6638 C   0  0  0  0  0  0  0  0  0  0  0  0
  152.3772  142.0721  159.5456 C   0  0  0  0  0  0  0  0  0  0  0  0
  149.3684  143.4669  157.2839 H   0  0  0  0  0  0  0  0  0  0  0  0
  149.9254  140.7505  157.6541 H   0  0  0  0  0  0  0  0  0  0  0  0
  148.6542  140.8783  155.5215 H   0  0  0  0  0  0  0  0  0  0  0  0
  149.6366  142.2489  155.0032 H   0  0  0  0  0  0  0  0  0  0  0  0
  152.3232  138.7440  154.1069 H   0  0  0  0  0  0  0  0  0  0  0  0
  151.9343  136.3204  153.7514 H   0  0  0  0  0  0  0  0  0  0  0  0
  149.7343  135.3117  154.3313 H   0  0  0  0  0  0  0  0  0  0  0  0
  147.9268  136.7379  155.2716 H   0  0  0  0  0  0  0  0  0  0  0  0
  148.2909  139.1383  155.6289 H   0  0  0  0  0  0  0  0  0  0  0  0
  152.1611  141.4680  156.9371 H   0  0  0  0  0  0  0  0  0  0  0  0
  151.5697  143.0450  156.4688 H   0  0  0  0  0  0  0  0  0  0  0  0
  150.8161  144.6489  158.4453 H   0  0  0  0  0  0  0  0  0  0  0  0
  152.9938  143.3012  162.6788 H   0  0  0  0  0  0  0  0  0  0  0  0
  154.0644  141.0706  162.8970 H   0  0  0  0  0  0  0  0  0  0  0  0
  154.0646  139.4821  160.9845 H   0  0  0  0  0  0  0  0  0  0  0  0
  152.9867  140.1216  158.8306 H   0  0  0  0  0  0  0  0  0  0  0  0
  1  2  1  0  0  0  0
  1 21  1  0  0  0  0
  2  3  1  0  0  0  0
  2 11  1  0  0  0  0
  2 22  1  0  0  0  0
  3  4  1  0  0  0  0
  3 23  1  0  0  0  0
  3 24  1  0  0  0  0
  4  5  1  0  0  0  0
  5 10  1  0  0  0  0
  5  6  2  0  0  0  0
  6  7  1  0  0  0  0
  6 25  1  0  0  0  0
  7  8  2  0  0  0  0
  7 26  1  0  0  0  0
  8  9  1  0  0  0  0
  8 27  1  0  0  0  0
  9 10  2  0  0  0  0
  9 28  1  0  0  0  0
 10 29  1  0  0  0  0
 11 12  1  0  0  0  0
 11 30  1  0  0  0  0
 11 31  1  0  0  0  0
 12 20  1  0  0  0  0
 12 13  1  0  0  0  0
 13 14  2  0  0  0  0
 13 32  1  0  0  0  0
 14 15  1  0  0  0  0
 15 20  2  0  0  0  0
 15 16  1  0  0  0  0
 16 17  2  0  0  0  0
 16 33  1  0  0  0  0
 17 18  1  0  0  0  0
 17 34  1  0  0  0  0
 18 19  2  0  0  0  0
 18 35  1  0  0  0  0
 19 20  1  0  0  0  0
 19 36  1  0  0  0  0
M  END
> <s_m_source_file>
AV-unprocessed.smi

> <i_m_source_file_index>
2191

> <i_lp_mmshare_version>
43012

> <i_f3d_flags>
0

> <s_epik_input>
W2NIXTFbY0hdW2NIXVtjSF1jKGMxMiluKFtjSF1uMilbQ0gyXVtDQEhdKFtPSF0pW0NIMl1PYzNbY0hdW2NIXVtjSF1bY0hdW2NIXTM=

> <s_epik_cmdline>
J2VwaWtfcHl0aG9uJywgJy1waCcsICc3LjAnLCAnLXRuJywgJzgnLCAnLW1hJywgJzIwMCcsICctbWV0YWxfYmluZGluZycsICctaW1hZScsICc8aW5maWxlLm1hZT4nLCAnLW9tYWUnLCAnPG91dGZpbGUubWFlPic=

> <r_lp_tautomer_probability>
1

> <r_epik_Ionization_Penalty>
0.0640132

> <r_epik_Ionization_Penalty_Charging>
0

> <r_epik_Ionization_Penalty_Neutral>
0.0640132

> <r_epik_State_Penalty>
0.0557325

> <r_epik_Charging_Adjusted_Penalty>
0.0557325

> <i_epik_Tot_Q>
0

> <i_epik_Tot_abs_Q>
0

> <r_epik_Metal_State_Penalty>
5.8435e-05

> <b_epik_Metal_Only>
0

> <s_lp_Force_Field>
OPLS_2005

> <r_lp_Energy>
16.2786

> <b_lp_Chiralities_Consistent>
1

> <s_lp_Variant>
AV-unprocessed.smi:2191-2

> <Gold.Version>
5.8.1

> <Gold.Id.Protein>
6NUR|6NUR_protein|mol2

> <Gold.PLP.Fitness>
51.6032

> <Gold.PLP.PLP>
-44.1628

> <Gold.PLP.part.hbond>
-2.0000

> <Gold.PLP.part.metal>
0.0000

> <Gold.PLP.part.buried>
-3.6145

> <Gold.PLP.part.nonpolar>
-38.7995

> <Gold.PLP.part.repulsive>
0.2057

> <Gold.PLP.ligand.clash>
0.0000

> <Gold.PLP.ligand.torsion>
0.6866

> <Gold.PLP.Chemscore.Hbond>
1.9520

> <Gold.PLP.Chemscore.CHOScore>
0.9709

> <Gold.PLP.Chemscore.Metal>
0.0000

> <Gold.Chemscore.Hbonds>
donor molecule, donor type, donor heavy atom, donor atom, acceptor molecule, acceptor atom, score
      L1  H     1    21       P1  8028  0.55
      P1  H  7989  7998       L1     4  1.00

> <Gold.PLP.Chemscore.Internal.Correction>
0.0451

> <Gold.Rescore>
     Score         DG    S(hbond)    S(metal)    S(lipo)     H(rot)  DE(clash)    DE(int)     intcor
     17.14     -18.05       1.49        0.00     113.45       2.22       0.13       0.78       ----

> <Gold.Chemscore.Fitness>
17.1415

> <Gold.Chemscore.DG>
-18.0518

> <Gold.Chemscore.ZeroCoef>
-5.4800

> <Gold.Chemscore.Hbond>
1.4913

> <Gold.Chemscore.Metal>
0.0000

> <Gold.Chemscore.Lipo>
113.4535

> <Gold.Chemscore.Internal_Hbond>
0.0000

> <Gold.Chemscore.DEClash>
0.1291

> <Gold.Chemscore.DEInternal>
0.7813

> <Gold.Chemscore.Rot>
2.2200

> <Gold.Chemscore.Internal.Correction>
   9.000000E+99

> <Gold.Chemscore.Hbonds>
donor molecule, donor type, donor heavy atom, donor atom, acceptor molecule, acceptor atom, score
      L1  H     1    21       P1  8028  0.39
      P1  H  7989  7998       L1     4  0.38

> <Gold.Chemscore.Hbond.Weighted>
-4.9810

> <Gold.Chemscore.Metal.Weighted>
-0.0000

> <Gold.Chemscore.Lipo.Weighted>
-13.2741

> <Gold.Chemscore.Internal_Hbond.Weighted>
0.0000

> <Gold.Chemscore.DEClash.Weighted>
0.1291

> <Gold.Chemscore.DEInternal.Weighted>
0.7813

> <Gold.Chemscore.Rot.Weighted>
5.6832

> <Gold.Chemscore.Internal.Correction.Weighted>
   9.000000E+99

> <Gold.Protein.RotatedTorsions>
[ 6907 6896 6895 6894 ] final  -51.66 input  -60.11 | X-H torsion
[ 7974 7965 7964 7962 ] final   52.61 input  175.53 | X-H torsion
[ 8008 7997 7996 7995 ] final  114.23 input   59.86 | X-H torsion
[ 10167 10162 10161 10158 ] final -121.08 input  -65.29 | X-H torsion
[ 10718 10713 10712 10709 ] final  174.46 input   66.30 | X-H torsion
[ 10763 10752 10751 10750 ] final  -18.98 input  -60.55 | X-H torsion
[ 11005 11000 10999 10996 ] final  -10.08 input  -57.11 | X-H torsion

> <Gold.Protein.ActiveResidues>
 VAL166  LYS551  ARG553  GLY616  TRP617  ASP618  TYR619  PRO620  LYS621  CYS622 
 ASP623  PHE694  ASN695  SER759  ASP760  ASP761  ALA762  ILE779  LEU786  VAL792 
 PHE793  MET794  SER795  GLU796  ALA797  LYS798  CYS799  TRP800  GLU811  SER814 

> <Gold.Protein.RotatedAtoms>
  150.8590  134.7937  159.7067 H   0  0  0  0  0  0  0  0  0  0  0  0  # atno 6907 bound_to 6896
  152.4633  134.5131  159.9770 H   0  0  0  0  0  0  0  0  0  0  0  0  # atno 6908 bound_to 6896
  151.5238  133.3423  159.2942 H   0  0  0  0  0  0  0  0  0  0  0  0  # atno 6909 bound_to 6896
  145.9795  139.4228  143.0140 H   0  0  0  0  0  0  0  0  0  0  0  0  # atno 7974 bound_to 7965
  156.2308  140.2963  156.0184 H   0  0  0  0  0  0  0  0  0  0  0  0  # atno 8008 bound_to 7997
  155.2229  140.0416  157.2968 H   0  0  0  0  0  0  0  0  0  0  0  0  # atno 8009 bound_to 7997
  154.5993  140.2422  155.7822 H   0  0  0  0  0  0  0  0  0  0  0  0  # atno 8010 bound_to 7997
  140.0288  143.5269  152.2186 H   0  0  0  0  0  0  0  0  0  0  0  0  # atno 10167 bound_to 10162
  156.9493  131.0026  151.2952 H   0  0  0  0  0  0  0  0  0  0  0  0  # atno 10718 bound_to 10713
  153.5977  135.7000  153.5397 H   0  0  0  0  0  0  0  0  0  0  0  0  # atno 10763 bound_to 10752
  153.3124  135.4097  155.1347 H   0  0  0  0  0  0  0  0  0  0  0  0  # atno 10764 bound_to 10752
  154.8588  135.3675  154.5511 H   0  0  0  0  0  0  0  0  0  0  0  0  # atno 10765 bound_to 10752
  140.7410  133.8670  155.8967 H   0  0  0  0  0  0  0  0  0  0  0  0  # atno 11005 bound_to 11000
  145.7789  140.9864  143.1109 LP  0  0  0  0  0  0  0  0  0  0  0  0  # atno 17320 bound_to 7965
  144.6858  139.9540  143.7478 LP  0  0  0  0  0  0  0  0  0  0  0  0  # atno 17321 bound_to 7965
  139.6090  144.7604  151.2996 LP  0  0  0  0  0  0  0  0  0  0  0  0  # atno 17342 bound_to 10162
  140.7311  143.6862  150.7960 LP  0  0  0  0  0  0  0  0  0  0  0  0  # atno 17343 bound_to 10162
  157.5732  130.8325  149.8420 LP  0  0  0  0  0  0  0  0  0  0  0  0  # atno 17370 bound_to 10713
  156.0370  130.3749  150.1535 LP  0  0  0  0  0  0  0  0  0  0  0  0  # atno 17371 bound_to 10713
  140.9837  134.1371  157.4471 LP  0  0  0  0  0  0  0  0  0  0  0  0  # atno 17394 bound_to 11000
  139.8806  135.0018  156.6092 LP  0  0  0  0  0  0  0  0  0  0  0  0  # atno 17395 bound_to 11000

$$$$
