AV-unprocessed.smi:1746|AV-procd|sdf|7034|dock3
  -GOLD-   22720 8253D 1   1.00000     0.00000
 Structure written by MMmdl.
 35 36  0  0  0  0  0  0  0  0  1 V2000
  145.7215  142.8747  153.8243 C   0  0  0  0  0  0  0  0  0  0  0  0
  147.1542  142.5656  154.2754 C   0  0  0  0  0  0  0  0  0  0  0  0
  147.5160  141.1874  154.0079 N   0  0  0  0  0  0  0  0  0  0  0  0
  146.7401  140.1974  153.4384 C   0  0  0  0  0  0  0  0  0  0  0  0
  147.5314  139.0843  153.4001 C   0  0  0  0  0  0  0  0  0  0  0  0
  147.2342  137.7861  152.9133 N   0  0  0  0  0  0  0  0  0  0  0  0
  146.0466  137.1595  152.9381 C   0  0  0  0  0  0  0  0  0  0  0  0
  145.0059  137.6325  153.3956 O   0  0  0  0  0  0  0  0  0  0  0  0
  146.1285  135.9360  152.3975 N   0  0  0  0  0  0  0  0  0  0  0  0
  145.0179  134.9975  152.2840 C   0  0  0  0  0  0  0  0  0  0  0  0
  145.2945  133.9166  151.2256 C   0  0  1  0  0  0  0  0  0  0  0  0
  146.3451  132.8942  151.6513 C   0  0  0  0  0  0  0  0  0  0  0  0
  145.9984  131.7210  150.7634 C   0  0  0  0  0  0  0  0  0  0  0  0
  144.4728  131.7804  150.7403 C   0  0  0  0  0  0  0  0  0  0  0  0
  144.1237  133.1428  150.9773 O   0  0  0  0  0  0  0  0  0  0  0  0
  148.7740  139.4729  153.9645 C   0  0  0  0  0  0  0  0  0  0  0  0
  148.7572  140.7460  154.3295 N   0  0  0  0  0  0  0  0  0  0  0  0
  145.4596  143.9091  154.0464 H   0  0  0  0  0  0  0  0  0  0  0  0
  145.0019  142.2324  154.3330 H   0  0  0  0  0  0  0  0  0  0  0  0
  145.6041  142.7254  152.7505 H   0  0  0  0  0  0  0  0  0  0  0  0
  147.8636  143.2208  153.7681 H   0  0  0  0  0  0  0  0  0  0  0  0
  147.2591  142.7522  155.3448 H   0  0  0  0  0  0  0  0  0  0  0  0
  145.7235  140.3771  153.1214 H   0  0  0  0  0  0  0  0  0  0  0  0
  148.0073  137.2812  152.5053 H   0  0  0  0  0  0  0  0  0  0  0  0
  147.0238  135.6255  152.0497 H   0  0  0  0  0  0  0  0  0  0  0  0
  144.8258  134.5361  153.2541 H   0  0  0  0  0  0  0  0  0  0  0  0
  144.1185  135.5562  152.0238 H   0  0  0  0  0  0  0  0  0  0  0  0
  145.6072  134.3699  150.2833 H   0  0  0  0  0  0  0  0  0  0  0  0
  147.3661  133.2504  151.5106 H   0  0  0  0  0  0  0  0  0  0  0  0
  146.2170  132.6207  152.6995 H   0  0  0  0  0  0  0  0  0  0  0  0
  146.3962  131.8830  149.7605 H   0  0  0  0  0  0  0  0  0  0  0  0
  146.3836  130.7709  151.1345 H   0  0  0  0  0  0  0  0  0  0  0  0
  144.0615  131.4240  149.7956 H   0  0  0  0  0  0  0  0  0  0  0  0
  144.0536  131.1724  151.5426 H   0  0  0  0  0  0  0  0  0  0  0  0
  149.6687  138.8877  154.1180 H   0  0  0  0  0  0  0  0  0  0  0  0
  1  2  1  0  0  0  0
  1 18  1  0  0  0  0
  1 19  1  0  0  0  0
  1 20  1  0  0  0  0
  2  3  1  0  0  0  0
  2 21  1  0  0  0  0
  2 22  1  0  0  0  0
  3 17  1  0  0  0  0
  3  4  1  0  0  0  0
  4  5  2  0  0  0  0
  4 23  1  0  0  0  0
  5  6  1  0  0  0  0
  5 16  1  0  0  0  0
  6  7  1  0  0  0  0
  6 24  1  0  0  0  0
  7  8  2  0  0  0  0
  7  9  1  0  0  0  0
  9 10  1  0  0  0  0
  9 25  1  0  0  0  0
 10 11  1  0  0  0  0
 10 26  1  0  0  0  0
 10 27  1  0  0  0  0
 11 15  1  0  0  0  0
 11 12  1  0  0  0  0
 11 28  1  0  0  0  0
 12 13  1  0  0  0  0
 12 29  1  0  0  0  0
 12 30  1  0  0  0  0
 13 14  1  0  0  0  0
 13 31  1  0  0  0  0
 13 32  1  0  0  0  0
 14 15  1  0  0  0  0
 14 33  1  0  0  0  0
 14 34  1  0  0  0  0
 16 17  2  0  0  0  0
 16 35  1  0  0  0  0
M  END
> <s_m_source_file>
AV-unprocessed.smi

> <i_m_source_file_index>
1746

> <i_lp_mmshare_version>
43012

> <i_f3d_flags>
0

> <s_epik_input>
W0NIM11bQ0gyXW4xW2NIXWMoW2NIXW4xKVtOSF1DKD1PKVtOSF1bQ0gyXVtDQEBIXTJbQ0gyXVtDSDJdW0NIMl1PMg==

> <s_epik_cmdline>
J2VwaWtfcHl0aG9uJywgJy1waCcsICc3LjAnLCAnLXRuJywgJzgnLCAnLW1hJywgJzIwMCcsICctbWV0YWxfYmluZGluZycsICctaW1hZScsICc8aW5maWxlLm1hZT4nLCAnLW9tYWUnLCAnPG91dGZpbGUubWFlPic=

> <r_lp_tautomer_probability>
1

> <r_epik_Ionization_Penalty>
0.000176839

> <r_epik_Ionization_Penalty_Charging>
0

> <r_epik_Ionization_Penalty_Neutral>
0.000176839

> <r_epik_State_Penalty>
-0

> <r_epik_Charging_Adjusted_Penalty>
0

> <i_epik_Tot_Q>
0

> <i_epik_Tot_abs_Q>
0

> <r_epik_Metal_State_Penalty>
-0

> <b_epik_Metal_Only>
0

> <s_lp_Force_Field>
OPLS_2005

> <r_lp_Energy>
20.4125

> <b_lp_Chiralities_Consistent>
1

> <s_lp_Variant>
AV-unprocessed.smi:1746-2

> <Gold.Version>
5.8.1

> <Gold.Id.Protein>
6NUR|6NUR_protein|mol2

> <Gold.PLP.Fitness>
38.2699

> <Gold.PLP.PLP>
-30.5583

> <Gold.PLP.part.hbond>
-1.9636

> <Gold.PLP.part.metal>
0.0000

> <Gold.PLP.part.buried>
-1.6943

> <Gold.PLP.part.nonpolar>
-28.6359

> <Gold.PLP.part.repulsive>
1.5283

> <Gold.PLP.ligand.clash>
0.0000

> <Gold.PLP.ligand.torsion>
0.4129

> <Gold.PLP.Chemscore.Hbond>
1.8393

> <Gold.PLP.Chemscore.CHOScore>
1.0000

> <Gold.PLP.Chemscore.Metal>
0.0000

> <Gold.Chemscore.Hbonds>
donor molecule, donor type, donor heavy atom, donor atom, acceptor molecule, acceptor atom, score
      L1  H     6    24       P1  7948  1.00
      L1  H     9    25       P1  7948  0.85
      L1  C     4    23       P1 10175  1.00

> <Gold.PLP.Chemscore.Internal.Correction>
0.0196

> <Gold.Rescore>
     Score         DG    S(hbond)    S(metal)    S(lipo)     H(rot)  DE(clash)    DE(int)     intcor
     14.03     -15.94       1.86        0.00      67.18       1.41       0.72       1.20       ----

> <Gold.Chemscore.Fitness>
14.0263

> <Gold.Chemscore.DG>
-15.9449

> <Gold.Chemscore.ZeroCoef>
-5.4800

> <Gold.Chemscore.Hbond>
1.8579

> <Gold.Chemscore.Metal>
0.0000

> <Gold.Chemscore.Lipo>
67.1793

> <Gold.Chemscore.Internal_Hbond>
0.0000

> <Gold.Chemscore.DEClash>
0.7198

> <Gold.Chemscore.DEInternal>
1.1987

> <Gold.Chemscore.Rot>
1.4064

> <Gold.Chemscore.Internal.Correction>
   9.000000E+99

> <Gold.Chemscore.Hbonds>
donor molecule, donor type, donor heavy atom, donor atom, acceptor molecule, acceptor atom, score
      L1  H     6    24       P1  7948  0.94
      L1  H     9    25       P1  7948  0.82

> <Gold.Chemscore.Hbond.Weighted>
-6.2053

> <Gold.Chemscore.Metal.Weighted>
-0.0000

> <Gold.Chemscore.Lipo.Weighted>
-7.8600

> <Gold.Chemscore.Internal_Hbond.Weighted>
0.0000

> <Gold.Chemscore.DEClash.Weighted>
0.7198

> <Gold.Chemscore.DEInternal.Weighted>
1.1987

> <Gold.Chemscore.Rot.Weighted>
3.6004

> <Gold.Chemscore.Internal.Correction.Weighted>
   9.000000E+99

> <Gold.Protein.RotatedTorsions>
[ 6907 6896 6895 6894 ] final  152.63 input  -60.11 | X-H torsion
[ 7974 7965 7964 7962 ] final   39.49 input  175.53 | X-H torsion
[ 8008 7997 7996 7995 ] final -143.01 input   59.86 | X-H torsion
[ 10167 10162 10161 10158 ] final   99.92 input  -65.29 | X-H torsion
[ 10718 10713 10712 10709 ] final  -24.99 input   66.30 | X-H torsion
[ 10763 10752 10751 10750 ] final  172.34 input  -60.55 | X-H torsion
[ 11005 11000 10999 10996 ] final -102.10 input  -57.11 | X-H torsion

> <Gold.Protein.ActiveResidues>
 VAL166  LYS551  ARG553  GLY616  TRP617  ASP618  TYR619  PRO620  LYS621  CYS622 
 ASP623  PHE694  ASN695  SER759  ASP760  ASP761  ALA762  ILE779  LEU786  VAL792 
 PHE793  MET794  SER795  GLU796  ALA797  LYS798  CYS799  TRP800  GLU811  SER814 

> <Gold.Protein.RotatedAtoms>
  152.0840  133.4167  159.4513 H   0  0  0  0  0  0  0  0  0  0  0  0  # atno 6907 bound_to 6896
  150.6862  134.2949  159.4691 H   0  0  0  0  0  0  0  0  0  0  0  0  # atno 6908 bound_to 6896
  152.0794  134.9481  160.0624 H   0  0  0  0  0  0  0  0  0  0  0  0  # atno 6909 bound_to 6896
  146.0980  139.5645  142.9433 H   0  0  0  0  0  0  0  0  0  0  0  0  # atno 7974 bound_to 7965
  155.5037  140.0577  157.2935 H   0  0  0  0  0  0  0  0  0  0  0  0  # atno 8008 bound_to 7997
  154.4577  140.1981  156.0281 H   0  0  0  0  0  0  0  0  0  0  0  0  # atno 8009 bound_to 7997
  156.0832  140.3244  155.7724 H   0  0  0  0  0  0  0  0  0  0  0  0  # atno 8010 bound_to 7997
  139.7574  144.6965  151.0343 H   0  0  0  0  0  0  0  0  0  0  0  0  # atno 10167 bound_to 10162
  156.4703  130.4523  149.6873 H   0  0  0  0  0  0  0  0  0  0  0  0  # atno 10718 bound_to 10713
  154.4247  135.2758  155.1952 H   0  0  0  0  0  0  0  0  0  0  0  0  # atno 10763 bound_to 10752
  154.3883  135.6072  153.5833 H   0  0  0  0  0  0  0  0  0  0  0  0  # atno 10764 bound_to 10752
  152.9834  135.5897  154.4548 H   0  0  0  0  0  0  0  0  0  0  0  0  # atno 10765 bound_to 10752
  141.1203  133.8531  157.1316 H   0  0  0  0  0  0  0  0  0  0  0  0  # atno 11005 bound_to 11000
  145.5911  141.0369  143.2070 LP  0  0  0  0  0  0  0  0  0  0  0  0  # atno 17320 bound_to 7965
  144.7410  139.7449  143.7311 LP  0  0  0  0  0  0  0  0  0  0  0  0  # atno 17321 bound_to 7965
  140.7804  143.4737  151.0111 LP  0  0  0  0  0  0  0  0  0  0  0  0  # atno 17342 bound_to 10162
  139.8424  143.7546  152.3180 LP  0  0  0  0  0  0  0  0  0  0  0  0  # atno 17343 bound_to 10162
  156.3625  130.7489  151.2463 LP  0  0  0  0  0  0  0  0  0  0  0  0  # atno 17370 bound_to 10713
  157.7492  131.0346  150.4325 LP  0  0  0  0  0  0  0  0  0  0  0  0  # atno 17371 bound_to 10713
  140.0156  134.9969  157.0486 LP  0  0  0  0  0  0  0  0  0  0  0  0  # atno 17394 bound_to 11000
  140.4526  134.1567  155.7183 LP  0  0  0  0  0  0  0  0  0  0  0  0  # atno 17395 bound_to 11000

$$$$
