AV-unprocessed.smi:726|AV-procd|sdf|3511|dock1
  -GOLD-   22720 0513D 1   1.00000     0.00000
 Structure written by MMmdl.
 24 24  0  0  0  0  0  0  0  0  2 V2000
  152.8328  139.5425  158.6309 C   0  0  0  0  0  0  0  0  0  0  0  0
  151.9575  140.4545  157.7786 C   0  0  0  0  0  0  0  0  0  0  0  0
  151.7188  141.7172  158.1783 C   0  0  0  0  0  0  0  0  0  0  0  0
  150.9292  142.5959  157.3562 C   0  0  0  0  0  0  0  0  0  0  0  0
  150.6684  143.8447  157.7624 O   0  0  0  0  0  0  0  0  0  0  0  0
  150.4667  142.1560  156.1741 C   0  0  0  0  0  0  0  0  0  0  0  0
  150.7292  140.7982  155.6929 C   0  0  0  0  0  0  0  0  0  0  0  0
  150.3314  140.4473  154.5823 O   0  0  0  0  0  0  0  0  0  0  0  0
  151.4331  139.9666  156.5370 N   0  0  0  0  0  0  0  0  0  0  0  0
  151.6070  138.5264  156.1740 C   0  0  1  0  0  0  0  0  0  0  0  0
  150.2788  137.7285  156.1533 C   0  0  0  0  0  0  0  0  0  0  0  0
  152.4919  138.3383  154.9281 C   0  0  0  0  0  0  0  0  0  0  0  0
  153.5290  139.0314  154.8350 O   0  0  0  0  0  0  0  0  0  0  0  0
  152.1127  137.4961  154.0848 O   0  5  0  0  0  0  0  0  0  0  0  0
  153.3194  140.1055  159.4281 H   0  0  0  0  0  0  0  0  0  0  0  0
  153.6281  139.0844  158.0431 H   0  0  0  0  0  0  0  0  0  0  0  0
  152.2351  138.7624  159.1033 H   0  0  0  0  0  0  0  0  0  0  0  0
  152.1308  142.0818  159.1082 H   0  0  0  0  0  0  0  0  0  0  0  0
  150.1488  144.2585  157.0904 H   0  0  0  0  0  0  0  0  0  0  0  0
  149.8795  142.8190  155.5548 H   0  0  0  0  0  0  0  0  0  0  0  0
  152.1517  137.9962  156.9485 H   0  0  0  0  0  0  0  0  0  0  0  0
  150.4778  136.6595  156.0708 H   0  0  0  0  0  0  0  0  0  0  0  0
  149.6252  137.9858  155.3210 H   0  0  0  0  0  0  0  0  0  0  0  0
  149.7198  137.8809  157.0768 H   0  0  0  0  0  0  0  0  0  0  0  0
  1  2  1  0  0  0  0
  1 15  1  0  0  0  0
  1 16  1  0  0  0  0
  1 17  1  0  0  0  0
  2  9  1  0  0  0  0
  2  3  2  0  0  0  0
  3  4  1  0  0  0  0
  3 18  1  0  0  0  0
  4  5  1  0  0  0  0
  4  6  2  0  0  0  0
  5 19  1  0  0  0  0
  6  7  1  0  0  0  0
  6 20  1  0  0  0  0
  7  8  2  0  0  0  0
  7  9  1  0  0  0  0
  9 10  1  0  0  0  0
 10 11  1  0  0  0  0
 10 12  1  0  0  0  0
 10 21  1  0  0  0  0
 11 22  1  0  0  0  0
 11 23  1  0  0  0  0
 11 24  1  0  0  0  0
 12 13  2  0  0  0  0
 12 14  1  0  0  0  0
M  CHG  1  14  -1
M  END
> <s_m_source_file>
AV-unprocessed.smi

> <i_m_source_file_index>
726

> <i_lp_mmshare_version>
43012

> <i_f3d_flags>
0

> <s_epik_input>
W0NIM11jMVtjSF1jKFtPSF0pW2NIXWMoPU8pbjFbQ0BIXShbQ0gzXSlDKD1PKVtPSF0=

> <s_epik_cmdline>
J2VwaWtfcHl0aG9uJywgJy1waCcsICc3LjAnLCAnLXRuJywgJzgnLCAnLW1hJywgJzIwMCcsICctbWV0YWxfYmluZGluZycsICctaW1hZScsICc8aW5maWxlLm1hZT4nLCAnLW9tYWUnLCAnPG91dGZpbGUubWFlPic=

> <r_lp_tautomer_probability>
0.999984

> <r_epik_Ionization_Penalty>
0.316948

> <r_epik_Ionization_Penalty_Charging>
0.000813874

> <r_epik_Ionization_Penalty_Neutral>
0.316134

> <r_epik_State_Penalty>
0.363429

> <r_epik_Charging_Adjusted_Penalty>
0.364242

> <i_epik_Tot_Q>
-1

> <i_epik_Tot_abs_Q>
1

> <r_epik_Metal_State_Penalty>
0.363429

> <b_epik_Metal_Only>
0

> <s_lp_Force_Field>
OPLS_2005

> <r_lp_Energy>
20.5014

> <b_lp_Chiralities_Consistent>
1

> <s_lp_Variant>
AV-unprocessed.smi:726-2

> <Gold.Version>
5.8.1

> <Gold.Id.Protein>
6NUR|6NUR_protein|mol2

> <Gold.PLP.Fitness>
41.8607

> <Gold.PLP.PLP>
-24.8866

> <Gold.PLP.part.hbond>
-4.0000

> <Gold.PLP.part.metal>
0.0000

> <Gold.PLP.part.buried>
-3.5214

> <Gold.PLP.part.nonpolar>
-18.3135

> <Gold.PLP.part.repulsive>
0.2765

> <Gold.PLP.ligand.clash>
0.0000

> <Gold.PLP.ligand.torsion>
0.3362

> <Gold.PLP.Chemscore.Hbond>
5.7840

> <Gold.PLP.Chemscore.CHOScore>
0.0000

> <Gold.PLP.Chemscore.Metal>
0.0000

> <Gold.Chemscore.Hbonds>
donor molecule, donor type, donor heavy atom, donor atom, acceptor molecule, acceptor atom, score
      L1  H     5    19       P1  8028  1.00
      P1  H  7989  7998       L1     8  0.99
      P1  H  7997  8008       L1    13  1.98
      P1  H 10752 10765       L1    14  1.76

> <Gold.PLP.Chemscore.Internal.Correction>
0.2946

> <Gold.Rescore>
     Score         DG    S(hbond)    S(metal)    S(lipo)     H(rot)  DE(clash)    DE(int)     intcor
     15.22     -16.37       3.33        0.00      43.09       2.06       0.17       0.98       ----

> <Gold.Chemscore.Fitness>
15.2156

> <Gold.Chemscore.DG>
-16.3657

> <Gold.Chemscore.ZeroCoef>
-5.4800

> <Gold.Chemscore.Hbond>
3.3279

> <Gold.Chemscore.Metal>
0.0000

> <Gold.Chemscore.Lipo>
43.0935

> <Gold.Chemscore.Internal_Hbond>
0.0000

> <Gold.Chemscore.DEClash>
0.1739

> <Gold.Chemscore.DEInternal>
0.9763

> <Gold.Chemscore.Rot>
2.0592

> <Gold.Chemscore.Internal.Correction>
   9.000000E+99

> <Gold.Chemscore.Hbonds>
donor molecule, donor type, donor heavy atom, donor atom, acceptor molecule, acceptor atom, score
      L1  H     5    19       P1  8028  0.82
      P1  H  7989  7998       L1     8  0.47
      P1  H  7997  8008       L1    13  0.94
      P1  H 10752 10765       L1    14  0.80

> <Gold.Chemscore.Hbond.Weighted>
-11.1152

> <Gold.Chemscore.Metal.Weighted>
-0.0000

> <Gold.Chemscore.Lipo.Weighted>
-5.0419

> <Gold.Chemscore.Internal_Hbond.Weighted>
0.0000

> <Gold.Chemscore.DEClash.Weighted>
0.1739

> <Gold.Chemscore.DEInternal.Weighted>
0.9763

> <Gold.Chemscore.Rot.Weighted>
5.2715

> <Gold.Chemscore.Internal.Correction.Weighted>
   9.000000E+99

> <Gold.Protein.RotatedTorsions>
[ 6907 6896 6895 6894 ] final  -16.75 input  -60.11 | X-H torsion
[ 7974 7965 7964 7962 ] final  127.60 input  175.53 | X-H torsion
[ 8008 7997 7996 7995 ] final  -22.49 input   59.86 | X-H torsion
[ 10167 10162 10161 10158 ] final  158.80 input  -65.29 | X-H torsion
[ 10718 10713 10712 10709 ] final   12.35 input   66.30 | X-H torsion
[ 10763 10752 10751 10750 ] final  147.05 input  -60.55 | X-H torsion
[ 11005 11000 10999 10996 ] final   33.97 input  -57.11 | X-H torsion

> <Gold.Protein.ActiveResidues>
 VAL166  LYS551  ARG553  GLY616  TRP617  ASP618  TYR619  PRO620  LYS621  CYS622 
 ASP623  PHE694  ASN695  SER759  ASP760  ASP761  ALA762  ILE779  LEU786  VAL792 
 PHE793  MET794  SER795  GLU796  ALA797  LYS798  CYS799  TRP800  GLU811  SER814 

> <Gold.Protein.RotatedAtoms>
  151.3038  135.0776  159.9247 H   0  0  0  0  0  0  0  0  0  0  0  0  # atno 6907 bound_to 6896
  152.5292  133.9806  159.7815 H   0  0  0  0  0  0  0  0  0  0  0  0  # atno 6908 bound_to 6896
  151.0098  133.5925  159.2714 H   0  0  0  0  0  0  0  0  0  0  0  0  # atno 6909 bound_to 6896
  145.0488  139.3900  143.5064 H   0  0  0  0  0  0  0  0  0  0  0  0  # atno 7974 bound_to 7965
  154.4641  140.2006  156.0165 H   0  0  0  0  0  0  0  0  0  0  0  0  # atno 8008 bound_to 7997
  156.0895  140.3260  155.7768 H   0  0  0  0  0  0  0  0  0  0  0  0  # atno 8009 bound_to 7997
  155.4980  140.0551  157.2934 H   0  0  0  0  0  0  0  0  0  0  0  0  # atno 8010 bound_to 7997
  139.4828  144.4790  151.8471 H   0  0  0  0  0  0  0  0  0  0  0  0  # atno 10167 bound_to 10162
  157.0088  130.6109  149.5705 H   0  0  0  0  0  0  0  0  0  0  0  0  # atno 10718 bound_to 10713
  154.0319  135.2897  155.3367 H   0  0  0  0  0  0  0  0  0  0  0  0  # atno 10763 bound_to 10752
  154.6983  135.5199  153.8492 H   0  0  0  0  0  0  0  0  0  0  0  0  # atno 10764 bound_to 10752
  153.0636  135.6623  154.0531 H   0  0  0  0  0  0  0  0  0  0  0  0  # atno 10765 bound_to 10752
  140.2576  134.3230  155.7868 H   0  0  0  0  0  0  0  0  0  0  0  0  # atno 11005 bound_to 11000
  146.3516  140.0128  142.8665 LP  0  0  0  0  0  0  0  0  0  0  0  0  # atno 17320 bound_to 7965
  145.1553  140.9645  143.4409 LP  0  0  0  0  0  0  0  0  0  0  0  0  # atno 17321 bound_to 7965
  140.4265  144.2174  150.5887 LP  0  0  0  0  0  0  0  0  0  0  0  0  # atno 17342 bound_to 10162
  140.4822  143.2375  151.8938 LP  0  0  0  0  0  0  0  0  0  0  0  0  # atno 17343 bound_to 10162
  156.0143  130.5237  150.8088 LP  0  0  0  0  0  0  0  0  0  0  0  0  # atno 17370 bound_to 10713
  157.5336  131.0937  150.9923 LP  0  0  0  0  0  0  0  0  0  0  0  0  # atno 17371 bound_to 10713
  141.2194  133.7390  156.9136 LP  0  0  0  0  0  0  0  0  0  0  0  0  # atno 17394 bound_to 11000
  140.1496  134.9239  157.2575 LP  0  0  0  0  0  0  0  0  0  0  0  0  # atno 17395 bound_to 11000

$$$$
