#       Name:                AV-unprocessed.smi:1902
#       Creating user name   scv26
#       Creation time:       Fri Mar 27 09:46:18 2020


#       File generated by GOLD software.
#

@<TRIPOS>MOLECULE
AV-unprocessed.smi:1902
    48    49     1
SMALL
NO_CHARGES


@<TRIPOS>ATOM
      1 ****        -2.0106   3.4479   4.3409 C.3            1 S1                 0.0000
      2 ****        -1.9559   3.8428   2.8547 C.3            1 S1                 0.0000
      3 ****        -2.7565   2.8850   1.9544 C.3            1 S1                 0.0000
      4 ****        -2.0452   1.5332   1.7644 C.3            1 S1                 0.0000
      5 ****        -0.6691   1.7167   1.2350 N.4            1 S1                 1.0000
      6 ****        -0.0131   0.4234   0.9169 C.3            1 S1                 0.0000
      7 ****         1.1039   0.5766  -0.1338 C.3            1 S1                 0.0000
      8 ****         1.7048  -0.7082  -0.4724 N.am           1 S1                 0.0000
      9 ****         1.1626  -1.6161  -1.2982 C.2            1 S1                 0.0000
     10 ****         0.0663  -1.4623  -1.8381 O.2            1 S1                 0.0000
     11 ****         1.9795  -2.8963  -1.5250 C.3            1 S1                 0.0000
     12 ****         1.6520  -3.5802  -2.7875 N.am           1 S1                 0.0000
     13 ****         0.7789  -4.6840  -2.7134 C.2            1 S1                 0.0000
     14 ****         0.4160  -5.3766  -3.8046 C.2            1 S1                 0.0000
     15 ****         0.9459  -4.9642  -5.0825 C.2            1 S1                 0.0000
     16 ****         1.7792  -3.9080  -5.1653 C.2            1 S1                 0.0000
     17 ****         2.1769  -3.1468  -3.9755 C.2            1 S1                 0.0000
     18 ****         2.9346  -2.1783  -4.0417 O.2            1 S1                 0.0000
     19 ****         0.1474   2.5862   2.1232 C.3            1 S1                 0.0000
     20 ****        -0.5165   3.9609   2.3217 C.3            1 S1                 0.0000
     21 ****        -1.5728   2.4669   4.5235 H              1 S1                 0.0000
     22 ****        -3.0401   3.4203   4.6988 H              1 S1                 0.0000
     23 ****        -1.4711   4.1685   4.9560 H              1 S1                 0.0000
     24 ****        -2.4173   4.8283   2.7805 H              1 S1                 0.0000
     25 ****        -3.7557   2.7291   2.3626 H              1 S1                 0.0000
     26 ****        -2.8993   3.3493   0.9775 H              1 S1                 0.0000
     27 ****        -2.0067   0.9830   2.7056 H              1 S1                 0.0000
     28 ****        -2.6268   0.9252   1.0703 H              1 S1                 0.0000
     29 ****         0.3710  -0.0335   1.8303 H              1 S1                 0.0000
     30 ****        -0.7625  -0.2644   0.5225 H              1 S1                 0.0000
     31 ****         0.7169   1.0536  -1.0360 H              1 S1                 0.0000
     32 ****         1.9020   1.2181   0.2377 H              1 S1                 0.0000
     33 ****         2.6073  -0.9138  -0.0682 H              1 S1                 0.0000
     34 ****         3.0449  -2.6591  -1.4970 H              1 S1                 0.0000
     35 ****         1.8124  -3.5586  -0.6746 H              1 S1                 0.0000
     36 ****         0.4215  -4.9245  -1.7225 H              1 S1                 0.0000
     37 ****        -0.2571  -6.2179  -3.7296 H              1 S1                 0.0000
     38 ****         0.6719  -5.5044  -5.9767 H              1 S1                 0.0000
     39 ****         2.1646  -3.6132  -6.1302 H              1 S1                 0.0000
     40 ****         0.2962   2.0925   3.0845 H              1 S1                 0.0000
     41 ****         1.1379   2.7373   1.6961 H              1 S1                 0.0000
     42 ****        -0.5327   4.4860   1.3658 H              1 S1                 0.0000
     43 ****         0.0856   4.5747   2.9923 H              1 S1                 0.0000
     44 ****        -0.7722   2.2059   0.3573 H              1 S1                 0.0000
     45 ****        -0.4624  -0.6307  -1.6683 LP             1 S1                 0.0000
     46 ****        -0.2951  -2.1691  -2.4462 LP             1 S1                 0.0000
     47 ****         3.1846  -1.6814  -3.2107 LP             1 S1                 0.0000
     48 ****         3.2999  -1.8888  -4.9264 LP             1 S1                 0.0000
@<TRIPOS>BOND
    1    1    2 1     
    2    1   21 1     
    3    1   22 1     
    4    1   23 1     
    5    2   20 1     
    6    2    3 1     
    7    2   24 1     
    8    3    4 1     
    9    3   25 1     
   10    3   26 1     
   11    4    5 1     
   12    4   27 1     
   13    4   28 1     
   14    5    6 1     
   15    5   19 1     
   16    5   44 1     
   17    6    7 1     
   18    6   29 1     
   19    6   30 1     
   20    7    8 1     
   21    7   31 1     
   22    7   32 1     
   23    8    9 am    
   24    8   33 1     
   25    9   10 2     
   26    9   11 1     
   27   11   12 1     
   28   11   34 1     
   29   11   35 1     
   30   12   17 am    
   31   12   13 1     
   32   13   14 2     
   33   13   36 1     
   34   14   15 1     
   35   14   37 1     
   36   15   16 2     
   37   15   38 1     
   38   16   17 1     
   39   16   39 1     
   40   17   18 2     
   41   19   20 1     
   42   19   40 1     
   43   19   41 1     
   44   20   42 1     
   45   20   43 1     
   46   10   45 1     
   47   10   46 1     
   48   18   47 1     
   49   18   48 1     
@<TRIPOS>SUBSTRUCTURE
      1 S1             1
@<TRIPOS>SET
LONE_PAIRS      STATIC     ATOMS    <user>   **** ""
4 45 46 47 48
DONOR_HYDROGENS      STATIC     ATOMS    <user>   **** ""
2 44 33
ATOM$BLUE        STATIC     ATOMS    COLORGROUP SYSTEM
4 45 46 47 48
ATOM$RED        STATIC     ATOMS    COLORGROUP SYSTEM
2 44 33
