AV-unprocessed.smi:1261|AV-procd|sdf|5304|dock2
  -GOLD-   22720 4423D 1   1.00000     0.00000
 Structure written by MMmdl.
 49 50  0  0  0  0  0  0  0  0  3 V2000
  147.1329  127.8041  151.5931 C   0  0  0  0  0  0  0  0  0  0  0  0
  147.2005  129.3366  151.6566 C   0  0  1  0  0  0  0  0  0  0  0  0
  145.8086  129.9492  151.8957 C   0  0  0  0  0  0  0  0  0  0  0  0
  145.8749  131.4819  152.0299 C   0  0  2  0  0  0  0  0  0  0  0  0
  146.0989  132.1925  150.6837 C   0  0  0  0  0  0  0  0  0  0  0  0
  146.9216  131.8886  153.0865 C   0  0  0  0  0  0  0  0  0  0  0  0
  148.2540  131.2942  152.8019 N   0  3  1  0  0  0  0  0  0  0  0  0
  149.3004  131.7977  153.7278 C   0  0  0  0  0  0  0  0  0  0  0  0
  149.1814  133.3092  153.9876 C   0  0  0  0  0  0  0  0  0  0  0  0
  150.5365  133.9498  154.3278 C   0  0  0  0  0  0  0  0  0  0  0  0
  150.5678  135.3609  153.9659 N   0  0  0  0  0  0  0  0  0  0  0  0
  151.3196  136.2955  154.5673 C   0  0  0  0  0  0  0  0  0  0  0  0
  152.0980  136.0492  155.4890 O   0  0  0  0  0  0  0  0  0  0  0  0
  151.1816  137.7244  154.0312 C   0  0  0  0  0  0  0  0  0  0  0  0
  151.3580  138.7237  155.0921 N   0  0  0  0  0  0  0  0  0  0  0  0
  150.2604  138.7508  156.0556 N   0  5  0  0  0  0  0  0  0  0  0  0
  150.3216  139.6122  157.1054 C   0  0  0  0  0  0  0  0  0  0  0  0
  149.4433  139.6815  157.9622 O   0  0  0  0  0  0  0  0  0  0  0  0
  151.4795  140.4848  157.2079 C   0  0  0  0  0  0  0  0  0  0  0  0
  152.4722  140.4464  156.2972 C   0  0  0  0  0  0  0  0  0  0  0  0
  152.4534  139.5329  155.1611 C   0  0  0  0  0  0  0  0  0  0  0  0
  153.3587  139.4914  154.3281 O   0  0  0  0  0  0  0  0  0  0  0  0
  148.1864  129.8099  152.7415 C   0  0  0  0  0  0  0  0  0  0  0  0
  146.7725  127.3829  152.5322 H   0  0  0  0  0  0  0  0  0  0  0  0
  148.1151  127.3755  151.3918 H   0  0  0  0  0  0  0  0  0  0  0  0
  146.4615  127.4728  150.8004 H   0  0  0  0  0  0  0  0  0  0  0  0
  147.5687  129.6830  150.6902 H   0  0  0  0  0  0  0  0  0  0  0  0
  145.1270  129.6700  151.0912 H   0  0  0  0  0  0  0  0  0  0  0  0
  145.3852  129.5313  152.8103 H   0  0  0  0  0  0  0  0  0  0  0  0
  144.9015  131.8161  152.3913 H   0  0  0  0  0  0  0  0  0  0  0  0
  147.0688  131.9502  150.2498 H   0  0  0  0  0  0  0  0  0  0  0  0
  146.0536  133.2754  150.8028 H   0  0  0  0  0  0  0  0  0  0  0  0
  145.3323  131.9126  149.9605 H   0  0  0  0  0  0  0  0  0  0  0  0
  146.9956  132.9763  153.1224 H   0  0  0  0  0  0  0  0  0  0  0  0
  146.5939  131.5666  154.0763 H   0  0  0  0  0  0  0  0  0  0  0  0
  149.2036  131.2856  154.6861 H   0  0  0  0  0  0  0  0  0  0  0  0
  150.2903  131.5471  153.3432 H   0  0  0  0  0  0  0  0  0  0  0  0
  148.7640  133.8090  153.1139 H   0  0  0  0  0  0  0  0  0  0  0  0
  148.4840  133.4844  154.8079 H   0  0  0  0  0  0  0  0  0  0  0  0
  150.7286  133.8728  155.3982 H   0  0  0  0  0  0  0  0  0  0  0  0
  151.3483  133.4186  153.8285 H   0  0  0  0  0  0  0  0  0  0  0  0
  149.9488  135.6626  153.2267 H   0  0  0  0  0  0  0  0  0  0  0  0
  151.9127  137.8798  153.2359 H   0  0  0  0  0  0  0  0  0  0  0  0
  150.2074  137.8413  153.5527 H   0  0  0  0  0  0  0  0  0  0  0  0
  151.5448  141.1803  158.0315 H   0  0  0  0  0  0  0  0  0  0  0  0
  153.3132  141.1137  156.4128 H   0  0  0  0  0  0  0  0  0  0  0  0
  147.8918  129.4203  153.7174 H   0  0  0  0  0  0  0  0  0  0  0  0
  149.1704  129.3969  152.5234 H   0  0  0  0  0  0  0  0  0  0  0  0
  148.5132  131.6151  151.8799 H   0  0  0  0  0  0  0  0  0  0  0  0
  1  2  1  0  0  0  0
  1 24  1  0  0  0  0
  1 25  1  0  0  0  0
  1 26  1  0  0  0  0
  2 23  1  0  0  0  0
  2  3  1  0  0  0  0
  2 27  1  0  0  0  0
  3  4  1  0  0  0  0
  3 28  1  0  0  0  0
  3 29  1  0  0  0  0
  4  5  1  0  0  0  0
  4  6  1  0  0  0  0
  4 30  1  0  0  0  0
  5 31  1  0  0  0  0
  5 32  1  0  0  0  0
  5 33  1  0  0  0  0
  6  7  1  0  0  0  0
  6 34  1  0  0  0  0
  6 35  1  0  0  0  0
  7  8  1  0  0  0  0
  7 23  1  0  0  0  0
  7 49  1  0  0  0  0
  8  9  1  0  0  0  0
  8 36  1  0  0  0  0
  8 37  1  0  0  0  0
  9 10  1  0  0  0  0
  9 38  1  0  0  0  0
  9 39  1  0  0  0  0
 10 11  1  0  0  0  0
 10 40  1  0  0  0  0
 10 41  1  0  0  0  0
 11 12  1  0  0  0  0
 11 42  1  0  0  0  0
 12 13  2  0  0  0  0
 12 14  1  0  0  0  0
 14 43  1  0  0  0  0
 14 44  1  0  0  0  0
 14 15  1  0  0  0  0
 15 16  1  0  0  0  0
 15 21  1  0  0  0  0
 16 17  1  0  0  0  0
 17 18  2  0  0  0  0
 17 19  1  0  0  0  0
 19 45  1  0  0  0  0
 19 20  2  0  0  0  0
 20 46  1  0  0  0  0
 20 21  1  0  0  0  0
 21 22  2  0  0  0  0
 23 47  1  0  0  0  0
 23 48  1  0  0  0  0
M  CHG  1   7   1
M  CHG  1  16  -1
M  END
> <s_m_source_file>
AV-unprocessed.smi

> <i_m_source_file_index>
1261

> <i_lp_mmshare_version>
43012

> <i_f3d_flags>
0

> <s_epik_input>
W0NIM11bQ0BASF0xW0NIMl1bQ0BASF0oW0NIM10pW0NIMl1OKFtDSDJdMSlbQ0gyXVtDSDJdW0NIMl1bTkhdQyg9TylbQ0gyXW4yW25IXWMoPU8pW2NIXVtjSF1jMj1P

> <s_epik_cmdline>
J2VwaWtfcHl0aG9uJywgJy1waCcsICc3LjAnLCAnLXRuJywgJzgnLCAnLW1hJywgJzIwMCcsICctbWV0YWxfYmluZGluZycsICctaW1hZScsICc8aW5maWxlLm1hZT4nLCAnLW9tYWUnLCAnPG91dGZpbGUubWFlPic=

> <r_lp_tautomer_probability>
1

> <r_epik_Ionization_Penalty>
0.0955723

> <r_epik_Ionization_Penalty_Charging>
0.0955723

> <r_epik_Ionization_Penalty_Neutral>
2.68632e-08

> <r_epik_State_Penalty>
0.0334406

> <r_epik_Charging_Adjusted_Penalty>
0.129013

> <i_epik_Tot_Q>
0

> <i_epik_Tot_abs_Q>
2

> <r_epik_Metal_State_Penalty>
0.0334406

> <b_epik_Metal_Only>
0

> <s_lp_Force_Field>
OPLS_2005

> <r_lp_Energy>
33.6406

> <b_lp_Chiralities_Consistent>
1

> <s_lp_Variant>
AV-unprocessed.smi:1261-4

> <Gold.Version>
5.8.1

> <Gold.Id.Protein>
6NUR|6NUR_protein|mol2

> <Gold.PLP.Fitness>
48.8369

> <Gold.PLP.PLP>
-39.6092

> <Gold.PLP.part.hbond>
-6.7813

> <Gold.PLP.part.metal>
0.0000

> <Gold.PLP.part.buried>
-1.4796

> <Gold.PLP.part.nonpolar>
-32.7553

> <Gold.PLP.part.repulsive>
0.1321

> <Gold.PLP.ligand.clash>
0.0000

> <Gold.PLP.ligand.torsion>
1.0815

> <Gold.PLP.Chemscore.Hbond>
3.7697

> <Gold.PLP.Chemscore.CHOScore>
0.0000

> <Gold.PLP.Chemscore.Metal>
0.0000

> <Gold.Chemscore.Hbonds>
donor molecule, donor type, donor heavy atom, donor atom, acceptor molecule, acceptor atom, score
      L1  H     7    49       P1 10747  0.74
      L1  H    11    42       P1  7948  0.15
      P1  H  7997  8010       L1    22  0.10
      P1  H 10752 10764       L1    13  0.41

> <Gold.PLP.Chemscore.Internal.Correction>
0.0817

> <Gold.Rescore>
     Score         DG    S(hbond)    S(metal)    S(lipo)     H(rot)  DE(clash)    DE(int)     intcor
     14.06     -15.31       1.81        0.00      86.78       2.49       0.28       0.97       ----

> <Gold.Chemscore.Fitness>
14.0598

> <Gold.Chemscore.DG>
-15.3053

> <Gold.Chemscore.ZeroCoef>
-5.4800

> <Gold.Chemscore.Hbond>
1.8130

> <Gold.Chemscore.Metal>
0.0000

> <Gold.Chemscore.Lipo>
86.7848

> <Gold.Chemscore.Internal_Hbond>
0.0000

> <Gold.Chemscore.DEClash>
0.2756

> <Gold.Chemscore.DEInternal>
0.9699

> <Gold.Chemscore.Rot>
2.4938

> <Gold.Chemscore.Internal.Correction>
   9.000000E+99

> <Gold.Chemscore.Hbonds>
donor molecule, donor type, donor heavy atom, donor atom, acceptor molecule, acceptor atom, score
      L1  H     7    49       P1 10747  0.74
      P1  H 10752 10764       L1    13  0.34

> <Gold.Chemscore.Hbond.Weighted>
-6.0555

> <Gold.Chemscore.Metal.Weighted>
-0.0000

> <Gold.Chemscore.Lipo.Weighted>
-10.1538

> <Gold.Chemscore.Internal_Hbond.Weighted>
0.0000

> <Gold.Chemscore.DEClash.Weighted>
0.2756

> <Gold.Chemscore.DEInternal.Weighted>
0.9699

> <Gold.Chemscore.Rot.Weighted>
6.3840

> <Gold.Chemscore.Internal.Correction.Weighted>
   9.000000E+99

> <Gold.Protein.RotatedTorsions>
[ 6907 6896 6895 6894 ] final  -55.71 input  -60.11 | X-H torsion
[ 7974 7965 7964 7962 ] final  113.93 input  175.53 | X-H torsion
[ 8008 7997 7996 7995 ] final  102.68 input   59.86 | X-H torsion
[ 10167 10162 10161 10158 ] final    9.62 input  -65.29 | X-H torsion
[ 10718 10713 10712 10709 ] final   45.37 input   66.30 | X-H torsion
[ 10763 10752 10751 10750 ] final  -24.93 input  -60.55 | X-H torsion
[ 11005 11000 10999 10996 ] final   86.33 input  -57.11 | X-H torsion

> <Gold.Protein.ActiveResidues>
 VAL166  LYS551  ARG553  GLY616  TRP617  ASP618  TYR619  PRO620  LYS621  CYS622 
 ASP623  PHE694  ASN695  SER759  ASP760  ASP761  ALA762  ILE779  LEU786  VAL792 
 PHE793  MET794  SER795  GLU796  ALA797  LYS798  CYS799  TRP800  GLU811  SER814 

> <Gold.Protein.RotatedAtoms>
  150.8229  134.7445  159.6787 H   0  0  0  0  0  0  0  0  0  0  0  0  # atno 6907 bound_to 6896
  152.4343  134.5714  159.9932 H   0  0  0  0  0  0  0  0  0  0  0  0  # atno 6908 bound_to 6896
  151.5894  133.3331  159.3060 H   0  0  0  0  0  0  0  0  0  0  0  0  # atno 6909 bound_to 6896
  145.2108  139.2907  143.4269 H   0  0  0  0  0  0  0  0  0  0  0  0  # atno 7974 bound_to 7965
  156.1415  140.3177  155.8502 H   0  0  0  0  0  0  0  0  0  0  0  0  # atno 8008 bound_to 7997
  155.4146  140.0508  157.3046 H   0  0  0  0  0  0  0  0  0  0  0  0  # atno 8009 bound_to 7997
  154.4980  140.2118  155.9418 H   0  0  0  0  0  0  0  0  0  0  0  0  # atno 8010 bound_to 7997
  140.6244  143.8134  150.7214 H   0  0  0  0  0  0  0  0  0  0  0  0  # atno 10167 bound_to 10162
  157.4369  130.8058  149.7656 H   0  0  0  0  0  0  0  0  0  0  0  0  # atno 10718 bound_to 10713
  153.6916  135.6961  153.5088 H   0  0  0  0  0  0  0  0  0  0  0  0  # atno 10763 bound_to 10752
  153.2409  135.4306  155.0696 H   0  0  0  0  0  0  0  0  0  0  0  0  # atno 10764 bound_to 10752
  154.8371  135.3507  154.6457 H   0  0  0  0  0  0  0  0  0  0  0  0  # atno 10765 bound_to 10752
  139.8947  134.8348  156.2706 H   0  0  0  0  0  0  0  0  0  0  0  0  # atno 11005 bound_to 11000
  146.3398  140.2383  142.8595 LP  0  0  0  0  0  0  0  0  0  0  0  0  # atno 17320 bound_to 7965
  144.9858  140.8501  143.5369 LP  0  0  0  0  0  0  0  0  0  0  0  0  # atno 17321 bound_to 7965
  140.1731  143.4177  152.1986 LP  0  0  0  0  0  0  0  0  0  0  0  0  # atno 17342 bound_to 10162
  139.5467  144.7304  151.4563 LP  0  0  0  0  0  0  0  0  0  0  0  0  # atno 17343 bound_to 10162
  155.9934  130.3925  150.2903 LP  0  0  0  0  0  0  0  0  0  0  0  0  # atno 17370 bound_to 10713
  157.1065  131.0209  151.3065 LP  0  0  0  0  0  0  0  0  0  0  0  0  # atno 17371 bound_to 10713
  141.0103  133.7099  156.1101 LP  0  0  0  0  0  0  0  0  0  0  0  0  # atno 17394 bound_to 11000
  140.7376  134.4185  157.5558 LP  0  0  0  0  0  0  0  0  0  0  0  0  # atno 17395 bound_to 11000

$$$$
