AV-unprocessed.smi:773|AV-procd|sdf|3690|dock7
  -GOLD-   22720 1103D 1   1.00000     0.00000
 Structure written by MMmdl.
 39 40  0  0  0  0  0  0  0  0  1 V2000
  149.6104  141.5746  157.1886 C   0  0  0  0  0  0  0  0  0  0  0  0
  150.7104  140.6905  156.6762 C   0  0  0  0  0  0  0  0  0  0  0  0
  151.7957  140.5068  157.4090 N   0  0  0  0  0  0  0  0  0  0  0  0
  152.6254  139.6673  156.6595 O   0  0  0  0  0  0  0  0  0  0  0  0
  151.9984  139.3745  155.4919 C   0  0  0  0  0  0  0  0  0  0  0  0
  152.7355  138.5010  154.5348 C   0  0  0  0  0  0  0  0  0  0  0  0
  150.7774  139.9878  155.4388 C   0  0  0  0  0  0  0  0  0  0  0  0
  149.7565  139.9598  154.3272 C   0  0  0  0  0  0  0  0  0  0  0  0
  148.4445  139.2449  154.7225 C   0  0  1  0  0  0  0  0  0  0  0  0
  147.2192  139.9127  154.0840 C   0  0  0  0  0  0  0  0  0  0  0  0
  148.4773  137.8317  154.3436 N   0  0  0  0  0  0  0  0  0  0  0  0
  148.5090  136.7948  155.1941 C   0  0  0  0  0  0  0  0  0  0  0  0
  148.4295  136.8984  156.4185 O   0  0  0  0  0  0  0  0  0  0  0  0
  148.6860  135.6332  154.5524 N   0  0  0  0  0  0  0  0  0  0  0  0
  148.8874  134.3545  155.2211 C   0  0  0  0  0  0  0  0  0  0  0  0
  150.2845  134.2026  155.8431 C   0  0  0  0  0  0  0  0  0  0  0  0
  150.2778  132.7617  155.3185 C   0  0  0  0  0  0  0  0  0  0  0  0
  149.2758  133.2281  154.2544 C   0  0  0  0  0  0  0  0  0  0  0  0
  149.2866  142.2775  156.4209 H   0  0  0  0  0  0  0  0  0  0  0  0
  149.9297  142.1577  158.0533 H   0  0  0  0  0  0  0  0  0  0  0  0
  148.7437  140.9843  157.4860 H   0  0  0  0  0  0  0  0  0  0  0  0
  152.0837  137.7202  154.1428 H   0  0  0  0  0  0  0  0  0  0  0  0
  153.5873  138.0201  155.0161 H   0  0  0  0  0  0  0  0  0  0  0  0
  153.1088  139.0845  153.6932 H   0  0  0  0  0  0  0  0  0  0  0  0
  149.5229  140.9749  154.0043 H   0  0  0  0  0  0  0  0  0  0  0  0
  150.1750  139.4700  153.4473 H   0  0  0  0  0  0  0  0  0  0  0  0
  148.3302  139.3245  155.8050 H   0  0  0  0  0  0  0  0  0  0  0  0
  147.1540  140.9635  154.3672 H   0  0  0  0  0  0  0  0  0  0  0  0
  146.2965  139.4279  154.4047 H   0  0  0  0  0  0  0  0  0  0  0  0
  147.2605  139.8633  152.9953 H   0  0  0  0  0  0  0  0  0  0  0  0
  148.5452  137.6321  153.3567 H   0  0  0  0  0  0  0  0  0  0  0  0
  148.7402  135.6404  153.5445 H   0  0  0  0  0  0  0  0  0  0  0  0
  148.0859  134.0632  155.9031 H   0  0  0  0  0  0  0  0  0  0  0  0
  151.0468  134.8223  155.3661 H   0  0  0  0  0  0  0  0  0  0  0  0
  150.3120  134.2946  156.9292 H   0  0  0  0  0  0  0  0  0  0  0  0
  151.2337  132.4134  154.9265 H   0  0  0  0  0  0  0  0  0  0  0  0
  149.8466  132.0533  156.0280 H   0  0  0  0  0  0  0  0  0  0  0  0
  148.4785  132.5168  154.0368 H   0  0  0  0  0  0  0  0  0  0  0  0
  149.7645  133.5806  153.3439 H   0  0  0  0  0  0  0  0  0  0  0  0
  1  2  1  0  0  0  0
  1 19  1  0  0  0  0
  1 20  1  0  0  0  0
  1 21  1  0  0  0  0
  2  7  1  0  0  0  0
  2  3  2  0  0  0  0
  3  4  1  0  0  0  0
  4  5  1  0  0  0  0
  5  6  1  0  0  0  0
  5  7  2  0  0  0  0
  6 22  1  0  0  0  0
  6 23  1  0  0  0  0
  6 24  1  0  0  0  0
  7  8  1  0  0  0  0
  8  9  1  0  0  0  0
  8 25  1  0  0  0  0
  8 26  1  0  0  0  0
  9 10  1  0  0  0  0
  9 11  1  0  0  0  0
  9 27  1  0  0  0  0
 10 28  1  0  0  0  0
 10 29  1  0  0  0  0
 10 30  1  0  0  0  0
 11 12  1  0  0  0  0
 11 31  1  0  0  0  0
 12 13  2  0  0  0  0
 12 14  1  0  0  0  0
 14 15  1  0  0  0  0
 14 32  1  0  0  0  0
 15 18  1  0  0  0  0
 15 16  1  0  0  0  0
 15 33  1  0  0  0  0
 16 17  1  0  0  0  0
 16 34  1  0  0  0  0
 16 35  1  0  0  0  0
 17 18  1  0  0  0  0
 17 36  1  0  0  0  0
 17 37  1  0  0  0  0
 18 38  1  0  0  0  0
 18 39  1  0  0  0  0
M  END
> <s_m_source_file>
AV-unprocessed.smi

> <i_m_source_file_index>
773

> <i_lp_mmshare_version>
43012

> <i_f3d_flags>
0

> <s_epik_input>
W0NIM11jMW5vYyhbQ0gzXSljMVtDSDJdW0NASF0oW0NIM10pW05IXUMoPU8pW05IXVtDSF0yW0NIMl1bQ0gyXVtDSDJdMg==

> <s_epik_cmdline>
J2VwaWtfcHl0aG9uJywgJy1waCcsICc3LjAnLCAnLXRuJywgJzgnLCAnLW1hJywgJzIwMCcsICctbWV0YWxfYmluZGluZycsICctaW1hZScsICc8aW5maWxlLm1hZT4nLCAnLW9tYWUnLCAnPG91dGZpbGUubWFlPic=

> <r_lp_tautomer_probability>
1

> <r_epik_Ionization_Penalty>
6.63278e-05

> <r_epik_Ionization_Penalty_Charging>
0

> <r_epik_Ionization_Penalty_Neutral>
6.63278e-05

> <r_epik_State_Penalty>
-0

> <r_epik_Charging_Adjusted_Penalty>
0

> <i_epik_Tot_Q>
0

> <i_epik_Tot_abs_Q>
0

> <r_epik_Metal_State_Penalty>
-0

> <b_epik_Metal_Only>
0

> <s_lp_Force_Field>
OPLS_2005

> <r_lp_Energy>
6.89309

> <b_lp_Chiralities_Consistent>
1

> <s_lp_Variant>
AV-unprocessed.smi:773-2

> <Gold.Version>
5.8.1

> <Gold.Id.Protein>
6NUR|6NUR_protein|mol2

> <Gold.PLP.Fitness>
37.2008

> <Gold.PLP.PLP>
-29.3431

> <Gold.PLP.part.hbond>
-3.0000

> <Gold.PLP.part.metal>
0.0000

> <Gold.PLP.part.buried>
-3.6292

> <Gold.PLP.part.nonpolar>
-23.9652

> <Gold.PLP.part.repulsive>
0.0194

> <Gold.PLP.ligand.clash>
0.0000

> <Gold.PLP.ligand.torsion>
0.6624

> <Gold.PLP.Chemscore.Hbond>
2.9760

> <Gold.PLP.Chemscore.CHOScore>
0.0000

> <Gold.PLP.Chemscore.Metal>
0.0000

> <Gold.Chemscore.Hbonds>
donor molecule, donor type, donor heavy atom, donor atom, acceptor molecule, acceptor atom, score
      L1  H    11    31       P1  7948  0.86
      L1  H    14    32       P1  7948  1.00
      P1  H  7997  8010       L1     4  1.00

> <Gold.PLP.Chemscore.Internal.Correction>
0.2544

> <Gold.Rescore>
     Score         DG    S(hbond)    S(metal)    S(lipo)     H(rot)  DE(clash)    DE(int)     intcor
     18.15     -18.85       2.70        0.00      71.22       1.56       0.01       0.69       ----

> <Gold.Chemscore.Fitness>
18.1525

> <Gold.Chemscore.DG>
-18.8470

> <Gold.Chemscore.ZeroCoef>
-5.4800

> <Gold.Chemscore.Hbond>
2.7050

> <Gold.Chemscore.Metal>
0.0000

> <Gold.Chemscore.Lipo>
71.2169

> <Gold.Chemscore.Internal_Hbond>
0.0000

> <Gold.Chemscore.DEClash>
0.0057

> <Gold.Chemscore.DEInternal>
0.6888

> <Gold.Chemscore.Rot>
1.5625

> <Gold.Chemscore.Internal.Correction>
   9.000000E+99

> <Gold.Chemscore.Hbonds>
donor molecule, donor type, donor heavy atom, donor atom, acceptor molecule, acceptor atom, score
      L1  H    11    31       P1  7948  0.79
      L1  H    14    32       P1  7948  0.97
      P1  H  7997  8010       L1     4  0.73

> <Gold.Chemscore.Hbond.Weighted>
-9.0346

> <Gold.Chemscore.Metal.Weighted>
-0.0000

> <Gold.Chemscore.Lipo.Weighted>
-8.3324

> <Gold.Chemscore.Internal_Hbond.Weighted>
0.0000

> <Gold.Chemscore.DEClash.Weighted>
0.0057

> <Gold.Chemscore.DEInternal.Weighted>
0.6888

> <Gold.Chemscore.Rot.Weighted>
4.0000

> <Gold.Chemscore.Internal.Correction.Weighted>
   9.000000E+99

> <Gold.Protein.RotatedTorsions>
[ 6907 6896 6895 6894 ] final   66.71 input  -60.11 | X-H torsion
[ 7974 7965 7964 7962 ] final    7.71 input  175.53 | X-H torsion
[ 8008 7997 7996 7995 ] final   77.32 input   59.86 | X-H torsion
[ 10167 10162 10161 10158 ] final  -67.16 input  -65.29 | X-H torsion
[ 10718 10713 10712 10709 ] final  -11.91 input   66.30 | X-H torsion
[ 10763 10752 10751 10750 ] final  164.51 input  -60.55 | X-H torsion
[ 11005 11000 10999 10996 ] final   -0.37 input  -57.11 | X-H torsion

> <Gold.Protein.ActiveResidues>
 VAL166  LYS551  ARG553  GLY616  TRP617  ASP618  TYR619  PRO620  LYS621  CYS622 
 ASP623  PHE694  ASN695  SER759  ASP760  ASP761  ALA762  ILE779  LEU786  VAL792 
 PHE793  MET794  SER795  GLU796  ALA797  LYS798  CYS799  TRP800  GLU811  SER814 

> <Gold.Protein.RotatedAtoms>
  152.4500  134.5413  159.9839 H   0  0  0  0  0  0  0  0  0  0  0  0  # atno 6907 bound_to 6896
  151.5488  133.3415  159.2957 H   0  0  0  0  0  0  0  0  0  0  0  0  # atno 6908 bound_to 6896
  150.8427  134.7756  159.7008 H   0  0  0  0  0  0  0  0  0  0  0  0  # atno 6909 bound_to 6896
  146.2424  140.0042  142.8413 H   0  0  0  0  0  0  0  0  0  0  0  0  # atno 7974 bound_to 7965
  155.8399  140.3462  155.5625 H   0  0  0  0  0  0  0  0  0  0  0  0  # atno 8008 bound_to 7997
  155.8152  140.0904  157.1901 H   0  0  0  0  0  0  0  0  0  0  0  0  # atno 8009 bound_to 7997
  154.4005  140.1440  156.3421 H   0  0  0  0  0  0  0  0  0  0  0  0  # atno 8010 bound_to 7997
  140.5604  143.2312  151.6739 H   0  0  0  0  0  0  0  0  0  0  0  0  # atno 10167 bound_to 10162
  156.6522  130.4958  149.6058 H   0  0  0  0  0  0  0  0  0  0  0  0  # atno 10718 bound_to 10713
  154.3099  135.2757  155.2571 H   0  0  0  0  0  0  0  0  0  0  0  0  # atno 10763 bound_to 10752
  154.4970  135.5818  153.6505 H   0  0  0  0  0  0  0  0  0  0  0  0  # atno 10764 bound_to 10752
  152.9889  135.6148  154.3276 H   0  0  0  0  0  0  0  0  0  0  0  0  # atno 10765 bound_to 10752
  140.6356  133.9536  155.8298 H   0  0  0  0  0  0  0  0  0  0  0  0  # atno 11005 bound_to 11000
  145.1388  140.9559  143.4501 LP  0  0  0  0  0  0  0  0  0  0  0  0  # atno 17320 bound_to 7965
  145.0316  139.3336  143.6021 LP  0  0  0  0  0  0  0  0  0  0  0  0  # atno 17321 bound_to 7965
  139.5067  144.3672  152.0506 LP  0  0  0  0  0  0  0  0  0  0  0  0  # atno 17342 bound_to 10162
  140.2797  144.3873  150.6123 LP  0  0  0  0  0  0  0  0  0  0  0  0  # atno 17343 bound_to 10162
  156.2075  130.6658  151.1234 LP  0  0  0  0  0  0  0  0  0  0  0  0  # atno 17370 bound_to 10713
  157.7137  131.0721  150.6407 LP  0  0  0  0  0  0  0  0  0  0  0  0  # atno 17371 bound_to 10713
  141.0644  134.0298  157.3614 LP  0  0  0  0  0  0  0  0  0  0  0  0  # atno 17394 bound_to 11000
  139.9099  135.0188  156.7649 LP  0  0  0  0  0  0  0  0  0  0  0  0  # atno 17395 bound_to 11000

$$$$
