AV-unprocessed.smi:2456|AV-procd|sdf|9701|dock8
  -GOLD-   2272013343D 1   1.00000     0.00000
 Structure written by MMmdl.
 34 35  0  0  0  0  0  0  0  0  1 V2000
  146.9687  140.7733  154.2386 C   0  0  0  0  0  0  0  0  0  0  0  0
  147.9301  139.5914  154.4923 C   0  0  1  0  0  0  0  0  0  0  0  0
  147.5812  138.4066  153.7008 N   0  0  0  0  0  0  0  0  0  0  0  0
  146.3826  137.8095  153.5915 C   0  0  0  0  0  0  0  0  0  0  0  0
  145.3539  138.2313  154.1195 O   0  0  0  0  0  0  0  0  0  0  0  0
  146.4630  136.7081  152.8247 N   0  0  0  0  0  0  0  0  0  0  0  0
  145.4261  135.8037  152.4748 C   0  0  0  0  0  0  0  0  0  0  0  0
  144.6295  135.1896  153.3575 N   0  0  0  0  0  0  0  0  0  0  0  0
  143.6991  134.3557  152.7328 C   0  0  0  0  0  0  0  0  0  0  0  0
  143.8027  134.3461  151.3641 C   0  0  0  0  0  0  0  0  0  0  0  0
  145.0798  135.3912  150.8021 S   0  0  0  0  0  0  0  0  0  0  0  0
  149.4257  139.9483  154.3628 C   0  0  0  0  0  0  0  0  0  0  0  0
  149.7405  141.0346  153.8750 O   0  0  0  0  0  0  0  0  0  0  0  0
  150.3564  139.0574  154.7713 N   0  0  0  0  0  0  0  0  0  0  0  0
  151.8088  139.2205  154.6951 C   0  0  0  0  0  0  0  0  0  0  0  0
  152.4018  138.0472  155.4756 C   0  0  0  0  0  0  0  0  0  0  0  0
  151.3277  136.9714  155.4069 C   0  0  0  0  0  0  0  0  0  0  0  0
  150.0178  137.7568  155.3473 C   0  0  0  0  0  0  0  0  0  0  0  0
  147.1577  141.5834  154.9436 H   0  0  0  0  0  0  0  0  0  0  0  0
  145.9303  140.4672  154.3673 H   0  0  0  0  0  0  0  0  0  0  0  0
  147.0695  141.1900  153.2364 H   0  0  0  0  0  0  0  0  0  0  0  0
  147.7624  139.3040  155.5303 H   0  0  0  0  0  0  0  0  0  0  0  0
  148.3482  137.9771  153.2051 H   0  0  0  0  0  0  0  0  0  0  0  0
  147.3738  136.4861  152.4515 H   0  0  0  0  0  0  0  0  0  0  0  0
  142.9975  133.8039  153.3409 H   0  0  0  0  0  0  0  0  0  0  0  0
  143.2070  133.7900  150.6555 H   0  0  0  0  0  0  0  0  0  0  0  0
  152.1177  139.1749  153.6498 H   0  0  0  0  0  0  0  0  0  0  0  0
  152.1479  140.1693  155.1108 H   0  0  0  0  0  0  0  0  0  0  0  0
  153.3602  137.7145  155.0761 H   0  0  0  0  0  0  0  0  0  0  0  0
  152.5566  138.3411  156.5146 H   0  0  0  0  0  0  0  0  0  0  0  0
  151.4490  136.3920  154.4909 H   0  0  0  0  0  0  0  0  0  0  0  0
  151.3676  136.2789  156.2482 H   0  0  0  0  0  0  0  0  0  0  0  0
  149.6169  137.9091  156.3505 H   0  0  0  0  0  0  0  0  0  0  0  0
  149.2665  137.2277  154.7588 H   0  0  0  0  0  0  0  0  0  0  0  0
  1  2  1  0  0  0  0
  1 19  1  0  0  0  0
  1 20  1  0  0  0  0
  1 21  1  0  0  0  0
  2  3  1  0  0  0  0
  2 12  1  0  0  0  0
  2 22  1  0  0  0  0
  3  4  1  0  0  0  0
  3 23  1  0  0  0  0
  4  5  2  0  0  0  0
  4  6  1  0  0  0  0
  6  7  1  0  0  0  0
  6 24  1  0  0  0  0
  7 11  1  0  0  0  0
  7  8  2  0  0  0  0
  8  9  1  0  0  0  0
  9 10  2  0  0  0  0
  9 25  1  0  0  0  0
 10 11  1  0  0  0  0
 10 26  1  0  0  0  0
 12 13  2  0  0  0  0
 12 14  1  0  0  0  0
 14 18  1  0  0  0  0
 14 15  1  0  0  0  0
 15 16  1  0  0  0  0
 15 27  1  0  0  0  0
 15 28  1  0  0  0  0
 16 17  1  0  0  0  0
 16 29  1  0  0  0  0
 16 30  1  0  0  0  0
 17 18  1  0  0  0  0
 17 31  1  0  0  0  0
 17 32  1  0  0  0  0
 18 33  1  0  0  0  0
 18 34  1  0  0  0  0
M  END
> <s_m_source_file>
AV-unprocessed.smi

> <i_m_source_file_index>
2456

> <i_lp_mmshare_version>
43012

> <i_f3d_flags>
0

> <s_epik_input>
W0NIMl0xW0NIMl1bQ0gyXVtDSDJdTjFDKD1PKVtDQEhdKFtDSDNdKVtOSF1DKD1PKVtOSF1jMm5bY0hdW2NIXXMy

> <s_epik_cmdline>
J2VwaWtfcHl0aG9uJywgJy1waCcsICc3LjAnLCAnLXRuJywgJzgnLCAnLW1hJywgJzIwMCcsICctbWV0YWxfYmluZGluZycsICctaW1hZScsICc8aW5maWxlLm1hZT4nLCAnLW9tYWUnLCAnPG91dGZpbGUubWFlPic=

> <r_lp_tautomer_probability>
1

> <r_epik_Ionization_Penalty>
0.000150201

> <r_epik_Ionization_Penalty_Charging>
0

> <r_epik_Ionization_Penalty_Neutral>
0.000150201

> <r_epik_State_Penalty>
-0

> <r_epik_Charging_Adjusted_Penalty>
0

> <i_epik_Tot_Q>
0

> <i_epik_Tot_abs_Q>
0

> <r_epik_Metal_State_Penalty>
0.0705602

> <b_epik_Metal_Only>
0

> <s_lp_Force_Field>
OPLS_2005

> <r_lp_Energy>
30.7

> <b_lp_Chiralities_Consistent>
1

> <s_lp_Variant>
AV-unprocessed.smi:2456-2

> <Gold.Version>
5.8.1

> <Gold.Id.Protein>
6NUR|6NUR_protein|mol2

> <Gold.PLP.Fitness>
37.2557

> <Gold.PLP.PLP>
-24.7880

> <Gold.PLP.part.hbond>
-3.5928

> <Gold.PLP.part.metal>
0.0000

> <Gold.PLP.part.buried>
-1.7176

> <Gold.PLP.part.nonpolar>
-21.6411

> <Gold.PLP.part.repulsive>
1.8797

> <Gold.PLP.ligand.clash>
0.0000

> <Gold.PLP.ligand.torsion>
0.6441

> <Gold.PLP.Chemscore.Hbond>
2.5570

> <Gold.PLP.Chemscore.CHOScore>
1.9812

> <Gold.PLP.Chemscore.Metal>
0.0000

> <Gold.Chemscore.Hbonds>
donor molecule, donor type, donor heavy atom, donor atom, acceptor molecule, acceptor atom, score
      L1  H     3    23       P1  7948  0.37
      L1  H     6    24       P1  7948  1.00
      P1  H  7989  7998       L1    13  0.38
      P1  H  8011  8017       L1    13  0.80
      L1  C     9    25       P1 10957  1.00
      L1  C    10    26       P1 10186  0.96

> <Gold.PLP.Chemscore.Internal.Correction>
0.1413

> <Gold.Rescore>
     Score         DG    S(hbond)    S(metal)    S(lipo)     H(rot)  DE(clash)    DE(int)     intcor
     13.86     -18.25       2.97        0.00      53.71       1.34       2.07       2.32       ----

> <Gold.Chemscore.Fitness>
13.8619

> <Gold.Chemscore.DG>
-18.2507

> <Gold.Chemscore.ZeroCoef>
-5.4800

> <Gold.Chemscore.Hbond>
2.9727

> <Gold.Chemscore.Metal>
0.0000

> <Gold.Chemscore.Lipo>
53.7145

> <Gold.Chemscore.Internal_Hbond>
0.0000

> <Gold.Chemscore.DEClash>
2.0718

> <Gold.Chemscore.DEInternal>
2.3170

> <Gold.Chemscore.Rot>
1.3448

> <Gold.Chemscore.Internal.Correction>
   9.000000E+99

> <Gold.Chemscore.Hbonds>
donor molecule, donor type, donor heavy atom, donor atom, acceptor molecule, acceptor atom, score
      L1  H     3    23       P1  7948  0.35
      L1  H     6    24       P1  7948  1.00
      P1  H  7989  7998       L1    13  0.21
      P1  H  8011  8017       L1    13  0.75

> <Gold.Chemscore.Hbond.Weighted>
-9.9289

> <Gold.Chemscore.Metal.Weighted>
-0.0000

> <Gold.Chemscore.Lipo.Weighted>
-6.2846

> <Gold.Chemscore.Internal_Hbond.Weighted>
0.0000

> <Gold.Chemscore.DEClash.Weighted>
2.0718

> <Gold.Chemscore.DEInternal.Weighted>
2.3170

> <Gold.Chemscore.Rot.Weighted>
3.4427

> <Gold.Chemscore.Internal.Correction.Weighted>
   9.000000E+99

> <Gold.Protein.RotatedTorsions>
[ 6907 6896 6895 6894 ] final  -22.98 input  -60.11 | X-H torsion
[ 7974 7965 7964 7962 ] final   74.29 input  175.53 | X-H torsion
[ 8008 7997 7996 7995 ] final   82.22 input   59.86 | X-H torsion
[ 10167 10162 10161 10158 ] final  142.71 input  -65.29 | X-H torsion
[ 10718 10713 10712 10709 ] final -140.53 input   66.30 | X-H torsion
[ 10763 10752 10751 10750 ] final   34.86 input  -60.55 | X-H torsion
[ 11005 11000 10999 10996 ] final   68.98 input  -57.11 | X-H torsion

> <Gold.Protein.ActiveResidues>
 VAL166  LYS551  ARG553  GLY616  TRP617  ASP618  TYR619  PRO620  LYS621  CYS622 
 ASP623  PHE694  ASN695  SER759  ASP760  ASP761  ALA762  ILE779  LEU786  VAL792 
 PHE793  MET794  SER795  GLU796  ALA797  LYS798  CYS799  TRP800  GLU811  SER814 

> <Gold.Protein.RotatedAtoms>
  151.2106  135.0480  159.8909 H   0  0  0  0  0  0  0  0  0  0  0  0  # atno 6907 bound_to 6896
  152.5425  134.0749  159.8220 H   0  0  0  0  0  0  0  0  0  0  0  0  # atno 6908 bound_to 6896
  151.0902  133.5274  159.2647 H   0  0  0  0  0  0  0  0  0  0  0  0  # atno 6909 bound_to 6896
  145.7302  139.2681  143.1546 H   0  0  0  0  0  0  0  0  0  0  0  0  # atno 7974 bound_to 7965
  155.9076  140.3429  155.6074 H   0  0  0  0  0  0  0  0  0  0  0  0  # atno 8008 bound_to 7997
  155.7426  140.0809  157.2258 H   0  0  0  0  0  0  0  0  0  0  0  0  # atno 8009 bound_to 7997
  154.4051  140.1568  156.2620 H   0  0  0  0  0  0  0  0  0  0  0  0  # atno 8010 bound_to 7997
  139.4987  144.6089  151.6317 H   0  0  0  0  0  0  0  0  0  0  0  0  # atno 10167 bound_to 10162
  156.3233  130.7546  151.1649 H   0  0  0  0  0  0  0  0  0  0  0  0  # atno 10718 bound_to 10713
  153.0145  135.6349  154.1736 H   0  0  0  0  0  0  0  0  0  0  0  0  # atno 10763 bound_to 10752
  154.1476  135.2831  155.3146 H   0  0  0  0  0  0  0  0  0  0  0  0  # atno 10764 bound_to 10752
  154.6078  135.5566  153.7502 H   0  0  0  0  0  0  0  0  0  0  0  0  # atno 10765 bound_to 10752
  139.9680  134.6949  156.0506 H   0  0  0  0  0  0  0  0  0  0  0  0  # atno 11005 bound_to 11000
  146.0545  140.8035  142.9765 LP  0  0  0  0  0  0  0  0  0  0  0  0  # atno 17320 bound_to 7965
  144.6895  140.3102  143.7249 LP  0  0  0  0  0  0  0  0  0  0  0  0  # atno 17321 bound_to 7965
  140.5758  144.0031  150.6241 LP  0  0  0  0  0  0  0  0  0  0  0  0  # atno 17342 bound_to 10162
  140.3164  143.3165  152.0828 LP  0  0  0  0  0  0  0  0  0  0  0  0  # atno 17343 bound_to 10162
  157.7416  131.0501  150.5084 LP  0  0  0  0  0  0  0  0  0  0  0  0  # atno 17370 bound_to 10713
  156.5239  130.4168  149.6236 LP  0  0  0  0  0  0  0  0  0  0  0  0  # atno 17371 bound_to 10713
  141.1359  133.6575  156.3594 LP  0  0  0  0  0  0  0  0  0  0  0  0  # atno 17394 bound_to 11000
  140.5355  134.6171  157.5363 LP  0  0  0  0  0  0  0  0  0  0  0  0  # atno 17395 bound_to 11000

$$$$
