AV-unprocessed.smi:3169|AV-procd|sdf|12106|dock6
  -GOLD-   2272017543D 1   1.00000     0.00000
 Structure written by MMmdl.
 35 36  0  0  0  0  0  0  0  0  1 V2000
  146.1332  138.7740  154.0159 O   0  0  0  0  0  0  0  0  0  0  0  0
  146.9570  138.1069  153.3900 C   0  0  0  0  0  0  0  0  0  0  0  0
  146.6465  137.0440  152.6362 N   0  0  0  0  0  0  0  0  0  0  0  0
  145.2933  136.5543  152.3917 C   0  0  0  0  0  0  0  0  0  0  0  0
  145.0967  136.0613  150.9446 C   0  0  0  0  0  0  0  0  0  0  0  0
  145.3072  134.6316  150.8145 N   0  0  0  0  0  0  0  0  0  0  0  0
  146.4671  133.9252  151.1027 C   0  0  0  0  0  0  0  0  0  0  0  0
  146.2011  132.6034  150.8238 C   0  0  0  0  0  0  0  0  0  0  0  0
  144.8921  132.4747  150.3652 N   0  0  0  0  0  0  0  0  0  0  0  0
  144.4254  133.7163  150.3885 C   0  0  0  0  0  0  0  0  0  0  0  0
  148.2696  138.3721  153.3569 N   0  0  0  0  0  0  0  0  0  0  0  0
  148.9061  139.5153  153.9998 C   0  0  0  0  0  0  0  0  0  0  0  0
  150.0853  139.0763  154.8844 C   0  0  1  0  0  0  0  0  0  0  0  0
  150.9755  138.0091  154.2512 C   0  0  0  0  0  0  0  0  0  0  0  0
  152.3244  138.2240  154.9226 C   0  0  0  0  0  0  0  0  0  0  0  0
  152.1895  139.5862  155.6097 C   0  0  0  0  0  0  0  0  0  0  0  0
  150.9948  140.1466  155.0850 O   0  0  0  0  0  0  0  0  0  0  0  0
  147.3964  136.5631  152.1610 H   0  0  0  0  0  0  0  0  0  0  0  0
  145.0927  135.7428  153.0916 H   0  0  0  0  0  0  0  0  0  0  0  0
  144.5735  137.3420  152.6192 H   0  0  0  0  0  0  0  0  0  0  0  0
  144.0836  136.2881  150.6109 H   0  0  0  0  0  0  0  0  0  0  0  0
  145.7702  136.5796  150.2608 H   0  0  0  0  0  0  0  0  0  0  0  0
  147.3602  134.4079  151.4709 H   0  0  0  0  0  0  0  0  0  0  0  0
  146.8462  131.7423  150.9167 H   0  0  0  0  0  0  0  0  0  0  0  0
  143.4202  133.9675  150.0822 H   0  0  0  0  0  0  0  0  0  0  0  0
  148.8658  137.7680  152.8101 H   0  0  0  0  0  0  0  0  0  0  0  0
  149.2448  140.2238  153.2422 H   0  0  0  0  0  0  0  0  0  0  0  0
  148.1577  140.0340  154.5995 H   0  0  0  0  0  0  0  0  0  0  0  0
  149.7310  138.7253  155.8557 H   0  0  0  0  0  0  0  0  0  0  0  0
  150.5848  137.0012  154.3941 H   0  0  0  0  0  0  0  0  0  0  0  0
  151.0715  138.1833  153.1785 H   0  0  0  0  0  0  0  0  0  0  0  0
  152.5399  137.4434  155.6531 H   0  0  0  0  0  0  0  0  0  0  0  0
  153.1275  138.2242  154.1848 H   0  0  0  0  0  0  0  0  0  0  0  0
  152.0820  139.4626  156.6882 H   0  0  0  0  0  0  0  0  0  0  0  0
  153.0448  140.2365  155.4251 H   0  0  0  0  0  0  0  0  0  0  0  0
  1  2  2  0  0  0  0
  2  3  1  0  0  0  0
  2 11  1  0  0  0  0
  3  4  1  0  0  0  0
  3 18  1  0  0  0  0
  4  5  1  0  0  0  0
  4 19  1  0  0  0  0
  4 20  1  0  0  0  0
  5  6  1  0  0  0  0
  5 21  1  0  0  0  0
  5 22  1  0  0  0  0
  6 10  1  0  0  0  0
  6  7  1  0  0  0  0
  7  8  2  0  0  0  0
  7 23  1  0  0  0  0
  8  9  1  0  0  0  0
  8 24  1  0  0  0  0
  9 10  2  0  0  0  0
 10 25  1  0  0  0  0
 11 12  1  0  0  0  0
 11 26  1  0  0  0  0
 12 13  1  0  0  0  0
 12 27  1  0  0  0  0
 12 28  1  0  0  0  0
 13 17  1  0  0  0  0
 13 14  1  0  0  0  0
 13 29  1  0  0  0  0
 14 15  1  0  0  0  0
 14 30  1  0  0  0  0
 14 31  1  0  0  0  0
 15 16  1  0  0  0  0
 15 32  1  0  0  0  0
 15 33  1  0  0  0  0
 16 17  1  0  0  0  0
 16 34  1  0  0  0  0
 16 35  1  0  0  0  0
M  END
> <s_m_source_file>
AV-unprocessed.smi

> <i_m_source_file_index>
3169

> <i_lp_mmshare_version>
43012

> <i_f3d_flags>
0

> <s_epik_input>
TzFbQ0gyXVtDSDJdW0NIMl1bQ0BIXTFbQ0gyXVtOSF1DKD1PKVtOSF1bQ0gyXVtDSDJdbjJbY0hdW2NIXW5bY0hdMg==

> <s_epik_cmdline>
J2VwaWtfcHl0aG9uJywgJy1waCcsICc3LjAnLCAnLXRuJywgJzgnLCAnLW1hJywgJzIwMCcsICctbWV0YWxfYmluZGluZycsICctaW1hZScsICc8aW5maWxlLm1hZT4nLCAnLW9tYWUnLCAnPG91dGZpbGUubWFlPic=

> <r_lp_tautomer_probability>
1

> <r_epik_Ionization_Penalty>
0.620462

> <r_epik_Ionization_Penalty_Charging>
0.620414

> <r_epik_Ionization_Penalty_Neutral>
4.72016e-05

> <r_epik_State_Penalty>
0.636391

> <r_epik_Charging_Adjusted_Penalty>
1.25681

> <i_epik_Tot_Q>
0

> <i_epik_Tot_abs_Q>
0

> <r_epik_Metal_State_Penalty>
0.306539

> <b_epik_Metal_Only>
0

> <s_lp_Force_Field>
OPLS_2005

> <r_lp_Energy>
15.8228

> <b_lp_Chiralities_Consistent>
1

> <s_lp_Variant>
AV-unprocessed.smi:3169-4

> <Gold.Version>
5.8.1

> <Gold.Id.Protein>
6NUR|6NUR_protein|mol2

> <Gold.PLP.Fitness>
48.4827

> <Gold.PLP.PLP>
-31.9832

> <Gold.PLP.part.hbond>
-4.0000

> <Gold.PLP.part.metal>
0.0000

> <Gold.PLP.part.buried>
-0.8166

> <Gold.PLP.part.nonpolar>
-27.8222

> <Gold.PLP.part.repulsive>
0.4292

> <Gold.PLP.ligand.clash>
0.0000

> <Gold.PLP.ligand.torsion>
0.6019

> <Gold.PLP.Chemscore.Hbond>
2.8940

> <Gold.PLP.Chemscore.CHOScore>
3.0000

> <Gold.PLP.Chemscore.Metal>
0.0000

> <Gold.Chemscore.Hbonds>
donor molecule, donor type, donor heavy atom, donor atom, acceptor molecule, acceptor atom, score
      L1  H     3    18       P1  7948  1.00
      L1  H    11    26       P1  7948  0.93
      P1  H  7989  7998       L1    17  1.00
      L1  C     7    23       P1  7948  1.00
      L1  C     8    24       P1 10747  1.00
      L1  C    10    25       P1 10186  1.00

> <Gold.PLP.Chemscore.Internal.Correction>
0.0213

> <Gold.Rescore>
     Score         DG    S(hbond)    S(metal)    S(lipo)     H(rot)  DE(clash)    DE(int)     intcor
     12.95     -13.59       1.92        0.00      63.75       2.25       0.24       0.41       ----

> <Gold.Chemscore.Fitness>
12.9476

> <Gold.Chemscore.DG>
-13.5932

> <Gold.Chemscore.ZeroCoef>
-5.4800

> <Gold.Chemscore.Hbond>
1.9183

> <Gold.Chemscore.Metal>
0.0000

> <Gold.Chemscore.Lipo>
63.7540

> <Gold.Chemscore.Internal_Hbond>
0.0000

> <Gold.Chemscore.DEClash>
0.2383

> <Gold.Chemscore.DEInternal>
0.4074

> <Gold.Chemscore.Rot>
2.2474

> <Gold.Chemscore.Internal.Correction>
   9.000000E+99

> <Gold.Chemscore.Hbonds>
donor molecule, donor type, donor heavy atom, donor atom, acceptor molecule, acceptor atom, score
      L1  H     3    18       P1  7948  0.97
      L1  H    11    26       P1  7948  0.91
      P1  H  7989  7998       L1    17  0.22

> <Gold.Chemscore.Hbond.Weighted>
-6.4073

> <Gold.Chemscore.Metal.Weighted>
-0.0000

> <Gold.Chemscore.Lipo.Weighted>
-7.4592

> <Gold.Chemscore.Internal_Hbond.Weighted>
0.0000

> <Gold.Chemscore.DEClash.Weighted>
0.2383

> <Gold.Chemscore.DEInternal.Weighted>
0.4074

> <Gold.Chemscore.Rot.Weighted>
5.7532

> <Gold.Chemscore.Internal.Correction.Weighted>
   9.000000E+99

> <Gold.Protein.RotatedTorsions>
[ 6907 6896 6895 6894 ] final  -86.17 input  -60.11 | X-H torsion
[ 7974 7965 7964 7962 ] final   81.67 input  175.53 | X-H torsion
[ 8008 7997 7996 7995 ] final  157.44 input   59.86 | X-H torsion
[ 10167 10162 10161 10158 ] final  -19.54 input  -65.29 | X-H torsion
[ 10718 10713 10712 10709 ] final   87.47 input   66.30 | X-H torsion
[ 10763 10752 10751 10750 ] final  -64.76 input  -60.55 | X-H torsion
[ 11005 11000 10999 10996 ] final  -65.95 input  -57.11 | X-H torsion

> <Gold.Protein.ActiveResidues>
 VAL166  LYS551  ARG553  GLY616  TRP617  ASP618  TYR619  PRO620  LYS621  CYS622 
 ASP623  PHE694  ASN695  SER759  ASP760  ASP761  ALA762  ILE779  LEU786  VAL792 
 PHE793  MET794  SER795  GLU796  ALA797  LYS798  CYS799  TRP800  GLU811  SER814 

> <Gold.Protein.RotatedAtoms>
  150.6867  134.3092  159.4738 H   0  0  0  0  0  0  0  0  0  0  0  0  # atno 6907 bound_to 6896
  152.0979  134.9359  160.0579 H   0  0  0  0  0  0  0  0  0  0  0  0  # atno 6908 bound_to 6896
  152.0650  133.4045  159.4471 H   0  0  0  0  0  0  0  0  0  0  0  0  # atno 6909 bound_to 6896
  145.6351  139.2413  143.2062 H   0  0  0  0  0  0  0  0  0  0  0  0  # atno 7974 bound_to 7965
  156.2363  140.1885  156.7109 H   0  0  0  0  0  0  0  0  0  0  0  0  # atno 8008 bound_to 7997
  154.6113  140.0621  156.9525 H   0  0  0  0  0  0  0  0  0  0  0  0  # atno 8009 bound_to 7997
  155.2011  140.3292  155.4345 H   0  0  0  0  0  0  0  0  0  0  0  0  # atno 8010 bound_to 7997
  140.7269  143.4809  151.0119 H   0  0  0  0  0  0  0  0  0  0  0  0  # atno 10167 bound_to 10162
  157.6940  131.0257  150.3128 H   0  0  0  0  0  0  0  0  0  0  0  0  # atno 10718 bound_to 10713
  154.3350  135.6169  153.5569 H   0  0  0  0  0  0  0  0  0  0  0  0  # atno 10763 bound_to 10752
  152.9808  135.5756  154.4919 H   0  0  0  0  0  0  0  0  0  0  0  0  # atno 10764 bound_to 10752
  154.4612  135.2856  155.1688 H   0  0  0  0  0  0  0  0  0  0  0  0  # atno 10765 bound_to 10752
  141.1469  133.6690  156.6064 H   0  0  0  0  0  0  0  0  0  0  0  0  # atno 11005 bound_to 11000
  146.1326  140.7166  142.9405 LP  0  0  0  0  0  0  0  0  0  0  0  0  # atno 17320 bound_to 7965
  144.7178  140.4272  143.7031 LP  0  0  0  0  0  0  0  0  0  0  0  0  # atno 17321 bound_to 7965
  139.8507  143.7442  152.3178 LP  0  0  0  0  0  0  0  0  0  0  0  0  # atno 17342 bound_to 10162
  139.7623  144.7502  151.0346 LP  0  0  0  0  0  0  0  0  0  0  0  0  # atno 17343 bound_to 10162
  156.3627  130.3849  149.7238 LP  0  0  0  0  0  0  0  0  0  0  0  0  # atno 17370 bound_to 10713
  156.4679  130.7983  151.3001 LP  0  0  0  0  0  0  0  0  0  0  0  0  # atno 17371 bound_to 10713
  140.3648  134.7656  157.4558 LP  0  0  0  0  0  0  0  0  0  0  0  0  # atno 17394 bound_to 11000
  140.0756  134.5801  155.8594 LP  0  0  0  0  0  0  0  0  0  0  0  0  # atno 17395 bound_to 11000

$$$$
