AV-unprocessed.smi:2895|AV-procd|sdf|11133|dock7
  -GOLD-   2272016 03D 1   1.00000     0.00000
 Structure written by MMmdl.
 54 57  0  0  0  0  0  0  0  0  3 V2000
  150.2061  136.9058  159.1802 O   0  0  0  0  0  0  0  0  0  0  0  0
  149.5596  137.8664  158.7587 C   0  0  0  0  0  0  0  0  0  0  0  0
  148.2143  137.8588  158.7431 N   0  0  0  0  0  0  0  0  0  0  0  0
  147.3731  136.7615  159.2063 C   0  0  0  0  0  0  0  0  0  0  0  0
  147.6944  136.3778  160.6595 C   0  0  0  0  0  0  0  0  0  0  0  0
  146.5300  135.6806  161.3363 C   0  0  0  0  0  0  0  0  0  0  0  0
  145.3657  136.4019  161.6818 C   0  0  0  0  0  0  0  0  0  0  0  0
  144.2987  135.7261  162.3086 C   0  0  0  0  0  0  0  0  0  0  0  0
  144.3996  134.4040  162.5689 N   0  3  0  0  0  0  0  0  0  0  0  0
  145.4939  133.6772  162.2526 C   0  0  0  0  0  0  0  0  0  0  0  0
  146.5925  134.2994  161.6250 C   0  0  0  0  0  0  0  0  0  0  0  0
  150.1364  139.0115  158.3036 N   0  0  0  0  0  0  0  0  0  0  0  0
  149.3705  140.0902  157.6354 C   0  0  0  0  0  0  0  0  0  0  0  0
  150.2185  141.0251  156.7562 C   0  0  0  0  0  0  0  0  0  0  0  0
  151.4529  141.4754  157.4390 N   0  3  0  0  0  0  0  0  0  0  0  0
  151.2498  142.3824  158.6133 C   0  0  1  0  0  0  0  0  0  0  0  0
  152.5911  142.8014  159.2719 C   0  0  0  0  0  0  0  0  0  0  0  0
  152.5175  144.3368  159.2991 C   0  0  2  0  0  0  0  0  0  0  0  0
  151.4433  144.7876  160.3036 C   0  0  0  0  0  0  0  0  0  0  0  0
  150.1356  144.4200  159.5810 C   0  0  0  0  0  0  0  0  0  0  0  0
  150.6339  143.7691  158.2755 C   0  0  1  0  0  0  0  0  0  0  0  0
  151.8541  144.6268  157.9601 C   0  0  0  0  0  0  0  0  0  0  0  0
  152.2786  140.2826  157.7399 C   0  0  0  0  0  0  0  0  0  0  0  0
  151.5519  139.2694  158.6458 C   0  0  0  0  0  0  0  0  0  0  0  0
  147.7403  138.6802  158.3965 H   0  0  0  0  0  0  0  0  0  0  0  0
  146.3194  137.0272  159.1046 H   0  0  0  0  0  0  0  0  0  0  0  0
  147.5413  135.9074  158.5496 H   0  0  0  0  0  0  0  0  0  0  0  0
  148.5658  135.7222  160.6900 H   0  0  0  0  0  0  0  0  0  0  0  0
  147.9587  137.2655  161.2360 H   0  0  0  0  0  0  0  0  0  0  0  0
  145.2891  137.4587  161.4692 H   0  0  0  0  0  0  0  0  0  0  0  0
  143.3748  136.1995  162.6071 H   0  0  0  0  0  0  0  0  0  0  0  0
  145.4579  132.6284  162.5089 H   0  0  0  0  0  0  0  0  0  0  0  0
  147.4695  133.7230  161.3683 H   0  0  0  0  0  0  0  0  0  0  0  0
  148.5868  139.6860  156.9928 H   0  0  0  0  0  0  0  0  0  0  0  0
  148.8646  140.6723  158.4071 H   0  0  0  0  0  0  0  0  0  0  0  0
  150.5129  140.4846  155.8552 H   0  0  0  0  0  0  0  0  0  0  0  0
  149.6229  141.8579  156.3897 H   0  0  0  0  0  0  0  0  0  0  0  0
  150.6173  141.8757  159.3428 H   0  0  0  0  0  0  0  0  0  0  0  0
  152.7171  142.3727  160.2669 H   0  0  0  0  0  0  0  0  0  0  0  0
  153.4520  142.5029  158.6725 H   0  0  0  0  0  0  0  0  0  0  0  0
  153.4847  144.8178  159.4472 H   0  0  0  0  0  0  0  0  0  0  0  0
  151.5428  144.2870  161.2677 H   0  0  0  0  0  0  0  0  0  0  0  0
  151.4969  145.8634  160.4766 H   0  0  0  0  0  0  0  0  0  0  0  0
  149.5055  143.7527  160.1702 H   0  0  0  0  0  0  0  0  0  0  0  0
  149.5548  145.3180  159.3663 H   0  0  0  0  0  0  0  0  0  0  0  0
  149.8616  143.7791  157.5099 H   0  0  0  0  0  0  0  0  0  0  0  0
  151.6160  145.6821  157.8151 H   0  0  0  0  0  0  0  0  0  0  0  0
  152.4272  144.2682  157.1034 H   0  0  0  0  0  0  0  0  0  0  0  0
  152.5283  139.7972  156.7953 H   0  0  0  0  0  0  0  0  0  0  0  0
  153.2355  140.5576  158.1821 H   0  0  0  0  0  0  0  0  0  0  0  0
  151.5805  139.6237  159.6771 H   0  0  0  0  0  0  0  0  0  0  0  0
  152.1357  138.3472  158.6313 H   0  0  0  0  0  0  0  0  0  0  0  0
  151.9687  142.0182  156.7610 H   0  0  0  0  0  0  0  0  0  0  0  0
  143.6158  133.9348  163.0234 H   0  0  0  0  0  0  0  0  0  0  0  0
  1  2  2  0  0  0  0
  2  3  1  0  0  0  0
  2 12  1  0  0  0  0
  3  4  1  0  0  0  0
  3 25  1  0  0  0  0
  4  5  1  0  0  0  0
  4 26  1  0  0  0  0
  4 27  1  0  0  0  0
  5  6  1  0  0  0  0
  5 28  1  0  0  0  0
  5 29  1  0  0  0  0
  6 11  1  0  0  0  0
  6  7  2  0  0  0  0
  7  8  1  0  0  0  0
  7 30  1  0  0  0  0
  8  9  2  0  0  0  0
  8 31  1  0  0  0  0
  9 10  1  0  0  0  0
  9 54  1  0  0  0  0
 10 11  2  0  0  0  0
 10 32  1  0  0  0  0
 11 33  1  0  0  0  0
 12 24  1  0  0  0  0
 12 13  1  0  0  0  0
 13 14  1  0  0  0  0
 13 34  1  0  0  0  0
 13 35  1  0  0  0  0
 14 15  1  0  0  0  0
 14 36  1  0  0  0  0
 14 37  1  0  0  0  0
 15 16  1  0  0  0  0
 15 23  1  0  0  0  0
 15 53  1  0  0  0  0
 16 21  1  0  0  0  0
 16 17  1  0  0  0  0
 16 38  1  0  0  0  0
 17 18  1  0  0  0  0
 17 39  1  0  0  0  0
 17 40  1  0  0  0  0
 18 22  1  0  0  0  0
 18 19  1  0  0  0  0
 18 41  1  0  0  0  0
 19 20  1  0  0  0  0
 19 42  1  0  0  0  0
 19 43  1  0  0  0  0
 20 21  1  0  0  0  0
 20 44  1  0  0  0  0
 20 45  1  0  0  0  0
 21 22  1  0  0  0  0
 21 46  1  0  0  0  0
 22 47  1  0  0  0  0
 22 48  1  0  0  0  0
 23 24  1  0  0  0  0
 23 49  1  0  0  0  0
 23 50  1  0  0  0  0
 24 51  1  0  0  0  0
 24 52  1  0  0  0  0
M  CHG  1   9   1
M  CHG  1  15   1
M  END
> <s_m_source_file>
AV-unprocessed.smi

> <i_m_source_file_index>
2895

> <i_lp_mmshare_version>
43012

> <i_f3d_flags>
0

> <s_epik_input>
W0NIMl0xW0NIMl1bQ0BASF0oW0NIMl0yKVtDQEBIXShbQ0gyXVtDQEhdMTIpTihbQ0gyXVtDSDJdMylbQ0gyXVtDSDJdTjNDKD1PKVtOSF1bQ0gyXVtDSDJdYzRbY0hdW2NIXW5bY0hdW2NIXTQ=

> <s_epik_cmdline>
J2VwaWtfcHl0aG9uJywgJy1waCcsICc3LjAnLCAnLXRuJywgJzgnLCAnLW1hJywgJzIwMCcsICctbWV0YWxfYmluZGluZycsICctaW1hZScsICc8aW5maWxlLm1hZT4nLCAnLW9tYWUnLCAnPG91dGZpbGUubWFlPic=

> <r_epik_Ionization_Penalty>
1.44916

> <r_epik_Ionization_Penalty_Charging>
1.44913

> <r_epik_Ionization_Penalty_Neutral>
2.64641e-05

> <r_epik_State_Penalty>
1.53218

> <r_epik_Charging_Adjusted_Penalty>
2.98131

> <i_epik_Tot_Q>
2

> <i_epik_Tot_abs_Q>
2

> <r_epik_Metal_State_Penalty>
1.58241

> <b_epik_Metal_Only>
0

> <s_lp_Force_Field>
OPLS_2005

> <r_lp_Energy>
108.8

> <b_lp_Chiralities_Consistent>
1

> <s_lp_Variant>
AV-unprocessed.smi:2895-6

> <Gold.Version>
5.8.1

> <Gold.Id.Protein>
6NUR|6NUR_protein|mol2

> <Gold.PLP.Fitness>
50.7148

> <Gold.PLP.PLP>
-48.4603

> <Gold.PLP.part.hbond>
-1.0000

> <Gold.PLP.part.metal>
0.0000

> <Gold.PLP.part.buried>
-6.9113

> <Gold.PLP.part.nonpolar>
-39.9277

> <Gold.PLP.part.repulsive>
0.3453

> <Gold.PLP.ligand.clash>
0.1295

> <Gold.PLP.ligand.torsion>
0.3817

> <Gold.PLP.Chemscore.Hbond>
1.0000

> <Gold.PLP.Chemscore.CHOScore>
0.0000

> <Gold.PLP.Chemscore.Metal>
0.0000

> <Gold.Chemscore.Hbonds>
donor molecule, donor type, donor heavy atom, donor atom, acceptor molecule, acceptor atom, score
      P1  H  6896  6908       L1     1  0.68

> <Gold.PLP.Chemscore.Internal.Correction>
0.1473

> <Gold.Rescore>
     Score         DG    S(hbond)    S(metal)    S(lipo)     H(rot)  DE(clash)    DE(int)     intcor
     20.91     -21.41       0.97        0.00     140.26       1.46       0.14       0.37       ----

> <Gold.Chemscore.Fitness>
20.9060

> <Gold.Chemscore.DG>
-21.4107

> <Gold.Chemscore.ZeroCoef>
-5.4800

> <Gold.Chemscore.Hbond>
0.9734

> <Gold.Chemscore.Metal>
0.0000

> <Gold.Chemscore.Lipo>
140.2575

> <Gold.Chemscore.Internal_Hbond>
0.0000

> <Gold.Chemscore.DEClash>
0.1365

> <Gold.Chemscore.DEInternal>
0.3682

> <Gold.Chemscore.Rot>
1.4572

> <Gold.Chemscore.Internal.Correction>
   9.000000E+99

> <Gold.Chemscore.Hbonds>
donor molecule, donor type, donor heavy atom, donor atom, acceptor molecule, acceptor atom, score
      P1  H  6896  6908       L1     1  0.67

> <Gold.Chemscore.Hbond.Weighted>
-3.2511

> <Gold.Chemscore.Metal.Weighted>
-0.0000

> <Gold.Chemscore.Lipo.Weighted>
-16.4101

> <Gold.Chemscore.Internal_Hbond.Weighted>
0.0000

> <Gold.Chemscore.DEClash.Weighted>
0.1365

> <Gold.Chemscore.DEInternal.Weighted>
0.3682

> <Gold.Chemscore.Rot.Weighted>
3.7305

> <Gold.Chemscore.Internal.Correction.Weighted>
   9.000000E+99

> <Gold.Protein.RotatedTorsions>
[ 6907 6896 6895 6894 ] final -163.86 input  -60.11 | X-H torsion
[ 7974 7965 7964 7962 ] final  -35.23 input  175.53 | X-H torsion
[ 8008 7997 7996 7995 ] final   73.59 input   59.86 | X-H torsion
[ 10167 10162 10161 10158 ] final  -52.31 input  -65.29 | X-H torsion
[ 10718 10713 10712 10709 ] final  -81.03 input   66.30 | X-H torsion
[ 10763 10752 10751 10750 ] final  141.53 input  -60.55 | X-H torsion
[ 11005 11000 10999 10996 ] final  -52.18 input  -57.11 | X-H torsion

> <Gold.Protein.ActiveResidues>
 VAL166  LYS551  ARG553  GLY616  TRP617  ASP618  TYR619  PRO620  LYS621  CYS622 
 ASP623  PHE694  ASN695  SER759  ASP760  ASP761  ALA762  ILE779  LEU786  VAL792 
 PHE793  MET794  SER795  GLU796  ALA797  LYS798  CYS799  TRP800  GLU811  SER814 

> <Gold.Protein.RotatedAtoms>
  151.4027  133.3752  159.2733 H   0  0  0  0  0  0  0  0  0  0  0  0  # atno 6907 bound_to 6896
  150.9421  134.8831  159.7629 H   0  0  0  0  0  0  0  0  0  0  0  0  # atno 6908 bound_to 6896
  152.5076  134.3978  159.9458 H   0  0  0  0  0  0  0  0  0  0  0  0  # atno 6909 bound_to 6896
  146.0763  140.6134  142.8929 H   0  0  0  0  0  0  0  0  0  0  0  0  # atno 7974 bound_to 7965
  155.7859  140.3480  155.5322 H   0  0  0  0  0  0  0  0  0  0  0  0  # atno 8008 bound_to 7997
  155.8683  140.0982  157.1588 H   0  0  0  0  0  0  0  0  0  0  0  0  # atno 8009 bound_to 7997
  154.4016  140.1345  156.4033 H   0  0  0  0  0  0  0  0  0  0  0  0  # atno 8010 bound_to 7997
  140.6544  143.2588  151.4630 H   0  0  0  0  0  0  0  0  0  0  0  0  # atno 10167 bound_to 10162
  156.0058  130.4592  150.3890 H   0  0  0  0  0  0  0  0  0  0  0  0  # atno 10718 bound_to 10713
  153.9408  135.2980  155.3443 H   0  0  0  0  0  0  0  0  0  0  0  0  # atno 10763 bound_to 10752
  154.7478  135.4994  153.9238 H   0  0  0  0  0  0  0  0  0  0  0  0  # atno 10764 bound_to 10752
  153.1043  135.6743  153.9721 H   0  0  0  0  0  0  0  0  0  0  0  0  # atno 10765 bound_to 10752
  141.0910  133.6633  156.3986 H   0  0  0  0  0  0  0  0  0  0  0  0  # atno 11005 bound_to 11000
  144.7264  140.4537  143.6970 LP  0  0  0  0  0  0  0  0  0  0  0  0  # atno 17320 bound_to 7965
  145.6299  139.1535  143.2975 LP  0  0  0  0  0  0  0  0  0  0  0  0  # atno 17321 bound_to 7965
  139.5764  144.1810  152.1908 LP  0  0  0  0  0  0  0  0  0  0  0  0  # atno 17342 bound_to 10162
  140.1122  144.5447  150.6918 LP  0  0  0  0  0  0  0  0  0  0  0  0  # atno 17343 bound_to 10162
  157.1966  131.0428  151.2672 LP  0  0  0  0  0  0  0  0  0  0  0  0  # atno 17370 bound_to 10713
  157.4013  130.7335  149.6769 LP  0  0  0  0  0  0  0  0  0  0  0  0  # atno 17371 bound_to 10713
  140.5251  134.6267  157.5331 LP  0  0  0  0  0  0  0  0  0  0  0  0  # atno 17394 bound_to 11000
  139.9736  134.7251  155.9992 LP  0  0  0  0  0  0  0  0  0  0  0  0  # atno 17395 bound_to 11000

$$$$
