#       Name:                AV-unprocessed.smi:919
#       Creating user name   scv26
#       Creation time:       Fri Mar 27 02:07:17 2020


#       File generated by GOLD software.
#

@<TRIPOS>MOLECULE
AV-unprocessed.smi:919
    48    50     1
SMALL
NO_CHARGES


@<TRIPOS>ATOM
      1 ****        -4.4288   1.9515   1.6221 C.3            1 S1                 0.0000
      2 ****        -4.7257   0.5202   1.2780 C.2            1 S1                 0.0000
      3 ****        -5.9817   0.1479   1.0972 N.2            1 S1                 0.0000
      4 ****        -5.9376  -1.2142   0.7841 O.3            1 S1                 0.0000
      5 ****        -4.6401  -1.6126   0.7871 C.2            1 S1                 0.0000
      6 ****        -4.3734  -3.0440   0.4647 C.3            1 S1                 0.0000
      7 ****        -3.8193  -0.5639   1.0959 C.2            1 S1                 0.0000
      8 ****        -2.3188  -0.5584   1.2048 C.3            1 S1                 0.0000
      9 ****        -1.6644  -0.1347  -0.1192 C.3            1 S1                 0.0000
     10 ****        -0.2101  -0.1427  -0.0247 N.am           1 S1                 0.0000
     11 ****         0.5648  -1.2328  -0.1547 C.2            1 S1                 0.0000
     12 ****         0.1196  -2.3604  -0.3604 O.2            1 S1                 0.0000
     13 ****         1.8846  -0.9991  -0.0486 N.am           1 S1                 0.0000
     14 ****         2.9800  -1.9680  -0.1428 C.3            1 S1                 0.0000
     15 ****         4.3502  -1.2557  -0.1911 C.3            1 S1                 0.0000
     16 ****         5.0963  -1.8489   1.0184 C.3            1 S1                 0.0000
     17 ****         4.4835  -1.3033   2.3225 C.3            1 S1                 0.0000
     18 ****         3.1401  -2.0518   2.4073 C.3            1 S1                 0.0000
     19 ****         3.1326  -2.8790   1.1038 C.3            1 S1                 0.0000
     20 ****         4.5989  -3.2879   1.0119 C.3            1 S1                 0.0000
     21 ****        -3.3881   2.0855   1.9162 H              1 S1                 0.0000
     22 ****        -5.0509   2.2949   2.4491 H              1 S1                 0.0000
     23 ****        -4.6177   2.6044   0.7697 H              1 S1                 0.0000
     24 ****        -3.6171  -3.1275  -0.3161 H              1 S1                 0.0000
     25 ****        -5.2762  -3.5449   0.1146 H              1 S1                 0.0000
     26 ****        -4.0098  -3.5755   1.3440 H              1 S1                 0.0000
     27 ****        -1.9911   0.1098   2.0016 H              1 S1                 0.0000
     28 ****        -1.9578  -1.5478   1.4885 H              1 S1                 0.0000
     29 ****        -1.9883  -0.7868  -0.9325 H              1 S1                 0.0000
     30 ****        -1.9817   0.8739  -0.3858 H              1 S1                 0.0000
     31 ****         0.2426   0.7444   0.1401 H              1 S1                 0.0000
     32 ****         2.1602  -0.0404   0.1087 H              1 S1                 0.0000
     33 ****         2.8619  -2.5741  -1.0429 H              1 S1                 0.0000
     34 ****         4.8701  -1.4971  -1.1192 H              1 S1                 0.0000
     35 ****         4.2769  -0.1688  -0.1303 H              1 S1                 0.0000
     36 ****         6.1792  -1.7344   0.9622 H              1 S1                 0.0000
     37 ****         5.1110  -1.5447   3.1815 H              1 S1                 0.0000
     38 ****         4.3548  -0.2206   2.2950 H              1 S1                 0.0000
     39 ****         3.1305  -2.7125   3.2752 H              1 S1                 0.0000
     40 ****         2.2879  -1.3794   2.5053 H              1 S1                 0.0000
     41 ****         2.4314  -3.7136   1.1246 H              1 S1                 0.0000
     42 ****         4.8422  -3.8260   0.0940 H              1 S1                 0.0000
     43 ****         4.9431  -3.8693   1.8691 H              1 S1                 0.0000
     44 ****        -6.7965   0.7230   1.1696 LP             1 S1                 0.0000
     45 ****        -6.3353  -1.3658  -0.1208 LP             1 S1                 0.0000
     46 ****        -6.4521  -1.7343   1.4658 LP             1 S1                 0.0000
     47 ****        -0.8672  -2.5016  -0.4394 LP             1 S1                 0.0000
     48 ****         0.7444  -3.1362  -0.4488 LP             1 S1                 0.0000
@<TRIPOS>BOND
    1    1    2 1     
    2    1   21 1     
    3    1   22 1     
    4    1   23 1     
    5    2    7 1     
    6    2    3 2     
    7    3    4 1     
    8    4    5 1     
    9    5    6 1     
   10    5    7 2     
   11    6   24 1     
   12    6   25 1     
   13    6   26 1     
   14    7    8 1     
   15    8    9 1     
   16    8   27 1     
   17    8   28 1     
   18    9   10 1     
   19    9   29 1     
   20    9   30 1     
   21   10   11 am    
   22   10   31 1     
   23   11   12 2     
   24   11   13 am    
   25   13   14 1     
   26   13   32 1     
   27   14   19 1     
   28   14   15 1     
   29   14   33 1     
   30   15   16 1     
   31   15   34 1     
   32   15   35 1     
   33   16   20 1     
   34   16   17 1     
   35   16   36 1     
   36   17   18 1     
   37   17   37 1     
   38   17   38 1     
   39   18   19 1     
   40   18   39 1     
   41   18   40 1     
   42   19   20 1     
   43   19   41 1     
   44   20   42 1     
   45   20   43 1     
   46    3   44 1     
   47    4   45 1     
   48    4   46 1     
   49   12   47 1     
   50   12   48 1     
@<TRIPOS>SUBSTRUCTURE
      1 S1             1
@<TRIPOS>SET
LONE_PAIRS      STATIC     ATOMS    <user>   **** ""
5 44 45 46 47 48
DONOR_HYDROGENS      STATIC     ATOMS    <user>   **** ""
2 31 32
ATOM$BLUE        STATIC     ATOMS    COLORGROUP SYSTEM
5 44 45 46 47 48
ATOM$RED        STATIC     ATOMS    COLORGROUP SYSTEM
2 31 32
