AV-unprocessed.smi:632|AV-procd|sdf|3127|dock8
  -GOLD-   22720 0 53D 1   1.00000     0.00000
 Structure written by MMmdl.
 42 43  0  0  0  0  0  0  0  0  1 V2000
  150.2619  123.7430  152.8743 C   0  0  0  0  0  0  0  0  0  0  0  0
  149.3604  124.0413  151.6605 C   0  0  0  0  0  0  0  0  0  0  0  0
  150.2359  123.9388  150.3922 C   0  0  0  0  0  0  0  0  0  0  0  0
  148.2460  122.9833  151.5401 C   0  0  0  0  0  0  0  0  0  0  0  0
  148.7494  125.4162  151.8020 C   0  0  0  0  0  0  0  0  0  0  0  0
  147.9625  125.7381  152.8401 N   0  0  0  0  0  0  0  0  0  0  0  0
  147.5080  127.0471  152.7863 N   0  0  0  0  0  0  0  0  0  0  0  0
  147.9652  127.6913  151.7057 C   0  0  0  0  0  0  0  0  0  0  0  0
  147.6617  129.0460  151.4066 N   0  0  0  0  0  0  0  0  0  0  0  0
  146.5478  129.7364  151.7082 C   0  0  0  0  0  0  0  0  0  0  0  0
  145.5644  129.2807  152.2928 O   0  0  0  0  0  0  0  0  0  0  0  0
  146.6354  131.0069  151.2880 N   0  0  0  0  0  0  0  0  0  0  0  0
  145.6078  132.0272  151.4744 C   0  0  2  0  0  0  0  0  0  0  0  0
  144.9077  132.3464  150.1388 C   0  0  0  0  0  0  0  0  0  0  0  0
  143.8542  133.4552  150.3082 C   0  0  0  0  0  0  0  0  0  0  0  0
  144.4396  134.7271  150.9514 C   0  0  2  0  0  0  0  0  0  0  0  0
  145.3050  135.3765  150.0411 O   0  0  0  0  0  0  0  0  0  0  0  0
  145.1908  134.4096  152.2587 C   0  0  0  0  0  0  0  0  0  0  0  0
  146.2380  133.2971  152.0741 C   0  0  0  0  0  0  0  0  0  0  0  0
  148.9963  126.7389  150.6547 S   0  0  0  0  0  0  0  0  0  0  0  0
  150.7279  122.7606  152.7928 H   0  0  0  0  0  0  0  0  0  0  0  0
  149.6951  123.7553  153.8061 H   0  0  0  0  0  0  0  0  0  0  0  0
  151.0603  124.4802  152.9663 H   0  0  0  0  0  0  0  0  0  0  0  0
  151.0635  124.6489  150.4143 H   0  0  0  0  0  0  0  0  0  0  0  0
  149.6576  124.1274  149.4869 H   0  0  0  0  0  0  0  0  0  0  0  0
  150.6712  122.9438  150.2922 H   0  0  0  0  0  0  0  0  0  0  0  0
  148.6593  121.9817  151.4181 H   0  0  0  0  0  0  0  0  0  0  0  0
  147.6023  123.1812  150.6822 H   0  0  0  0  0  0  0  0  0  0  0  0
  147.6134  122.9650  152.4282 H   0  0  0  0  0  0  0  0  0  0  0  0
  148.3834  129.5527  150.9159 H   0  0  0  0  0  0  0  0  0  0  0  0
  147.4766  131.2933  150.8089 H   0  0  0  0  0  0  0  0  0  0  0  0
  144.8637  131.6561  152.1819 H   0  0  0  0  0  0  0  0  0  0  0  0
  145.6461  132.6546  149.3972 H   0  0  0  0  0  0  0  0  0  0  0  0
  144.4291  131.4505  149.7413 H   0  0  0  0  0  0  0  0  0  0  0  0
  143.4004  133.6920  149.3451 H   0  0  0  0  0  0  0  0  0  0  0  0
  143.0473  133.0785  150.9381 H   0  0  0  0  0  0  0  0  0  0  0  0
  143.6274  135.4220  151.1670 H   0  0  0  0  0  0  0  0  0  0  0  0
  145.3858  134.8388  149.2681 H   0  0  0  0  0  0  0  0  0  0  0  0
  145.6643  135.3099  152.6522 H   0  0  0  0  0  0  0  0  0  0  0  0
  144.4702  134.0919  153.0134 H   0  0  0  0  0  0  0  0  0  0  0  0
  146.6982  133.0673  153.0360 H   0  0  0  0  0  0  0  0  0  0  0  0
  147.0404  133.6548  151.4271 H   0  0  0  0  0  0  0  0  0  0  0  0
  1  2  1  0  0  0  0
  1 21  1  0  0  0  0
  1 22  1  0  0  0  0
  1 23  1  0  0  0  0
  2  3  1  0  0  0  0
  2  4  1  0  0  0  0
  2  5  1  0  0  0  0
  3 24  1  0  0  0  0
  3 25  1  0  0  0  0
  3 26  1  0  0  0  0
  4 27  1  0  0  0  0
  4 28  1  0  0  0  0
  4 29  1  0  0  0  0
  5 20  1  0  0  0  0
  5  6  2  0  0  0  0
  6  7  1  0  0  0  0
  7  8  2  0  0  0  0
  8  9  1  0  0  0  0
  8 20  1  0  0  0  0
  9 10  1  0  0  0  0
  9 30  1  0  0  0  0
 10 11  2  0  0  0  0
 10 12  1  0  0  0  0
 12 13  1  0  0  0  0
 12 31  1  0  0  0  0
 13 19  1  0  0  0  0
 13 14  1  0  0  0  0
 13 32  1  0  0  0  0
 14 15  1  0  0  0  0
 14 33  1  0  0  0  0
 14 34  1  0  0  0  0
 15 16  1  0  0  0  0
 15 35  1  0  0  0  0
 15 36  1  0  0  0  0
 16 17  1  0  0  0  0
 16 18  1  0  0  0  0
 16 37  1  0  0  0  0
 17 38  1  0  0  0  0
 18 19  1  0  0  0  0
 18 39  1  0  0  0  0
 18 40  1  0  0  0  0
 19 41  1  0  0  0  0
 19 42  1  0  0  0  0
M  END
> <s_m_source_file>
AV-unprocessed.smi

> <i_m_source_file_index>
632

> <i_lp_mmshare_version>
43012

> <i_f3d_flags>
0

> <s_epik_input>
W0NIM11DKFtDSDNdKShbQ0gzXSljMW5uYyhzMSlbTkhdQyg9TylbTkhdW0NAQEhdMltDSDJdW0NIMl1bQ0BASF0oW09IXSlbQ0gyXVtDSDJdMg==

> <s_epik_cmdline>
J2VwaWtfcHl0aG9uJywgJy1waCcsICc3LjAnLCAnLXRuJywgJzgnLCAnLW1hJywgJzIwMCcsICctbWV0YWxfYmluZGluZycsICctaW1hZScsICc8aW5maWxlLm1hZT4nLCAnLW9tYWUnLCAnPG91dGZpbGUubWFlPic=

> <r_lp_tautomer_probability>
1

> <r_epik_Ionization_Penalty>
0.000349475

> <r_epik_Ionization_Penalty_Charging>
0

> <r_epik_Ionization_Penalty_Neutral>
0.000349475

> <r_epik_State_Penalty>
-0

> <r_epik_Charging_Adjusted_Penalty>
0

> <i_epik_Tot_Q>
0

> <i_epik_Tot_abs_Q>
0

> <r_epik_Metal_State_Penalty>
0.179207

> <b_epik_Metal_Only>
0

> <s_lp_Force_Field>
OPLS_2005

> <r_lp_Energy>
4.89168

> <b_lp_Chiralities_Consistent>
1

> <s_lp_Variant>
AV-unprocessed.smi:632-2

> <Gold.Version>
5.8.1

> <Gold.Id.Protein>
6NUR|6NUR_protein|mol2

> <Gold.PLP.Fitness>
41.8489

> <Gold.PLP.PLP>
-34.0787

> <Gold.PLP.part.hbond>
-4.1966

> <Gold.PLP.part.metal>
0.0000

> <Gold.PLP.part.buried>
-5.1461

> <Gold.PLP.part.nonpolar>
-25.0000

> <Gold.PLP.part.repulsive>
0.3096

> <Gold.PLP.ligand.clash>
0.0000

> <Gold.PLP.ligand.torsion>
0.3066

> <Gold.PLP.Chemscore.Hbond>
2.7920

> <Gold.PLP.Chemscore.CHOScore>
0.0000

> <Gold.PLP.Chemscore.Metal>
0.0000

> <Gold.Chemscore.Hbonds>
donor molecule, donor type, donor heavy atom, donor atom, acceptor molecule, acceptor atom, score
      L1  H     9    30       P1 10747  0.91
      L1  H    12    31       P1 10747  0.93
      L1  H    17    38       P1  7921  0.83

> <Gold.PLP.Chemscore.Internal.Correction>
0.0074

> <Gold.Rescore>
     Score         DG    S(hbond)    S(metal)    S(lipo)     H(rot)  DE(clash)    DE(int)     intcor
     13.67     -16.57       2.41        0.00      63.24       1.70       1.44       1.45       ----

> <Gold.Chemscore.Fitness>
13.6747

> <Gold.Chemscore.DG>
-16.5727

> <Gold.Chemscore.ZeroCoef>
-5.4800

> <Gold.Chemscore.Hbond>
2.4064

> <Gold.Chemscore.Metal>
0.0000

> <Gold.Chemscore.Lipo>
63.2416

> <Gold.Chemscore.Internal_Hbond>
0.0000

> <Gold.Chemscore.DEClash>
1.4446

> <Gold.Chemscore.DEInternal>
1.4534

> <Gold.Chemscore.Rot>
1.6968

> <Gold.Chemscore.Internal.Correction>
   9.000000E+99

> <Gold.Chemscore.Hbonds>
donor molecule, donor type, donor heavy atom, donor atom, acceptor molecule, acceptor atom, score
      L1  H     9    30       P1 10747  0.19
      L1  H    12    31       P1 10747  0.91
      L1  H    17    38       P1  7921  0.83

> <Gold.Chemscore.Hbond.Weighted>
-8.0373

> <Gold.Chemscore.Metal.Weighted>
-0.0000

> <Gold.Chemscore.Lipo.Weighted>
-7.3993

> <Gold.Chemscore.Internal_Hbond.Weighted>
0.0000

> <Gold.Chemscore.DEClash.Weighted>
1.4446

> <Gold.Chemscore.DEInternal.Weighted>
1.4534

> <Gold.Chemscore.Rot.Weighted>
4.3438

> <Gold.Chemscore.Internal.Correction.Weighted>
   9.000000E+99

> <Gold.Protein.RotatedTorsions>
[ 6907 6896 6895 6894 ] final  -19.68 input  -60.11 | X-H torsion
[ 7974 7965 7964 7962 ] final  -29.55 input  175.53 | X-H torsion
[ 8008 7997 7996 7995 ] final   69.40 input   59.86 | X-H torsion
[ 10167 10162 10161 10158 ] final  -86.94 input  -65.29 | X-H torsion
[ 10718 10713 10712 10709 ] final -131.43 input   66.30 | X-H torsion
[ 10763 10752 10751 10750 ] final   36.36 input  -60.55 | X-H torsion
[ 11005 11000 10999 10996 ] final  156.03 input  -57.11 | X-H torsion

> <Gold.Protein.ActiveResidues>
 VAL166  LYS551  ARG553  GLY616  TRP617  ASP618  TYR619  PRO620  LYS621  CYS622 
 ASP623  PHE694  ASN695  SER759  ASP760  ASP761  ALA762  ILE779  LEU786  VAL792 
 PHE793  MET794  SER795  GLU796  ALA797  LYS798  CYS799  TRP800  GLU811  SER814 

> <Gold.Protein.RotatedAtoms>
  151.2595  135.0649  159.9092 H   0  0  0  0  0  0  0  0  0  0  0  0  # atno 6907 bound_to 6896
  152.5368  134.0246  159.8007 H   0  0  0  0  0  0  0  0  0  0  0  0  # atno 6908 bound_to 6896
  151.0467  133.5610  159.2677 H   0  0  0  0  0  0  0  0  0  0  0  0  # atno 6909 bound_to 6896
  146.1208  140.5427  142.8736 H   0  0  0  0  0  0  0  0  0  0  0  0  # atno 7974 bound_to 7965
  155.7230  140.3493  155.5024 H   0  0  0  0  0  0  0  0  0  0  0  0  # atno 8008 bound_to 7997
  155.9252  140.1074  157.1197 H   0  0  0  0  0  0  0  0  0  0  0  0  # atno 8009 bound_to 7997
  154.4076  140.1242  156.4718 H   0  0  0  0  0  0  0  0  0  0  0  0  # atno 8010 bound_to 7997
  140.3893  143.2712  151.9285 H   0  0  0  0  0  0  0  0  0  0  0  0  # atno 10167 bound_to 10162
  156.2244  130.6998  151.0791 H   0  0  0  0  0  0  0  0  0  0  0  0  # atno 10718 bound_to 10713
  153.0080  135.6308  154.1972 H   0  0  0  0  0  0  0  0  0  0  0  0  # atno 10763 bound_to 10752
  154.1716  135.2818  155.3081 H   0  0  0  0  0  0  0  0  0  0  0  0  # atno 10764 bound_to 10752
  154.5904  135.5619  153.7333 H   0  0  0  0  0  0  0  0  0  0  0  0  # atno 10765 bound_to 10752
  140.1636  134.8592  157.2605 H   0  0  0  0  0  0  0  0  0  0  0  0  # atno 11005 bound_to 11000
  144.7595  140.5389  143.6745 LP  0  0  0  0  0  0  0  0  0  0  0  0  # atno 17320 bound_to 7965
  145.5470  139.1476  143.3415 LP  0  0  0  0  0  0  0  0  0  0  0  0  # atno 17321 bound_to 7965
  139.4790  144.5743  151.8037 LP  0  0  0  0  0  0  0  0  0  0  0  0  # atno 17342 bound_to 10162
  140.4856  144.1385  150.5940 LP  0  0  0  0  0  0  0  0  0  0  0  0  # atno 17343 bound_to 10162
  157.7103  131.0737  150.6524 LP  0  0  0  0  0  0  0  0  0  0  0  0  # atno 17370 bound_to 10713
  156.6588  130.4506  149.5694 LP  0  0  0  0  0  0  0  0  0  0  0  0  # atno 17371 bound_to 10713
  140.2460  134.3739  155.7461 LP  0  0  0  0  0  0  0  0  0  0  0  0  # atno 17394 bound_to 11000
  141.2211  133.7291  156.8862 LP  0  0  0  0  0  0  0  0  0  0  0  0  # atno 17395 bound_to 11000

$$$$
