AV-unprocessed.smi:1033|AV-procd|sdf|4494|dock1
  -GOLD-   22720 2483D 1   1.00000     0.00000
 Structure written by MMmdl.
 56 58  0  0  0  0  0  0  0  0  2 V2000
  152.0568  144.8388  160.3446 C   0  0  0  0  0  0  0  0  0  0  0  0
  152.1757  143.3925  159.8972 C   0  0  0  0  0  0  0  0  0  0  0  0
  153.2734  142.6235  160.3438 C   0  0  0  0  0  0  0  0  0  0  0  0
  153.4113  141.2704  159.9655 C   0  0  0  0  0  0  0  0  0  0  0  0
  154.3738  140.3372  160.3075 N   0  0  0  0  0  0  0  0  0  0  0  0
  153.9293  139.2517  159.6814 C   0  0  0  0  0  0  0  0  0  0  0  0
  152.7854  139.3688  158.9803 N   0  0  0  0  0  0  0  0  0  0  0  0
  152.0981  138.3112  158.2605 C   0  0  0  0  0  0  0  0  0  0  0  0
  152.2686  138.4350  156.7313 C   0  0  2  0  0  0  0  0  0  0  0  0
  153.6347  138.6894  156.4790 O   0  0  0  0  0  0  0  0  0  0  0  0
  151.4367  139.5805  156.1033 C   0  0  0  0  0  0  0  0  0  0  0  0
  151.0360  139.3834  154.7045 N   0  0  0  0  0  0  0  0  0  0  0  0
  151.4378  138.0970  154.1306 C   0  0  0  0  0  0  0  0  0  0  0  0
  150.6704  136.8914  154.7110 C   0  0  0  0  0  0  0  0  0  0  0  0
  149.1983  137.0669  154.5930 N   0  3  0  0  0  0  0  0  0  0  0  0
  148.4229  135.9601  155.2135 C   0  0  0  0  0  0  0  0  0  0  0  0
  146.9369  135.9267  154.8015 C   0  0  2  0  0  0  0  0  0  0  0  0
  146.1399  134.8184  155.5050 C   0  0  0  0  0  0  0  0  0  0  0  0
  146.8731  135.6969  153.4099 O   0  0  0  0  0  0  0  0  0  0  0  0
  148.7727  138.3874  155.1280 C   0  0  0  0  0  0  0  0  0  0  0  0
  149.5958  139.5335  154.5049 C   0  0  0  0  0  0  0  0  0  0  0  0
  152.4137  140.7023  159.1196 C   0  0  0  0  0  0  0  0  0  0  0  0
  151.3283  141.4644  158.6511 C   0  0  0  0  0  0  0  0  0  0  0  0
  151.2023  142.8129  159.0447 C   0  0  0  0  0  0  0  0  0  0  0  0
  150.0153  143.6207  158.5512 C   0  0  0  0  0  0  0  0  0  0  0  0
  152.8734  145.1185  161.0111 H   0  0  0  0  0  0  0  0  0  0  0  0
  151.1201  144.9984  160.8794 H   0  0  0  0  0  0  0  0  0  0  0  0
  152.0835  145.5078  159.4840 H   0  0  0  0  0  0  0  0  0  0  0  0
  154.0166  143.0649  160.9916 H   0  0  0  0  0  0  0  0  0  0  0  0
  154.4552  138.3107  159.7513 H   0  0  0  0  0  0  0  0  0  0  0  0
  152.4651  137.3463  158.6129 H   0  0  0  0  0  0  0  0  0  0  0  0
  151.0411  138.3582  158.5276 H   0  0  0  0  0  0  0  0  0  0  0  0
  152.0344  137.4754  156.2711 H   0  0  0  0  0  0  0  0  0  0  0  0
  153.9892  137.9647  155.9862 H   0  0  0  0  0  0  0  0  0  0  0  0
  150.5519  139.7603  156.7089 H   0  0  0  0  0  0  0  0  0  0  0  0
  152.0064  140.5076  156.1850 H   0  0  0  0  0  0  0  0  0  0  0  0
  151.2733  138.1274  153.0526 H   0  0  0  0  0  0  0  0  0  0  0  0
  152.5084  137.9391  154.2551 H   0  0  0  0  0  0  0  0  0  0  0  0
  150.9884  135.9953  154.1799 H   0  0  0  0  0  0  0  0  0  0  0  0
  150.9229  136.7403  155.7548 H   0  0  0  0  0  0  0  0  0  0  0  0
  148.8999  135.0108  154.9617 H   0  0  0  0  0  0  0  0  0  0  0  0
  148.4827  136.0543  156.2992 H   0  0  0  0  0  0  0  0  0  0  0  0
  146.4621  136.8910  154.9792 H   0  0  0  0  0  0  0  0  0  0  0  0
  146.1189  134.9704  156.5844 H   0  0  0  0  0  0  0  0  0  0  0  0
  146.5713  133.8350  155.3151 H   0  0  0  0  0  0  0  0  0  0  0  0
  145.1061  134.7996  155.1590 H   0  0  0  0  0  0  0  0  0  0  0  0
  147.6495  136.0544  153.0058 H   0  0  0  0  0  0  0  0  0  0  0  0
  147.7164  138.5419  154.9058 H   0  0  0  0  0  0  0  0  0  0  0  0
  148.8646  138.3945  156.2150 H   0  0  0  0  0  0  0  0  0  0  0  0
  149.2640  140.4896  154.9118 H   0  0  0  0  0  0  0  0  0  0  0  0
  149.3869  139.5795  153.4352 H   0  0  0  0  0  0  0  0  0  0  0  0
  150.5872  141.0081  158.0116 H   0  0  0  0  0  0  0  0  0  0  0  0
  149.3755  143.0284  157.8963 H   0  0  0  0  0  0  0  0  0  0  0  0
  150.3534  144.4913  157.9887 H   0  0  0  0  0  0  0  0  0  0  0  0
  149.4097  143.9632  159.3908 H   0  0  0  0  0  0  0  0  0  0  0  0
  148.9796  137.0713  153.6070 H   0  0  0  0  0  0  0  0  0  0  0  0
  1  2  1  0  0  0  0
  1 26  1  0  0  0  0
  1 27  1  0  0  0  0
  1 28  1  0  0  0  0
  2 24  1  0  0  0  0
  2  3  2  0  0  0  0
  3  4  1  0  0  0  0
  3 29  1  0  0  0  0
  4 22  2  0  0  0  0
  4  5  1  0  0  0  0
  5  6  2  0  0  0  0
  6  7  1  0  0  0  0
  6 30  1  0  0  0  0
  7  8  1  0  0  0  0
  7 22  1  0  0  0  0
  8  9  1  0  0  0  0
  8 31  1  0  0  0  0
  8 32  1  0  0  0  0
  9 10  1  0  0  0  0
  9 11  1  0  0  0  0
  9 33  1  0  0  0  0
 10 34  1  0  0  0  0
 11 12  1  0  0  0  0
 11 35  1  0  0  0  0
 11 36  1  0  0  0  0
 12 21  1  0  0  0  0
 12 13  1  0  0  0  0
 13 14  1  0  0  0  0
 13 37  1  0  0  0  0
 13 38  1  0  0  0  0
 14 15  1  0  0  0  0
 14 39  1  0  0  0  0
 14 40  1  0  0  0  0
 15 16  1  0  0  0  0
 15 20  1  0  0  0  0
 15 56  1  0  0  0  0
 16 17  1  0  0  0  0
 16 41  1  0  0  0  0
 16 42  1  0  0  0  0
 17 18  1  0  0  0  0
 17 19  1  0  0  0  0
 17 43  1  0  0  0  0
 18 44  1  0  0  0  0
 18 45  1  0  0  0  0
 18 46  1  0  0  0  0
 19 47  1  0  0  0  0
 20 21  1  0  0  0  0
 20 48  1  0  0  0  0
 20 49  1  0  0  0  0
 21 50  1  0  0  0  0
 21 51  1  0  0  0  0
 22 23  1  0  0  0  0
 23 24  2  0  0  0  0
 23 52  1  0  0  0  0
 24 25  1  0  0  0  0
 25 53  1  0  0  0  0
 25 54  1  0  0  0  0
 25 55  1  0  0  0  0
M  CHG  1  15   1
M  END
> <s_m_source_file>
AV-unprocessed.smi

> <i_m_source_file_index>
1033

> <i_lp_mmshare_version>
43012

> <i_f3d_flags>
0

> <s_epik_input>
W0NIM11jKFtjSF0xKWMoW0NIM10pW2NIXWMoYzEyKW4oW2NIXW4yKVtDSDJdW0NASF0oW09IXSlbQ0gyXU4zW0NIMl1bQ0gyXU4oW0NIMl1bQ0gyXTMpW0NIMl1bQ0BIXShbQ0gzXSlbT0hd

> <s_epik_cmdline>
J2VwaWtfcHl0aG9uJywgJy1waCcsICc3LjAnLCAnLXRuJywgJzgnLCAnLW1hJywgJzIwMCcsICctbWV0YWxfYmluZGluZycsICctaW1hZScsICc8aW5maWxlLm1hZT4nLCAnLW9tYWUnLCAnPG91dGZpbGUubWFlPic=

> <r_epik_Ionization_Penalty>
0.129152

> <r_epik_Ionization_Penalty_Charging>
0.00083231

> <r_epik_Ionization_Penalty_Neutral>
0.128319

> <r_epik_State_Penalty>
0.556973

> <r_epik_Charging_Adjusted_Penalty>
0.557805

> <i_epik_Tot_Q>
1

> <i_epik_Tot_abs_Q>
1

> <r_epik_Metal_State_Penalty>
0.490047

> <b_epik_Metal_Only>
0

> <s_lp_Force_Field>
OPLS_2005

> <r_lp_Energy>
33.6507

> <b_lp_Chiralities_Consistent>
1

> <s_lp_Variant>
AV-unprocessed.smi:1033-5

> <Gold.Version>
5.8.1

> <Gold.Id.Protein>
6NUR|6NUR_protein|mol2

> <Gold.PLP.Fitness>
54.8912

> <Gold.PLP.PLP>
-43.0119

> <Gold.PLP.part.hbond>
-3.5676

> <Gold.PLP.part.metal>
0.0000

> <Gold.PLP.part.buried>
-7.9223

> <Gold.PLP.part.nonpolar>
-33.0176

> <Gold.PLP.part.repulsive>
0.0858

> <Gold.PLP.ligand.clash>
0.0000

> <Gold.PLP.ligand.torsion>
1.4365

> <Gold.PLP.Chemscore.Hbond>
4.8406

> <Gold.PLP.Chemscore.CHOScore>
0.0000

> <Gold.PLP.Chemscore.Metal>
0.0000

> <Gold.Chemscore.Hbonds>
donor molecule, donor type, donor heavy atom, donor atom, acceptor molecule, acceptor atom, score
      L1  H    15    56       P1  7948  2.00
      L1  H    19    47       P1  7948  1.00
      P1  H  7989  7998       L1    12  0.90
      P1  H  7997  8008       L1    10  0.83

> <Gold.PLP.Chemscore.Internal.Correction>
0.2305

> <Gold.Rescore>
     Score         DG    S(hbond)    S(metal)    S(lipo)     H(rot)  DE(clash)    DE(int)     intcor
     18.55     -21.18       2.83        0.00     120.47       3.07       0.18       2.45       ----

> <Gold.Chemscore.Fitness>
18.5477

> <Gold.Chemscore.DG>
-21.1790

> <Gold.Chemscore.ZeroCoef>
-5.4800

> <Gold.Chemscore.Hbond>
2.8295

> <Gold.Chemscore.Metal>
0.0000

> <Gold.Chemscore.Lipo>
120.4706

> <Gold.Chemscore.Internal_Hbond>
0.0000

> <Gold.Chemscore.DEClash>
0.1767

> <Gold.Chemscore.DEInternal>
2.4546

> <Gold.Chemscore.Rot>
3.0650

> <Gold.Chemscore.Internal.Correction>
   9.000000E+99

> <Gold.Chemscore.Hbonds>
donor molecule, donor type, donor heavy atom, donor atom, acceptor molecule, acceptor atom, score
      L1  H    15    56       P1  7948  0.95
      L1  H    19    47       P1  7948  0.99
      P1  H  7989  7998       L1    12  0.10
      P1  H  7997  8008       L1    10  0.79

> <Gold.Chemscore.Hbond.Weighted>
-9.4504

> <Gold.Chemscore.Metal.Weighted>
-0.0000

> <Gold.Chemscore.Lipo.Weighted>
-14.0951

> <Gold.Chemscore.Internal_Hbond.Weighted>
0.0000

> <Gold.Chemscore.DEClash.Weighted>
0.1767

> <Gold.Chemscore.DEInternal.Weighted>
2.4546

> <Gold.Chemscore.Rot.Weighted>
7.8465

> <Gold.Chemscore.Internal.Correction.Weighted>
   9.000000E+99

> <Gold.Protein.RotatedTorsions>
[ 6907 6896 6895 6894 ] final -130.90 input  -60.11 | X-H torsion
[ 7974 7965 7964 7962 ] final  -46.82 input  175.53 | X-H torsion
[ 8008 7997 7996 7995 ] final  -54.36 input   59.86 | X-H torsion
[ 10167 10162 10161 10158 ] final  104.96 input  -65.29 | X-H torsion
[ 10718 10713 10712 10709 ] final   55.50 input   66.30 | X-H torsion
[ 10763 10752 10751 10750 ] final   67.34 input  -60.55 | X-H torsion
[ 11005 11000 10999 10996 ] final   46.70 input  -57.11 | X-H torsion

> <Gold.Protein.ActiveResidues>
 VAL166  LYS551  ARG553  GLY616  TRP617  ASP618  TYR619  PRO620  LYS621  CYS622 
 ASP623  PHE694  ASN695  SER759  ASP760  ASP761  ALA762  ILE779  LEU786  VAL792 
 PHE793  MET794  SER795  GLU796  ALA797  LYS798  CYS799  TRP800  GLU811  SER814 

> <Gold.Protein.RotatedAtoms>
  150.9449  133.6614  159.2783 H   0  0  0  0  0  0  0  0  0  0  0  0  # atno 6907 bound_to 6896
  151.3990  135.0967  159.9559 H   0  0  0  0  0  0  0  0  0  0  0  0  # atno 6908 bound_to 6896
  152.5085  133.8947  159.7466 H   0  0  0  0  0  0  0  0  0  0  0  0  # atno 6909 bound_to 6896
  145.9680  140.7412  142.9424 H   0  0  0  0  0  0  0  0  0  0  0  0  # atno 7974 bound_to 7965
  154.4160  140.1178  156.5303 H   0  0  0  0  0  0  0  0  0  0  0  0  # atno 8008 bound_to 7997
  155.6613  140.3496  155.4764 H   0  0  0  0  0  0  0  0  0  0  0  0  # atno 8009 bound_to 7997
  155.9711  140.1141  157.0801 H   0  0  0  0  0  0  0  0  0  0  0  0  # atno 8010 bound_to 7997
  139.7133  144.7073  151.0992 H   0  0  0  0  0  0  0  0  0  0  0  0  # atno 10167 bound_to 10162
  157.5350  130.8657  149.8741 H   0  0  0  0  0  0  0  0  0  0  0  0  # atno 10718 bound_to 10713
  153.0182  135.5287  154.6965 H   0  0  0  0  0  0  0  0  0  0  0  0  # atno 10763 bound_to 10752
  154.6085  135.2876  155.0460 H   0  0  0  0  0  0  0  0  0  0  0  0  # atno 10764 bound_to 10752
  154.1490  135.6566  153.5012 H   0  0  0  0  0  0  0  0  0  0  0  0  # atno 10765 bound_to 10752
  140.1345  134.4662  155.8496 H   0  0  0  0  0  0  0  0  0  0  0  0  # atno 11005 bound_to 11000
  144.6830  140.2701  143.7307 LP  0  0  0  0  0  0  0  0  0  0  0  0  # atno 17320 bound_to 7965
  145.7946  139.1940  143.2083 LP  0  0  0  0  0  0  0  0  0  0  0  0  # atno 17321 bound_to 7965
  140.7738  143.5264  150.9475 LP  0  0  0  0  0  0  0  0  0  0  0  0  # atno 17342 bound_to 10162
  139.8949  143.6907  152.3140 LP  0  0  0  0  0  0  0  0  0  0  0  0  # atno 17343 bound_to 10162
  156.0452  130.3729  150.1336 LP  0  0  0  0  0  0  0  0  0  0  0  0  # atno 17370 bound_to 10713
  156.9519  130.9777  151.3496 LP  0  0  0  0  0  0  0  0  0  0  0  0  # atno 17371 bound_to 10713
  141.2176  133.6809  156.7132 LP  0  0  0  0  0  0  0  0  0  0  0  0  # atno 17394 bound_to 11000
  140.2800  134.8324  157.3924 LP  0  0  0  0  0  0  0  0  0  0  0  0  # atno 17395 bound_to 11000

$$$$
