AV-unprocessed.smi:941|AV-procd|sdf|4220|dock3
  -GOLD-   22720 2133D 1   1.00000     0.00000
 Structure written by MMmdl.
 18 18  0  0  0  0  0  0  0  0  2 V2000
  148.0588  138.8098  152.7722 N   0  3  0  0  0  0  0  0  0  0  0  0
  148.6622  138.8950  154.1131 C   0  0  0  0  0  0  0  0  0  0  0  0
  149.3211  140.2610  154.3464 C   0  0  0  0  0  0  0  0  0  0  0  0
  150.4435  140.1878  155.3266 C   0  0  0  0  0  0  0  0  0  0  0  0
  150.3666  140.3413  156.6461 N   0  0  0  0  0  0  0  0  0  0  0  0
  151.6564  140.1083  157.0097 C   0  0  0  0  0  0  0  0  0  0  0  0
  152.0557  140.1757  158.3543 N   0  0  0  0  0  0  0  0  0  0  0  0
  152.4943  139.8125  156.0250 N   0  0  0  0  0  0  0  0  0  0  0  0
  151.6791  139.8518  154.8845 O   0  0  0  0  0  0  0  0  0  0  0  0
  148.5379  139.4425  152.1471 H   0  0  0  0  0  0  0  0  0  0  0  0
  147.0826  139.0643  152.8234 H   0  0  0  0  0  0  0  0  0  0  0  0
  147.8858  138.7165  154.8580 H   0  0  0  0  0  0  0  0  0  0  0  0
  149.3982  138.0972  154.2171 H   0  0  0  0  0  0  0  0  0  0  0  0
  149.7061  140.6602  153.4071 H   0  0  0  0  0  0  0  0  0  0  0  0
  148.5856  140.9777  154.7141 H   0  0  0  0  0  0  0  0  0  0  0  0
  151.3846  140.3998  159.0749 H   0  0  0  0  0  0  0  0  0  0  0  0
  153.0063  139.9579  158.6161 H   0  0  0  0  0  0  0  0  0  0  0  0
  148.1428  137.8657  152.4225 H   0  0  0  0  0  0  0  0  0  0  0  0
  1  2  1  0  0  0  0
  1 10  1  0  0  0  0
  1 11  1  0  0  0  0
  1 18  1  0  0  0  0
  2  3  1  0  0  0  0
  2 12  1  0  0  0  0
  2 13  1  0  0  0  0
  3  4  1  0  0  0  0
  3 14  1  0  0  0  0
  3 15  1  0  0  0  0
  4  9  1  0  0  0  0
  4  5  2  0  0  0  0
  5  6  1  0  0  0  0
  6  7  1  0  0  0  0
  6  8  2  0  0  0  0
  7 16  1  0  0  0  0
  7 17  1  0  0  0  0
  8  9  1  0  0  0  0
M  CHG  1   1   1
M  END
> <s_m_source_file>
AV-unprocessed.smi

> <i_m_source_file_index>
941

> <i_lp_mmshare_version>
43012

> <i_f3d_flags>
0

> <s_epik_input>
W05IMl1bQ0gyXVtDSDJdYzFuYyhbTkgyXSlubzE=

> <s_epik_cmdline>
J2VwaWtfcHl0aG9uJywgJy1waCcsICc3LjAnLCAnLXRuJywgJzgnLCAnLW1hJywgJzIwMCcsICctbWV0YWxfYmluZGluZycsICctaW1hZScsICc8aW5maWxlLm1hZT4nLCAnLW9tYWUnLCAnPG91dGZpbGUubWFlPic=

> <r_epik_Ionization_Penalty>
0.00605592

> <r_epik_Ionization_Penalty_Charging>
0.00601069

> <r_epik_Ionization_Penalty_Neutral>
4.52271e-05

> <r_epik_State_Penalty>
0.00442499

> <r_epik_Charging_Adjusted_Penalty>
0.0104357

> <i_epik_Tot_Q>
1

> <i_epik_Tot_abs_Q>
1

> <r_epik_Metal_State_Penalty>
-0

> <b_epik_Metal_Only>
0

> <s_lp_Force_Field>
OPLS_2005

> <r_lp_Energy>
-1.60622

> <b_lp_Chiralities_Consistent>
1

> <s_lp_Variant>
AV-unprocessed.smi:941-1

> <Gold.Version>
5.8.1

> <Gold.Id.Protein>
6NUR|6NUR_protein|mol2

> <Gold.PLP.Fitness>
28.9060

> <Gold.PLP.PLP>
-14.9502

> <Gold.PLP.part.hbond>
-4.0000

> <Gold.PLP.part.metal>
0.0000

> <Gold.PLP.part.buried>
-2.6023

> <Gold.PLP.part.nonpolar>
-8.4255

> <Gold.PLP.part.repulsive>
0.2234

> <Gold.PLP.ligand.clash>
0.0000

> <Gold.PLP.ligand.torsion>
0.5271

> <Gold.PLP.Chemscore.Hbond>
5.0000

> <Gold.PLP.Chemscore.CHOScore>
0.0000

> <Gold.PLP.Chemscore.Metal>
0.0000

> <Gold.Chemscore.Hbonds>
donor molecule, donor type, donor heavy atom, donor atom, acceptor molecule, acceptor atom, score
      L1  H     1    10       P1  7957  1.00
      L1  H     1    18       P1  7948  2.00
      P1  H  7989  7998       L1     9  0.80
      P1  H  7997  8009       L1     8  1.00

> <Gold.PLP.Chemscore.Internal.Correction>
0.0099

> <Gold.Rescore>
     Score         DG    S(hbond)    S(metal)    S(lipo)     H(rot)  DE(clash)    DE(int)     intcor
     14.68     -15.32       3.83        0.00      11.58       1.67       0.07       0.58       ----

> <Gold.Chemscore.Fitness>
14.6769

> <Gold.Chemscore.DG>
-15.3233

> <Gold.Chemscore.ZeroCoef>
-5.4800

> <Gold.Chemscore.Hbond>
3.8251

> <Gold.Chemscore.Metal>
0.0000

> <Gold.Chemscore.Lipo>
11.5790

> <Gold.Chemscore.Internal_Hbond>
0.0000

> <Gold.Chemscore.DEClash>
0.0650

> <Gold.Chemscore.DEInternal>
0.5814

> <Gold.Chemscore.Rot>
1.6747

> <Gold.Chemscore.Internal.Correction>
   9.000000E+99

> <Gold.Chemscore.Hbonds>
donor molecule, donor type, donor heavy atom, donor atom, acceptor molecule, acceptor atom, score
      L1  H     1    10       P1  7957  0.96
      L1  H     1    18       P1  7948  0.99
      P1  H  7989  7998       L1     9  0.12
      P1  H  7997  8009       L1     8  0.99

> <Gold.Chemscore.Hbond.Weighted>
-12.7757

> <Gold.Chemscore.Metal.Weighted>
-0.0000

> <Gold.Chemscore.Lipo.Weighted>
-1.3547

> <Gold.Chemscore.Internal_Hbond.Weighted>
0.0000

> <Gold.Chemscore.DEClash.Weighted>
0.0650

> <Gold.Chemscore.DEInternal.Weighted>
0.5814

> <Gold.Chemscore.Rot.Weighted>
4.2872

> <Gold.Chemscore.Internal.Correction.Weighted>
   9.000000E+99

> <Gold.Protein.RotatedTorsions>
[ 6907 6896 6895 6894 ] final   19.58 input  -60.11 | X-H torsion
[ 7974 7965 7964 7962 ] final  144.78 input  175.53 | X-H torsion
[ 8008 7997 7996 7995 ] final -146.84 input   59.86 | X-H torsion
[ 10167 10162 10161 10158 ] final   77.94 input  -65.29 | X-H torsion
[ 10718 10713 10712 10709 ] final   90.09 input   66.30 | X-H torsion
[ 10763 10752 10751 10750 ] final   70.37 input  -60.55 | X-H torsion
[ 11005 11000 10999 10996 ] final -174.92 input  -57.11 | X-H torsion

> <Gold.Protein.ActiveResidues>
 VAL166  LYS551  ARG553  GLY616  TRP617  ASP618  TYR619  PRO620  LYS621  CYS622 
 ASP623  PHE694  ASN695  SER759  ASP760  ASP761  ALA762  ILE779  LEU786  VAL792 
 PHE793  MET794  SER795  GLU796  ALA797  LYS798  CYS799  TRP800  GLU811  SER814 

> <Gold.Protein.RotatedAtoms>
  151.8831  135.0446  160.0490 H   0  0  0  0  0  0  0  0  0  0  0  0  # atno 6907 bound_to 6896
  152.2496  133.5199  159.5326 H   0  0  0  0  0  0  0  0  0  0  0  0  # atno 6908 bound_to 6896
  150.7079  134.0894  159.3969 H   0  0  0  0  0  0  0  0  0  0  0  0  # atno 6909 bound_to 6896
  144.8807  139.5703  143.5844 H   0  0  0  0  0  0  0  0  0  0  0  0  # atno 7974 bound_to 7965
  155.5659  140.0629  157.2818 H   0  0  0  0  0  0  0  0  0  0  0  0  # atno 8008 bound_to 7997
  154.4376  140.1877  156.0875 H   0  0  0  0  0  0  0  0  0  0  0  0  # atno 8009 bound_to 7997
  156.0412  140.3295  155.7250 H   0  0  0  0  0  0  0  0  0  0  0  0  # atno 8010 bound_to 7997
  139.9762  144.5859  150.7941 H   0  0  0  0  0  0  0  0  0  0  0  0  # atno 10167 bound_to 10162
  157.6958  131.0358  150.3525 H   0  0  0  0  0  0  0  0  0  0  0  0  # atno 10718 bound_to 10713
  153.0338  135.5176  154.7431 H   0  0  0  0  0  0  0  0  0  0  0  0  # atno 10763 bound_to 10752
  154.6425  135.2914  155.0089 H   0  0  0  0  0  0  0  0  0  0  0  0  # atno 10764 bound_to 10752
  154.1002  135.6637  153.4919 H   0  0  0  0  0  0  0  0  0  0  0  0  # atno 10765 bound_to 10752
  140.4691  134.6182  157.4874 H   0  0  0  0  0  0  0  0  0  0  0  0  # atno 11005 bound_to 11000
  146.2992  139.7374  142.9103 LP  0  0  0  0  0  0  0  0  0  0  0  0  # atno 17320 bound_to 7965
  145.3959  141.0379  143.3097 LP  0  0  0  0  0  0  0  0  0  0  0  0  # atno 17321 bound_to 7965
  140.7505  143.2956  151.3214 LP  0  0  0  0  0  0  0  0  0  0  0  0  # atno 17342 bound_to 10162
  139.6444  144.0480  152.2579 LP  0  0  0  0  0  0  0  0  0  0  0  0  # atno 17343 bound_to 10162
  156.3972  130.3909  149.6986 LP  0  0  0  0  0  0  0  0  0  0  0  0  # atno 17370 bound_to 10713
  156.4316  130.7818  151.2838 LP  0  0  0  0  0  0  0  0  0  0  0  0  # atno 17371 bound_to 10713
  139.9896  134.7006  155.9712 LP  0  0  0  0  0  0  0  0  0  0  0  0  # atno 17394 bound_to 11000
  141.1585  133.6540  156.4241 LP  0  0  0  0  0  0  0  0  0  0  0  0  # atno 17395 bound_to 11000

$$$$
