AV-unprocessed.smi:244|AV-procd|sdf|1871|dock9
  -GOLD-   2262020513D 1   1.00000     0.00000
 Structure written by MMmdl.
 57 61  0  0  0  0  0  0  0  0  2 V2000
  147.4933  131.6200  154.4410 C   0  0  0  0  0  0  0  0  0  0  0  0
  146.4959  131.5605  153.3507 N   0  3  2  0  0  0  0  0  0  0  0  0
  146.7172  130.4038  152.4470 C   0  0  0  0  0  0  0  0  0  0  0  0
  145.6031  130.3041  151.3922 C   0  0  0  0  0  0  0  0  0  0  0  0
  145.4971  131.6131  150.6007 C   0  0  1  0  0  0  0  0  0  0  0  0
  144.4238  131.5258  149.6703 O   0  0  0  0  0  0  0  0  0  0  0  0
  144.3275  132.6972  148.8665 C   0  0  0  0  0  0  0  0  0  0  0  0
  144.0658  133.9161  149.7663 C   0  0  0  0  0  0  0  0  0  0  0  0
  145.0983  134.0242  150.7935 N   0  0  0  0  0  0  0  0  0  0  0  0
  144.9691  135.1472  151.5349 C   0  0  0  0  0  0  0  0  0  0  0  0
  145.9478  136.0901  151.5226 N   0  0  0  0  0  0  0  0  0  0  0  0
  145.8032  137.2083  152.2406 C   0  0  0  0  0  0  0  0  0  0  0  0
  144.7779  137.5791  153.0111 N   0  0  0  0  0  0  0  0  0  0  0  0
  143.7920  136.6360  153.0146 C   0  0  0  0  0  0  0  0  0  0  0  0
  143.8100  135.3995  152.3125 C   0  0  0  0  0  0  0  0  0  0  0  0
  142.6371  134.6956  152.5493 N   0  0  0  0  0  0  0  0  0  0  0  0
  141.9631  135.4717  153.3543 C   0  0  0  0  0  0  0  0  0  0  0  0
  142.5738  136.6654  153.6706 N   0  0  0  0  0  0  0  0  0  0  0  0
  142.0466  137.7128  154.5316 C   0  0  0  0  0  0  0  0  0  0  0  0
  140.9848  138.6218  153.8612 C   0  0  0  0  0  0  0  0  0  0  0  0
  141.5023  138.9142  152.5757 O   0  0  0  0  0  0  0  0  0  0  0  0
  139.6166  137.9268  153.6894 C   0  0  0  0  0  0  0  0  0  0  0  0
  138.5580  138.8804  153.1065 C   0  0  0  0  0  0  0  0  0  0  0  0
  138.4454  140.0400  153.9234 O   0  0  0  0  0  0  0  0  0  0  0  0
  139.6493  140.7965  153.9800 C   0  0  0  0  0  0  0  0  0  0  0  0
  140.7712  139.9537  154.6131 C   0  0  0  0  0  0  0  0  0  0  0  0
  145.2473  132.7898  151.5681 C   0  0  2  0  0  0  0  0  0  0  0  0
  146.3901  132.8438  152.6110 C   0  0  0  0  0  0  0  0  0  0  0  0
  148.4966  131.7834  154.0456 H   0  0  0  0  0  0  0  0  0  0  0  0
  147.4968  130.6899  155.0102 H   0  0  0  0  0  0  0  0  0  0  0  0
  147.2615  132.4306  155.1324 H   0  0  0  0  0  0  0  0  0  0  0  0
  147.6883  130.5024  151.9589 H   0  0  0  0  0  0  0  0  0  0  0  0
  146.7479  129.4835  153.0317 H   0  0  0  0  0  0  0  0  0  0  0  0
  145.8033  129.4728  150.7155 H   0  0  0  0  0  0  0  0  0  0  0  0
  144.6516  130.0871  151.8795 H   0  0  0  0  0  0  0  0  0  0  0  0
  146.4297  131.7689  150.0542 H   0  0  0  0  0  0  0  0  0  0  0  0
  145.2409  132.8313  148.2848 H   0  0  0  0  0  0  0  0  0  0  0  0
  143.5117  132.5737  148.1542 H   0  0  0  0  0  0  0  0  0  0  0  0
  144.0456  134.8252  149.1636 H   0  0  0  0  0  0  0  0  0  0  0  0
  143.0851  133.8177  150.2342 H   0  0  0  0  0  0  0  0  0  0  0  0
  146.6248  137.9075  152.1876 H   0  0  0  0  0  0  0  0  0  0  0  0
  140.9890  135.1984  153.7337 H   0  0  0  0  0  0  0  0  0  0  0  0
  141.6244  137.2357  155.4175 H   0  0  0  0  0  0  0  0  0  0  0  0
  142.8861  138.3139  154.8849 H   0  0  0  0  0  0  0  0  0  0  0  0
  140.8604  139.4193  152.1003 H   0  0  0  0  0  0  0  0  0  0  0  0
  139.7120  137.0404  153.0611 H   0  0  0  0  0  0  0  0  0  0  0  0
  139.2535  137.5804  154.6568 H   0  0  0  0  0  0  0  0  0  0  0  0
  138.8033  139.1648  152.0821 H   0  0  0  0  0  0  0  0  0  0  0  0
  137.5886  138.3832  153.0709 H   0  0  0  0  0  0  0  0  0  0  0  0
  139.9262  141.1382  152.9815 H   0  0  0  0  0  0  0  0  0  0  0  0
  139.4721  141.6895  154.5796 H   0  0  0  0  0  0  0  0  0  0  0  0
  140.4914  139.7550  155.6472 H   0  0  0  0  0  0  0  0  0  0  0  0
  141.6982  140.5274  154.6497 H   0  0  0  0  0  0  0  0  0  0  0  0
  144.3081  132.6110  152.0949 H   0  0  0  0  0  0  0  0  0  0  0  0
  146.2083  133.6395  153.3346 H   0  0  0  0  0  0  0  0  0  0  0  0
  147.3406  133.0679  152.1238 H   0  0  0  0  0  0  0  0  0  0  0  0
  145.5996  131.4113  153.7923 H   0  0  0  0  0  0  0  0  0  0  0  0
  1  2  1  0  0  0  0
  1 29  1  0  0  0  0
  1 30  1  0  0  0  0
  1 31  1  0  0  0  0
  2 28  1  0  0  0  0
  2  3  1  0  0  0  0
  2 57  1  0  0  0  0
  3  4  1  0  0  0  0
  3 32  1  0  0  0  0
  3 33  1  0  0  0  0
  4  5  1  0  0  0  0
  4 34  1  0  0  0  0
  4 35  1  0  0  0  0
  5 27  1  0  0  0  0
  5  6  1  0  0  0  0
  5 36  1  0  0  0  0
  6  7  1  0  0  0  0
  7  8  1  0  0  0  0
  7 37  1  0  0  0  0
  7 38  1  0  0  0  0
  8  9  1  0  0  0  0
  8 39  1  0  0  0  0
  8 40  1  0  0  0  0
  9 10  1  0  0  0  0
  9 27  1  0  0  0  0
 10 15  1  0  0  0  0
 10 11  2  0  0  0  0
 11 12  1  0  0  0  0
 12 13  2  0  0  0  0
 12 41  1  0  0  0  0
 13 14  1  0  0  0  0
 14 18  1  0  0  0  0
 14 15  2  0  0  0  0
 15 16  1  0  0  0  0
 16 17  2  0  0  0  0
 17 18  1  0  0  0  0
 17 42  1  0  0  0  0
 18 19  1  0  0  0  0
 19 20  1  0  0  0  0
 19 43  1  0  0  0  0
 19 44  1  0  0  0  0
 20 26  1  0  0  0  0
 20 21  1  0  0  0  0
 20 22  1  0  0  0  0
 21 45  1  0  0  0  0
 22 23  1  0  0  0  0
 22 46  1  0  0  0  0
 22 47  1  0  0  0  0
 23 24  1  0  0  0  0
 23 48  1  0  0  0  0
 23 49  1  0  0  0  0
 24 25  1  0  0  0  0
 25 26  1  0  0  0  0
 25 50  1  0  0  0  0
 25 51  1  0  0  0  0
 26 52  1  0  0  0  0
 26 53  1  0  0  0  0
 27 28  1  0  0  0  0
 27 54  1  0  0  0  0
 28 55  1  0  0  0  0
 28 56  1  0  0  0  0
M  CHG  1   2   1
M  END
> <s_m_source_file>
AV-unprocessed.smi

> <i_m_source_file_index>
244

> <i_lp_mmshare_version>
43012

> <i_f3d_flags>
0

> <s_epik_input>
W0NIMl0xW0NIMl1OKFtDSDNdKVtDSDJdW0NAQEhdKFtDQEhdMTIpTihbQ0gyXVtDSDJdTzIpYyhuW2NIXW4zKWMoYzM0KW5bY0hdbjRbQ0gyXUM1KFtPSF0pW0NIMl1bQ0gyXU9bQ0gyXVtDSDJdNQ==

> <s_epik_cmdline>
J2VwaWtfcHl0aG9uJywgJy1waCcsICc3LjAnLCAnLXRuJywgJzgnLCAnLW1hJywgJzIwMCcsICctbWV0YWxfYmluZGluZycsICctaW1hZScsICc8aW5maWxlLm1hZT4nLCAnLW9tYWUnLCAnPG91dGZpbGUubWFlPic=

> <r_lp_tautomer_probability>
1

> <r_epik_Ionization_Penalty>
0.0136215

> <r_epik_Ionization_Penalty_Charging>
0.0131385

> <r_epik_Ionization_Penalty_Neutral>
0.000483022

> <r_epik_State_Penalty>
0.0104001

> <r_epik_Charging_Adjusted_Penalty>
0.0235387

> <i_epik_Tot_Q>
1

> <i_epik_Tot_abs_Q>
1

> <r_epik_Metal_State_Penalty>
0.0104469

> <b_epik_Metal_Only>
0

> <s_lp_Force_Field>
OPLS_2005

> <r_lp_Energy>
42.2984

> <b_lp_Chiralities_Consistent>
1

> <s_lp_Variant>
AV-unprocessed.smi:244-8

> <Gold.Version>
5.8.1

> <Gold.Id.Protein>
6NUR|6NUR_protein|mol2

> <Gold.PLP.Fitness>
45.0392

> <Gold.PLP.PLP>
-40.7333

> <Gold.PLP.part.hbond>
-2.9848

> <Gold.PLP.part.metal>
0.0000

> <Gold.PLP.part.buried>
-6.1127

> <Gold.PLP.part.nonpolar>
-33.2094

> <Gold.PLP.part.repulsive>
1.2634

> <Gold.PLP.ligand.clash>
0.0000

> <Gold.PLP.ligand.torsion>
0.4996

> <Gold.PLP.Chemscore.Hbond>
1.6080

> <Gold.PLP.Chemscore.CHOScore>
0.1228

> <Gold.PLP.Chemscore.Metal>
0.0000

> <Gold.Chemscore.Hbonds>
donor molecule, donor type, donor heavy atom, donor atom, acceptor molecule, acceptor atom, score
      L1  H    21    45       P1 10160  0.99
      P1  H 10785 10796       L1     6  0.45
      L1  C    12    41       P1  7948  0.08

> <Gold.PLP.Chemscore.Internal.Correction>
0.1127

> <Gold.Rescore>
     Score         DG    S(hbond)    S(metal)    S(lipo)     H(rot)  DE(clash)    DE(int)     intcor
     15.00     -16.14       1.53        0.00      93.18       2.09       0.74       0.40       ----

> <Gold.Chemscore.Fitness>
15.0012

> <Gold.Chemscore.DG>
-16.1383

> <Gold.Chemscore.ZeroCoef>
-5.4800

> <Gold.Chemscore.Hbond>
1.5297

> <Gold.Chemscore.Metal>
0.0000

> <Gold.Chemscore.Lipo>
93.1814

> <Gold.Chemscore.Internal_Hbond>
0.0000

> <Gold.Chemscore.DEClash>
0.7363

> <Gold.Chemscore.DEInternal>
0.4008

> <Gold.Chemscore.Rot>
2.0911

> <Gold.Chemscore.Internal.Correction>
   9.000000E+99

> <Gold.Chemscore.Hbonds>
donor molecule, donor type, donor heavy atom, donor atom, acceptor molecule, acceptor atom, score
      L1  H    21    45       P1 10160  0.94
      P1  H 10785 10796       L1     6  0.24

> <Gold.Chemscore.Hbond.Weighted>
-5.1092

> <Gold.Chemscore.Metal.Weighted>
-0.0000

> <Gold.Chemscore.Lipo.Weighted>
-10.9022

> <Gold.Chemscore.Internal_Hbond.Weighted>
0.0000

> <Gold.Chemscore.DEClash.Weighted>
0.7363

> <Gold.Chemscore.DEInternal.Weighted>
0.4008

> <Gold.Chemscore.Rot.Weighted>
5.3531

> <Gold.Chemscore.Internal.Correction.Weighted>
   9.000000E+99

> <Gold.Protein.RotatedTorsions>
[ 6907 6896 6895 6894 ] final  158.87 input  -60.11 | X-H torsion
[ 7974 7965 7964 7962 ] final    9.32 input  175.53 | X-H torsion
[ 8008 7997 7996 7995 ] final   88.21 input   59.86 | X-H torsion
[ 10167 10162 10161 10158 ] final -111.46 input  -65.29 | X-H torsion
[ 10718 10713 10712 10709 ] final -111.46 input   66.30 | X-H torsion
[ 10763 10752 10751 10750 ] final  178.49 input  -60.55 | X-H torsion
[ 11005 11000 10999 10996 ] final  176.20 input  -57.11 | X-H torsion

> <Gold.Protein.ActiveResidues>
 VAL166  LYS551  ARG553  GLY616  TRP617  ASP618  TYR619  PRO620  LYS621  CYS622 
 ASP623  PHE694  ASN695  SER759  ASP760  ASP761  ALA762  ILE779  LEU786  VAL792 
 PHE793  MET794  SER795  GLU796  ALA797  LYS798  CYS799  TRP800  GLU811  SER814 

> <Gold.Protein.RotatedAtoms>
  151.9940  133.3801  159.4155 H   0  0  0  0  0  0  0  0  0  0  0  0  # atno 6907 bound_to 6896
  150.6918  134.3906  159.5084 H   0  0  0  0  0  0  0  0  0  0  0  0  # atno 6908 bound_to 6896
  152.1643  134.8886  160.0590 H   0  0  0  0  0  0  0  0  0  0  0  0  # atno 6909 bound_to 6896
  146.2405  139.9802  142.8437 H   0  0  0  0  0  0  0  0  0  0  0  0  # atno 7974 bound_to 7965
  155.9850  140.3374  155.6698 H   0  0  0  0  0  0  0  0  0  0  0  0  # atno 8008 bound_to 7997
  155.6498  140.0704  157.2609 H   0  0  0  0  0  0  0  0  0  0  0  0  # atno 8009 bound_to 7997
  154.4202  140.1728  156.1649 H   0  0  0  0  0  0  0  0  0  0  0  0  # atno 8010 bound_to 7997
  140.1333  143.4341  152.1612 H   0  0  0  0  0  0  0  0  0  0  0  0  # atno 10167 bound_to 10162
  156.0649  130.5869  150.8377 H   0  0  0  0  0  0  0  0  0  0  0  0  # atno 10718 bound_to 10713
  154.5083  135.2787  155.1364 H   0  0  0  0  0  0  0  0  0  0  0  0  # atno 10763 bound_to 10752
  154.2969  135.6256  153.5412 H   0  0  0  0  0  0  0  0  0  0  0  0  # atno 10764 bound_to 10752
  152.9914  135.5687  154.5542 H   0  0  0  0  0  0  0  0  0  0  0  0  # atno 10765 bound_to 10752
  140.3706  134.7033  157.4389 H   0  0  0  0  0  0  0  0  0  0  0  0  # atno 11005 bound_to 11000
  145.1599  140.9667  143.4383 LP  0  0  0  0  0  0  0  0  0  0  0  0  # atno 17320 bound_to 7965
  145.0126  139.3496  143.6112 LP  0  0  0  0  0  0  0  0  0  0  0  0  # atno 17321 bound_to 7965
  139.5508  144.7336  151.4440 LP  0  0  0  0  0  0  0  0  0  0  0  0  # atno 17342 bound_to 10162
  140.6804  143.8095  150.7113 LP  0  0  0  0  0  0  0  0  0  0  0  0  # atno 17343 bound_to 10162
  157.5683  131.0946  150.9456 LP  0  0  0  0  0  0  0  0  0  0  0  0  # atno 17370 bound_to 10713
  156.9678  130.5479  149.5289 LP  0  0  0  0  0  0  0  0  0  0  0  0  # atno 17371 bound_to 10713
  140.0555  134.6070  155.8810 LP  0  0  0  0  0  0  0  0  0  0  0  0  # atno 17394 bound_to 11000
  141.1956  133.6588  156.5650 LP  0  0  0  0  0  0  0  0  0  0  0  0  # atno 17395 bound_to 11000

$$$$
