#       Name:                AV-unprocessed.smi:233
#       Creating user name   scv26
#       Creation time:       Thu Mar 26 20:33:19 2020


#       File generated by GOLD software.
#

@<TRIPOS>MOLECULE
AV-unprocessed.smi:233
    68    71     1
SMALL
NO_CHARGES


@<TRIPOS>ATOM
      1 ****        -6.5567  -4.4675  -1.1198 C.3            1 S1                 0.0000
      2 ****        -6.2479  -2.9947  -1.3669 C.2            1 S1                 0.0000
      3 ****        -7.1647  -2.1910  -1.5339 O.2            1 S1                 0.0000
      4 ****        -4.9495  -2.6572  -1.3850 N.am           1 S1                 0.0000
      5 ****        -4.4274  -1.3122  -1.6082 C.3            1 S1                 0.0000
      6 ****        -3.0142  -1.4047  -2.2136 C.3            1 S1                 0.0000
      7 ****        -2.3873  -0.0144  -2.4037 C.3            1 S1                 0.0000
      8 ****        -2.3625   0.7697  -1.0756 C.3            1 S1                 0.0000
      9 ****        -1.7105   2.0772  -1.2148 N.pl3          1 S1                 0.0000
     10 ****        -2.2821   3.0823  -2.1104 C.3            1 S1                 0.0000
     11 ****        -0.3575   2.0701  -1.0937 C.ar           1 S1                 0.0000
     12 ****         0.4140   2.4747  -2.1386 N.ar           1 S1                 0.0000
     13 ****         1.7463   2.4645  -2.0386 C.ar           1 S1                 0.0000
     14 ****         2.5022   2.0940  -1.0037 N.ar           1 S1                 0.0000
     15 ****         1.7356   1.6903   0.0494 C.ar           1 S1                 0.0000
     16 ****         0.3130   1.6526   0.0911 C.ar           1 S1                 0.0000
     17 ****        -0.1107   1.2139   1.3404 N.2            1 S1                 0.0000
     18 ****         0.9972   1.0012   1.9967 C.2            1 S1                 0.0000
     19 ****         2.1537   1.2346   1.2874 N.pl3          1 S1                 0.0000
     20 ****         3.4984   1.1222   1.7711 C.3            1 S1                 0.0000
     21 ****         4.5861   0.4541   0.9271 C.3            1 S1                 0.0000
     22 ****         5.2682  -0.0513   2.2186 C.3            1 S1                 0.0000
     23 ****         5.7978  -1.4939   2.1682 C.3            1 S1                 0.0000
     24 ****         5.9966  -2.0109   3.4682 O.3            1 S1                 0.0000
     25 ****         6.3656   0.8714   2.7861 C.3            1 S1                 0.0000
     26 ****         7.4726   0.9555   1.9114 O.3            1 S1                 0.0000
     27 ****         3.8725   0.1139   2.8602 C.3            1 S1                 0.0000
     28 ****        -3.7827   0.8790  -0.4847 C.3            1 S1                 0.0000
     29 ****        -4.4079  -0.5117  -0.2894 C.3            1 S1                 0.0000
     30 ****        -6.0147  -5.0964  -1.8267 H              1 S1                 0.0000
     31 ****        -7.6229  -4.6648  -1.2363 H              1 S1                 0.0000
     32 ****        -6.2650  -4.7521  -0.1084 H              1 S1                 0.0000
     33 ****        -4.2694  -3.3882  -1.2345 H              1 S1                 0.0000
     34 ****        -5.0681  -0.7945  -2.3250 H              1 S1                 0.0000
     35 ****        -2.3719  -2.0018  -1.5644 H              1 S1                 0.0000
     36 ****        -3.0515  -1.9232  -3.1723 H              1 S1                 0.0000
     37 ****        -1.3754  -0.1232  -2.7955 H              1 S1                 0.0000
     38 ****        -2.9544   0.5349  -3.1560 H              1 S1                 0.0000
     39 ****        -1.7854   0.1698  -0.3726 H              1 S1                 0.0000
     40 ****        -1.7963   4.0484  -1.9679 H              1 S1                 0.0000
     41 ****        -3.3441   3.2259  -1.9179 H              1 S1                 0.0000
     42 ****        -2.1608   2.7900  -3.1537 H              1 S1                 0.0000
     43 ****         2.2835   2.8002  -2.9132 H              1 S1                 0.0000
     44 ****         0.9985   0.6618   3.0223 H              1 S1                 0.0000
     45 ****         3.7994   2.1308   2.0588 H              1 S1                 0.0000
     46 ****         4.1919  -0.3531   0.3068 H              1 S1                 0.0000
     47 ****         5.1789   1.1475   0.3298 H              1 S1                 0.0000
     48 ****         5.0920  -2.1479   1.6552 H              1 S1                 0.0000
     49 ****         6.7333  -1.5611   1.6127 H              1 S1                 0.0000
     50 ****         6.3234  -2.8945   3.3925 H              1 S1                 0.0000
     51 ****         5.9889   1.8825   2.9414 H              1 S1                 0.0000
     52 ****         6.7129   0.5268   3.7604 H              1 S1                 0.0000
     53 ****         8.1100   1.5418   2.2895 H              1 S1                 0.0000
     54 ****         3.8786   0.5220   3.8714 H              1 S1                 0.0000
     55 ****         3.2740  -0.7977   2.8107 H              1 S1                 0.0000
     56 ****        -3.7501   1.4033   0.4708 H              1 S1                 0.0000
     57 ****        -4.4283   1.4637  -1.1402 H              1 S1                 0.0000
     58 ****        -5.4206  -0.4038   0.1009 H              1 S1                 0.0000
     59 ****        -3.8429  -1.0586   0.4667 H              1 S1                 0.0000
     60 ****        -8.1144  -2.5033  -1.5077 LP             1 S1                 0.0000
     61 ****        -6.9601  -1.2256  -1.6958 LP             1 S1                 0.0000
     62 ****        -0.0186   2.7815  -2.9864 LP             1 S1                 0.0000
     63 ****         3.5020   2.1102  -1.0006 LP             1 S1                 0.0000
     64 ****        -1.0493   1.0898   1.6624 LP             1 S1                 0.0000
     65 ****         5.1296  -2.0134   3.9665 LP             1 S1                 0.0000
     66 ****         6.6609  -1.4463   3.9579 LP             1 S1                 0.0000
     67 ****         7.1752   1.3076   1.0239 LP             1 S1                 0.0000
     68 ****         7.8774   0.0490   1.7917 LP             1 S1                 0.0000
@<TRIPOS>BOND
    1    1    2 1     
    2    1   30 1     
    3    1   31 1     
    4    1   32 1     
    5    2    3 2     
    6    2    4 am    
    7    4    5 1     
    8    4   33 1     
    9    5   29 1     
   10    5    6 1     
   11    5   34 1     
   12    6    7 1     
   13    6   35 1     
   14    6   36 1     
   15    7    8 1     
   16    7   37 1     
   17    7   38 1     
   18    8    9 1     
   19    8   28 1     
   20    8   39 1     
   21    9   10 1     
   22    9   11 1     
   23   10   40 1     
   24   10   41 1     
   25   10   42 1     
   26   11   16 ar    
   27   11   12 ar    
   28   12   13 ar    
   29   13   14 ar    
   30   13   43 1     
   31   14   15 ar    
   32   15   19 1     
   33   15   16 ar    
   34   16   17 1     
   35   17   18 2     
   36   18   19 1     
   37   18   44 1     
   38   19   20 1     
   39   20   27 1     
   40   20   21 1     
   41   20   45 1     
   42   21   22 1     
   43   21   46 1     
   44   21   47 1     
   45   22   23 1     
   46   22   25 1     
   47   22   27 1     
   48   23   24 1     
   49   23   48 1     
   50   23   49 1     
   51   24   50 1     
   52   25   26 1     
   53   25   51 1     
   54   25   52 1     
   55   26   53 1     
   56   27   54 1     
   57   27   55 1     
   58   28   29 1     
   59   28   56 1     
   60   28   57 1     
   61   29   58 1     
   62   29   59 1     
   63    3   60 1     
   64    3   61 1     
   65   12   62 1     
   66   14   63 1     
   67   17   64 1     
   68   24   65 1     
   69   24   66 1     
   70   26   67 1     
   71   26   68 1     
@<TRIPOS>SUBSTRUCTURE
      1 S1             1
@<TRIPOS>SET
LONE_PAIRS      STATIC     ATOMS    <user>   **** ""
9 60 61 62 63 64 65 66 67 68
DONOR_HYDROGENS      STATIC     ATOMS    <user>   **** ""
3 33 50 53
ATOM$BLUE        STATIC     ATOMS    COLORGROUP SYSTEM
9 60 61 62 63 64 65 66 67 68
ATOM$RED        STATIC     ATOMS    COLORGROUP SYSTEM
3 33 50 53
