AV-unprocessed.smi:3051|AV-procd|sdf|11633|dock6
  -GOLD-   2272017 23D 1   1.00000     0.00000
 Structure written by MMmdl.
 37 37  0  0  0  0  0  0  0  0  1 V2000
  152.2657  144.0865  159.4835 C   0  0  0  0  0  0  0  0  0  0  0  0
  152.7301  142.6755  159.8672 C   0  0  0  0  0  0  0  0  0  0  0  0
  151.8261  141.6555  159.3496 N   0  0  0  0  0  0  0  0  0  0  0  0
  152.2078  140.5012  158.7805 C   0  0  0  0  0  0  0  0  0  0  0  0
  153.3853  140.1734  158.6334 O   0  0  0  0  0  0  0  0  0  0  0  0
  151.0906  139.5670  158.3122 C   0  0  0  0  0  0  0  0  0  0  0  0
  151.0180  139.5128  156.8628 N   0  0  0  0  0  0  0  0  0  0  0  0
  152.0249  139.2191  155.9638 C   0  0  0  0  0  0  0  0  0  0  0  0
  151.4892  139.2904  154.7091 C   0  0  0  0  0  0  0  0  0  0  0  0
  150.1323  139.6361  154.9537 C   0  0  0  0  0  0  0  0  0  0  0  0
  149.2127  139.8095  153.9125 N   0  0  0  0  0  0  0  0  0  0  0  0
  147.8258  140.1643  154.1907 C   0  0  2  0  0  0  0  0  0  0  0  0
  146.8619  139.2731  153.3890 C   0  0  0  0  0  0  0  0  0  0  0  0
  147.5864  141.6494  153.8785 C   0  0  0  0  0  0  0  0  0  0  0  0
  146.2258  141.9663  154.1244 O   0  0  0  0  0  0  0  0  0  0  0  0
  145.9142  143.3103  153.8023 C   0  0  0  0  0  0  0  0  0  0  0  0
  149.8471  139.7721  156.2399 N   0  0  0  0  0  0  0  0  0  0  0  0
  152.9682  144.8367  159.8467 H   0  0  0  0  0  0  0  0  0  0  0  0
  151.2889  144.3138  159.9115 H   0  0  0  0  0  0  0  0  0  0  0  0
  152.1923  144.1961  158.4010 H   0  0  0  0  0  0  0  0  0  0  0  0
  153.7225  142.4910  159.4553 H   0  0  0  0  0  0  0  0  0  0  0  0
  152.8225  142.5868  160.9509 H   0  0  0  0  0  0  0  0  0  0  0  0
  150.8362  141.8418  159.4238 H   0  0  0  0  0  0  0  0  0  0  0  0
  151.2630  138.5584  158.6899 H   0  0  0  0  0  0  0  0  0  0  0  0
  150.1337  139.9018  158.7167 H   0  0  0  0  0  0  0  0  0  0  0  0
  153.0283  138.9882  156.2898 H   0  0  0  0  0  0  0  0  0  0  0  0
  151.9899  139.1210  153.7674 H   0  0  0  0  0  0  0  0  0  0  0  0
  149.5137  139.7253  152.9523 H   0  0  0  0  0  0  0  0  0  0  0  0
  147.6302  140.0108  155.2529 H   0  0  0  0  0  0  0  0  0  0  0  0
  145.8237  139.5266  153.6043 H   0  0  0  0  0  0  0  0  0  0  0  0
  146.9939  138.2186  153.6321 H   0  0  0  0  0  0  0  0  0  0  0  0
  147.0158  139.3880  152.3155 H   0  0  0  0  0  0  0  0  0  0  0  0
  148.2459  142.2805  154.4774 H   0  0  0  0  0  0  0  0  0  0  0  0
  147.8109  141.8485  152.8292 H   0  0  0  0  0  0  0  0  0  0  0  0
  144.8607  143.5010  154.0065 H   0  0  0  0  0  0  0  0  0  0  0  0
  146.0943  143.5153  152.7463 H   0  0  0  0  0  0  0  0  0  0  0  0
  146.5043  144.0057  154.4004 H   0  0  0  0  0  0  0  0  0  0  0  0
  1  2  1  0  0  0  0
  1 18  1  0  0  0  0
  1 19  1  0  0  0  0
  1 20  1  0  0  0  0
  2  3  1  0  0  0  0
  2 21  1  0  0  0  0
  2 22  1  0  0  0  0
  3  4  1  0  0  0  0
  3 23  1  0  0  0  0
  4  5  2  0  0  0  0
  4  6  1  0  0  0  0
  6  7  1  0  0  0  0
  6 24  1  0  0  0  0
  6 25  1  0  0  0  0
  7 17  1  0  0  0  0
  7  8  1  0  0  0  0
  8  9  2  0  0  0  0
  8 26  1  0  0  0  0
  9 10  1  0  0  0  0
  9 27  1  0  0  0  0
 10 11  1  0  0  0  0
 10 17  2  0  0  0  0
 11 12  1  0  0  0  0
 11 28  1  0  0  0  0
 12 13  1  0  0  0  0
 12 14  1  0  0  0  0
 12 29  1  0  0  0  0
 13 30  1  0  0  0  0
 13 31  1  0  0  0  0
 13 32  1  0  0  0  0
 14 15  1  0  0  0  0
 14 33  1  0  0  0  0
 14 34  1  0  0  0  0
 15 16  1  0  0  0  0
 16 35  1  0  0  0  0
 16 36  1  0  0  0  0
 16 37  1  0  0  0  0
M  END
> <s_m_source_file>
AV-unprocessed.smi

> <i_m_source_file_index>
3051

> <i_lp_mmshare_version>
43012

> <i_f3d_flags>
0

> <s_epik_input>
W0NIM11bQ0gyXVtOSF1DKD1PKVtDSDJdbjFbY0hdW2NIXWMobjEpW05IXVtDQEhdKFtDSDNdKVtDSDJdT1tDSDNd

> <s_epik_cmdline>
J2VwaWtfcHl0aG9uJywgJy1waCcsICc3LjAnLCAnLXRuJywgJzgnLCAnLW1hJywgJzIwMCcsICctbWV0YWxfYmluZGluZycsICctaW1hZScsICc8aW5maWxlLm1hZT4nLCAnLW9tYWUnLCAnPG91dGZpbGUubWFlPic=

> <r_lp_tautomer_probability>
1

> <r_epik_Ionization_Penalty>
0.00023157

> <r_epik_Ionization_Penalty_Charging>
0

> <r_epik_Ionization_Penalty_Neutral>
0.00023157

> <r_epik_State_Penalty>
-0

> <r_epik_Charging_Adjusted_Penalty>
0

> <i_epik_Tot_Q>
0

> <i_epik_Tot_abs_Q>
0

> <r_epik_Metal_State_Penalty>
-0

> <b_epik_Metal_Only>
0

> <s_lp_Force_Field>
OPLS_2005

> <r_lp_Energy>
4.00538

> <b_lp_Chiralities_Consistent>
1

> <s_lp_Variant>
AV-unprocessed.smi:3051-1

> <Gold.Version>
5.8.1

> <Gold.Id.Protein>
6NUR|6NUR_protein|mol2

> <Gold.PLP.Fitness>
38.7420

> <Gold.PLP.PLP>
-33.6245

> <Gold.PLP.part.hbond>
-2.0000

> <Gold.PLP.part.metal>
0.0000

> <Gold.PLP.part.buried>
-4.0444

> <Gold.PLP.part.nonpolar>
-27.9916

> <Gold.PLP.part.repulsive>
0.4403

> <Gold.PLP.ligand.clash>
0.0000

> <Gold.PLP.ligand.torsion>
0.4418

> <Gold.PLP.Chemscore.Hbond>
1.9920

> <Gold.PLP.Chemscore.CHOScore>
0.0000

> <Gold.PLP.Chemscore.Metal>
0.0000

> <Gold.Chemscore.Hbonds>
donor molecule, donor type, donor heavy atom, donor atom, acceptor molecule, acceptor atom, score
      L1  H    11    28       P1  7957  1.00
      P1  H  7997  8008       L1     5  0.96

> <Gold.PLP.Chemscore.Internal.Correction>
0.0250

> <Gold.Rescore>
     Score         DG    S(hbond)    S(metal)    S(lipo)     H(rot)  DE(clash)    DE(int)     intcor
     14.30     -14.82       1.97        0.00      71.50       2.19       0.10       0.42       ----

> <Gold.Chemscore.Fitness>
14.2989

> <Gold.Chemscore.DG>
-14.8189

> <Gold.Chemscore.ZeroCoef>
-5.4800

> <Gold.Chemscore.Hbond>
1.9693

> <Gold.Chemscore.Metal>
0.0000

> <Gold.Chemscore.Lipo>
71.4988

> <Gold.Chemscore.Internal_Hbond>
0.0000

> <Gold.Chemscore.DEClash>
0.0967

> <Gold.Chemscore.DEInternal>
0.4232

> <Gold.Chemscore.Rot>
2.1890

> <Gold.Chemscore.Internal.Correction>
   9.000000E+99

> <Gold.Chemscore.Hbonds>
donor molecule, donor type, donor heavy atom, donor atom, acceptor molecule, acceptor atom, score
      L1  H    11    28       P1  7957  1.00
      P1  H  7997  8008       L1     5  0.89

> <Gold.Chemscore.Hbond.Weighted>
-6.5774

> <Gold.Chemscore.Metal.Weighted>
-0.0000

> <Gold.Chemscore.Lipo.Weighted>
-8.3654

> <Gold.Chemscore.Internal_Hbond.Weighted>
0.0000

> <Gold.Chemscore.DEClash.Weighted>
0.0967

> <Gold.Chemscore.DEInternal.Weighted>
0.4232

> <Gold.Chemscore.Rot.Weighted>
5.6039

> <Gold.Chemscore.Internal.Correction.Weighted>
   9.000000E+99

> <Gold.Protein.RotatedTorsions>
[ 6907 6896 6895 6894 ] final   36.21 input  -60.11 | X-H torsion
[ 7974 7965 7964 7962 ] final   80.17 input  175.53 | X-H torsion
[ 8008 7997 7996 7995 ] final  -90.98 input   59.86 | X-H torsion
[ 10167 10162 10161 10158 ] final  171.33 input  -65.29 | X-H torsion
[ 10718 10713 10712 10709 ] final  135.89 input   66.30 | X-H torsion
[ 10763 10752 10751 10750 ] final   77.14 input  -60.55 | X-H torsion
[ 11005 11000 10999 10996 ] final   73.98 input  -57.11 | X-H torsion

> <Gold.Protein.ActiveResidues>
 VAL166  LYS551  ARG553  GLY616  TRP617  ASP618  TYR619  PRO620  LYS621  CYS622 
 ASP623  PHE694  ASN695  SER759  ASP760  ASP761  ALA762  ILE779  LEU786  VAL792 
 PHE793  MET794  SER795  GLU796  ALA797  LYS798  CYS799  TRP800  GLU811  SER814 

> <Gold.Protein.RotatedAtoms>
  152.1267  134.9165  160.0560 H   0  0  0  0  0  0  0  0  0  0  0  0  # atno 6907 bound_to 6896
  152.0286  133.3923  159.4296 H   0  0  0  0  0  0  0  0  0  0  0  0  # atno 6908 bound_to 6896
  150.6853  134.3468  159.4935 H   0  0  0  0  0  0  0  0  0  0  0  0  # atno 6909 bound_to 6896
  145.6547  139.2456  143.1957 H   0  0  0  0  0  0  0  0  0  0  0  0  # atno 7974 bound_to 7965
  154.7052  140.0524  157.0497 H   0  0  0  0  0  0  0  0  0  0  0  0  # atno 8008 bound_to 7997
  155.0630  140.3191  155.4635 H   0  0  0  0  0  0  0  0  0  0  0  0  # atno 8009 bound_to 7997
  156.2772  140.2095  156.5757 H   0  0  0  0  0  0  0  0  0  0  0  0  # atno 8010 bound_to 7997
  139.5043  144.3498  151.9934 H   0  0  0  0  0  0  0  0  0  0  0  0  # atno 10167 bound_to 10162
  157.4523  131.1067  151.0018 H   0  0  0  0  0  0  0  0  0  0  0  0  # atno 10718 bound_to 10713
  153.0776  135.4925  154.8437 H   0  0  0  0  0  0  0  0  0  0  0  0  # atno 10763 bound_to 10752
  154.7109  135.3020  154.9201 H   0  0  0  0  0  0  0  0  0  0  0  0  # atno 10764 bound_to 10752
  153.9895  135.6780  153.4806 H   0  0  0  0  0  0  0  0  0  0  0  0  # atno 10765 bound_to 10752
  139.9413  134.7394  156.1093 H   0  0  0  0  0  0  0  0  0  0  0  0  # atno 11005 bound_to 11000
  146.1175  140.7351  142.9473 LP  0  0  0  0  0  0  0  0  0  0  0  0  # atno 17320 bound_to 7965
  144.7110  140.4038  143.7080 LP  0  0  0  0  0  0  0  0  0  0  0  0  # atno 17321 bound_to 7965
  140.2935  144.3727  150.6081 LP  0  0  0  0  0  0  0  0  0  0  0  0  # atno 17342 bound_to 10162
  140.5928  143.2167  151.7220 LP  0  0  0  0  0  0  0  0  0  0  0  0  # atno 17343 bound_to 10162
  157.0844  130.5916  149.5427 LP  0  0  0  0  0  0  0  0  0  0  0  0  # atno 17370 bound_to 10713
  155.9992  130.5068  150.7600 LP  0  0  0  0  0  0  0  0  0  0  0  0  # atno 17371 bound_to 10713
  141.1048  133.6664  156.2839 LP  0  0  0  0  0  0  0  0  0  0  0  0  # atno 17394 bound_to 11000
  140.5945  134.5617  157.5506 LP  0  0  0  0  0  0  0  0  0  0  0  0  # atno 17395 bound_to 11000

$$$$
