#       Name:                AV-unprocessed.smi:1473
#       Creating user name   scv26
#       Creation time:       Fri Mar 27 06:06:20 2020


#       File generated by GOLD software.
#

@<TRIPOS>MOLECULE
AV-unprocessed.smi:1473
    39    40     1
SMALL
NO_CHARGES


@<TRIPOS>ATOM
      1 ****        -2.0989   3.4458  -3.5637 N.pl3          1 S1                -1.0000
      2 ****        -2.5132   4.0646  -2.1311 S.o2           1 S1                 0.0000
      3 ****        -1.7562   5.2744  -1.7755 O.2            1 S1                 0.0000
      4 ****        -3.9638   4.0402  -1.8895 O.2            1 S1                 0.0000
      5 ****        -1.8587   2.7902  -1.1728 N.3            1 S1                 0.0000
      6 ****        -0.4086   2.6263  -1.0690 C.3            1 S1                 0.0000
      7 ****        -0.0020   1.1709  -1.1516 C.ar           1 S1                 0.0000
      8 ****         0.0854   0.5302  -2.4059 C.ar           1 S1                 0.0000
      9 ****         0.4458  -0.8304  -2.4576 C.ar           1 S1                 0.0000
     10 ****         0.6987  -1.5027  -1.3131 N.pl3          1 S1                 1.0000
     11 ****         0.6259  -0.9333  -0.0891 C.ar           1 S1                 0.0000
     12 ****         0.9006  -1.7500   1.0155 N.3            1 S1                 0.0000
     13 ****         1.9971  -1.2683   1.8462 C.3            1 S1                 0.0000
     14 ****         2.2909  -2.2810   2.9663 C.3            1 S1                 0.0000
     15 ****         1.1036  -2.5133   3.7186 O.3            1 S1                 0.0000
     16 ****         0.0584  -3.0556   2.9163 C.3            1 S1                 0.0000
     17 ****        -0.2918  -2.0671   1.7906 C.3            1 S1                 0.0000
     18 ****         0.2680   0.4310   0.0198 C.ar           1 S1                 0.0000
     19 ****        -2.9346   3.0221  -3.9844 H              1 S1                 0.0000
     20 ****        -2.3584   1.9119  -1.3057 H              1 S1                 0.0000
     21 ****         0.0903   3.1785  -1.8664 H              1 S1                 0.0000
     22 ****        -0.0698   3.0636  -0.1297 H              1 S1                 0.0000
     23 ****        -0.1274   1.0750  -3.3152 H              1 S1                 0.0000
     24 ****         0.5346  -1.3973  -3.3729 H              1 S1                 0.0000
     25 ****         2.8866  -1.1184   1.2331 H              1 S1                 0.0000
     26 ****         1.7384  -0.3032   2.2835 H              1 S1                 0.0000
     27 ****         2.6641  -3.2207   2.5555 H              1 S1                 0.0000
     28 ****         3.0635  -1.8946   3.6311 H              1 S1                 0.0000
     29 ****         0.3626  -4.0202   2.5070 H              1 S1                 0.0000
     30 ****        -0.8145  -3.2363   3.5436 H              1 S1                 0.0000
     31 ****        -0.7079  -1.1526   2.2163 H              1 S1                 0.0000
     32 ****        -1.0545  -2.4965   1.1396 H              1 S1                 0.0000
     33 ****         0.1911   0.9051   0.9876 H              1 S1                 0.0000
     34 ****         0.9553  -2.4881  -1.3763 H              1 S1                 0.0000
     35 ****        -1.1860   3.4706  -3.9712 LP             1 S1                 0.0000
     36 ****        -2.0397   3.1402  -0.2537 LP             1 S1                 0.0000
     37 ****         1.2254  -2.6124   0.6271 LP             1 S1                 0.0000
     38 ****         0.7940  -1.6461   4.1085 LP             1 S1                 0.0000
     39 ****         1.3100  -3.1558   4.4566 LP             1 S1                 0.0000
@<TRIPOS>BOND
    1    1    2 1     
    2    1   19 1     
    3    2    3 2     
    4    2    4 2     
    5    2    5 1     
    6    5    6 1     
    7    5   20 1     
    8    6    7 1     
    9    6   21 1     
   10    6   22 1     
   11    7   18 ar    
   12    7    8 ar    
   13    8    9 ar    
   14    8   23 1     
   15    9   10 ar    
   16    9   24 1     
   17   10   11 ar    
   18   10   34 1     
   19   11   12 1     
   20   11   18 ar    
   21   12   17 1     
   22   12   13 1     
   23   13   14 1     
   24   13   25 1     
   25   13   26 1     
   26   14   15 1     
   27   14   27 1     
   28   14   28 1     
   29   15   16 1     
   30   16   17 1     
   31   16   29 1     
   32   16   30 1     
   33   17   31 1     
   34   17   32 1     
   35   18   33 1     
   36    1   35 1     
   37    5   36 1     
   38   12   37 1     
   39   15   38 1     
   40   15   39 1     
@<TRIPOS>SUBSTRUCTURE
      1 S1             1
@<TRIPOS>SET
LONE_PAIRS      STATIC     ATOMS    <user>   **** ""
7 35 3 4 36 37 38 39
DONOR_HYDROGENS      STATIC     ATOMS    <user>   **** ""
3 19 20 34
ATOM$BLUE        STATIC     ATOMS    COLORGROUP SYSTEM
7 35 3 4 36 37 38 39
ATOM$RED        STATIC     ATOMS    COLORGROUP SYSTEM
3 19 20 34
