AV-unprocessed.smi:1762|AV-procd|sdf|7116|dock1
  -GOLD-   22720 8343D 1   1.00000     0.00000
 Structure written by MMmdl.
 53 54  0  0  0  0  0  0  0  0  2 V2000
  152.9260  144.6097  158.0057 C   0  0  0  0  0  0  0  0  0  0  0  0
  151.6778  144.3622  158.8724 C   0  0  1  0  0  0  0  0  0  0  0  0
  150.9116  143.0791  158.4925 C   0  0  0  0  0  0  0  0  0  0  0  0
  151.6345  141.8543  158.9361 N   0  3  2  0  0  0  0  0  0  0  0  0
  150.9887  140.5518  158.5515 C   0  0  2  0  0  0  0  0  0  0  0  0
  151.9932  139.3842  158.6598 C   0  0  0  0  0  0  0  0  0  0  0  0
  152.7304  139.1115  157.7114 O   0  0  0  0  0  0  0  0  0  0  0  0
  152.0129  138.7088  159.8184 N   0  0  0  0  0  0  0  0  0  0  0  0
  152.8964  137.5854  160.0988 C   0  0  0  0  0  0  0  0  0  0  0  0
  153.9204  137.9573  161.1797 C   0  0  0  0  0  0  0  0  0  0  0  0
  153.9281  136.9659  162.3282 C   0  0  0  0  0  0  0  0  0  0  0  0
  153.5740  137.3713  163.6328 C   0  0  0  0  0  0  0  0  0  0  0  0
  153.5895  136.4095  164.6614 C   0  0  0  0  0  0  0  0  0  0  0  0
  153.9566  135.0866  164.3479 C   0  0  0  0  0  0  0  0  0  0  0  0
  154.2927  134.7828  163.0135 C   0  0  0  0  0  0  0  0  0  0  0  0
  154.2806  135.6974  162.0194 N   0  0  0  0  0  0  0  0  0  0  0  0
  150.3064  140.5620  157.1412 C   0  0  0  0  0  0  0  0  0  0  0  0
  151.2162  141.1214  156.0294 C   0  0  0  0  0  0  0  0  0  0  0  0
  148.9362  141.2717  157.1109 C   0  0  0  0  0  0  0  0  0  0  0  0
  151.9051  141.9618  160.3980 C   0  0  0  0  0  0  0  0  0  0  0  0
  152.7035  143.2359  160.7201 C   0  0  2  0  0  0  0  0  0  0  0  0
  152.9374  143.4005  162.2259 C   0  0  0  0  0  0  0  0  0  0  0  0
  151.9773  144.3716  160.2657 O   0  0  0  0  0  0  0  0  0  0  0  0
  152.6491  144.7422  156.9595 H   0  0  0  0  0  0  0  0  0  0  0  0
  153.6326  143.7812  158.0491 H   0  0  0  0  0  0  0  0  0  0  0  0
  153.4476  145.5126  158.3240 H   0  0  0  0  0  0  0  0  0  0  0  0
  151.0094  145.2076  158.7054 H   0  0  0  0  0  0  0  0  0  0  0  0
  149.9203  143.0907  158.9486 H   0  0  0  0  0  0  0  0  0  0  0  0
  150.7644  143.0985  157.4148 H   0  0  0  0  0  0  0  0  0  0  0  0
  150.1984  140.3771  159.2845 H   0  0  0  0  0  0  0  0  0  0  0  0
  151.3774  138.9885  160.5517 H   0  0  0  0  0  0  0  0  0  0  0  0
  152.2988  136.7324  160.4240 H   0  0  0  0  0  0  0  0  0  0  0  0
  153.4125  137.2889  159.1840 H   0  0  0  0  0  0  0  0  0  0  0  0
  154.9211  138.0030  160.7471 H   0  0  0  0  0  0  0  0  0  0  0  0
  153.7084  138.9544  161.5685 H   0  0  0  0  0  0  0  0  0  0  0  0
  153.2946  138.3936  163.8424 H   0  0  0  0  0  0  0  0  0  0  0  0
  153.3240  136.6812  165.6724 H   0  0  0  0  0  0  0  0  0  0  0  0
  153.9788  134.3229  165.1111 H   0  0  0  0  0  0  0  0  0  0  0  0
  154.5778  133.7783  162.7374 H   0  0  0  0  0  0  0  0  0  0  0  0
  150.1437  139.5271  156.8433 H   0  0  0  0  0  0  0  0  0  0  0  0
  151.3866  142.1930  156.1369 H   0  0  0  0  0  0  0  0  0  0  0  0
  150.7695  140.9643  155.0470 H   0  0  0  0  0  0  0  0  0  0  0  0
  152.1873  140.6258  156.0277 H   0  0  0  0  0  0  0  0  0  0  0  0
  149.0341  142.3447  157.2759 H   0  0  0  0  0  0  0  0  0  0  0  0
  148.2556  140.8840  157.8685 H   0  0  0  0  0  0  0  0  0  0  0  0
  148.4519  141.1374  156.1432 H   0  0  0  0  0  0  0  0  0  0  0  0
  150.9589  141.9625  160.9419 H   0  0  0  0  0  0  0  0  0  0  0  0
  152.4736  141.1071  160.7635 H   0  0  0  0  0  0  0  0  0  0  0  0
  153.6766  143.1943  160.2304 H   0  0  0  0  0  0  0  0  0  0  0  0
  153.5003  142.5591  162.6307 H   0  0  0  0  0  0  0  0  0  0  0  0
  151.9935  143.4639  162.7682 H   0  0  0  0  0  0  0  0  0  0  0  0
  153.5030  144.3089  162.4353 H   0  0  0  0  0  0  0  0  0  0  0  0
  152.5315  141.8667  158.4711 H   0  0  0  0  0  0  0  0  0  0  0  0
  1  2  1  0  0  0  0
  1 24  1  0  0  0  0
  1 25  1  0  0  0  0
  1 26  1  0  0  0  0
  2 23  1  0  0  0  0
  2  3  1  0  0  0  0
  2 27  1  0  0  0  0
  3  4  1  0  0  0  0
  3 28  1  0  0  0  0
  3 29  1  0  0  0  0
  4  5  1  0  0  0  0
  4 20  1  0  0  0  0
  4 53  1  0  0  0  0
  5  6  1  0  0  0  0
  5 17  1  0  0  0  0
  5 30  1  0  0  0  0
  6  7  2  0  0  0  0
  6  8  1  0  0  0  0
  8  9  1  0  0  0  0
  8 31  1  0  0  0  0
  9 10  1  0  0  0  0
  9 32  1  0  0  0  0
  9 33  1  0  0  0  0
 10 11  1  0  0  0  0
 10 34  1  0  0  0  0
 10 35  1  0  0  0  0
 11 16  1  0  0  0  0
 11 12  2  0  0  0  0
 12 13  1  0  0  0  0
 12 36  1  0  0  0  0
 13 14  2  0  0  0  0
 13 37  1  0  0  0  0
 14 15  1  0  0  0  0
 14 38  1  0  0  0  0
 15 16  2  0  0  0  0
 15 39  1  0  0  0  0
 17 18  1  0  0  0  0
 17 19  1  0  0  0  0
 17 40  1  0  0  0  0
 18 41  1  0  0  0  0
 18 42  1  0  0  0  0
 18 43  1  0  0  0  0
 19 44  1  0  0  0  0
 19 45  1  0  0  0  0
 19 46  1  0  0  0  0
 20 21  1  0  0  0  0
 20 47  1  0  0  0  0
 20 48  1  0  0  0  0
 21 22  1  0  0  0  0
 21 23  1  0  0  0  0
 21 49  1  0  0  0  0
 22 50  1  0  0  0  0
 22 51  1  0  0  0  0
 22 52  1  0  0  0  0
M  CHG  1   4   1
M  END
> <s_m_source_file>
AV-unprocessed.smi

> <i_m_source_file_index>
1762

> <i_lp_mmshare_version>
43012

> <i_f3d_flags>
0

> <s_epik_input>
W0NIM11bQ0BASF0xW0NIMl1OKFtDSDJdW0NASF0oTzEpW0NIM10pW0NAQEhdKFtDSF0oW0NIM10pW0NIM10pQyg9TylbTkhdW0NIMl1bQ0gyXWMyW2NIXVtjSF1bY0hdW2NIXW4y

> <s_epik_cmdline>
J2VwaWtfcHl0aG9uJywgJy1waCcsICc3LjAnLCAnLXRuJywgJzgnLCAnLW1hJywgJzIwMCcsICctbWV0YWxfYmluZGluZycsICctaW1hZScsICc8aW5maWxlLm1hZT4nLCAnLW9tYWUnLCAnPG91dGZpbGUubWFlPic=

> <r_epik_Ionization_Penalty>
2.27005

> <r_epik_Ionization_Penalty_Charging>
2.24983

> <r_epik_Ionization_Penalty_Neutral>
0.0202209

> <r_epik_State_Penalty>
2.40228

> <r_epik_Charging_Adjusted_Penalty>
4.65211

> <i_epik_Tot_Q>
1

> <i_epik_Tot_abs_Q>
1

> <r_epik_Metal_State_Penalty>
2.40762

> <b_epik_Metal_Only>
0

> <s_lp_Force_Field>
OPLS_2005

> <r_lp_Energy>
24.3613

> <b_lp_Chiralities_Consistent>
1

> <s_lp_Variant>
AV-unprocessed.smi:1762-18

> <Gold.Version>
5.8.1

> <Gold.Id.Protein>
6NUR|6NUR_protein|mol2

> <Gold.PLP.Fitness>
46.3986

> <Gold.PLP.PLP>
-46.0228

> <Gold.PLP.part.hbond>
-1.0000

> <Gold.PLP.part.metal>
0.0000

> <Gold.PLP.part.buried>
-5.9529

> <Gold.PLP.part.nonpolar>
-38.8010

> <Gold.PLP.part.repulsive>
0.2907

> <Gold.PLP.ligand.clash>
0.0000

> <Gold.PLP.ligand.torsion>
1.6175

> <Gold.PLP.Chemscore.Hbond>
1.0000

> <Gold.PLP.Chemscore.CHOScore>
0.0000

> <Gold.PLP.Chemscore.Metal>
0.0000

> <Gold.Chemscore.Hbonds>
donor molecule, donor type, donor heavy atom, donor atom, acceptor molecule, acceptor atom, score
      P1  H  7997  8008       L1     7  0.68

> <Gold.PLP.Chemscore.Internal.Correction>
0.6108

> <Gold.Rescore>
     Score         DG    S(hbond)    S(metal)    S(lipo)     H(rot)  DE(clash)    DE(int)     intcor
     18.92     -20.97       1.00        0.00     140.25       1.66       0.33       1.72       ----

> <Gold.Chemscore.Fitness>
18.9208

> <Gold.Chemscore.DG>
-20.9683

> <Gold.Chemscore.ZeroCoef>
-5.4800

> <Gold.Chemscore.Hbond>
0.9992

> <Gold.Chemscore.Metal>
0.0000

> <Gold.Chemscore.Lipo>
140.2516

> <Gold.Chemscore.Internal_Hbond>
0.0000

> <Gold.Chemscore.DEClash>
0.3271

> <Gold.Chemscore.DEInternal>
1.7203

> <Gold.Chemscore.Rot>
1.6635

> <Gold.Chemscore.Internal.Correction>
   9.000000E+99

> <Gold.Chemscore.Hbonds>
donor molecule, donor type, donor heavy atom, donor atom, acceptor molecule, acceptor atom, score
      P1  H  7997  8008       L1     7  0.69

> <Gold.Chemscore.Hbond.Weighted>
-3.3375

> <Gold.Chemscore.Metal.Weighted>
-0.0000

> <Gold.Chemscore.Lipo.Weighted>
-16.4094

> <Gold.Chemscore.Internal_Hbond.Weighted>
0.0000

> <Gold.Chemscore.DEClash.Weighted>
0.3271

> <Gold.Chemscore.DEInternal.Weighted>
1.7203

> <Gold.Chemscore.Rot.Weighted>
4.2586

> <Gold.Chemscore.Internal.Correction.Weighted>
   9.000000E+99

> <Gold.Protein.RotatedTorsions>
[ 6907 6896 6895 6894 ] final   49.46 input  -60.11 | X-H torsion
[ 7974 7965 7964 7962 ] final   40.86 input  175.53 | X-H torsion
[ 8008 7997 7996 7995 ] final  -68.53 input   59.86 | X-H torsion
[ 10167 10162 10161 10158 ] final  -44.83 input  -65.29 | X-H torsion
[ 10718 10713 10712 10709 ] final  -69.02 input   66.30 | X-H torsion
[ 10763 10752 10751 10750 ] final   49.27 input  -60.55 | X-H torsion
[ 11005 11000 10999 10996 ] final   84.80 input  -57.11 | X-H torsion

> <Gold.Protein.ActiveResidues>
 VAL166  LYS551  ARG553  GLY616  TRP617  ASP618  TYR619  PRO620  LYS621  CYS622 
 ASP623  PHE694  ASN695  SER759  ASP760  ASP761  ALA762  ILE779  LEU786  VAL792 
 PHE793  MET794  SER795  GLU796  ALA797  LYS798  CYS799  TRP800  GLU811  SER814 

> <Gold.Protein.RotatedAtoms>
  152.2910  134.7721  160.0377 H   0  0  0  0  0  0  0  0  0  0  0  0  # atno 6907 bound_to 6896
  151.8267  133.3397  159.3609 H   0  0  0  0  0  0  0  0  0  0  0  0  # atno 6908 bound_to 6896
  150.7230  134.5451  159.5811 H   0  0  0  0  0  0  0  0  0  0  0  0  # atno 6909 bound_to 6896
  146.0870  139.5483  142.9500 H   0  0  0  0  0  0  0  0  0  0  0  0  # atno 7974 bound_to 7965
  154.4874  140.0871  156.7518 H   0  0  0  0  0  0  0  0  0  0  0  0  # atno 8008 bound_to 7997
  155.4315  140.3450  155.4262 H   0  0  0  0  0  0  0  0  0  0  0  0  # atno 8009 bound_to 7997
  156.1281  140.1493  156.9094 H   0  0  0  0  0  0  0  0  0  0  0  0  # atno 8010 bound_to 7997
  140.6881  143.2910  151.3552 H   0  0  0  0  0  0  0  0  0  0  0  0  # atno 10167 bound_to 10162
  156.0476  130.4305  150.2086 H   0  0  0  0  0  0  0  0  0  0  0  0  # atno 10718 bound_to 10713
  152.9787  135.5917  154.4061 H   0  0  0  0  0  0  0  0  0  0  0  0  # atno 10763 bound_to 10752
  154.3701  135.2767  155.2273 H   0  0  0  0  0  0  0  0  0  0  0  0  # atno 10764 bound_to 10752
  154.4232  135.6054  153.6077 H   0  0  0  0  0  0  0  0  0  0  0  0  # atno 10765 bound_to 10752
  139.8989  134.8242  156.2495 H   0  0  0  0  0  0  0  0  0  0  0  0  # atno 11005 bound_to 11000
  145.6111  141.0339  143.1966 LP  0  0  0  0  0  0  0  0  0  0  0  0  # atno 17320 bound_to 7965
  144.7333  139.7661  143.7339 LP  0  0  0  0  0  0  0  0  0  0  0  0  # atno 17321 bound_to 7965
  139.6259  144.0816  152.2433 LP  0  0  0  0  0  0  0  0  0  0  0  0  # atno 17342 bound_to 10162
  140.0275  144.6106  150.7515 LP  0  0  0  0  0  0  0  0  0  0  0  0  # atno 17343 bound_to 10162
  157.0174  130.9969  151.3349 LP  0  0  0  0  0  0  0  0  0  0  0  0  # atno 17370 bound_to 10713
  157.5368  130.8094  149.7981 LP  0  0  0  0  0  0  0  0  0  0  0  0  # atno 17371 bound_to 10713
  141.0233  133.7029  156.1305 LP  0  0  0  0  0  0  0  0  0  0  0  0  # atno 17394 bound_to 11000
  140.7202  134.4366  157.5575 LP  0  0  0  0  0  0  0  0  0  0  0  0  # atno 17395 bound_to 11000

$$$$
