#       Name:                AV-unprocessed.smi:2478
#       Creating user name   scv26
#       Creation time:       Fri Mar 27 13:40:44 2020


#       File generated by GOLD software.
#

@<TRIPOS>MOLECULE
AV-unprocessed.smi:2478
    49    50     1
SMALL
NO_CHARGES


@<TRIPOS>ATOM
      1 ****        -2.7660   1.3264   2.6731 C.3            1 S1                 0.0000
      2 ****        -3.0822   1.9590   1.3089 C.3            1 S1                 0.0000
      3 ****        -2.5584   3.4063   1.2116 C.3            1 S1                 0.0000
      4 ****        -2.9100   4.0444  -0.1421 C.3            1 S1                 0.0000
      5 ****        -2.3983   3.1907  -1.3120 C.3            1 S1                 0.0000
      6 ****        -2.9212   1.7480  -1.2178 C.3            1 S1                 0.0000
      7 ****        -2.5612   1.0985   0.1359 C.3            1 S1                 0.0000
      8 ****        -1.1495   0.9693   0.2653 O.3            1 S1                 0.0000
      9 ****        -0.5975  -0.1722  -0.3752 C.3            1 S1                 0.0000
     10 ****         0.9208  -0.1621  -0.1990 C.2            1 S1                 0.0000
     11 ****         1.5090   0.9006   0.0060 O.2            1 S1                 0.0000
     12 ****         1.5184  -1.3642  -0.2916 N.am           1 S1                 0.0000
     13 ****         2.9016  -1.6778  -0.1879 C.ar           1 S1                 0.0000
     14 ****         3.8593  -0.7396   0.0187 N.ar           1 S1                 0.0000
     15 ****         5.1502  -1.1188   0.1057 C.ar           1 S1                 0.0000
     16 ****         5.5653  -2.4566  -0.0050 C.ar           1 S1                 0.0000
     17 ****         4.5841  -3.4397  -0.2188 C.ar           1 S1                 0.0000
     18 ****         3.2262  -3.0517  -0.3226 C.ar           1 S1                 0.0000
     19 ****         2.2111  -3.9645  -0.5154 O.3            1 S1                 0.0000
     20 ****         2.4495  -5.0767  -1.2604 C.3            1 S1                 0.0000
     21 ****         2.8314  -6.1063  -0.4653 F              1 S1                 0.0000
     22 ****         1.3146  -5.4509  -1.8990 F              1 S1                 0.0000
     23 ****        -1.6914   1.2786   2.8519 H              1 S1                 0.0000
     24 ****        -3.1594   0.3116   2.7364 H              1 S1                 0.0000
     25 ****        -3.2107   1.9030   3.4845 H              1 S1                 0.0000
     26 ****        -4.1693   1.9994   1.2246 H              1 S1                 0.0000
     27 ****        -2.9776   4.0097   2.0173 H              1 S1                 0.0000
     28 ****        -1.4764   3.4192   1.3499 H              1 S1                 0.0000
     29 ****        -3.9917   4.1604  -0.2212 H              1 S1                 0.0000
     30 ****        -2.4863   5.0473  -0.2013 H              1 S1                 0.0000
     31 ****        -2.7055   3.6363  -2.2585 H              1 S1                 0.0000
     32 ****        -1.3074   3.1863  -1.3129 H              1 S1                 0.0000
     33 ****        -4.0057   1.7533  -1.3336 H              1 S1                 0.0000
     34 ****        -2.5364   1.1590  -2.0495 H              1 S1                 0.0000
     35 ****        -3.0269   0.1133   0.2000 H              1 S1                 0.0000
     36 ****        -1.0151  -1.0819   0.0600 H              1 S1                 0.0000
     37 ****        -0.8221  -0.1763  -1.4416 H              1 S1                 0.0000
     38 ****         0.9097  -2.1526  -0.4569 H              1 S1                 0.0000
     39 ****         5.8717  -0.3328   0.2719 H              1 S1                 0.0000
     40 ****         6.6091  -2.7217   0.0758 H              1 S1                 0.0000
     41 ****         4.8799  -4.4754  -0.2947 H              1 S1                 0.0000
     42 ****         3.2146  -4.8994  -2.0168 H              1 S1                 0.0000
     43 ****        -0.9293   0.9171   1.2394 LP             1 S1                 0.0000
     44 ****        -0.7245   1.7840  -0.1292 LP             1 S1                 0.0000
     45 ****         0.9932   1.7558   0.0571 LP             1 S1                 0.0000
     46 ****         2.5023   0.9081   0.1214 LP             1 S1                 0.0000
     47 ****         3.6100   0.2249   0.1058 LP             1 S1                 0.0000
     48 ****         1.4579  -3.4749  -0.9547 LP             1 S1                 0.0000
     49 ****         1.9229  -4.2760   0.3901 LP             1 S1                 0.0000
@<TRIPOS>BOND
    1    1    2 1     
    2    1   23 1     
    3    1   24 1     
    4    1   25 1     
    5    2    7 1     
    6    2    3 1     
    7    2   26 1     
    8    3    4 1     
    9    3   27 1     
   10    3   28 1     
   11    4    5 1     
   12    4   29 1     
   13    4   30 1     
   14    5    6 1     
   15    5   31 1     
   16    5   32 1     
   17    6    7 1     
   18    6   33 1     
   19    6   34 1     
   20    7    8 1     
   21    7   35 1     
   22    8    9 1     
   23    9   10 1     
   24    9   36 1     
   25    9   37 1     
   26   10   11 2     
   27   10   12 am    
   28   12   13 1     
   29   12   38 1     
   30   13   18 ar    
   31   13   14 ar    
   32   14   15 ar    
   33   15   16 ar    
   34   15   39 1     
   35   16   17 ar    
   36   16   40 1     
   37   17   18 ar    
   38   17   41 1     
   39   18   19 1     
   40   19   20 1     
   41   20   21 1     
   42   20   22 1     
   43   20   42 1     
   44    8   43 1     
   45    8   44 1     
   46   11   45 1     
   47   11   46 1     
   48   14   47 1     
   49   19   48 1     
   50   19   49 1     
@<TRIPOS>SUBSTRUCTURE
      1 S1             1
@<TRIPOS>SET
LONE_PAIRS      STATIC     ATOMS    <user>   **** ""
7 43 44 45 46 47 48 49
DONOR_HYDROGENS      STATIC     ATOMS    <user>   **** ""
1 38
ATOM$BLUE        STATIC     ATOMS    COLORGROUP SYSTEM
7 43 44 45 46 47 48 49
ATOM$RED        STATIC     ATOMS    COLORGROUP SYSTEM
1 38
