#       Name:                AV-unprocessed.smi:295
#       Creating user name   scv26
#       Creation time:       Thu Mar 26 22:14:20 2020


#       File generated by GOLD software.
#

@<TRIPOS>MOLECULE
AV-unprocessed.smi:295
    40    41     1
SMALL
NO_CHARGES


@<TRIPOS>ATOM
      1 ****        -1.4211   0.4918   1.7212 C.3            1 S1                 0.0000
      2 ****        -1.8114  -0.2920   0.4553 C.3            1 S1                 0.0000
      3 ****        -1.1784  -1.6993   0.4525 C.3            1 S1                 0.0000
      4 ****        -1.6055  -2.5096  -0.7814 C.3            1 S1                 0.0000
      5 ****        -1.2741  -1.7637  -2.0822 C.3            1 S1                 0.0000
      6 ****        -1.9004  -0.3580  -2.0932 C.3            1 S1                 0.0000
      7 ****        -1.4970   0.4717  -0.8577 C.3            1 S1                 0.0000
      8 ****        -0.0802   0.8242  -0.9364 N.am           1 S1                 0.0000
      9 ****         0.4481   2.0496  -0.7922 C.2            1 S1                 0.0000
     10 ****        -0.2196   3.0760  -0.6717 O.2            1 S1                 0.0000
     11 ****         1.9743   2.1168  -0.7402 C.3            1 S1                 0.0000
     12 ****         2.4681   1.4832   0.4697 N.pl3          1 S1                 0.0000
     13 ****         2.6291   1.9749   1.7027 C.2            1 S1                 0.0000
     14 ****         3.0631   1.0843   2.5861 N.2            1 S1                 0.0000
     15 ****         3.1511  -0.0027   1.7655 C.2            1 S1                 0.0000
     16 ****         3.5792  -1.2983   2.2642 C.1            1 S1                 0.0000
     17 ****         3.9195  -2.3305   2.6613 N.1            1 S1                 0.0000
     18 ****         2.8153   0.1724   0.4894 N.2            1 S1                 0.0000
     19 ****        -0.3402   0.6028   1.8122 H              1 S1                 0.0000
     20 ****        -1.7728  -0.0184   2.6182 H              1 S1                 0.0000
     21 ****        -1.8599   1.4897   1.7164 H              1 S1                 0.0000
     22 ****        -2.8936  -0.4255   0.4920 H              1 S1                 0.0000
     23 ****        -0.0906  -1.6199   0.4788 H              1 S1                 0.0000
     24 ****        -1.4662  -2.2374   1.3562 H              1 S1                 0.0000
     25 ****        -1.1132  -3.4823  -0.7751 H              1 S1                 0.0000
     26 ****        -2.6775  -2.7054  -0.7356 H              1 S1                 0.0000
     27 ****        -0.1919  -1.6891  -2.1956 H              1 S1                 0.0000
     28 ****        -1.6329  -2.3352  -2.9387 H              1 S1                 0.0000
     29 ****        -1.6223   0.1677  -3.0076 H              1 S1                 0.0000
     30 ****        -2.9865  -0.4537  -2.1186 H              1 S1                 0.0000
     31 ****        -2.0959   1.3840  -0.8707 H              1 S1                 0.0000
     32 ****         0.5639   0.0523  -1.0340 H              1 S1                 0.0000
     33 ****         2.4021   1.6227  -1.6138 H              1 S1                 0.0000
     34 ****         2.3078   3.1553  -0.7564 H              1 S1                 0.0000
     35 ****         2.4098   3.0006   1.9610 H              1 S1                 0.0000
     36 ****        -1.2184   3.0264  -0.6778 LP             1 S1                 0.0000
     37 ****         0.2365   3.9599  -0.5677 LP             1 S1                 0.0000
     38 ****         3.2650   1.1809   3.5607 LP             1 S1                 0.0000
     39 ****         4.2136  -3.2225   3.0044 LP             1 S1                 0.0000
     40 ****         2.8183  -0.4901  -0.2597 LP             1 S1                 0.0000
@<TRIPOS>BOND
    1    1    2 1     
    2    1   19 1     
    3    1   20 1     
    4    1   21 1     
    5    2    7 1     
    6    2    3 1     
    7    2   22 1     
    8    3    4 1     
    9    3   23 1     
   10    3   24 1     
   11    4    5 1     
   12    4   25 1     
   13    4   26 1     
   14    5    6 1     
   15    5   27 1     
   16    5   28 1     
   17    6    7 1     
   18    6   29 1     
   19    6   30 1     
   20    7    8 1     
   21    7   31 1     
   22    8    9 am    
   23    8   32 1     
   24    9   10 2     
   25    9   11 1     
   26   11   12 1     
   27   11   33 1     
   28   11   34 1     
   29   12   18 1     
   30   12   13 1     
   31   13   14 2     
   32   13   35 1     
   33   14   15 1     
   34   15   16 1     
   35   15   18 2     
   36   16   17 3     
   37   10   36 1     
   38   10   37 1     
   39   14   38 1     
   40   17   39 1     
   41   18   40 1     
@<TRIPOS>SUBSTRUCTURE
      1 S1             1
@<TRIPOS>SET
LONE_PAIRS      STATIC     ATOMS    <user>   **** ""
5 36 37 38 39 40
DONOR_HYDROGENS      STATIC     ATOMS    <user>   **** ""
1 32
ATOM$BLUE        STATIC     ATOMS    COLORGROUP SYSTEM
5 36 37 38 39 40
ATOM$RED        STATIC     ATOMS    COLORGROUP SYSTEM
1 32
