AV-unprocessed.smi:2302|AV-procd|sdf|9237|dock10
  -GOLD-   2272012453D 1   1.00000     0.00000
 Structure written by MMmdl.
 40 41  0  0  0  0  0  0  0  0  2 V2000
  153.2224  142.2441  161.1887 C   0  0  0  0  0  0  0  0  0  0  0  0
  152.4575  143.2572  160.3631 C   0  0  0  0  0  0  0  0  0  0  0  0
  152.3395  144.5951  160.7874 C   0  0  0  0  0  0  0  0  0  0  0  0
  151.6132  145.4858  159.9770 C   0  0  0  0  0  0  0  0  0  0  0  0
  151.0367  145.0049  158.7855 C   0  0  0  0  0  0  0  0  0  0  0  0
  151.2001  143.6464  158.4332 C   0  0  0  0  0  0  0  0  0  0  0  0
  150.5795  143.2602  157.2151 N   0  0  0  0  0  0  0  0  0  0  0  0
  150.7123  142.1006  156.5475 C   0  0  0  0  0  0  0  0  0  0  0  0
  151.4200  141.1541  156.8940 O   0  0  0  0  0  0  0  0  0  0  0  0
  149.9689  142.0911  155.4316 N   0  0  0  0  0  0  0  0  0  0  0  0
  149.8820  140.9726  154.4985 C   0  0  0  0  0  0  0  0  0  0  0  0
  148.5800  140.1710  154.6772 C   0  0  1  0  0  0  0  0  0  0  0  0
  147.3970  140.8311  153.9372 C   0  0  0  0  0  0  0  0  0  0  0  0
  146.1693  140.0043  154.0251 N   0  3  2  0  0  0  0  0  0  0  0  0
  145.4694  140.1099  155.3266 C   0  0  0  0  0  0  0  0  0  0  0  0
  146.4333  138.6088  153.6013 C   0  0  0  0  0  0  0  0  0  0  0  0
  147.6514  138.0203  154.3371 C   0  0  0  0  0  0  0  0  0  0  0  0
  148.7798  138.8647  154.1443 O   0  0  0  0  0  0  0  0  0  0  0  0
  151.9045  142.7957  159.2207 N   0  0  0  0  0  0  0  0  0  0  0  0
  153.8729  142.7372  161.9118 H   0  0  0  0  0  0  0  0  0  0  0  0
  153.8436  141.6159  160.5494 H   0  0  0  0  0  0  0  0  0  0  0  0
  152.5292  141.6022  161.7329 H   0  0  0  0  0  0  0  0  0  0  0  0
  152.7917  144.9319  161.7088 H   0  0  0  0  0  0  0  0  0  0  0  0
  151.4987  146.5205  160.2643 H   0  0  0  0  0  0  0  0  0  0  0  0
  150.4740  145.6758  158.1527 H   0  0  0  0  0  0  0  0  0  0  0  0
  149.9580  143.9443  156.8097 H   0  0  0  0  0  0  0  0  0  0  0  0
  149.4178  142.9092  155.2161 H   0  0  0  0  0  0  0  0  0  0  0  0
  149.9573  141.3489  153.4768 H   0  0  0  0  0  0  0  0  0  0  0  0
  150.7459  140.3255  154.6532 H   0  0  0  0  0  0  0  0  0  0  0  0
  148.3494  140.0972  155.7410 H   0  0  0  0  0  0  0  0  0  0  0  0
  147.2036  141.8313  154.3274 H   0  0  0  0  0  0  0  0  0  0  0  0
  147.6494  140.9540  152.8830 H   0  0  0  0  0  0  0  0  0  0  0  0
  146.0689  139.7134  156.1460 H   0  0  0  0  0  0  0  0  0  0  0  0
  144.5287  139.5596  155.2989 H   0  0  0  0  0  0  0  0  0  0  0  0
  145.2347  141.1509  155.5511 H   0  0  0  0  0  0  0  0  0  0  0  0
  145.5488  137.9895  153.7555 H   0  0  0  0  0  0  0  0  0  0  0  0
  146.6277  138.6095  152.5279 H   0  0  0  0  0  0  0  0  0  0  0  0
  147.4514  137.8950  155.4021 H   0  0  0  0  0  0  0  0  0  0  0  0
  147.8830  137.0308  153.9427 H   0  0  0  0  0  0  0  0  0  0  0  0
  145.5231  140.3870  153.3493 H   0  0  0  0  0  0  0  0  0  0  0  0
  1  2  1  0  0  0  0
  1 20  1  0  0  0  0
  1 21  1  0  0  0  0
  1 22  1  0  0  0  0
  2 19  1  0  0  0  0
  2  3  2  0  0  0  0
  3  4  1  0  0  0  0
  3 23  1  0  0  0  0
  4  5  2  0  0  0  0
  4 24  1  0  0  0  0
  5  6  1  0  0  0  0
  5 25  1  0  0  0  0
  6  7  1  0  0  0  0
  6 19  2  0  0  0  0
  7  8  1  0  0  0  0
  7 26  1  0  0  0  0
  8  9  2  0  0  0  0
  8 10  1  0  0  0  0
 10 11  1  0  0  0  0
 10 27  1  0  0  0  0
 11 12  1  0  0  0  0
 11 28  1  0  0  0  0
 11 29  1  0  0  0  0
 12 18  1  0  0  0  0
 12 13  1  0  0  0  0
 12 30  1  0  0  0  0
 13 14  1  0  0  0  0
 13 31  1  0  0  0  0
 13 32  1  0  0  0  0
 14 15  1  0  0  0  0
 14 16  1  0  0  0  0
 14 40  1  0  0  0  0
 15 33  1  0  0  0  0
 15 34  1  0  0  0  0
 15 35  1  0  0  0  0
 16 17  1  0  0  0  0
 16 36  1  0  0  0  0
 16 37  1  0  0  0  0
 17 18  1  0  0  0  0
 17 38  1  0  0  0  0
 17 39  1  0  0  0  0
M  CHG  1  14   1
M  END
> <s_m_source_file>
AV-unprocessed.smi

> <i_m_source_file_index>
2302

> <i_lp_mmshare_version>
43012

> <i_f3d_flags>
0

> <s_epik_input>
W0NIM11jMVtjSF1bY0hdW2NIXWMobjEpW05IXUMoPU8pW05IXVtDSDJdW0NAQEhdMltDSDJdTihbQ0gzXSlbQ0gyXVtDSDJdTzI=

> <s_epik_cmdline>
J2VwaWtfcHl0aG9uJywgJy1waCcsICc3LjAnLCAnLXRuJywgJzgnLCAnLW1hJywgJzIwMCcsICctbWV0YWxfYmluZGluZycsICctaW1hZScsICc8aW5maWxlLm1hZT4nLCAnLW9tYWUnLCAnPG91dGZpbGUubWFlPic=

> <r_epik_Ionization_Penalty>
0.204647

> <r_epik_Ionization_Penalty_Charging>
0.204578

> <r_epik_Ionization_Penalty_Neutral>
6.91954e-05

> <r_epik_State_Penalty>
0.194513

> <r_epik_Charging_Adjusted_Penalty>
0.399091

> <i_epik_Tot_Q>
1

> <i_epik_Tot_abs_Q>
1

> <r_epik_Metal_State_Penalty>
0.194515

> <b_epik_Metal_Only>
0

> <s_lp_Force_Field>
OPLS_2005

> <r_lp_Energy>
17.5871

> <b_lp_Chiralities_Consistent>
1

> <s_lp_Variant>
AV-unprocessed.smi:2302-2

> <Gold.Version>
5.8.1

> <Gold.Id.Protein>
6NUR|6NUR_protein|mol2

> <Gold.PLP.Fitness>
47.2125

> <Gold.PLP.PLP>
-35.9418

> <Gold.PLP.part.hbond>
-3.0000

> <Gold.PLP.part.metal>
0.0000

> <Gold.PLP.part.buried>
-5.3419

> <Gold.PLP.part.nonpolar>
-28.7716

> <Gold.PLP.part.repulsive>
0.3720

> <Gold.PLP.ligand.clash>
0.0000

> <Gold.PLP.ligand.torsion>
0.3661

> <Gold.PLP.Chemscore.Hbond>
4.0000

> <Gold.PLP.Chemscore.CHOScore>
0.0000

> <Gold.PLP.Chemscore.Metal>
0.0000

> <Gold.Chemscore.Hbonds>
donor molecule, donor type, donor heavy atom, donor atom, acceptor molecule, acceptor atom, score
      L1  H     7    26       P1  8028  1.00
      L1  H    10    27       P1  8028  0.99
      L1  H    14    40       P1 10175  1.95

> <Gold.PLP.Chemscore.Internal.Correction>
0.0029

> <Gold.Rescore>
     Score         DG    S(hbond)    S(metal)    S(lipo)     H(rot)  DE(clash)    DE(int)     intcor
     19.81     -21.56       2.85        0.00      84.02       1.27       0.09       1.66       ----

> <Gold.Chemscore.Fitness>
19.8136

> <Gold.Chemscore.DG>
-21.5627

> <Gold.Chemscore.ZeroCoef>
-5.4800

> <Gold.Chemscore.Hbond>
2.8481

> <Gold.Chemscore.Metal>
0.0000

> <Gold.Chemscore.Lipo>
84.0197

> <Gold.Chemscore.Internal_Hbond>
0.0000

> <Gold.Chemscore.DEClash>
0.0873

> <Gold.Chemscore.DEInternal>
1.6619

> <Gold.Chemscore.Rot>
1.2736

> <Gold.Chemscore.Internal.Correction>
   9.000000E+99

> <Gold.Chemscore.Hbonds>
donor molecule, donor type, donor heavy atom, donor atom, acceptor molecule, acceptor atom, score
      L1  H     7    26       P1  8028  0.98
      L1  H    10    27       P1  8028  0.94
      L1  H    14    40       P1 10175  0.87

> <Gold.Chemscore.Hbond.Weighted>
-9.5127

> <Gold.Chemscore.Metal.Weighted>
-0.0000

> <Gold.Chemscore.Lipo.Weighted>
-9.8303

> <Gold.Chemscore.Internal_Hbond.Weighted>
0.0000

> <Gold.Chemscore.DEClash.Weighted>
0.0873

> <Gold.Chemscore.DEInternal.Weighted>
1.6619

> <Gold.Chemscore.Rot.Weighted>
3.2603

> <Gold.Chemscore.Internal.Correction.Weighted>
   9.000000E+99

> <Gold.Protein.RotatedTorsions>
[ 6907 6896 6895 6894 ] final  -42.81 input  -60.11 | X-H torsion
[ 7974 7965 7964 7962 ] final  106.25 input  175.53 | X-H torsion
[ 8008 7997 7996 7995 ] final   92.70 input   59.86 | X-H torsion
[ 10167 10162 10161 10158 ] final  -43.96 input  -65.29 | X-H torsion
[ 10718 10713 10712 10709 ] final   32.43 input   66.30 | X-H torsion
[ 10763 10752 10751 10750 ] final   16.01 input  -60.55 | X-H torsion
[ 11005 11000 10999 10996 ] final  172.08 input  -57.11 | X-H torsion

> <Gold.Protein.ActiveResidues>
 VAL166  LYS551  ARG553  GLY616  TRP617  ASP618  TYR619  PRO620  LYS621  CYS622 
 ASP623  PHE694  ASN695  SER759  ASP760  ASP761  ALA762  ILE779  LEU786  VAL792 
 PHE793  MET794  SER795  GLU796  ALA797  LYS798  CYS799  TRP800  GLU811  SER814 

> <Gold.Protein.RotatedAtoms>
  150.9510  134.8910  159.7671 H   0  0  0  0  0  0  0  0  0  0  0  0  # atno 6907 bound_to 6896
  152.5119  134.3806  159.9360 H   0  0  0  0  0  0  0  0  0  0  0  0  # atno 6908 bound_to 6896
  151.3822  133.3777  159.2746 H   0  0  0  0  0  0  0  0  0  0  0  0  # atno 6909 bound_to 6896
  145.3091  139.2546  143.3772 H   0  0  0  0  0  0  0  0  0  0  0  0  # atno 7974 bound_to 7965
  156.0384  140.3322  155.7216 H   0  0  0  0  0  0  0  0  0  0  0  0  # atno 8008 bound_to 7997
  155.5781  140.0634  157.2807 H   0  0  0  0  0  0  0  0  0  0  0  0  # atno 8009 bound_to 7997
  154.4382  140.1849  156.0936 H   0  0  0  0  0  0  0  0  0  0  0  0  # atno 8010 bound_to 7997
  140.6915  143.2955  151.3427 H   0  0  0  0  0  0  0  0  0  0  0  0  # atno 10167 bound_to 10162
  157.2852  130.7275  149.6579 H   0  0  0  0  0  0  0  0  0  0  0  0  # atno 10718 bound_to 10713
  153.1471  135.6771  153.8938 H   0  0  0  0  0  0  0  0  0  0  0  0  # atno 10763 bound_to 10752
  153.8376  135.3109  155.3425 H   0  0  0  0  0  0  0  0  0  0  0  0  # atno 10764 bound_to 10752
  154.7833  135.4876  153.9978 H   0  0  0  0  0  0  0  0  0  0  0  0  # atno 10765 bound_to 10752
  140.3258  134.7399  157.4098 H   0  0  0  0  0  0  0  0  0  0  0  0  # atno 11005 bound_to 11000
  146.3124  140.3623  142.8666 LP  0  0  0  0  0  0  0  0  0  0  0  0  # atno 17320 bound_to 7965
  144.9030  140.7666  143.5855 LP  0  0  0  0  0  0  0  0  0  0  0  0  # atno 17321 bound_to 7965
  139.6322  144.0699  152.2486 LP  0  0  0  0  0  0  0  0  0  0  0  0  # atno 17342 bound_to 10162
  140.0177  144.6176  150.7593 LP  0  0  0  0  0  0  0  0  0  0  0  0  # atno 17343 bound_to 10162
  155.9665  130.4326  150.4969 LP  0  0  0  0  0  0  0  0  0  0  0  0  # atno 17370 bound_to 10713
  157.2921  131.0628  151.2127 LP  0  0  0  0  0  0  0  0  0  0  0  0  # atno 17371 bound_to 10713
  140.0902  134.5611  155.8451 LP  0  0  0  0  0  0  0  0  0  0  0  0  # atno 17394 bound_to 11000
  141.2075  133.6665  156.6313 LP  0  0  0  0  0  0  0  0  0  0  0  0  # atno 17395 bound_to 11000

$$$$
