AV-unprocessed.smi:911|AV-procd|sdf|4139|dock2
  -GOLD-   22720 2 43D 1   1.00000     0.00000
 Structure written by MMmdl.
 47 49  0  0  0  0  0  0  0  0  3 V2000
  144.2443  134.5004  149.9029 C   0  0  0  0  0  0  0  0  0  0  0  0
  144.4128  133.2583  150.8226 C   0  0  0  0  0  0  0  0  0  0  0  0
  143.2082  133.3049  151.8037 C   0  0  0  0  0  0  0  0  0  0  0  0
  144.5605  131.9274  150.0587 C   0  0  1  0  0  0  0  0  0  0  0  0
  145.8831  132.0994  149.2776 C   0  0  0  0  0  0  0  0  0  0  0  0
  146.7393  132.9362  150.2482 C   0  0  0  0  0  0  0  0  0  0  0  0
  145.8077  133.0864  151.4836 C   0  0  1  0  0  0  0  0  0  0  0  0
  146.2423  134.2236  152.4250 C   0  0  0  0  0  0  0  0  0  0  0  0
  145.6885  131.6926  152.1835 C   0  0  2  0  0  0  0  0  0  0  0  0
  146.9688  131.0264  152.4144 N   0  0  0  0  0  0  0  0  0  0  0  0
  147.4502  130.6546  153.6097 C   0  0  0  0  0  0  0  0  0  0  0  0
  146.8186  130.7518  154.6612 O   0  0  0  0  0  0  0  0  0  0  0  0
  148.8805  130.1100  153.6179 C   0  0  0  0  0  0  0  0  0  0  0  0
  149.7477  130.9525  154.4554 N   0  0  0  0  0  0  0  0  0  0  0  0
  149.5719  132.3456  154.3397 C   0  0  0  0  0  0  0  0  0  0  0  0
  150.2674  133.2211  155.0904 C   0  0  0  0  0  0  0  0  0  0  0  0
  150.0520  134.6461  154.9727 N   0  3  0  0  0  0  0  0  0  0  0  0
  151.0047  135.4003  155.1400 O   0  0  0  0  0  0  0  0  0  0  0  0
  148.9251  135.0580  154.7131 O   0  5  0  0  0  0  0  0  0  0  0  0
  151.2294  132.6851  156.0331 C   0  0  0  0  0  0  0  0  0  0  0  0
  151.4034  131.3535  156.1488 C   0  0  0  0  0  0  0  0  0  0  0  0
  150.6366  130.4016  155.3376 C   0  0  0  0  0  0  0  0  0  0  0  0
  150.7821  129.1845  155.4492 O   0  0  0  0  0  0  0  0  0  0  0  0
  144.8281  130.8955  151.1759 C   0  0  0  0  0  0  0  0  0  0  0  0
  143.2933  134.4553  149.3714 H   0  0  0  0  0  0  0  0  0  0  0  0
  145.0122  134.6225  149.1427 H   0  0  0  0  0  0  0  0  0  0  0  0
  144.2383  135.4195  150.4891 H   0  0  0  0  0  0  0  0  0  0  0  0
  143.1637  132.4908  152.5230 H   0  0  0  0  0  0  0  0  0  0  0  0
  142.2662  133.2813  151.2549 H   0  0  0  0  0  0  0  0  0  0  0  0
  143.2173  134.2288  152.3825 H   0  0  0  0  0  0  0  0  0  0  0  0
  143.7147  131.6643  149.4228 H   0  0  0  0  0  0  0  0  0  0  0  0
  146.3501  131.1433  149.0384 H   0  0  0  0  0  0  0  0  0  0  0  0
  145.7286  132.6249  148.3348 H   0  0  0  0  0  0  0  0  0  0  0  0
  147.6964  132.4647  150.4671 H   0  0  0  0  0  0  0  0  0  0  0  0
  146.9838  133.9052  149.8131 H   0  0  0  0  0  0  0  0  0  0  0  0
  147.2529  134.0600  152.7990 H   0  0  0  0  0  0  0  0  0  0  0  0
  145.5794  134.3016  153.2867 H   0  0  0  0  0  0  0  0  0  0  0  0
  146.2394  135.1866  151.9148 H   0  0  0  0  0  0  0  0  0  0  0  0
  145.1567  131.7757  153.1324 H   0  0  0  0  0  0  0  0  0  0  0  0
  147.5609  130.8965  151.6071 H   0  0  0  0  0  0  0  0  0  0  0  0
  148.8709  129.0760  153.9670 H   0  0  0  0  0  0  0  0  0  0  0  0
  149.2625  130.0618  152.5966 H   0  0  0  0  0  0  0  0  0  0  0  0
  148.8261  132.6430  153.6163 H   0  0  0  0  0  0  0  0  0  0  0  0
  151.8148  133.3467  156.6546 H   0  0  0  0  0  0  0  0  0  0  0  0
  152.1236  130.9752  156.8595 H   0  0  0  0  0  0  0  0  0  0  0  0
  143.8996  130.5559  151.6354 H   0  0  0  0  0  0  0  0  0  0  0  0
  145.3299  130.0050  150.7939 H   0  0  0  0  0  0  0  0  0  0  0  0
  1  2  1  0  0  0  0
  1 25  1  0  0  0  0
  1 26  1  0  0  0  0
  1 27  1  0  0  0  0
  2  7  1  0  0  0  0
  2  3  1  0  0  0  0
  2  4  1  0  0  0  0
  3 28  1  0  0  0  0
  3 29  1  0  0  0  0
  3 30  1  0  0  0  0
  4 24  1  0  0  0  0
  4  5  1  0  0  0  0
  4 31  1  0  0  0  0
  5  6  1  0  0  0  0
  5 32  1  0  0  0  0
  5 33  1  0  0  0  0
  6  7  1  0  0  0  0
  6 34  1  0  0  0  0
  6 35  1  0  0  0  0
  7  8  1  0  0  0  0
  7  9  1  0  0  0  0
  8 36  1  0  0  0  0
  8 37  1  0  0  0  0
  8 38  1  0  0  0  0
  9 10  1  0  0  0  0
  9 24  1  0  0  0  0
  9 39  1  0  0  0  0
 10 11  1  0  0  0  0
 10 40  1  0  0  0  0
 11 12  2  0  0  0  0
 11 13  1  0  0  0  0
 13 14  1  0  0  0  0
 13 41  1  0  0  0  0
 13 42  1  0  0  0  0
 14 22  1  0  0  0  0
 14 15  1  0  0  0  0
 15 16  2  0  0  0  0
 15 43  1  0  0  0  0
 16 17  1  0  0  0  0
 16 20  1  0  0  0  0
 17 18  2  0  0  0  0
 17 19  1  0  0  0  0
 20 21  2  0  0  0  0
 20 44  1  0  0  0  0
 21 22  1  0  0  0  0
 21 45  1  0  0  0  0
 22 23  2  0  0  0  0
 24 46  1  0  0  0  0
 24 47  1  0  0  0  0
M  CHG  1  17   1
M  CHG  1  19  -1
M  END
> <s_m_source_file>
AV-unprocessed.smi

> <i_m_source_file_index>
911

> <i_lp_mmshare_version>
43012

> <i_f3d_flags>
0

> <s_epik_input>
W0NIM11bQ0BdMTJDKFtDSDNdKShbQ0gzXSlbQ0BIXShbQ0gyXVtDSDJdMSlbQ0gyXVtDQEBIXTJbTkhdQyg9TylbQ0gyXW4zW2NIXWMoW04rXSg9TylbTy1dKVtjSF1bY0hdYzM9Tw==

> <s_epik_cmdline>
J2VwaWtfcHl0aG9uJywgJy1waCcsICc3LjAnLCAnLXRuJywgJzgnLCAnLW1hJywgJzIwMCcsICctbWV0YWxfYmluZGluZycsICctaW1hZScsICc8aW5maWxlLm1hZT4nLCAnLW9tYWUnLCAnPG91dGZpbGUubWFlPic=

> <r_lp_tautomer_probability>
1

> <r_epik_Ionization_Penalty>
2.04092e-08

> <r_epik_Ionization_Penalty_Charging>
8.54191e-11

> <r_epik_Ionization_Penalty_Neutral>
2.03238e-08

> <r_epik_State_Penalty>
-0

> <r_epik_Charging_Adjusted_Penalty>
8.54191e-11

> <i_epik_Tot_Q>
0

> <i_epik_Tot_abs_Q>
2

> <r_epik_Metal_State_Penalty>
-0

> <b_epik_Metal_Only>
0

> <s_lp_Force_Field>
OPLS_2005

> <r_lp_Energy>
68.3511

> <b_lp_Chiralities_Consistent>
1

> <s_lp_Variant>
AV-unprocessed.smi:911-4

> <Gold.Version>
5.8.1

> <Gold.Id.Protein>
6NUR|6NUR_protein|mol2

> <Gold.PLP.Fitness>
46.9574

> <Gold.PLP.PLP>
-42.3160

> <Gold.PLP.part.hbond>
-2.0000

> <Gold.PLP.part.metal>
0.0000

> <Gold.PLP.part.buried>
-1.3528

> <Gold.PLP.part.nonpolar>
-38.1103

> <Gold.PLP.part.repulsive>
0.8850

> <Gold.PLP.ligand.clash>
0.0000

> <Gold.PLP.ligand.torsion>
0.6929

> <Gold.PLP.Chemscore.Hbond>
2.0000

> <Gold.PLP.Chemscore.CHOScore>
0.0000

> <Gold.PLP.Chemscore.Metal>
0.0000

> <Gold.Chemscore.Hbonds>
donor molecule, donor type, donor heavy atom, donor atom, acceptor molecule, acceptor atom, score
      L1  H    10    40       P1 10747  1.00
      P1  H 10752 10763       L1    18  1.00

> <Gold.PLP.Chemscore.Internal.Correction>
0.0273

> <Gold.Rescore>
     Score         DG    S(hbond)    S(metal)    S(lipo)     H(rot)  DE(clash)    DE(int)     intcor
     19.45     -20.27       1.95        0.00     104.15       1.53       0.12       0.71       ----

> <Gold.Chemscore.Fitness>
19.4450

> <Gold.Chemscore.DG>
-20.2675

> <Gold.Chemscore.ZeroCoef>
-5.4800

> <Gold.Chemscore.Hbond>
1.9500

> <Gold.Chemscore.Metal>
0.0000

> <Gold.Chemscore.Lipo>
104.1481

> <Gold.Chemscore.Internal_Hbond>
0.0000

> <Gold.Chemscore.DEClash>
0.1164

> <Gold.Chemscore.DEInternal>
0.7061

> <Gold.Chemscore.Rot>
1.5277

> <Gold.Chemscore.Internal.Correction>
   9.000000E+99

> <Gold.Chemscore.Hbonds>
donor molecule, donor type, donor heavy atom, donor atom, acceptor molecule, acceptor atom, score
      L1  H    10    40       P1 10747  0.99
      P1  H 10752 10763       L1    18  0.94

> <Gold.Chemscore.Hbond.Weighted>
-6.5131

> <Gold.Chemscore.Metal.Weighted>
-0.0000

> <Gold.Chemscore.Lipo.Weighted>
-12.1853

> <Gold.Chemscore.Internal_Hbond.Weighted>
0.0000

> <Gold.Chemscore.DEClash.Weighted>
0.1164

> <Gold.Chemscore.DEInternal.Weighted>
0.7061

> <Gold.Chemscore.Rot.Weighted>
3.9110

> <Gold.Chemscore.Internal.Correction.Weighted>
   9.000000E+99

> <Gold.Protein.RotatedTorsions>
[ 6907 6896 6895 6894 ] final -108.29 input  -60.11 | X-H torsion
[ 7974 7965 7964 7962 ] final -150.17 input  175.53 | X-H torsion
[ 8008 7997 7996 7995 ] final  135.11 input   59.86 | X-H torsion
[ 10167 10162 10161 10158 ] final -119.18 input  -65.29 | X-H torsion
[ 10718 10713 10712 10709 ] final  117.18 input   66.30 | X-H torsion
[ 10763 10752 10751 10750 ] final   64.16 input  -60.55 | X-H torsion
[ 11005 11000 10999 10996 ] final -112.59 input  -57.11 | X-H torsion

> <Gold.Protein.ActiveResidues>
 VAL166  LYS551  ARG553  GLY616  TRP617  ASP618  TYR619  PRO620  LYS621  CYS622 
 ASP623  PHE694  ASN695  SER759  ASP760  ASP761  ALA762  ILE779  LEU786  VAL792 
 PHE793  MET794  SER795  GLU796  ALA797  LYS798  CYS799  TRP800  GLU811  SER814 

> <Gold.Protein.RotatedAtoms>
  150.7493  133.9700  159.3542 H   0  0  0  0  0  0  0  0  0  0  0  0  # atno 6907 bound_to 6896
  151.7632  135.0803  160.0358 H   0  0  0  0  0  0  0  0  0  0  0  0  # atno 6908 bound_to 6896
  152.3389  133.6006  159.5898 H   0  0  0  0  0  0  0  0  0  0  0  0  # atno 6909 bound_to 6896
  144.7923  140.4968  143.5764 H   0  0  0  0  0  0  0  0  0  0  0  0  # atno 7974 bound_to 7965
  156.3002  140.2479  156.3528 H   0  0  0  0  0  0  0  0  0  0  0  0  # atno 8008 bound_to 7997
  154.8950  140.0408  157.1880 H   0  0  0  0  0  0  0  0  0  0  0  0  # atno 8009 bound_to 7997
  154.8559  140.2913  155.5573 H   0  0  0  0  0  0  0  0  0  0  0  0  # atno 8010 bound_to 7997
  140.0494  143.5074  152.2089 H   0  0  0  0  0  0  0  0  0  0  0  0  # atno 10167 bound_to 10162
  157.6113  131.1034  150.7578 H   0  0  0  0  0  0  0  0  0  0  0  0  # atno 10718 bound_to 10713
  153.0045  135.5403  154.6466 H   0  0  0  0  0  0  0  0  0  0  0  0  # atno 10763 bound_to 10752
  154.5709  135.2841  155.0830 H   0  0  0  0  0  0  0  0  0  0  0  0  # atno 10764 bound_to 10752
  154.1997  135.6486  153.5136 H   0  0  0  0  0  0  0  0  0  0  0  0  # atno 10765 bound_to 10752
  141.0666  133.9449  157.2567 H   0  0  0  0  0  0  0  0  0  0  0  0  # atno 11005 bound_to 11000
  145.5761  139.1486  143.3261 LP  0  0  0  0  0  0  0  0  0  0  0  0  # atno 17320 bound_to 7965
  146.2180  140.5893  142.9030 LP  0  0  0  0  0  0  0  0  0  0  0  0  # atno 17321 bound_to 7965
  139.5962  144.7568  151.3280 LP  0  0  0  0  0  0  0  0  0  0  0  0  # atno 17342 bound_to 10162
  140.7223  143.7100  150.7777 LP  0  0  0  0  0  0  0  0  0  0  0  0  # atno 17343 bound_to 10162
  156.7955  130.4904  149.5378 LP  0  0  0  0  0  0  0  0  0  0  0  0  # atno 17370 bound_to 10713
  156.1217  130.6115  151.0204 LP  0  0  0  0  0  0  0  0  0  0  0  0  # atno 17371 bound_to 10713
  139.9482  135.0180  156.8915 LP  0  0  0  0  0  0  0  0  0  0  0  0  # atno 17394 bound_to 11000
  140.5761  134.0396  155.7447 LP  0  0  0  0  0  0  0  0  0  0  0  0  # atno 17395 bound_to 11000

$$$$
