AV-unprocessed.smi:2892|AV-procd|sdf|11120|dock6
  -GOLD-   2272015593D 1   1.00000     0.00000
 Structure written by MMmdl.
 42 42  0  0  0  0  0  0  0  0  2 V2000
  150.0298  139.3484  155.0879 C   0  0  0  0  0  0  0  0  0  0  0  0
  151.2625  138.7444  155.7769 C   0  0  0  0  0  0  0  0  0  0  0  0
  151.4446  139.1732  157.2573 C   0  0  2  0  0  0  0  0  0  0  0  0
  151.3035  140.7075  157.3921 C   0  0  0  0  0  0  0  0  0  0  0  0
  152.7976  138.6800  157.8595 C   0  0  1  0  0  0  0  0  0  0  0  0
  152.9424  139.2154  159.2121 N   0  0  0  0  0  0  0  0  0  0  0  0
  153.9900  139.9118  159.6834 C   0  0  0  0  0  0  0  0  0  0  0  0
  154.9955  140.1588  159.0179 O   0  0  0  0  0  0  0  0  0  0  0  0
  153.8936  140.4081  161.1308 C   0  0  0  0  0  0  0  0  0  0  0  0
  153.2394  141.7652  161.2025 C   0  0  0  0  0  0  0  0  0  0  0  0
  153.0288  142.5759  162.3542 C   0  0  0  0  0  0  0  0  0  0  0  0
  152.3678  143.6690  161.8726 C   0  0  0  0  0  0  0  0  0  0  0  0
  152.2183  143.4948  160.5131 N   0  0  0  0  0  0  0  0  0  0  0  0
  151.5527  144.3714  159.5610 C   0  0  0  0  0  0  0  0  0  0  0  0
  150.0973  144.6332  159.9805 C   0  0  0  0  0  0  0  0  0  0  0  0
  151.6475  143.8207  158.1286 C   0  0  0  0  0  0  0  0  0  0  0  0
  152.7611  142.3276  160.1014 N   0  0  0  0  0  0  0  0  0  0  0  0
  152.8300  137.1441  157.9647 C   0  0  0  0  0  0  0  0  0  0  0  0
  152.8190  136.6376  159.1095 O   0  0  0  0  0  0  0  0  0  0  0  0
  152.8633  136.5025  156.8920 O   0  5  0  0  0  0  0  0  0  0  0  0
  149.9016  138.9232  154.0924 H   0  0  0  0  0  0  0  0  0  0  0  0
  150.1162  140.4277  154.9673 H   0  0  0  0  0  0  0  0  0  0  0  0
  149.1214  139.1411  155.6542 H   0  0  0  0  0  0  0  0  0  0  0  0
  151.1598  137.6621  155.7047 H   0  0  0  0  0  0  0  0  0  0  0  0
  152.1586  138.9943  155.2077 H   0  0  0  0  0  0  0  0  0  0  0  0
  150.6332  138.7251  157.8336 H   0  0  0  0  0  0  0  0  0  0  0  0
  152.0882  141.2256  156.8402 H   0  0  0  0  0  0  0  0  0  0  0  0
  151.3599  141.0357  158.4300 H   0  0  0  0  0  0  0  0  0  0  0  0
  150.3439  141.0617  157.0184 H   0  0  0  0  0  0  0  0  0  0  0  0
  153.6189  139.0201  157.2253 H   0  0  0  0  0  0  0  0  0  0  0  0
  152.1717  139.0453  159.8412 H   0  0  0  0  0  0  0  0  0  0  0  0
  153.3247  139.6797  161.7094 H   0  0  0  0  0  0  0  0  0  0  0  0
  154.8915  140.4441  161.5699 H   0  0  0  0  0  0  0  0  0  0  0  0
  153.3065  142.3764  163.3786 H   0  0  0  0  0  0  0  0  0  0  0  0
  151.9905  144.5440  162.3808 H   0  0  0  0  0  0  0  0  0  0  0  0
  152.0805  145.3258  159.5822 H   0  0  0  0  0  0  0  0  0  0  0  0
  149.6170  145.3410  159.3047 H   0  0  0  0  0  0  0  0  0  0  0  0
  150.0478  145.0526  160.9858 H   0  0  0  0  0  0  0  0  0  0  0  0
  149.5069  143.7162  159.9739 H   0  0  0  0  0  0  0  0  0  0  0  0
  151.2184  144.5222  157.4129 H   0  0  0  0  0  0  0  0  0  0  0  0
  151.1130  142.8757  158.0243 H   0  0  0  0  0  0  0  0  0  0  0  0
  152.6857  143.6510  157.8418 H   0  0  0  0  0  0  0  0  0  0  0  0
  1  2  1  0  0  0  0
  1 21  1  0  0  0  0
  1 22  1  0  0  0  0
  1 23  1  0  0  0  0
  2  3  1  0  0  0  0
  2 24  1  0  0  0  0
  2 25  1  0  0  0  0
  3  4  1  0  0  0  0
  3  5  1  0  0  0  0
  3 26  1  0  0  0  0
  4 27  1  0  0  0  0
  4 28  1  0  0  0  0
  4 29  1  0  0  0  0
  5  6  1  0  0  0  0
  5 18  1  0  0  0  0
  5 30  1  0  0  0  0
  6  7  1  0  0  0  0
  6 31  1  0  0  0  0
  7  8  2  0  0  0  0
  7  9  1  0  0  0  0
  9 10  1  0  0  0  0
  9 32  1  0  0  0  0
  9 33  1  0  0  0  0
 10 17  2  0  0  0  0
 10 11  1  0  0  0  0
 11 12  2  0  0  0  0
 11 34  1  0  0  0  0
 12 13  1  0  0  0  0
 12 35  1  0  0  0  0
 13 14  1  0  0  0  0
 13 17  1  0  0  0  0
 14 15  1  0  0  0  0
 14 16  1  0  0  0  0
 14 36  1  0  0  0  0
 15 37  1  0  0  0  0
 15 38  1  0  0  0  0
 15 39  1  0  0  0  0
 16 40  1  0  0  0  0
 16 41  1  0  0  0  0
 16 42  1  0  0  0  0
 18 19  2  0  0  0  0
 18 20  1  0  0  0  0
M  CHG  1  20  -1
M  END
> <s_m_source_file>
AV-unprocessed.smi

> <i_m_source_file_index>
2892

> <i_lp_mmshare_version>
43012

> <i_f3d_flags>
0

> <s_epik_input>
W0NIM11bQ0gyXVtDQEhdKFtDSDNdKVtDQEBIXShDKD1PKVtPSF0pW05IXUMoPU8pW0NIMl1jMVtjSF1bY0hdbihuMSlbQ0hdKFtDSDNdKVtDSDNd

> <s_epik_cmdline>
J2VwaWtfcHl0aG9uJywgJy1waCcsICc3LjAnLCAnLXRuJywgJzgnLCAnLW1hJywgJzIwMCcsICctbWV0YWxfYmluZGluZycsICctaW1hZScsICc8aW5maWxlLm1hZT4nLCAnLW9tYWUnLCAnPG91dGZpbGUubWFlPic=

> <r_lp_tautomer_probability>
1

> <r_epik_Ionization_Penalty>
0.000286846

> <r_epik_Ionization_Penalty_Charging>
0.000224481

> <r_epik_Ionization_Penalty_Neutral>
6.23655e-05

> <r_epik_State_Penalty>
-0

> <r_epik_Charging_Adjusted_Penalty>
0.000224481

> <i_epik_Tot_Q>
-1

> <i_epik_Tot_abs_Q>
1

> <r_epik_Metal_State_Penalty>
-0

> <b_epik_Metal_Only>
0

> <s_lp_Force_Field>
OPLS_2005

> <r_lp_Energy>
13.0415

> <b_lp_Chiralities_Consistent>
1

> <s_lp_Variant>
AV-unprocessed.smi:2892-3

> <Gold.Version>
5.8.1

> <Gold.Id.Protein>
6NUR|6NUR_protein|mol2

> <Gold.PLP.Fitness>
58.9779

> <Gold.PLP.PLP>
-45.3579

> <Gold.PLP.part.hbond>
-3.0000

> <Gold.PLP.part.metal>
0.0000

> <Gold.PLP.part.buried>
-4.7401

> <Gold.PLP.part.nonpolar>
-37.2413

> <Gold.PLP.part.repulsive>
0.0885

> <Gold.PLP.ligand.clash>
0.0000

> <Gold.PLP.ligand.torsion>
0.6761

> <Gold.PLP.Chemscore.Hbond>
4.9345

> <Gold.PLP.Chemscore.CHOScore>
0.0000

> <Gold.PLP.Chemscore.Metal>
0.0000

> <Gold.Chemscore.Hbonds>
donor molecule, donor type, donor heavy atom, donor atom, acceptor molecule, acceptor atom, score
      P1  H  6896  6909       L1    19  1.89
      P1  H  7997  8009       L1     8  0.91
      P1  H 10752 10765       L1    20  2.00

> <Gold.PLP.Chemscore.Internal.Correction>
0.1687

> <Gold.Rescore>
     Score         DG    S(hbond)    S(metal)    S(lipo)     H(rot)  DE(clash)    DE(int)     intcor
     19.08     -21.14       2.69        0.00     109.18       2.39       1.07       0.99       ----

> <Gold.Chemscore.Fitness>
19.0786

> <Gold.Chemscore.DG>
-21.1385

> <Gold.Chemscore.ZeroCoef>
-5.4800

> <Gold.Chemscore.Hbond>
2.6926

> <Gold.Chemscore.Metal>
0.0000

> <Gold.Chemscore.Lipo>
109.1839

> <Gold.Chemscore.Internal_Hbond>
0.0000

> <Gold.Chemscore.DEClash>
1.0680

> <Gold.Chemscore.DEInternal>
0.9919

> <Gold.Chemscore.Rot>
2.3865

> <Gold.Chemscore.Internal.Correction>
   9.000000E+99

> <Gold.Chemscore.Hbonds>
donor molecule, donor type, donor heavy atom, donor atom, acceptor molecule, acceptor atom, score
      P1  H  6896  6909       L1    19  0.87
      P1  H  7997  8009       L1     8  0.88
      P1  H 10752 10765       L1    20  0.93

> <Gold.Chemscore.Hbond.Weighted>
-8.9934

> <Gold.Chemscore.Metal.Weighted>
-0.0000

> <Gold.Chemscore.Lipo.Weighted>
-12.7745

> <Gold.Chemscore.Internal_Hbond.Weighted>
0.0000

> <Gold.Chemscore.DEClash.Weighted>
1.0680

> <Gold.Chemscore.DEInternal.Weighted>
0.9919

> <Gold.Chemscore.Rot.Weighted>
6.1093

> <Gold.Chemscore.Internal.Correction.Weighted>
   9.000000E+99

> <Gold.Protein.RotatedTorsions>
[ 6907 6896 6895 6894 ] final  143.37 input  -60.11 | X-H torsion
[ 7974 7965 7964 7962 ] final   55.15 input  175.53 | X-H torsion
[ 8008 7997 7996 7995 ] final  105.68 input   59.86 | X-H torsion
[ 10167 10162 10161 10158 ] final  102.68 input  -65.29 | X-H torsion
[ 10718 10713 10712 10709 ] final  110.52 input   66.30 | X-H torsion
[ 10763 10752 10751 10750 ] final -122.43 input  -60.55 | X-H torsion
[ 11005 11000 10999 10996 ] final  -78.95 input  -57.11 | X-H torsion

> <Gold.Protein.ActiveResidues>
 VAL166  LYS551  ARG553  GLY616  TRP617  ASP618  TYR619  PRO620  LYS621  CYS622 
 ASP623  PHE694  ASN695  SER759  ASP760  ASP761  ALA762  ILE779  LEU786  VAL792 
 PHE793  MET794  SER795  GLU796  ALA797  LYS798  CYS799  TRP800  GLU811  SER814 

> <Gold.Protein.RotatedAtoms>
  152.2071  133.4883  159.5089 H   0  0  0  0  0  0  0  0  0  0  0  0  # atno 6907 bound_to 6896
  150.6982  134.1515  159.4151 H   0  0  0  0  0  0  0  0  0  0  0  0  # atno 6908 bound_to 6896
  151.9434  135.0202  160.0588 H   0  0  0  0  0  0  0  0  0  0  0  0  # atno 6909 bound_to 6896
  145.9534  139.3993  143.0292 H   0  0  0  0  0  0  0  0  0  0  0  0  # atno 7974 bound_to 7965
  156.1680  140.3126  155.8922 H   0  0  0  0  0  0  0  0  0  0  0  0  # atno 8008 bound_to 7997
  155.3647  140.0478  157.3063 H   0  0  0  0  0  0  0  0  0  0  0  0  # atno 8009 bound_to 7997
  154.5211  140.2198  155.8984 H   0  0  0  0  0  0  0  0  0  0  0  0  # atno 8010 bound_to 7997
  139.7329  144.7031  151.0694 H   0  0  0  0  0  0  0  0  0  0  0  0  # atno 10167 bound_to 10162
  157.6490  131.0934  150.6614 H   0  0  0  0  0  0  0  0  0  0  0  0  # atno 10718 bound_to 10713
  154.8689  135.4133  154.2780 H   0  0  0  0  0  0  0  0  0  0  0  0  # atno 10763 bound_to 10752
  153.3678  135.7006  153.6667 H   0  0  0  0  0  0  0  0  0  0  0  0  # atno 10764 bound_to 10752
  153.5541  135.3623  155.2744 H   0  0  0  0  0  0  0  0  0  0  0  0  # atno 10765 bound_to 10752
  141.1666  133.7085  156.8049 H   0  0  0  0  0  0  0  0  0  0  0  0  # atno 11005 bound_to 11000
  145.8140  140.9712  143.0934 LP  0  0  0  0  0  0  0  0  0  0  0  0  # atno 17320 bound_to 7965
  144.6800  139.9957  143.7484 LP  0  0  0  0  0  0  0  0  0  0  0  0  # atno 17321 bound_to 7965
  140.7774  143.5021  150.9759 LP  0  0  0  0  0  0  0  0  0  0  0  0  # atno 17342 bound_to 10162
  139.8709  143.7194  152.3166 LP  0  0  0  0  0  0  0  0  0  0  0  0  # atno 17343 bound_to 10162
  156.6927  130.4600  149.5595 LP  0  0  0  0  0  0  0  0  0  0  0  0  # atno 17370 bound_to 10713
  156.1850  130.6523  151.0996 LP  0  0  0  0  0  0  0  0  0  0  0  0  # atno 17371 bound_to 10713
  140.2229  134.8743  157.3396 LP  0  0  0  0  0  0  0  0  0  0  0  0  # atno 17394 bound_to 11000
  140.1969  134.4302  155.7684 LP  0  0  0  0  0  0  0  0  0  0  0  0  # atno 17395 bound_to 11000

$$$$
