#       Name:                AV-unprocessed.smi:2417
#       Creating user name   scv26
#       Creation time:       Fri Mar 27 13:18:17 2020


#       File generated by GOLD software.
#

@<TRIPOS>MOLECULE
AV-unprocessed.smi:2417
    45    46     1
SMALL
NO_CHARGES


@<TRIPOS>ATOM
      1 ****        -2.5560   5.5288  -0.4573 C.3            1 S1                 0.0000
      2 ****        -1.9894   4.1256  -0.3312 C.2            1 S1                 0.0000
      3 ****        -1.6953   3.7077   0.9700 N.2            1 S1                 0.0000
      4 ****        -1.2063   2.5282   1.1733 C.2            1 S1                 0.0000
      5 ****        -0.9635   1.6380   0.1148 N.am           1 S1                 0.0000
      6 ****        -0.4037   0.3267   0.4808 C.3            1 S1                 0.0000
      7 ****         1.1301   0.2779   0.2970 C.3            1 S1                 0.0000
      8 ****         1.7803   0.7946   1.4405 O.3            1 S1                 0.0000
      9 ****         1.6642  -1.1440   0.0584 C.3            1 S1                 0.0000
     10 ****         1.0846  -2.0431   0.9967 O.3            1 S1                 0.0000
     11 ****         1.4059  -3.3801   0.9050 C.ar           1 S1                 0.0000
     12 ****         0.7968  -4.2491   1.8339 C.ar           1 S1                 0.0000
     13 ****         1.0650  -5.6313   1.8114 C.ar           1 S1                 0.0000
     14 ****         1.9512  -6.1601   0.8550 C.ar           1 S1                 0.0000
     15 ****         2.2107  -7.4887   0.8310 F              1 S1                 0.0000
     16 ****         2.5675  -5.3046  -0.0768 C.ar           1 S1                 0.0000
     17 ****         2.2985  -3.9221  -0.0545 C.ar           1 S1                 0.0000
     18 ****        -1.2127   1.9688  -1.1852 C.2            1 S1                 0.0000
     19 ****        -0.9785   1.1854  -2.1077 O.2            1 S1                 0.0000
     20 ****        -1.7702   3.3136  -1.4013 C.2            1 S1                 0.0000
     21 ****        -2.0662   3.7160  -2.8407 C.3            1 S1                 0.0000
     22 ****        -3.5457   5.5028  -0.9141 H              1 S1                 0.0000
     23 ****        -1.9037   6.1493  -1.0723 H              1 S1                 0.0000
     24 ****        -2.6505   6.0087   0.5175 H              1 S1                 0.0000
     25 ****        -0.9522   2.1568   2.1677 H              1 S1                 0.0000
     26 ****        -0.6778   0.0308   1.4958 H              1 S1                 0.0000
     27 ****        -0.8676  -0.4327  -0.1516 H              1 S1                 0.0000
     28 ****         1.4304   0.8920  -0.5529 H              1 S1                 0.0000
     29 ****         1.5859   0.2317   2.1744 H              1 S1                 0.0000
     30 ****         1.3857  -1.4540  -0.9501 H              1 S1                 0.0000
     31 ****         2.7539  -1.1580   0.1201 H              1 S1                 0.0000
     32 ****         0.1154  -3.8518   2.5718 H              1 S1                 0.0000
     33 ****         0.5900  -6.2849   2.5280 H              1 S1                 0.0000
     34 ****         3.2483  -5.7091  -0.8112 H              1 S1                 0.0000
     35 ****         2.7906  -3.2987  -0.7853 H              1 S1                 0.0000
     36 ****        -1.1503   3.6933  -3.4322 H              1 S1                 0.0000
     37 ****        -2.4887   4.7156  -2.9294 H              1 S1                 0.0000
     38 ****        -2.7756   3.0192  -3.2884 H              1 S1                 0.0000
     39 ****        -1.8629   4.3202   1.7425 LP             1 S1                 0.0000
     40 ****         1.4499   1.7197   1.6277 LP             1 S1                 0.0000
     41 ****         2.7679   0.8184   1.2855 LP             1 S1                 0.0000
     42 ****         0.0917  -1.9701   0.9023 LP             1 S1                 0.0000
     43 ****         1.3563  -1.7352   1.9085 LP             1 S1                 0.0000
     44 ****        -0.5965   0.2823  -1.9119 LP             1 S1                 0.0000
     45 ****        -1.1706   1.4531  -3.0519 LP             1 S1                 0.0000
@<TRIPOS>BOND
    1    1    2 1     
    2    1   22 1     
    3    1   23 1     
    4    1   24 1     
    5    2   20 2     
    6    2    3 1     
    7    3    4 2     
    8    4    5 1     
    9    4   25 1     
   10    5    6 1     
   11    5   18 am    
   12    6    7 1     
   13    6   26 1     
   14    6   27 1     
   15    7    8 1     
   16    7    9 1     
   17    7   28 1     
   18    8   29 1     
   19    9   10 1     
   20    9   30 1     
   21    9   31 1     
   22   10   11 1     
   23   11   17 ar    
   24   11   12 ar    
   25   12   13 ar    
   26   12   32 1     
   27   13   14 ar    
   28   13   33 1     
   29   14   15 1     
   30   14   16 ar    
   31   16   17 ar    
   32   16   34 1     
   33   17   35 1     
   34   18   19 2     
   35   18   20 1     
   36   20   21 1     
   37   21   36 1     
   38   21   37 1     
   39   21   38 1     
   40    3   39 1     
   41    8   40 1     
   42    8   41 1     
   43   10   42 1     
   44   10   43 1     
   45   19   44 1     
   46   19   45 1     
@<TRIPOS>SUBSTRUCTURE
      1 S1             1
@<TRIPOS>SET
LONE_PAIRS      STATIC     ATOMS    <user>   **** ""
7 39 40 41 42 43 44 45
DONOR_HYDROGENS      STATIC     ATOMS    <user>   **** ""
1 29
ATOM$BLUE        STATIC     ATOMS    COLORGROUP SYSTEM
7 39 40 41 42 43 44 45
ATOM$RED        STATIC     ATOMS    COLORGROUP SYSTEM
1 29
