AV-unprocessed.smi:2087|AV-procd|sdf|8523|dock7
  -GOLD-   2272011243D 1   1.00000     0.00000
 Structure written by MMmdl.
 51 52  0  0  0  0  0  0  0  0  2 V2000
  151.9313  144.8979  160.7371 C   0  0  0  0  0  0  0  0  0  0  0  0
  151.5536  143.8098  159.7175 C   0  0  0  0  0  0  0  0  0  0  0  0
  152.7696  142.9250  159.4045 C   0  0  0  0  0  0  0  0  0  0  0  0
  150.9732  144.4137  158.4204 C   0  0  0  0  0  0  0  0  0  0  0  0
  150.0085  143.5114  157.7411 N   0  3  2  0  0  0  0  0  0  0  0  0
  148.8315  143.1590  158.5736 C   0  0  0  0  0  0  0  0  0  0  0  0
  147.8660  142.2580  157.7853 C   0  0  0  0  0  0  0  0  0  0  0  0
  148.5594  141.1049  157.3257 O   0  0  0  0  0  0  0  0  0  0  0  0
  149.6242  141.4366  156.4396 C   0  0  2  0  0  0  0  0  0  0  0  0
  150.2315  140.1320  155.8914 C   0  0  0  0  0  0  0  0  0  0  0  0
  150.6631  139.2568  156.9749 N   0  0  0  0  0  0  0  0  0  0  0  0
  151.9251  139.1439  157.4141 C   0  0  0  0  0  0  0  0  0  0  0  0
  152.8483  139.8506  157.0075 O   0  0  0  0  0  0  0  0  0  0  0  0
  152.1822  138.0582  158.4662 C   0  0  0  0  0  0  0  0  0  0  0  0
  152.9333  138.5655  159.6227 N   0  0  0  0  0  0  0  0  0  0  0  0
  153.1161  139.9279  159.7778 C   0  0  0  0  0  0  0  0  0  0  0  0
  153.7952  140.4757  160.8092 C   0  0  0  0  0  0  0  0  0  0  0  0
  154.3937  139.6367  161.8399 C   0  0  0  0  0  0  0  0  0  0  0  0
  155.0079  140.0888  162.8072 O   0  0  0  0  0  0  0  0  0  0  0  0
  154.2057  138.2477  161.6513 N   0  0  0  0  0  0  0  0  0  0  0  0
  154.7741  137.3646  162.6490 C   0  0  0  0  0  0  0  0  0  0  0  0
  153.4749  137.6802  160.5823 C   0  0  0  0  0  0  0  0  0  0  0  0
  153.3040  136.4629  160.4750 O   0  0  0  0  0  0  0  0  0  0  0  0
  150.6518  142.2863  157.2093 C   0  0  0  0  0  0  0  0  0  0  0  0
  152.6774  145.5810  160.3297 H   0  0  0  0  0  0  0  0  0  0  0  0
  152.3455  144.4582  161.6450 H   0  0  0  0  0  0  0  0  0  0  0  0
  151.0643  145.4894  161.0320 H   0  0  0  0  0  0  0  0  0  0  0  0
  150.8061  143.1637  160.1773 H   0  0  0  0  0  0  0  0  0  0  0  0
  153.5738  143.5030  158.9479 H   0  0  0  0  0  0  0  0  0  0  0  0
  152.5059  142.1208  158.7168 H   0  0  0  0  0  0  0  0  0  0  0  0
  153.1645  142.4640  160.3104 H   0  0  0  0  0  0  0  0  0  0  0  0
  150.4755  145.3508  158.6743 H   0  0  0  0  0  0  0  0  0  0  0  0
  151.7723  144.6743  157.7242 H   0  0  0  0  0  0  0  0  0  0  0  0
  149.1629  142.6463  159.4779 H   0  0  0  0  0  0  0  0  0  0  0  0
  148.3039  144.0576  158.8914 H   0  0  0  0  0  0  0  0  0  0  0  0
  147.0401  141.9422  158.4232 H   0  0  0  0  0  0  0  0  0  0  0  0
  147.4284  142.7951  156.9424 H   0  0  0  0  0  0  0  0  0  0  0  0
  149.2310  142.0245  155.6081 H   0  0  0  0  0  0  0  0  0  0  0  0
  149.5101  139.6091  155.2612 H   0  0  0  0  0  0  0  0  0  0  0  0
  151.0936  140.3526  155.2613 H   0  0  0  0  0  0  0  0  0  0  0  0
  149.9652  138.6445  157.3727 H   0  0  0  0  0  0  0  0  0  0  0  0
  151.2185  137.6572  158.7827 H   0  0  0  0  0  0  0  0  0  0  0  0
  152.7221  137.2202  158.0210 H   0  0  0  0  0  0  0  0  0  0  0  0
  152.6947  140.5934  159.0385 H   0  0  0  0  0  0  0  0  0  0  0  0
  153.8973  141.5492  160.8726 H   0  0  0  0  0  0  0  0  0  0  0  0
  154.8834  136.3557  162.2508 H   0  0  0  0  0  0  0  0  0  0  0  0
  154.0999  137.3793  163.5065 H   0  0  0  0  0  0  0  0  0  0  0  0
  155.7661  137.7340  162.9146 H   0  0  0  0  0  0  0  0  0  0  0  0
  151.4708  142.5608  156.5431 H   0  0  0  0  0  0  0  0  0  0  0  0
  151.0828  141.7113  158.0306 H   0  0  0  0  0  0  0  0  0  0  0  0
  149.6623  144.0163  156.9374 H   0  0  0  0  0  0  0  0  0  0  0  0
  1  2  1  0  0  0  0
  1 25  1  0  0  0  0
  1 26  1  0  0  0  0
  1 27  1  0  0  0  0
  2  3  1  0  0  0  0
  2  4  1  0  0  0  0
  2 28  1  0  0  0  0
  3 29  1  0  0  0  0
  3 30  1  0  0  0  0
  3 31  1  0  0  0  0
  4  5  1  0  0  0  0
  4 32  1  0  0  0  0
  4 33  1  0  0  0  0
  5 24  1  0  0  0  0
  5  6  1  0  0  0  0
  5 51  1  0  0  0  0
  6  7  1  0  0  0  0
  6 34  1  0  0  0  0
  6 35  1  0  0  0  0
  7  8  1  0  0  0  0
  7 36  1  0  0  0  0
  7 37  1  0  0  0  0
  8  9  1  0  0  0  0
  9 10  1  0  0  0  0
  9 24  1  0  0  0  0
  9 38  1  0  0  0  0
 10 11  1  0  0  0  0
 10 39  1  0  0  0  0
 10 40  1  0  0  0  0
 11 12  1  0  0  0  0
 11 41  1  0  0  0  0
 12 13  2  0  0  0  0
 12 14  1  0  0  0  0
 14 15  1  0  0  0  0
 14 42  1  0  0  0  0
 14 43  1  0  0  0  0
 15 22  1  0  0  0  0
 15 16  1  0  0  0  0
 16 17  2  0  0  0  0
 16 44  1  0  0  0  0
 17 18  1  0  0  0  0
 17 45  1  0  0  0  0
 18 19  2  0  0  0  0
 18 20  1  0  0  0  0
 20 21  1  0  0  0  0
 20 22  1  0  0  0  0
 21 46  1  0  0  0  0
 21 47  1  0  0  0  0
 21 48  1  0  0  0  0
 22 23  2  0  0  0  0
 24 49  1  0  0  0  0
 24 50  1  0  0  0  0
M  CHG  1   5   1
M  END
> <s_m_source_file>
AV-unprocessed.smi

> <i_m_source_file_index>
2087

> <i_lp_mmshare_version>
43012

> <i_f3d_flags>
0

> <s_epik_input>
W0NIM11bQ0hdKFtDSDNdKVtDSDJdTjFbQ0gyXVtDSDJdT1tDQEhdKFtDSDJdMSlbQ0gyXVtOSF1DKD1PKVtDSDJdbjJbY0hdW2NIXWMoPU8pbihbQ0gzXSljMj1P

> <s_epik_cmdline>
J2VwaWtfcHl0aG9uJywgJy1waCcsICc3LjAnLCAnLXRuJywgJzgnLCAnLW1hJywgJzIwMCcsICctbWV0YWxfYmluZGluZycsICctaW1hZScsICc8aW5maWxlLm1hZT4nLCAnLW9tYWUnLCAnPG91dGZpbGUubWFlPic=

> <r_lp_tautomer_probability>
1

> <r_epik_Ionization_Penalty>
0.097593

> <r_epik_Ionization_Penalty_Charging>
0.097593

> <r_epik_Ionization_Penalty_Neutral>
6.27044e-08

> <r_epik_State_Penalty>
0.0877056

> <r_epik_Charging_Adjusted_Penalty>
0.185299

> <i_epik_Tot_Q>
1

> <i_epik_Tot_abs_Q>
1

> <r_epik_Metal_State_Penalty>
0.0877109

> <b_epik_Metal_Only>
0

> <s_lp_Force_Field>
OPLS_2005

> <r_lp_Energy>
25.7141

> <b_lp_Chiralities_Consistent>
1

> <s_lp_Variant>
AV-unprocessed.smi:2087-4

> <Gold.Version>
5.8.1

> <Gold.Id.Protein>
6NUR|6NUR_protein|mol2

> <Gold.PLP.Fitness>
50.9839

> <Gold.PLP.PLP>
-40.3411

> <Gold.PLP.part.hbond>
-3.2645

> <Gold.PLP.part.metal>
0.0000

> <Gold.PLP.part.buried>
-4.5776

> <Gold.PLP.part.nonpolar>
-32.3599

> <Gold.PLP.part.repulsive>
0.0832

> <Gold.PLP.ligand.clash>
0.0000

> <Gold.PLP.ligand.torsion>
0.7124

> <Gold.PLP.Chemscore.Hbond>
3.9913

> <Gold.PLP.Chemscore.CHOScore>
0.0000

> <Gold.PLP.Chemscore.Metal>
0.0000

> <Gold.Chemscore.Hbonds>
donor molecule, donor type, donor heavy atom, donor atom, acceptor molecule, acceptor atom, score
      L1  H     5    51       P1  8028  2.00
      P1  H  6896  6908       L1    23  1.00
      P1  H  7997  8010       L1    13  1.00

> <Gold.PLP.Chemscore.Internal.Correction>
0.0938

> <Gold.Rescore>
     Score         DG    S(hbond)    S(metal)    S(lipo)     H(rot)  DE(clash)    DE(int)     intcor
     18.61     -20.83       2.86        0.00      98.14       2.22       0.03       2.20       ----

> <Gold.Chemscore.Fitness>
18.6054

> <Gold.Chemscore.DG>
-20.8325

> <Gold.Chemscore.ZeroCoef>
-5.4800

> <Gold.Chemscore.Hbond>
2.8642

> <Gold.Chemscore.Metal>
0.0000

> <Gold.Chemscore.Lipo>
98.1356

> <Gold.Chemscore.Internal_Hbond>
0.0000

> <Gold.Chemscore.DEClash>
0.0275

> <Gold.Chemscore.DEInternal>
2.1996

> <Gold.Chemscore.Rot>
2.2249

> <Gold.Chemscore.Internal.Correction>
   9.000000E+99

> <Gold.Chemscore.Hbonds>
donor molecule, donor type, donor heavy atom, donor atom, acceptor molecule, acceptor atom, score
      L1  H     5    51       P1  8028  0.82
      P1  H  6896  6908       L1    23  0.92
      P1  H  7997  8010       L1    13  0.98

> <Gold.Chemscore.Hbond.Weighted>
-9.5664

> <Gold.Chemscore.Metal.Weighted>
-0.0000

> <Gold.Chemscore.Lipo.Weighted>
-11.4819

> <Gold.Chemscore.Internal_Hbond.Weighted>
0.0000

> <Gold.Chemscore.DEClash.Weighted>
0.0275

> <Gold.Chemscore.DEInternal.Weighted>
2.1996

> <Gold.Chemscore.Rot.Weighted>
5.6957

> <Gold.Chemscore.Internal.Correction.Weighted>
   9.000000E+99

> <Gold.Protein.RotatedTorsions>
[ 6907 6896 6895 6894 ] final -103.25 input  -60.11 | X-H torsion
[ 7974 7965 7964 7962 ] final -170.07 input  175.53 | X-H torsion
[ 8008 7997 7996 7995 ] final   61.01 input   59.86 | X-H torsion
[ 10167 10162 10161 10158 ] final  -78.74 input  -65.29 | X-H torsion
[ 10718 10713 10712 10709 ] final  110.30 input   66.30 | X-H torsion
[ 10763 10752 10751 10750 ] final   39.28 input  -60.55 | X-H torsion
[ 11005 11000 10999 10996 ] final  -71.25 input  -57.11 | X-H torsion

> <Gold.Protein.ActiveResidues>
 VAL166  LYS551  ARG553  GLY616  TRP617  ASP618  TYR619  PRO620  LYS621  CYS622 
 ASP623  PHE694  ASN695  SER759  ASP760  ASP761  ALA762  ILE779  LEU786  VAL792 
 PHE793  MET794  SER795  GLU796  ALA797  LYS798  CYS799  TRP800  GLU811  SER814 

> <Gold.Protein.RotatedAtoms>
  150.7232  134.0458  159.3781 H   0  0  0  0  0  0  0  0  0  0  0  0  # atno 6907 bound_to 6896
  151.8433  135.0580  160.0460 H   0  0  0  0  0  0  0  0  0  0  0  0  # atno 6908 bound_to 6896
  152.2846  133.5466  159.5555 H   0  0  0  0  0  0  0  0  0  0  0  0  # atno 6909 bound_to 6896
  144.7175  140.2127  143.6325 H   0  0  0  0  0  0  0  0  0  0  0  0  # atno 7974 bound_to 7965
  155.5915  140.3493  155.4568 H   0  0  0  0  0  0  0  0  0  0  0  0  # atno 8008 bound_to 7997
  156.0297  140.1272  157.0295 H   0  0  0  0  0  0  0  0  0  0  0  0  # atno 8009 bound_to 7997
  154.4347  140.1046  156.6068 H   0  0  0  0  0  0  0  0  0  0  0  0  # atno 8010 bound_to 7997
  140.4655  143.2441  151.8284 H   0  0  0  0  0  0  0  0  0  0  0  0  # atno 10167 bound_to 10162
  157.6501  131.0930  150.6581 H   0  0  0  0  0  0  0  0  0  0  0  0  # atno 10718 bound_to 10713
  152.9972  135.6225  154.2439 H   0  0  0  0  0  0  0  0  0  0  0  0  # atno 10763 bound_to 10752
  154.2179  135.2797  155.2937 H   0  0  0  0  0  0  0  0  0  0  0  0  # atno 10764 bound_to 10752
  154.5552  135.5721  153.7016 H   0  0  0  0  0  0  0  0  0  0  0  0  # atno 10765 bound_to 10752
  141.1589  133.6812  156.6877 H   0  0  0  0  0  0  0  0  0  0  0  0  # atno 11005 bound_to 11000
  145.8575  139.2206  143.1736 LP  0  0  0  0  0  0  0  0  0  0  0  0  # atno 17320 bound_to 7965
  146.0204  140.8353  142.9926 LP  0  0  0  0  0  0  0  0  0  0  0  0  # atno 17321 bound_to 7965
  139.4811  144.4955  151.9129 LP  0  0  0  0  0  0  0  0  0  0  0  0  # atno 17342 bound_to 10162
  140.4041  144.2455  150.5891 LP  0  0  0  0  0  0  0  0  0  0  0  0  # atno 17343 bound_to 10162
  156.6893  130.4590  149.5604 LP  0  0  0  0  0  0  0  0  0  0  0  0  # atno 17370 bound_to 10713
  156.1873  130.6537  151.1021 LP  0  0  0  0  0  0  0  0  0  0  0  0  # atno 17371 bound_to 10713
  140.3054  134.8129  157.4133 LP  0  0  0  0  0  0  0  0  0  0  0  0  # atno 17394 bound_to 11000
  140.1225  134.5201  155.8172 LP  0  0  0  0  0  0  0  0  0  0  0  0  # atno 17395 bound_to 11000

$$$$
