AV-unprocessed.smi:2378|AV-procd|sdf|9449|dock5
  -GOLD-   2272013 83D 1   1.00000     0.00000
 Structure written by MMmdl.
 40 41  0  0  0  0  0  0  0  0  1 V2000
  145.9140  131.8195  149.4789 C   0  0  0  0  0  0  0  0  0  0  0  0
  145.3114  132.8796  150.3768 C   0  0  0  0  0  0  0  0  0  0  0  0
  143.9827  132.7744  150.8305 C   0  0  0  0  0  0  0  0  0  0  0  0
  143.4823  133.7943  151.6608 C   0  0  0  0  0  0  0  0  0  0  0  0
  144.2131  134.8633  152.0410 N   0  0  0  0  0  0  0  0  0  0  0  0
  145.4947  134.9755  151.6110 C   0  0  0  0  0  0  0  0  0  0  0  0
  146.3511  136.0552  151.9552 N   0  0  0  0  0  0  0  0  0  0  0  0
  146.0169  137.2500  152.4743 C   0  0  0  0  0  0  0  0  0  0  0  0
  144.8702  137.6236  152.7241 O   0  0  0  0  0  0  0  0  0  0  0  0
  147.1034  138.0062  152.6887 N   0  0  0  0  0  0  0  0  0  0  0  0
  147.0899  139.3563  153.2401 C   0  0  0  0  0  0  0  0  0  0  0  0
  148.4924  139.9879  153.2209 C   0  0  0  0  0  0  0  0  0  0  0  0
  149.1128  140.1094  154.6216 C   0  0  2  0  0  0  0  0  0  0  0  0
  148.6347  141.3776  155.3553 C   0  0  0  0  0  0  0  0  0  0  0  0
  149.3278  141.5065  156.7166 C   0  0  0  0  0  0  0  0  0  0  0  0
  150.8467  141.4216  156.5344 C   0  0  0  0  0  0  0  0  0  0  0  0
  151.2187  140.1617  155.7366 C   0  0  0  0  0  0  0  0  0  0  0  0
  150.5325  140.1580  154.4884 O   0  0  0  0  0  0  0  0  0  0  0  0
  146.0752  133.9954  150.7744 C   0  0  0  0  0  0  0  0  0  0  0  0
  145.2175  130.9970  149.3135 H   0  0  0  0  0  0  0  0  0  0  0  0
  146.8204  131.4134  149.9287 H   0  0  0  0  0  0  0  0  0  0  0  0
  146.1726  132.2484  148.5105 H   0  0  0  0  0  0  0  0  0  0  0  0
  143.3597  131.9369  150.5527 H   0  0  0  0  0  0  0  0  0  0  0  0
  142.4685  133.7508  152.0304 H   0  0  0  0  0  0  0  0  0  0  0  0
  147.3345  135.8968  151.7934 H   0  0  0  0  0  0  0  0  0  0  0  0
  148.0067  137.6210  152.4543 H   0  0  0  0  0  0  0  0  0  0  0  0
  146.3811  139.9805  152.6934 H   0  0  0  0  0  0  0  0  0  0  0  0
  146.7218  139.2948  154.2645 H   0  0  0  0  0  0  0  0  0  0  0  0
  149.1517  139.4033  152.5779 H   0  0  0  0  0  0  0  0  0  0  0  0
  148.4298  140.9812  152.7742 H   0  0  0  0  0  0  0  0  0  0  0  0
  148.8366  139.2292  155.2050 H   0  0  0  0  0  0  0  0  0  0  0  0
  148.8550  142.2581  154.7501 H   0  0  0  0  0  0  0  0  0  0  0  0
  147.5528  141.3535  155.4896 H   0  0  0  0  0  0  0  0  0  0  0  0
  149.0534  142.4460  157.1971 H   0  0  0  0  0  0  0  0  0  0  0  0
  148.9918  140.7057  157.3763 H   0  0  0  0  0  0  0  0  0  0  0  0
  151.2026  142.3056  156.0040 H   0  0  0  0  0  0  0  0  0  0  0  0
  151.3441  141.4160  157.5046 H   0  0  0  0  0  0  0  0  0  0  0  0
  152.2923  140.1409  155.5486 H   0  0  0  0  0  0  0  0  0  0  0  0
  150.9767  139.2588  156.2991 H   0  0  0  0  0  0  0  0  0  0  0  0
  147.0974  134.0962  150.4388 H   0  0  0  0  0  0  0  0  0  0  0  0
  1  2  1  0  0  0  0
  1 20  1  0  0  0  0
  1 21  1  0  0  0  0
  1 22  1  0  0  0  0
  2 19  1  0  0  0  0
  2  3  2  0  0  0  0
  3  4  1  0  0  0  0
  3 23  1  0  0  0  0
  4  5  2  0  0  0  0
  4 24  1  0  0  0  0
  5  6  1  0  0  0  0
  6  7  1  0  0  0  0
  6 19  2  0  0  0  0
  7  8  1  0  0  0  0
  7 25  1  0  0  0  0
  8  9  2  0  0  0  0
  8 10  1  0  0  0  0
 10 11  1  0  0  0  0
 10 26  1  0  0  0  0
 11 12  1  0  0  0  0
 11 27  1  0  0  0  0
 11 28  1  0  0  0  0
 12 13  1  0  0  0  0
 12 29  1  0  0  0  0
 12 30  1  0  0  0  0
 13 18  1  0  0  0  0
 13 14  1  0  0  0  0
 13 31  1  0  0  0  0
 14 15  1  0  0  0  0
 14 32  1  0  0  0  0
 14 33  1  0  0  0  0
 15 16  1  0  0  0  0
 15 34  1  0  0  0  0
 15 35  1  0  0  0  0
 16 17  1  0  0  0  0
 16 36  1  0  0  0  0
 16 37  1  0  0  0  0
 17 18  1  0  0  0  0
 17 38  1  0  0  0  0
 17 39  1  0  0  0  0
 19 40  1  0  0  0  0
M  END
> <s_m_source_file>
AV-unprocessed.smi

> <i_m_source_file_index>
2378

> <i_lp_mmshare_version>
43012

> <i_f3d_flags>
0

> <s_epik_input>
W0NIM11jMVtjSF1bY0hdbmMoW2NIXTEpW05IXUMoPU8pW05IXVtDSDJdW0NIMl1bQ0BASF0yW0NIMl1bQ0gyXVtDSDJdW0NIMl1PMg==

> <s_epik_cmdline>
J2VwaWtfcHl0aG9uJywgJy1waCcsICc3LjAnLCAnLXRuJywgJzgnLCAnLW1hJywgJzIwMCcsICctbWV0YWxfYmluZGluZycsICctaW1hZScsICc8aW5maWxlLm1hZT4nLCAnLW9tYWUnLCAnPG91dGZpbGUubWFlPic=

> <r_lp_tautomer_probability>
1

> <r_epik_Ionization_Penalty>
8.60919e-05

> <r_epik_Ionization_Penalty_Charging>
0

> <r_epik_Ionization_Penalty_Neutral>
8.60919e-05

> <r_epik_State_Penalty>
-0

> <r_epik_Charging_Adjusted_Penalty>
0

> <i_epik_Tot_Q>
0

> <i_epik_Tot_abs_Q>
0

> <r_epik_Metal_State_Penalty>
-0

> <b_epik_Metal_Only>
0

> <s_lp_Force_Field>
OPLS_2005

> <r_lp_Energy>
11.3516

> <b_lp_Chiralities_Consistent>
1

> <s_lp_Variant>
AV-unprocessed.smi:2378-1

> <Gold.Version>
5.8.1

> <Gold.Id.Protein>
6NUR|6NUR_protein|mol2

> <Gold.PLP.Fitness>
42.2465

> <Gold.PLP.PLP>
-34.6474

> <Gold.PLP.part.hbond>
-3.0000

> <Gold.PLP.part.metal>
0.0000

> <Gold.PLP.part.buried>
-0.0121

> <Gold.PLP.part.nonpolar>
-32.3873

> <Gold.PLP.part.repulsive>
0.7102

> <Gold.PLP.ligand.clash>
0.0000

> <Gold.PLP.ligand.torsion>
0.6697

> <Gold.PLP.Chemscore.Hbond>
2.9760

> <Gold.PLP.Chemscore.CHOScore>
0.0000

> <Gold.PLP.Chemscore.Metal>
0.0000

> <Gold.Chemscore.Hbonds>
donor molecule, donor type, donor heavy atom, donor atom, acceptor molecule, acceptor atom, score
      L1  H     7    25       P1  7948  1.00
      L1  H    10    26       P1  7948  0.98
      P1  H  7989  7998       L1    18  1.00

> <Gold.PLP.Chemscore.Internal.Correction>
0.0105

> <Gold.Rescore>
     Score         DG    S(hbond)    S(metal)    S(lipo)     H(rot)  DE(clash)    DE(int)     intcor
     17.35     -21.03       2.76        0.00      85.40       1.42       1.78       1.91       ----

> <Gold.Chemscore.Fitness>
17.3453

> <Gold.Chemscore.DG>
-21.0321

> <Gold.Chemscore.ZeroCoef>
-5.4800

> <Gold.Chemscore.Hbond>
2.7567

> <Gold.Chemscore.Metal>
0.0000

> <Gold.Chemscore.Lipo>
85.4034

> <Gold.Chemscore.Internal_Hbond>
0.0000

> <Gold.Chemscore.DEClash>
1.7759

> <Gold.Chemscore.DEInternal>
1.9110

> <Gold.Chemscore.Rot>
1.4248

> <Gold.Chemscore.Internal.Correction>
   9.000000E+99

> <Gold.Chemscore.Hbonds>
donor molecule, donor type, donor heavy atom, donor atom, acceptor molecule, acceptor atom, score
      L1  H     7    25       P1  7948  0.98
      L1  H    10    26       P1  7948  0.93
      P1  H  7989  7998       L1    18  0.34

> <Gold.Chemscore.Hbond.Weighted>
-9.2075

> <Gold.Chemscore.Metal.Weighted>
-0.0000

> <Gold.Chemscore.Lipo.Weighted>
-9.9922

> <Gold.Chemscore.Internal_Hbond.Weighted>
0.0000

> <Gold.Chemscore.DEClash.Weighted>
1.7759

> <Gold.Chemscore.DEInternal.Weighted>
1.9110

> <Gold.Chemscore.Rot.Weighted>
3.6476

> <Gold.Chemscore.Internal.Correction.Weighted>
   9.000000E+99

> <Gold.Protein.RotatedTorsions>
[ 6907 6896 6895 6894 ] final -148.31 input  -60.11 | X-H torsion
[ 7974 7965 7964 7962 ] final  130.92 input  175.53 | X-H torsion
[ 8008 7997 7996 7995 ] final   68.21 input   59.86 | X-H torsion
[ 10167 10162 10161 10158 ] final   57.95 input  -65.29 | X-H torsion
[ 10718 10713 10712 10709 ] final   41.79 input   66.30 | X-H torsion
[ 10763 10752 10751 10750 ] final -158.11 input  -60.55 | X-H torsion
[ 11005 11000 10999 10996 ] final  103.66 input  -57.11 | X-H torsion

> <Gold.Protein.ActiveResidues>
 VAL166  LYS551  ARG553  GLY616  TRP617  ASP618  TYR619  PRO620  LYS621  CYS622 
 ASP623  PHE694  ASN695  SER759  ASP760  ASP761  ALA762  ILE779  LEU786  VAL792 
 PHE793  MET794  SER795  GLU796  ALA797  LYS798  CYS799  TRP800  GLU811  SER814 

> <Gold.Protein.RotatedAtoms>
  151.1679  133.4803  159.2593 H   0  0  0  0  0  0  0  0  0  0  0  0  # atno 6907 bound_to 6896
  151.1386  135.0167  159.8625 H   0  0  0  0  0  0  0  0  0  0  0  0  # atno 6908 bound_to 6896
  152.5462  134.1575  159.8597 H   0  0  0  0  0  0  0  0  0  0  0  0  # atno 6909 bound_to 6896
  145.0128  139.4204  143.5236 H   0  0  0  0  0  0  0  0  0  0  0  0  # atno 7974 bound_to 7965
  155.7047  140.3495  155.4948 H   0  0  0  0  0  0  0  0  0  0  0  0  # atno 8008 bound_to 7997
  155.9409  140.1101  157.1078 H   0  0  0  0  0  0  0  0  0  0  0  0  # atno 8009 bound_to 7997
  154.4102  140.1213  156.4912 H   0  0  0  0  0  0  0  0  0  0  0  0  # atno 8010 bound_to 7997
  140.1925  144.4071  150.6565 H   0  0  0  0  0  0  0  0  0  0  0  0  # atno 10167 bound_to 10162
  157.3976  130.7842  149.7321 H   0  0  0  0  0  0  0  0  0  0  0  0  # atno 10718 bound_to 10713
  154.7583  135.3111  154.8427 H   0  0  0  0  0  0  0  0  0  0  0  0  # atno 10763 bound_to 10752
  153.9195  135.6797  153.4752 H   0  0  0  0  0  0  0  0  0  0  0  0  # atno 10764 bound_to 10752
  153.1182  135.4835  154.9081 H   0  0  0  0  0  0  0  0  0  0  0  0  # atno 10765 bound_to 10752
  139.8785  134.9271  156.5243 H   0  0  0  0  0  0  0  0  0  0  0  0  # atno 11005 bound_to 11000
  146.3473  139.9581  142.8720 LP  0  0  0  0  0  0  0  0  0  0  0  0  # atno 17320 bound_to 7965
  145.2000  140.9850  143.4161 LP  0  0  0  0  0  0  0  0  0  0  0  0  # atno 17321 bound_to 7965
  140.6446  143.2210  151.6214 LP  0  0  0  0  0  0  0  0  0  0  0  0  # atno 17342 bound_to 10162
  139.5250  144.3087  152.1011 LP  0  0  0  0  0  0  0  0  0  0  0  0  # atno 17343 bound_to 10162
  155.9814  130.4019  150.3471 LP  0  0  0  0  0  0  0  0  0  0  0  0  # atno 17370 bound_to 10713
  157.1595  131.0341  151.2847 LP  0  0  0  0  0  0  0  0  0  0  0  0  # atno 17371 bound_to 10713
  140.8427  133.8192  155.9091 LP  0  0  0  0  0  0  0  0  0  0  0  0  # atno 17394 bound_to 11000
  140.9221  134.2128  157.4919 LP  0  0  0  0  0  0  0  0  0  0  0  0  # atno 17395 bound_to 11000

$$$$
