AV-unprocessed.smi:59|AV-procd|sdf|591|dock2
  -GOLD-   2262016483D 1   1.00000     0.00000
 Structure written by MMmdl.
 29 30  0  0  0  0  0  0  0  0  2 V2000
  148.5903  142.1625  154.6519 C   0  0  0  0  0  0  0  0  0  0  0  0
  149.2414  140.8563  154.6793 N   0  0  0  0  0  0  0  0  0  0  0  0
  148.7039  139.7213  154.2129 C   0  0  0  0  0  0  0  0  0  0  0  0
  147.5613  139.5829  153.7752 O   0  0  0  0  0  0  0  0  0  0  0  0
  149.7327  138.6030  154.2360 C   0  0  2  0  0  0  0  0  0  0  0  0
  149.1728  137.3718  154.6514 O   0  0  0  0  0  0  0  0  0  0  0  0
  150.7800  139.1465  155.2221 C   0  0  1  0  0  0  0  0  0  0  0  0
  152.2045  138.6589  154.9184 C   0  0  0  0  0  0  0  0  0  0  0  0
  153.0923  139.5252  154.7540 O   0  0  0  0  0  0  0  0  0  0  0  0
  152.3853  137.4224  154.8760 O   0  5  0  0  0  0  0  0  0  0  0  0
  150.6121  140.6814  155.1622 C   0  0  2  0  0  0  0  0  0  0  0  0
  150.9050  141.3222  156.5010 C   0  0  0  0  0  0  0  0  0  0  0  0
  151.2140  140.7002  157.7464 C   0  0  0  0  0  0  0  0  0  0  0  0
  151.4258  141.5696  158.7207 N   0  0  0  0  0  0  0  0  0  0  0  0
  151.2732  142.7735  158.1328 N   0  0  0  0  0  0  0  0  0  0  0  0
  151.4438  143.9786  158.9157 C   0  0  0  0  0  0  0  0  0  0  0  0
  150.9669  142.6551  156.7948 C   0  0  0  0  0  0  0  0  0  0  0  0
  150.1345  138.4904  153.2279 H   0  0  0  0  0  0  0  0  0  0  0  0
  150.5028  138.8048  156.2225 H   0  0  0  0  0  0  0  0  0  0  0  0
  151.2635  141.1027  154.3941 H   0  0  0  0  0  0  0  0  0  0  0  0
  148.1172  142.3411  153.6855 H   0  0  0  0  0  0  0  0  0  0  0  0
  149.3083  142.9649  154.8224 H   0  0  0  0  0  0  0  0  0  0  0  0
  147.8228  142.2194  155.4241 H   0  0  0  0  0  0  0  0  0  0  0  0
  149.8564  136.7194  154.6482 H   0  0  0  0  0  0  0  0  0  0  0  0
  151.2892  139.6463  157.9695 H   0  0  0  0  0  0  0  0  0  0  0  0
  151.0211  144.8315  158.3839 H   0  0  0  0  0  0  0  0  0  0  0  0
  152.5055  144.1570  159.0876 H   0  0  0  0  0  0  0  0  0  0  0  0
  150.9364  143.8752  159.8755 H   0  0  0  0  0  0  0  0  0  0  0  0
  150.8193  143.5200  156.1646 H   0  0  0  0  0  0  0  0  0  0  0  0
  1  2  1  0  0  0  0
  1 21  1  0  0  0  0
  1 22  1  0  0  0  0
  1 23  1  0  0  0  0
  2 11  1  0  0  0  0
  2  3  1  0  0  0  0
  3  4  2  0  0  0  0
  3  5  1  0  0  0  0
  5 18  1  0  0  0  0
  5  6  1  0  0  0  0
  5  7  1  0  0  0  0
  6 24  1  0  0  0  0
  7 19  1  0  0  0  0
  7  8  1  0  0  0  0
  7 11  1  0  0  0  0
  8  9  2  0  0  0  0
  8 10  1  0  0  0  0
 11 20  1  0  0  0  0
 11 12  1  0  0  0  0
 12 17  2  0  0  0  0
 12 13  1  0  0  0  0
 13 14  2  0  0  0  0
 13 25  1  0  0  0  0
 14 15  1  0  0  0  0
 15 16  1  0  0  0  0
 15 17  1  0  0  0  0
 16 26  1  0  0  0  0
 16 27  1  0  0  0  0
 16 28  1  0  0  0  0
 17 29  1  0  0  0  0
M  CHG  1  10  -1
M  END
> <s_m_source_file>
AV-unprocessed.smi

> <i_m_source_file_index>
59

> <i_lp_mmshare_version>
43012

> <i_f3d_flags>
0

> <s_epik_input>
W0NIM11OMUMoPU8pW0NASF0oW09IXSlbQ0BIXShDKD1PKVtPSF0pW0NASF0xYzJbY0hdbm4oW0NIM10pW2NIXTI=

> <s_epik_cmdline>
J2VwaWtfcHl0aG9uJywgJy1waCcsICc3LjAnLCAnLXRuJywgJzgnLCAnLW1hJywgJzIwMCcsICctbWV0YWxfYmluZGluZycsICctaW1hZScsICc8aW5maWxlLm1hZT4nLCAnLW9tYWUnLCAnPG91dGZpbGUubWFlPic=

> <r_lp_tautomer_probability>
1

> <r_epik_Ionization_Penalty>
0.00173515

> <r_epik_Ionization_Penalty_Charging>
0.00120567

> <r_epik_Ionization_Penalty_Neutral>
0.000529476

> <r_epik_State_Penalty>
-0

> <r_epik_Charging_Adjusted_Penalty>
0.00120567

> <i_epik_Tot_Q>
-1

> <i_epik_Tot_abs_Q>
1

> <r_epik_Metal_State_Penalty>
-0

> <b_epik_Metal_Only>
0

> <s_lp_Force_Field>
OPLS_2005

> <r_lp_Energy>
8.8991

> <b_lp_Chiralities_Consistent>
1

> <s_lp_Variant>
AV-unprocessed.smi:59-7

> <Gold.Version>
5.8.1

> <Gold.Id.Protein>
6NUR|6NUR_protein|mol2

> <Gold.PLP.Fitness>
44.7118

> <Gold.PLP.PLP>
-31.7263

> <Gold.PLP.part.hbond>
-4.0000

> <Gold.PLP.part.metal>
0.0000

> <Gold.PLP.part.buried>
2.2105

> <Gold.PLP.part.nonpolar>
-30.1341

> <Gold.PLP.part.repulsive>
0.2740

> <Gold.PLP.ligand.clash>
0.0000

> <Gold.PLP.ligand.torsion>
0.1214

> <Gold.PLP.Chemscore.Hbond>
3.4053

> <Gold.PLP.Chemscore.CHOScore>
1.0000

> <Gold.PLP.Chemscore.Metal>
0.0000

> <Gold.Chemscore.Hbonds>
donor molecule, donor type, donor heavy atom, donor atom, acceptor molecule, acceptor atom, score
      P1  H  7989  7998       L1     9  0.08
      P1  H  7997  8010       L1     9  2.00
      P1  H 10752 10765       L1    10  1.34
      L1  C    17    29       P1  8028  1.00

> <Gold.PLP.Chemscore.Internal.Correction>
0.0124

> <Gold.Rescore>
     Score         DG    S(hbond)    S(metal)    S(lipo)     H(rot)  DE(clash)    DE(int)     intcor
     12.01     -13.13       1.72        0.00      61.34       2.06       1.07       0.05       ----

> <Gold.Chemscore.Fitness>
12.0072

> <Gold.Chemscore.DG>
-13.1261

> <Gold.Chemscore.ZeroCoef>
-5.4800

> <Gold.Chemscore.Hbond>
1.7224

> <Gold.Chemscore.Metal>
0.0000

> <Gold.Chemscore.Lipo>
61.3414

> <Gold.Chemscore.Internal_Hbond>
0.0000

> <Gold.Chemscore.DEClash>
1.0696

> <Gold.Chemscore.DEInternal>
0.0492

> <Gold.Chemscore.Rot>
2.0639

> <Gold.Chemscore.Internal.Correction>
   9.000000E+99

> <Gold.Chemscore.Hbonds>
donor molecule, donor type, donor heavy atom, donor atom, acceptor molecule, acceptor atom, score
      P1  H  7989  7998       L1     9  0.01
      P1  H  7997  8010       L1     9  1.00
      P1  H 10752 10765       L1    10  0.66

> <Gold.Chemscore.Hbond.Weighted>
-5.7528

> <Gold.Chemscore.Metal.Weighted>
-0.0000

> <Gold.Chemscore.Lipo.Weighted>
-7.1769

> <Gold.Chemscore.Internal_Hbond.Weighted>
0.0000

> <Gold.Chemscore.DEClash.Weighted>
1.0696

> <Gold.Chemscore.DEInternal.Weighted>
0.0492

> <Gold.Chemscore.Rot.Weighted>
5.2837

> <Gold.Chemscore.Internal.Correction.Weighted>
   9.000000E+99

> <Gold.Protein.RotatedTorsions>
[ 6907 6896 6895 6894 ] final  -90.81 input  -60.11 | X-H torsion
[ 7974 7965 7964 7962 ] final  -75.45 input  175.53 | X-H torsion
[ 8008 7997 7996 7995 ] final  107.22 input   59.86 | X-H torsion
[ 10167 10162 10161 10158 ] final   71.06 input  -65.29 | X-H torsion
[ 10718 10713 10712 10709 ] final   11.00 input   66.30 | X-H torsion
[ 10763 10752 10751 10750 ] final  176.06 input  -60.55 | X-H torsion
[ 11005 11000 10999 10996 ] final -114.31 input  -57.11 | X-H torsion

> <Gold.Protein.ActiveResidues>
 VAL166  LYS551  ARG553  GLY616  TRP617  ASP618  TYR619  PRO620  LYS621  CYS622 
 ASP623  PHE694  ASN695  SER759  ASP760  ASP761  ALA762  ILE779  LEU786  VAL792 
 PHE793  MET794  SER795  GLU796  ALA797  LYS798  CYS799  TRP800  GLU811  SER814 

> <Gold.Protein.RotatedAtoms>
  150.6885  134.2374  159.4458 H   0  0  0  0  0  0  0  0  0  0  0  0  # atno 6907 bound_to 6896
  152.0321  134.9759  160.0582 H   0  0  0  0  0  0  0  0  0  0  0  0  # atno 6908 bound_to 6896
  152.1294  133.4364  159.4750 H   0  0  0  0  0  0  0  0  0  0  0  0  # atno 6909 bound_to 6896
  145.6259  140.9351  143.1113 H   0  0  0  0  0  0  0  0  0  0  0  0  # atno 7974 bound_to 7965
  156.1806  140.3099  155.9142 H   0  0  0  0  0  0  0  0  0  0  0  0  # atno 8008 bound_to 7997
  155.3391  140.0465  157.3061 H   0  0  0  0  0  0  0  0  0  0  0  0  # atno 8009 bound_to 7997
  154.5339  140.2239  155.8767 H   0  0  0  0  0  0  0  0  0  0  0  0  # atno 8010 bound_to 7997
  140.0502  144.5318  150.7369 H   0  0  0  0  0  0  0  0  0  0  0  0  # atno 10167 bound_to 10162
  156.9891  130.6035  149.5684 H   0  0  0  0  0  0  0  0  0  0  0  0  # atno 10718 bound_to 10713
  154.4760  135.2773  155.1607 H   0  0  0  0  0  0  0  0  0  0  0  0  # atno 10763 bound_to 10752
  154.3336  135.6185  153.5567 H   0  0  0  0  0  0  0  0  0  0  0  0  # atno 10764 bound_to 10752
  152.9869  135.5771  154.5151 H   0  0  0  0  0  0  0  0  0  0  0  0  # atno 10765 bound_to 10752
  141.0560  133.9612  157.2753 H   0  0  0  0  0  0  0  0  0  0  0  0  # atno 11005 bound_to 11000
  144.7213  139.8022  143.7381 LP  0  0  0  0  0  0  0  0  0  0  0  0  # atno 17320 bound_to 7965
  146.1395  139.4448  143.0118 LP  0  0  0  0  0  0  0  0  0  0  0  0  # atno 17321 bound_to 7965
  140.7220  143.2598  151.4247 LP  0  0  0  0  0  0  0  0  0  0  0  0  # atno 17342 bound_to 10162
  139.5958  144.1401  152.2142 LP  0  0  0  0  0  0  0  0  0  0  0  0  # atno 17343 bound_to 10162
  156.0214  130.5309  150.8286 LP  0  0  0  0  0  0  0  0  0  0  0  0  # atno 17370 bound_to 10713
  157.5471  131.0943  150.9747 LP  0  0  0  0  0  0  0  0  0  0  0  0  # atno 17371 bound_to 10713
  139.9390  135.0193  156.8649 LP  0  0  0  0  0  0  0  0  0  0  0  0  # atno 17394 bound_to 11000
  140.5963  134.0214  155.7519 LP  0  0  0  0  0  0  0  0  0  0  0  0  # atno 17395 bound_to 11000

$$$$
