AV-unprocessed.smi:1640|AV-procd|sdf|6555|dock6
  -GOLD-   22720 7243D 1   1.00000     0.00000
 Structure written by MMmdl.
 46 47  0  0  0  0  0  0  0  0  2 V2000
  145.1903  136.1205  162.5241 C   0  0  0  0  0  0  0  0  0  0  0  0
  146.6205  135.7895  162.0652 C   0  0  0  0  0  0  0  0  0  0  0  0
  147.6214  136.0550  163.2001 C   0  0  0  0  0  0  0  0  0  0  0  0
  147.0222  136.5614  160.7922 C   0  0  0  0  0  0  0  0  0  0  0  0
  148.0040  135.7995  159.8850 C   0  0  0  0  0  0  0  0  0  0  0  0
  148.8039  136.9111  158.6485 S   0  0  0  0  0  0  0  0  0  0  0  0
  148.4914  136.3602  157.3197 O   0  0  0  0  0  0  0  0  0  0  0  0
  148.3049  138.2622  158.9526 O   0  0  0  0  0  0  0  0  0  0  0  0
  150.3637  136.7258  159.0467 N   0  5  0  0  0  0  0  0  0  0  0  0
  151.2323  137.8887  159.0773 C   0  0  0  0  0  0  0  0  0  0  0  0
  151.7239  138.2643  157.6709 C   0  0  0  0  0  0  0  0  0  0  0  0
  151.3078  137.4618  156.5809 C   0  0  0  0  0  0  0  0  0  0  0  0
  151.7239  137.7853  155.2771 C   0  0  0  0  0  0  0  0  0  0  0  0
  152.5488  138.9080  155.1012 C   0  0  0  0  0  0  0  0  0  0  0  0
  152.9615  139.6858  156.1207 N   0  0  0  0  0  0  0  0  0  0  0  0
  152.5695  139.3868  157.3851 C   0  0  0  0  0  0  0  0  0  0  0  0
  153.0741  140.2402  158.3904 N   0  0  0  0  0  0  0  0  0  0  0  0
  152.0638  141.1144  158.9723 C   0  0  0  0  0  0  0  0  0  0  0  0
  152.7396  142.1649  159.8694 C   0  0  0  0  0  0  0  0  0  0  0  0
  153.5306  141.5106  160.8589 O   0  0  0  0  0  0  0  0  0  0  0  0
  154.5603  140.7127  160.2801 C   0  0  0  0  0  0  0  0  0  0  0  0
  153.9323  139.6226  159.3944 C   0  0  0  0  0  0  0  0  0  0  0  0
  145.0723  137.1881  162.7114 H   0  0  0  0  0  0  0  0  0  0  0  0
  144.9433  135.5928  163.4456 H   0  0  0  0  0  0  0  0  0  0  0  0
  144.4499  135.8279  161.7802 H   0  0  0  0  0  0  0  0  0  0  0  0
  146.6629  134.7229  161.8411 H   0  0  0  0  0  0  0  0  0  0  0  0
  147.6267  137.1076  163.4851 H   0  0  0  0  0  0  0  0  0  0  0  0
  148.6352  135.7857  162.9028 H   0  0  0  0  0  0  0  0  0  0  0  0
  147.3753  135.4706  164.0871 H   0  0  0  0  0  0  0  0  0  0  0  0
  146.1287  136.8276  160.2261 H   0  0  0  0  0  0  0  0  0  0  0  0
  147.4839  137.5042  161.0867 H   0  0  0  0  0  0  0  0  0  0  0  0
  148.7986  135.3609  160.4881 H   0  0  0  0  0  0  0  0  0  0  0  0
  147.5202  134.9888  159.3414 H   0  0  0  0  0  0  0  0  0  0  0  0
  150.7314  138.7502  159.5199 H   0  0  0  0  0  0  0  0  0  0  0  0
  152.1150  137.7235  159.6960 H   0  0  0  0  0  0  0  0  0  0  0  0
  150.6711  136.5982  156.7193 H   0  0  0  0  0  0  0  0  0  0  0  0
  151.4165  137.1860  154.4332 H   0  0  0  0  0  0  0  0  0  0  0  0
  152.8883  139.1893  154.1154 H   0  0  0  0  0  0  0  0  0  0  0  0
  151.4898  141.6072  158.1873 H   0  0  0  0  0  0  0  0  0  0  0  0
  151.3618  140.5182  159.5565 H   0  0  0  0  0  0  0  0  0  0  0  0
  153.3621  142.8376  159.2776 H   0  0  0  0  0  0  0  0  0  0  0  0
  151.9862  142.7790  160.3627 H   0  0  0  0  0  0  0  0  0  0  0  0
  155.2388  141.3410  159.7008 H   0  0  0  0  0  0  0  0  0  0  0  0
  155.1484  140.2572  161.0768 H   0  0  0  0  0  0  0  0  0  0  0  0
  153.3495  138.9376  160.0117 H   0  0  0  0  0  0  0  0  0  0  0  0
  154.7123  139.0382  158.9050 H   0  0  0  0  0  0  0  0  0  0  0  0
  1  2  1  0  0  0  0
  1 23  1  0  0  0  0
  1 24  1  0  0  0  0
  1 25  1  0  0  0  0
  2  3  1  0  0  0  0
  2  4  1  0  0  0  0
  2 26  1  0  0  0  0
  3 27  1  0  0  0  0
  3 28  1  0  0  0  0
  3 29  1  0  0  0  0
  4  5  1  0  0  0  0
  4 30  1  0  0  0  0
  4 31  1  0  0  0  0
  5  6  1  0  0  0  0
  5 32  1  0  0  0  0
  5 33  1  0  0  0  0
  6  7  2  0  0  0  0
  6  8  2  0  0  0  0
  6  9  1  0  0  0  0
  9 10  1  0  0  0  0
 10 11  1  0  0  0  0
 10 34  1  0  0  0  0
 10 35  1  0  0  0  0
 11 16  1  0  0  0  0
 11 12  2  0  0  0  0
 12 13  1  0  0  0  0
 12 36  1  0  0  0  0
 13 14  2  0  0  0  0
 13 37  1  0  0  0  0
 14 15  1  0  0  0  0
 14 38  1  0  0  0  0
 15 16  2  0  0  0  0
 16 17  1  0  0  0  0
 17 22  1  0  0  0  0
 17 18  1  0  0  0  0
 18 19  1  0  0  0  0
 18 39  1  0  0  0  0
 18 40  1  0  0  0  0
 19 20  1  0  0  0  0
 19 41  1  0  0  0  0
 19 42  1  0  0  0  0
 20 21  1  0  0  0  0
 21 22  1  0  0  0  0
 21 43  1  0  0  0  0
 21 44  1  0  0  0  0
 22 45  1  0  0  0  0
 22 46  1  0  0  0  0
M  CHG  1   9  -1
M  END
> <s_m_source_file>
AV-unprocessed.smi

> <i_m_source_file_index>
1640

> <i_lp_mmshare_version>
43012

> <i_f3d_flags>
0

> <s_epik_input>
W0NIM11bQ0hdKFtDSDNdKVtDSDJdW0NIMl1TKD1PKSg9TylbTkhdW0NIMl1jMVtjSF1bY0hdW2NIXW5jMU4yW0NIMl1bQ0gyXU9bQ0gyXVtDSDJdMg==

> <s_epik_cmdline>
J2VwaWtfcHl0aG9uJywgJy1waCcsICc3LjAnLCAnLXRuJywgJzgnLCAnLW1hJywgJzIwMCcsICctbWV0YWxfYmluZGluZycsICctaW1hZScsICc8aW5maWxlLm1hZT4nLCAnLW9tYWUnLCAnPG91dGZpbGUubWFlPic=

> <r_lp_tautomer_probability>
1

> <r_epik_Ionization_Penalty>
6.15599

> <r_epik_Ionization_Penalty_Charging>
6.0779

> <r_epik_Ionization_Penalty_Neutral>
0.078089

> <r_epik_State_Penalty>
6.0833

> <r_epik_Charging_Adjusted_Penalty>
12.1612

> <i_epik_Tot_Q>
-1

> <i_epik_Tot_abs_Q>
1

> <r_epik_Metal_State_Penalty>
2.0323

> <b_epik_Metal_Only>
1

> <s_lp_Force_Field>
OPLS_2005

> <r_lp_Energy>
20.5141

> <b_lp_Chiralities_Consistent>
1

> <s_lp_Variant>
AV-unprocessed.smi:1640-2

> <Gold.Version>
5.8.1

> <Gold.Id.Protein>
6NUR|6NUR_protein|mol2

> <Gold.PLP.Fitness>
44.4277

> <Gold.PLP.PLP>
-37.0489

> <Gold.PLP.part.hbond>
-4.0000

> <Gold.PLP.part.metal>
0.0000

> <Gold.PLP.part.buried>
-5.0425

> <Gold.PLP.part.nonpolar>
-27.1986

> <Gold.PLP.part.repulsive>
0.0000

> <Gold.PLP.ligand.clash>
0.3248

> <Gold.PLP.ligand.torsion>
1.2872

> <Gold.PLP.Chemscore.Hbond>
3.0101

> <Gold.PLP.Chemscore.CHOScore>
0.0000

> <Gold.PLP.Chemscore.Metal>
0.0000

> <Gold.Chemscore.Hbonds>
donor molecule, donor type, donor heavy atom, donor atom, acceptor molecule, acceptor atom, score
      P1  H  6896  6907       L1     9  1.81
      P1  H  6934  6947       L1     8  0.02
      P1  H  7997  8010       L1    15  0.81

> <Gold.PLP.Chemscore.Internal.Correction>
1.2476

> <Gold.Rescore>
     Score         DG    S(hbond)    S(metal)    S(lipo)     H(rot)  DE(clash)    DE(int)     intcor
     17.39     -18.66       1.99        0.00      93.96       1.73       0.06       1.22       ----

> <Gold.Chemscore.Fitness>
17.3853

> <Gold.Chemscore.DG>
-18.6650

> <Gold.Chemscore.ZeroCoef>
-5.4800

> <Gold.Chemscore.Hbond>
1.9858

> <Gold.Chemscore.Metal>
0.0000

> <Gold.Chemscore.Lipo>
93.9592

> <Gold.Chemscore.Internal_Hbond>
0.0000

> <Gold.Chemscore.DEClash>
0.0624

> <Gold.Chemscore.DEInternal>
1.2173

> <Gold.Chemscore.Rot>
1.7347

> <Gold.Chemscore.Internal.Correction>
   9.000000E+99

> <Gold.Chemscore.Hbonds>
donor molecule, donor type, donor heavy atom, donor atom, acceptor molecule, acceptor atom, score
      P1  H  6896  6907       L1     9  0.71
      P1  H  6934  6947       L1     8  0.03
      P1  H  7997  8010       L1    15  0.32

> <Gold.Chemscore.Hbond.Weighted>
-6.6326

> <Gold.Chemscore.Metal.Weighted>
-0.0000

> <Gold.Chemscore.Lipo.Weighted>
-10.9932

> <Gold.Chemscore.Internal_Hbond.Weighted>
0.0000

> <Gold.Chemscore.DEClash.Weighted>
0.0624

> <Gold.Chemscore.DEInternal.Weighted>
1.2173

> <Gold.Chemscore.Rot.Weighted>
4.4409

> <Gold.Chemscore.Internal.Correction.Weighted>
   9.000000E+99

> <Gold.Protein.RotatedTorsions>
[ 6907 6896 6895 6894 ] final  -54.54 input  -60.11 | X-H torsion
[ 7974 7965 7964 7962 ] final   99.31 input  175.53 | X-H torsion
[ 8008 7997 7996 7995 ] final   80.06 input   59.86 | X-H torsion
[ 10167 10162 10161 10158 ] final  165.80 input  -65.29 | X-H torsion
[ 10718 10713 10712 10709 ] final -179.68 input   66.30 | X-H torsion
[ 10763 10752 10751 10750 ] final   81.22 input  -60.55 | X-H torsion
[ 11005 11000 10999 10996 ] final  176.58 input  -57.11 | X-H torsion

> <Gold.Protein.ActiveResidues>
 VAL166  LYS551  ARG553  GLY616  TRP617  ASP618  TYR619  PRO620  LYS621  CYS622 
 ASP623  PHE694  ASN695  SER759  ASP760  ASP761  ALA762  ILE779  LEU786  VAL792 
 PHE793  MET794  SER795  GLU796  ALA797  LYS798  CYS799  TRP800  GLU811  SER814 

> <Gold.Protein.RotatedAtoms>
  150.8329  134.7590  159.6868 H   0  0  0  0  0  0  0  0  0  0  0  0  # atno 6907 bound_to 6896
  152.4431  134.5548  159.9887 H   0  0  0  0  0  0  0  0  0  0  0  0  # atno 6908 bound_to 6896
  151.5704  133.3353  159.3024 H   0  0  0  0  0  0  0  0  0  0  0  0  # atno 6909 bound_to 6896
  145.4005  139.2348  143.3302 H   0  0  0  0  0  0  0  0  0  0  0  0  # atno 7974 bound_to 7965
  155.8782  140.3445  155.5869 H   0  0  0  0  0  0  0  0  0  0  0  0  # atno 8008 bound_to 7997
  155.7750  140.0850  157.2108 H   0  0  0  0  0  0  0  0  0  0  0  0  # atno 8009 bound_to 7997
  154.4022  140.1511  156.2973 H   0  0  0  0  0  0  0  0  0  0  0  0  # atno 8010 bound_to 7997
  139.4912  144.4094  151.9317 H   0  0  0  0  0  0  0  0  0  0  0  0  # atno 10167 bound_to 10162
  156.8627  130.9757  151.3081 H   0  0  0  0  0  0  0  0  0  0  0  0  # atno 10718 bound_to 10713
  153.1098  135.4773  154.9015 H   0  0  0  0  0  0  0  0  0  0  0  0  # atno 10763 bound_to 10752
  154.7469  135.3096  154.8631 H   0  0  0  0  0  0  0  0  0  0  0  0  # atno 10764 bound_to 10752
  153.9224  135.6853  153.4801 H   0  0  0  0  0  0  0  0  0  0  0  0  # atno 10765 bound_to 10752
  140.3746  134.7000  157.4414 H   0  0  0  0  0  0  0  0  0  0  0  0  # atno 11005 bound_to 11000
  146.2754  140.4702  142.8797 LP  0  0  0  0  0  0  0  0  0  0  0  0  # atno 17320 bound_to 7965
  144.8377  140.6808  143.6249 LP  0  0  0  0  0  0  0  0  0  0  0  0  # atno 17321 bound_to 7965
  140.3535  144.3060  150.5945 LP  0  0  0  0  0  0  0  0  0  0  0  0  # atno 17342 bound_to 10162
  140.5465  143.2214  151.7998 LP  0  0  0  0  0  0  0  0  0  0  0  0  # atno 17343 bound_to 10162
  157.6241  130.8677  149.9158 LP  0  0  0  0  0  0  0  0  0  0  0  0  # atno 17370 bound_to 10713
  156.0768  130.3678  150.0662 LP  0  0  0  0  0  0  0  0  0  0  0  0  # atno 17371 bound_to 10713
  140.0525  134.6110  155.8845 LP  0  0  0  0  0  0  0  0  0  0  0  0  # atno 17394 bound_to 11000
  141.1943  133.6582  156.5590 LP  0  0  0  0  0  0  0  0  0  0  0  0  # atno 17395 bound_to 11000

$$$$
