AV-unprocessed.smi:1808|AV-procd|sdf|7307|dock10
  -GOLD-   22720 8563D 1   1.00000     0.00000
 Structure written by MMmdl.
 27 28  0  0  0  0  0  0  0  0  2 V2000
  151.0706  140.6432  155.6144 O   0  0  0  0  0  0  0  0  0  0  0  0
  150.3983  141.6765  155.5758 C   0  0  0  0  0  0  0  0  0  0  0  0
  150.5403  142.6025  156.5349 N   0  0  0  0  0  0  0  0  0  0  0  0
  151.4552  142.5241  157.6686 C   0  0  0  0  0  0  0  0  0  0  0  0
  151.1369  143.5927  158.7273 C   0  0  2  0  0  0  0  0  0  0  0  0
  152.0473  144.8144  158.6638 C   0  0  0  0  0  0  0  0  0  0  0  0
  151.8878  145.4116  160.0494 C   0  0  0  0  0  0  0  0  0  0  0  0
  151.5075  144.2102  160.9211 C   0  0  0  0  0  0  0  0  0  0  0  0
  151.3886  143.1021  160.0354 O   0  0  0  0  0  0  0  0  0  0  0  0
  149.4897  142.0065  154.6298 N   0  5  0  0  0  0  0  0  0  0  0  0
  148.6343  141.0800  154.1678 C   0  0  0  0  0  0  0  0  0  0  0  0
  148.9242  139.7743  154.1276 N   0  0  0  0  0  0  0  0  0  0  0  0
  147.8881  138.9910  153.6161 C   0  0  0  0  0  0  0  0  0  0  0  0
  146.7797  139.7159  153.2662 C   0  0  0  0  0  0  0  0  0  0  0  0
  147.0062  141.4145  153.5706 S   0  0  0  0  0  0  0  0  0  0  0  0
  149.9735  143.4347  156.4633 H   0  0  0  0  0  0  0  0  0  0  0  0
  151.3795  141.5280  158.1050 H   0  0  0  0  0  0  0  0  0  0  0  0
  152.4834  142.6314  157.3196 H   0  0  0  0  0  0  0  0  0  0  0  0
  150.0949  143.9111  158.6590 H   0  0  0  0  0  0  0  0  0  0  0  0
  153.0828  144.5075  158.5103 H   0  0  0  0  0  0  0  0  0  0  0  0
  151.7746  145.5063  157.8665 H   0  0  0  0  0  0  0  0  0  0  0  0
  152.7968  145.9077  160.3906 H   0  0  0  0  0  0  0  0  0  0  0  0
  151.0808  146.1453  160.0544 H   0  0  0  0  0  0  0  0  0  0  0  0
  152.2606  143.9994  161.6804 H   0  0  0  0  0  0  0  0  0  0  0  0
  150.5563  144.3841  161.4255 H   0  0  0  0  0  0  0  0  0  0  0  0
  148.0256  137.9230  153.5381 H   0  0  0  0  0  0  0  0  0  0  0  0
  145.8495  139.3578  152.8519 H   0  0  0  0  0  0  0  0  0  0  0  0
  1  2  2  0  0  0  0
  2  3  1  0  0  0  0
  2 10  1  0  0  0  0
  3  4  1  0  0  0  0
  3 16  1  0  0  0  0
  4  5  1  0  0  0  0
  4 17  1  0  0  0  0
  4 18  1  0  0  0  0
  5  9  1  0  0  0  0
  5  6  1  0  0  0  0
  5 19  1  0  0  0  0
  6  7  1  0  0  0  0
  6 20  1  0  0  0  0
  6 21  1  0  0  0  0
  7  8  1  0  0  0  0
  7 22  1  0  0  0  0
  7 23  1  0  0  0  0
  8  9  1  0  0  0  0
  8 24  1  0  0  0  0
  8 25  1  0  0  0  0
 10 11  1  0  0  0  0
 11 15  1  0  0  0  0
 11 12  2  0  0  0  0
 12 13  1  0  0  0  0
 13 14  2  0  0  0  0
 13 26  1  0  0  0  0
 14 15  1  0  0  0  0
 14 27  1  0  0  0  0
M  CHG  1  10  -1
M  END
> <s_m_source_file>
AV-unprocessed.smi

> <i_m_source_file_index>
1808

> <i_lp_mmshare_version>
43012

> <i_f3d_flags>
0

> <s_epik_input>
czFbY0hdW2NIXW5jMVtOSF1DKD1PKVtOSF1bQ0gyXVtDQEBIXTJbQ0gyXVtDSDJdW0NIMl1PMg==

> <s_epik_cmdline>
J2VwaWtfcHl0aG9uJywgJy1waCcsICc3LjAnLCAnLXRuJywgJzgnLCAnLW1hJywgJzIwMCcsICctbWV0YWxfYmluZGluZycsICctaW1hZScsICc8aW5maWxlLm1hZT4nLCAnLW9tYWUnLCAnPG91dGZpbGUubWFlPic=

> <r_lp_tautomer_probability>
0.999

> <r_epik_Ionization_Penalty>
8.26346

> <r_epik_Ionization_Penalty_Charging>
6.6559

> <r_epik_Ionization_Penalty_Neutral>
1.60756

> <r_epik_State_Penalty>
6.65607

> <r_epik_Charging_Adjusted_Penalty>
13.312

> <i_epik_Tot_Q>
-1

> <i_epik_Tot_abs_Q>
1

> <r_epik_Metal_State_Penalty>
2.5789

> <b_epik_Metal_Only>
1

> <s_lp_Force_Field>
OPLS_2005

> <r_lp_Energy>
12.338

> <b_lp_Chiralities_Consistent>
1

> <s_lp_Variant>
AV-unprocessed.smi:1808-3

> <Gold.Version>
5.8.1

> <Gold.Id.Protein>
6NUR|6NUR_protein|mol2

> <Gold.PLP.Fitness>
40.7423

> <Gold.PLP.PLP>
-32.9363

> <Gold.PLP.part.hbond>
-4.0762

> <Gold.PLP.part.metal>
0.0000

> <Gold.PLP.part.buried>
-3.6505

> <Gold.PLP.part.nonpolar>
-25.5526

> <Gold.PLP.part.repulsive>
2.1188

> <Gold.PLP.ligand.clash>
0.0000

> <Gold.PLP.ligand.torsion>
1.1064

> <Gold.PLP.Chemscore.Hbond>
1.3349

> <Gold.PLP.Chemscore.CHOScore>
2.0000

> <Gold.PLP.Chemscore.Metal>
0.0000

> <Gold.Chemscore.Hbonds>
donor molecule, donor type, donor heavy atom, donor atom, acceptor molecule, acceptor atom, score
      L1  H     3    16       P1  8028  1.00
      P1  H  7989  7998       L1     1  0.28
      P1  H  8011  8017       L1    10  0.01
      L1  C    13    26       P1  7948  0.96
      L1  C    14    27       P1 10175  1.00

> <Gold.PLP.Chemscore.Internal.Correction>
0.0143

> <Gold.Rescore>
     Score         DG    S(hbond)    S(metal)    S(lipo)     H(rot)  DE(clash)    DE(int)     intcor
     11.89     -14.59       1.01        0.00      77.65       1.30       0.13       2.57       ----

> <Gold.Chemscore.Fitness>
11.8897

> <Gold.Chemscore.DG>
-14.5943

> <Gold.Chemscore.ZeroCoef>
-5.4800

> <Gold.Chemscore.Hbond>
1.0053

> <Gold.Chemscore.Metal>
0.0000

> <Gold.Chemscore.Lipo>
77.6465

> <Gold.Chemscore.Internal_Hbond>
0.0000

> <Gold.Chemscore.DEClash>
0.1346

> <Gold.Chemscore.DEInternal>
2.5700

> <Gold.Chemscore.Rot>
1.3000

> <Gold.Chemscore.Internal.Correction>
   9.000000E+99

> <Gold.Chemscore.Hbonds>
donor molecule, donor type, donor heavy atom, donor atom, acceptor molecule, acceptor atom, score
      L1  H     3    16       P1  8028  0.99
      P1  H  7989  7998       L1     1  0.02

> <Gold.Chemscore.Hbond.Weighted>
-3.3577

> <Gold.Chemscore.Metal.Weighted>
-0.0000

> <Gold.Chemscore.Lipo.Weighted>
-9.0846

> <Gold.Chemscore.Internal_Hbond.Weighted>
0.0000

> <Gold.Chemscore.DEClash.Weighted>
0.1346

> <Gold.Chemscore.DEInternal.Weighted>
2.5700

> <Gold.Chemscore.Rot.Weighted>
3.3280

> <Gold.Chemscore.Internal.Correction.Weighted>
   9.000000E+99

> <Gold.Protein.RotatedTorsions>
[ 6907 6896 6895 6894 ] final -131.62 input  -60.11 | X-H torsion
[ 7974 7965 7964 7962 ] final -169.90 input  175.53 | X-H torsion
[ 8008 7997 7996 7995 ] final   -4.51 input   59.86 | X-H torsion
[ 10167 10162 10161 10158 ] final   -5.77 input  -65.29 | X-H torsion
[ 10718 10713 10712 10709 ] final -128.81 input   66.30 | X-H torsion
[ 10763 10752 10751 10750 ] final   87.45 input  -60.55 | X-H torsion
[ 11005 11000 10999 10996 ] final -175.85 input  -57.11 | X-H torsion

> <Gold.Protein.ActiveResidues>
 VAL166  LYS551  ARG553  GLY616  TRP617  ASP618  TYR619  PRO620  LYS621  CYS622 
 ASP623  PHE694  ASN695  SER759  ASP760  ASP761  ALA762  ILE779  LEU786  VAL792 
 PHE793  MET794  SER795  GLU796  ALA797  LYS798  CYS799  TRP800  GLU811  SER814 

> <Gold.Protein.RotatedAtoms>
  150.9530  133.6528  159.2768 H   0  0  0  0  0  0  0  0  0  0  0  0  # atno 6907 bound_to 6896
  151.3877  135.0949  159.9526 H   0  0  0  0  0  0  0  0  0  0  0  0  # atno 6908 bound_to 6896
  152.5118  133.9052  159.7515 H   0  0  0  0  0  0  0  0  0  0  0  0  # atno 6909 bound_to 6896
  144.7178  140.2151  143.6323 H   0  0  0  0  0  0  0  0  0  0  0  0  # atno 7974 bound_to 7965
  154.6136  140.2482  155.7638 H   0  0  0  0  0  0  0  0  0  0  0  0  # atno 8008 bound_to 7997
  156.2385  140.2941  156.0328 H   0  0  0  0  0  0  0  0  0  0  0  0  # atno 8009 bound_to 7997
  155.2012  140.0394  157.2908 H   0  0  0  0  0  0  0  0  0  0  0  0  # atno 8010 bound_to 7997
  140.6974  143.6270  150.8558 H   0  0  0  0  0  0  0  0  0  0  0  0  # atno 10167 bound_to 10162
  156.1986  130.6843  151.0512 H   0  0  0  0  0  0  0  0  0  0  0  0  # atno 10718 bound_to 10713
  153.1669  135.4543  154.9849 H   0  0  0  0  0  0  0  0  0  0  0  0  # atno 10763 bound_to 10752
  154.7938  135.3230  154.7717 H   0  0  0  0  0  0  0  0  0  0  0  0  # atno 10764 bound_to 10752
  153.8199  135.6947  153.4883 H   0  0  0  0  0  0  0  0  0  0  0  0  # atno 10765 bound_to 10752
  140.4587  134.6275  157.4833 H   0  0  0  0  0  0  0  0  0  0  0  0  # atno 11005 bound_to 11000
  145.8554  139.2196  143.1748 LP  0  0  0  0  0  0  0  0  0  0  0  0  # atno 17320 bound_to 7965
  146.0223  140.8337  142.9917 LP  0  0  0  0  0  0  0  0  0  0  0  0  # atno 17321 bound_to 7965
  139.9989  143.5765  152.2883 LP  0  0  0  0  0  0  0  0  0  0  0  0  # atno 17342 bound_to 10162
  139.6448  144.7657  151.2267 LP  0  0  0  0  0  0  0  0  0  0  0  0  # atno 17343 bound_to 10162
  157.6973  131.0789  150.6931 LP  0  0  0  0  0  0  0  0  0  0  0  0  # atno 17370 bound_to 10713
  156.6988  130.4617  149.5579 LP  0  0  0  0  0  0  0  0  0  0  0  0  # atno 17371 bound_to 10713
  139.9960  134.6911  155.9610 LP  0  0  0  0  0  0  0  0  0  0  0  0  # atno 17394 bound_to 11000
  141.1631  133.6538  156.4387 LP  0  0  0  0  0  0  0  0  0  0  0  0  # atno 17395 bound_to 11000

$$$$
