#       Name:                AV-unprocessed.smi:3282
#       Creating user name   scv26
#       Creation time:       Fri Mar 27 18:48:40 2020


#       File generated by GOLD software.
#

@<TRIPOS>MOLECULE
AV-unprocessed.smi:3282
    41    42     1
SMALL
NO_CHARGES


@<TRIPOS>ATOM
      1 ****        -1.4673   4.8555   0.6658 C.3            1 S1                 0.0000
      2 ****        -0.9592   3.4474   0.3161 C.3            1 S1                 0.0000
      3 ****         0.5743   3.3307   0.2846 C.2            1 S1                 0.0000
      4 ****         1.2696   4.3361   0.4387 O.2            1 S1                 0.0000
      5 ****         1.1154   2.1107   0.0871 N.am           1 S1                 0.0000
      6 ****         2.5535   1.8592   0.0549 C.3            1 S1                 0.0000
      7 ****         2.7153   0.3388   0.0564 C.3            1 S1                 0.0000
      8 ****         1.4009  -0.1922  -0.5098 C.3            1 S1                 0.0000
      9 ****         1.0707  -1.5062   0.0339 N.am           1 S1                 0.0000
     10 ****         0.0801  -2.3021  -0.3939 C.2            1 S1                 0.0000
     11 ****        -0.6309  -1.9452  -1.3364 O.2            1 S1                 0.0000
     12 ****        -0.0295  -3.4569   0.3004 N.pl3          1 S1                -1.0000
     13 ****        -1.0015  -4.3307  -0.0067 C.2            1 S1                 0.0000
     14 ****        -0.8596  -5.4581  -0.7057 N.2            1 S1                 0.0000
     15 ****        -2.1208  -6.0314  -0.7599 C.2            1 S1                 0.0000
     16 ****        -2.9818  -5.2174  -0.0757 C.2            1 S1                 0.0000
     17 ****        -2.2870  -4.1430   0.4066 O.3            1 S1                 0.0000
     18 ****         0.3668   0.8732  -0.1193 C.3            1 S1                 0.0000
     19 ****        -2.5571   4.8778   0.6792 H              1 S1                 0.0000
     20 ****        -1.1328   5.5938  -0.0641 H              1 S1                 0.0000
     21 ****        -1.1196   5.1708   1.6504 H              1 S1                 0.0000
     22 ****        -1.3544   2.7380   1.0439 H              1 S1                 0.0000
     23 ****        -1.3534   3.1569  -0.6582 H              1 S1                 0.0000
     24 ****         2.9666   2.2864  -0.8600 H              1 S1                 0.0000
     25 ****         3.0681   2.3131   0.9033 H              1 S1                 0.0000
     26 ****         3.5836   0.0080  -0.5143 H              1 S1                 0.0000
     27 ****         2.8472  -0.0026   1.0844 H              1 S1                 0.0000
     28 ****         1.4814  -0.2412  -1.5974 H              1 S1                 0.0000
     29 ****         1.6318  -1.8367   0.8052 H              1 S1                 0.0000
     30 ****        -2.3035  -6.9633  -1.2741 H              1 S1                 0.0000
     31 ****        -4.0378  -5.2544   0.1458 H              1 S1                 0.0000
     32 ****        -0.1353   0.6100   0.8134 H              1 S1                 0.0000
     33 ****        -0.3933   0.9758  -0.8949 H              1 S1                 0.0000
     34 ****         0.8368   5.2258   0.5839 LP             1 S1                 0.0000
     35 ****         2.2667   4.2624   0.4186 LP             1 S1                 0.0000
     36 ****        -0.4680  -1.0639  -1.7798 LP             1 S1                 0.0000
     37 ****        -1.3703  -2.5372  -1.6571 LP             1 S1                 0.0000
     38 ****         0.6116  -3.6597   1.0406 LP             1 S1                 0.0000
     39 ****        -0.0169  -5.8161  -1.1078 LP             1 S1                 0.0000
     40 ****        -2.6545  -3.2916   0.0323 LP             1 S1                 0.0000
     41 ****        -2.3334  -4.1155   1.4052 LP             1 S1                 0.0000
@<TRIPOS>BOND
    1    1    2 1     
    2    1   19 1     
    3    1   20 1     
    4    1   21 1     
    5    2    3 1     
    6    2   22 1     
    7    2   23 1     
    8    3    4 2     
    9    3    5 am    
   10    5   18 1     
   11    5    6 1     
   12    6    7 1     
   13    6   24 1     
   14    6   25 1     
   15    7    8 1     
   16    7   26 1     
   17    7   27 1     
   18    8    9 1     
   19    8   18 1     
   20    8   28 1     
   21    9   10 am    
   22    9   29 1     
   23   10   11 2     
   24   10   12 1     
   25   12   13 1     
   26   13   17 1     
   27   13   14 2     
   28   14   15 1     
   29   15   16 2     
   30   15   30 1     
   31   16   17 1     
   32   16   31 1     
   33   18   32 1     
   34   18   33 1     
   35    4   34 1     
   36    4   35 1     
   37   11   36 1     
   38   11   37 1     
   39   12   38 1     
   40   14   39 1     
   41   17   40 1     
   42   17   41 1     
@<TRIPOS>SUBSTRUCTURE
      1 S1             1
@<TRIPOS>SET
LONE_PAIRS      STATIC     ATOMS    <user>   **** ""
8 34 35 36 37 38 39 40 41
DONOR_HYDROGENS      STATIC     ATOMS    <user>   **** ""
1 29
ATOM$BLUE        STATIC     ATOMS    COLORGROUP SYSTEM
8 34 35 36 37 38 39 40 41
ATOM$RED        STATIC     ATOMS    COLORGROUP SYSTEM
1 29
