AV-unprocessed.smi:2748|AV-procd|sdf|10584|dock8
  -GOLD-   2272015 33D 1   1.00000     0.00000
 Structure written by MMmdl.
 29 31  0  0  0  0  0  0  0  0  2 V2000
  155.3666  135.4920  161.5027 O   0  0  0  0  0  0  0  0  0  0  0  0
  155.2678  136.7096  161.3579 C   0  0  0  0  0  0  0  0  0  0  0  0
  155.6871  137.3536  160.2291 N   0  5  0  0  0  0  0  0  0  0  0  0
  155.5835  138.7067  160.0489 C   0  0  0  0  0  0  0  0  0  0  0  0
  155.9770  139.2668  159.0253 O   0  0  0  0  0  0  0  0  0  0  0  0
  155.0246  139.4610  161.0410 N   0  0  0  0  0  0  0  0  0  0  0  0
  154.8753  140.9185  160.9329 C   0  0  0  0  0  0  0  0  0  0  0  0
  153.3942  141.3377  160.8772 C   0  0  1  0  0  0  0  0  0  0  0  0
  153.1095  142.6253  161.6958 C   0  0  0  0  0  0  0  0  0  0  0  0
  152.5793  143.5421  160.6498 C   0  0  0  0  0  0  0  0  0  0  0  0
  152.1448  144.8710  160.7921 C   0  0  0  0  0  0  0  0  0  0  0  0
  151.6837  145.5408  159.6373 C   0  0  0  0  0  0  0  0  0  0  0  0
  151.6676  144.8814  158.3845 C   0  0  0  0  0  0  0  0  0  0  0  0
  152.1115  143.5445  158.2707 C   0  0  0  0  0  0  0  0  0  0  0  0
  152.5666  142.8908  159.4295 C   0  0  0  0  0  0  0  0  0  0  0  0
  153.0255  141.6071  159.5102 O   0  0  0  0  0  0  0  0  0  0  0  0
  154.5839  138.8488  162.2263 C   0  0  0  0  0  0  0  0  0  0  0  0
  154.6819  137.5198  162.4238 C   0  0  0  0  0  0  0  0  0  0  0  0
  154.1342  136.7947  163.8934 Cl  0  0  0  0  0  0  0  0  0  0  0  0
  155.3683  141.4060  161.7757 H   0  0  0  0  0  0  0  0  0  0  0  0
  155.3960  141.2888  160.0484 H   0  0  0  0  0  0  0  0  0  0  0  0
  152.7597  140.5312  161.2472 H   0  0  0  0  0  0  0  0  0  0  0  0
  152.3631  142.4575  162.4727 H   0  0  0  0  0  0  0  0  0  0  0  0
  154.0069  143.0465  162.1502 H   0  0  0  0  0  0  0  0  0  0  0  0
  152.1633  145.3643  161.7527 H   0  0  0  0  0  0  0  0  0  0  0  0
  151.3417  146.5626  159.7102 H   0  0  0  0  0  0  0  0  0  0  0  0
  151.3130  145.4041  157.5084 H   0  0  0  0  0  0  0  0  0  0  0  0
  152.1010  143.0363  157.3178 H   0  0  0  0  0  0  0  0  0  0  0  0
  154.1703  139.5228  162.9621 H   0  0  0  0  0  0  0  0  0  0  0  0
  1  2  2  0  0  0  0
  2 18  1  0  0  0  0
  2  3  1  0  0  0  0
  3  4  1  0  0  0  0
  4  5  2  0  0  0  0
  4  6  1  0  0  0  0
  6  7  1  0  0  0  0
  6 17  1  0  0  0  0
  7  8  1  0  0  0  0
  7 20  1  0  0  0  0
  7 21  1  0  0  0  0
  8 16  1  0  0  0  0
  8  9  1  0  0  0  0
  8 22  1  0  0  0  0
  9 10  1  0  0  0  0
  9 23  1  0  0  0  0
  9 24  1  0  0  0  0
 10 15  2  0  0  0  0
 10 11  1  0  0  0  0
 11 12  2  0  0  0  0
 11 25  1  0  0  0  0
 12 13  1  0  0  0  0
 12 26  1  0  0  0  0
 13 14  2  0  0  0  0
 13 27  1  0  0  0  0
 14 15  1  0  0  0  0
 14 28  1  0  0  0  0
 15 16  1  0  0  0  0
 17 18  2  0  0  0  0
 17 29  1  0  0  0  0
 18 19  1  0  0  0  0
M  CHG  1   3  -1
M  END
> <s_m_source_file>
AV-unprocessed.smi

> <i_m_source_file_index>
2748

> <i_lp_mmshare_version>
43012

> <i_f3d_flags>
0

> <s_epik_input>
Tz1jMVtuSF1jKD1PKW4oW2NIXWMxQ2wpW0NIMl1bQ0BIXShbQ0gyXTIpT2MoYzIzKVtjSF1bY0hdW2NIXVtjSF0z

> <s_epik_cmdline>
J2VwaWtfcHl0aG9uJywgJy1waCcsICc3LjAnLCAnLXRuJywgJzgnLCAnLW1hJywgJzIwMCcsICctbWV0YWxfYmluZGluZycsICctaW1hZScsICc8aW5maWxlLm1hZT4nLCAnLW9tYWUnLCAnPG91dGZpbGUubWFlPic=

> <r_lp_tautomer_probability>
1

> <r_epik_Ionization_Penalty>
2.00749

> <r_epik_Ionization_Penalty_Charging>
2.26533e-08

> <r_epik_Ionization_Penalty_Neutral>
2.00749

> <r_epik_State_Penalty>
2.13675

> <r_epik_Charging_Adjusted_Penalty>
2.13675

> <i_epik_Tot_Q>
-1

> <i_epik_Tot_abs_Q>
1

> <r_epik_Metal_State_Penalty>
0.0208594

> <b_epik_Metal_Only>
0

> <s_lp_Force_Field>
OPLS_2005

> <r_lp_Energy>
29.9215

> <b_lp_Chiralities_Consistent>
1

> <s_lp_Variant>
AV-unprocessed.smi:2748-4

> <Gold.Version>
5.8.1

> <Gold.Id.Protein>
6NUR|6NUR_protein|mol2

> <Gold.PLP.Fitness>
47.1610

> <Gold.PLP.PLP>
-45.3679

> <Gold.PLP.part.hbond>
-1.0000

> <Gold.PLP.part.metal>
0.0000

> <Gold.PLP.part.buried>
-4.9410

> <Gold.PLP.part.nonpolar>
-39.2045

> <Gold.PLP.part.repulsive>
0.0109

> <Gold.PLP.ligand.clash>
0.0000

> <Gold.PLP.ligand.torsion>
0.6039

> <Gold.PLP.Chemscore.Hbond>
1.0000

> <Gold.PLP.Chemscore.CHOScore>
0.0000

> <Gold.PLP.Chemscore.Metal>
0.0000

> <Gold.Chemscore.Hbonds>
donor molecule, donor type, donor heavy atom, donor atom, acceptor molecule, acceptor atom, score
      P1  H  7997  8008       L1     5  1.00

> <Gold.PLP.Chemscore.Internal.Correction>
0.0009

> <Gold.Rescore>
     Score         DG    S(hbond)    S(metal)    S(lipo)     H(rot)  DE(clash)    DE(int)     intcor
     19.36     -19.99       1.00        0.00     123.85       1.29       0.07       0.56       ----

> <Gold.Chemscore.Fitness>
19.3573

> <Gold.Chemscore.DG>
-19.9863

> <Gold.Chemscore.ZeroCoef>
-5.4800

> <Gold.Chemscore.Hbond>
0.9966

> <Gold.Chemscore.Metal>
0.0000

> <Gold.Chemscore.Lipo>
123.8536

> <Gold.Chemscore.Internal_Hbond>
0.0000

> <Gold.Chemscore.DEClash>
0.0727

> <Gold.Chemscore.DEInternal>
0.5564

> <Gold.Chemscore.Rot>
1.2942

> <Gold.Chemscore.Internal.Correction>
   9.000000E+99

> <Gold.Chemscore.Hbonds>
donor molecule, donor type, donor heavy atom, donor atom, acceptor molecule, acceptor atom, score
      P1  H  7997  8008       L1     5  1.00

> <Gold.Chemscore.Hbond.Weighted>
-3.3286

> <Gold.Chemscore.Metal.Weighted>
-0.0000

> <Gold.Chemscore.Lipo.Weighted>
-14.4909

> <Gold.Chemscore.Internal_Hbond.Weighted>
0.0000

> <Gold.Chemscore.DEClash.Weighted>
0.0727

> <Gold.Chemscore.DEInternal.Weighted>
0.5564

> <Gold.Chemscore.Rot.Weighted>
3.3131

> <Gold.Chemscore.Internal.Correction.Weighted>
   9.000000E+99

> <Gold.Protein.RotatedTorsions>
[ 6907 6896 6895 6894 ] final    6.47 input  -60.11 | X-H torsion
[ 7974 7965 7964 7962 ] final   93.67 input  175.53 | X-H torsion
[ 8008 7997 7996 7995 ] final -147.57 input   59.86 | X-H torsion
[ 10167 10162 10161 10158 ] final  179.74 input  -65.29 | X-H torsion
[ 10718 10713 10712 10709 ] final -173.56 input   66.30 | X-H torsion
[ 10763 10752 10751 10750 ] final  109.50 input  -60.55 | X-H torsion
[ 11005 11000 10999 10996 ] final -119.74 input  -57.11 | X-H torsion

> <Gold.Protein.ActiveResidues>
 VAL166  LYS551  ARG553  GLY616  TRP617  ASP618  TYR619  PRO620  LYS621  CYS622 
 ASP623  PHE694  ASN695  SER759  ASP760  ASP761  ALA762  ILE779  LEU786  VAL792 
 PHE793  MET794  SER795  GLU796  ALA797  LYS798  CYS799  TRP800  GLU811  SER814 

> <Gold.Protein.RotatedAtoms>
  151.6742  135.0971  160.0203 H   0  0  0  0  0  0  0  0  0  0  0  0  # atno 6907 bound_to 6896
  152.3873  133.6625  159.6218 H   0  0  0  0  0  0  0  0  0  0  0  0  # atno 6908 bound_to 6896
  150.7796  133.8930  159.3360 H   0  0  0  0  0  0  0  0  0  0  0  0  # atno 6909 bound_to 6896
  145.4759  139.2280  143.2909 H   0  0  0  0  0  0  0  0  0  0  0  0  # atno 7974 bound_to 7965
  155.5777  140.0640  157.2791 H   0  0  0  0  0  0  0  0  0  0  0  0  # atno 8008 bound_to 7997
  154.4342  140.1857  156.0990 H   0  0  0  0  0  0  0  0  0  0  0  0  # atno 8009 bound_to 7997
  156.0329  140.3304  155.7163 H   0  0  0  0  0  0  0  0  0  0  0  0  # atno 8010 bound_to 7997
  139.5349  144.2525  152.0773 H   0  0  0  0  0  0  0  0  0  0  0  0  # atno 10167 bound_to 10162
  156.7722  130.9453  151.3120 H   0  0  0  0  0  0  0  0  0  0  0  0  # atno 10718 bound_to 10713
  153.4356  135.3778  155.2197 H   0  0  0  0  0  0  0  0  0  0  0  0  # atno 10763 bound_to 10752
  154.8752  135.3850  154.4215 H   0  0  0  0  0  0  0  0  0  0  0  0  # atno 10764 bound_to 10752
  153.4753  135.7087  153.6032 H   0  0  0  0  0  0  0  0  0  0  0  0  # atno 10765 bound_to 10752
  141.0194  134.0147  157.3304 H   0  0  0  0  0  0  0  0  0  0  0  0  # atno 11005 bound_to 11000
  146.2370  140.5541  142.8951 LP  0  0  0  0  0  0  0  0  0  0  0  0  # atno 17320 bound_to 7965
  144.7918  140.6046  143.6537 LP  0  0  0  0  0  0  0  0  0  0  0  0  # atno 17321 bound_to 7965
  140.1994  144.4673  150.6439 LP  0  0  0  0  0  0  0  0  0  0  0  0  # atno 17342 bound_to 10162
  140.6550  143.2235  151.5989 LP  0  0  0  0  0  0  0  0  0  0  0  0  # atno 17343 bound_to 10162
  157.6686  130.9030  149.9987 LP  0  0  0  0  0  0  0  0  0  0  0  0  # atno 17370 bound_to 10713
  156.1271  130.3644  149.9792 LP  0  0  0  0  0  0  0  0  0  0  0  0  # atno 17371 bound_to 10713
  139.9137  135.0194  156.7794 LP  0  0  0  0  0  0  0  0  0  0  0  0  # atno 17394 bound_to 11000
  140.6599  133.9655  155.7799 LP  0  0  0  0  0  0  0  0  0  0  0  0  # atno 17395 bound_to 11000

$$$$
