AV-unprocessed.smi:812|AV-procd|sdf|3815|dock10
  -GOLD-   22720 1253D 1   1.00000     0.00000
 Structure written by MMmdl.
 38 40  0  0  0  0  0  0  0  0  1 V2000
  154.8853  139.8844  160.4342 C   0  0  0  0  0  0  0  0  0  0  0  0
  153.7721  140.7983  160.1164 N   0  0  0  0  0  0  0  0  0  0  0  0
  153.0503  140.5675  158.9746 C   0  0  0  0  0  0  0  0  0  0  0  0
  153.2560  139.6471  158.1820 O   0  0  0  0  0  0  0  0  0  0  0  0
  151.9724  141.5342  158.7505 C   0  0  0  0  0  0  0  0  0  0  0  0
  151.7118  142.5597  159.5963 C   0  0  0  0  0  0  0  0  0  0  0  0
  150.6408  143.3254  159.1493 N   0  0  0  0  0  0  0  0  0  0  0  0
  150.3043  142.6995  158.0204 C   0  0  0  0  0  0  0  0  0  0  0  0
  151.0514  141.6205  157.7088 N   0  0  0  0  0  0  0  0  0  0  0  0
  150.8959  140.7678  156.5405 C   0  0  0  0  0  0  0  0  0  0  0  0
  149.5056  140.1058  156.4662 C   0  0  2  0  0  0  0  0  0  0  0  0
  149.6108  138.8288  155.8658 O   0  0  0  0  0  0  0  0  0  0  0  0
  148.5085  141.0013  155.7476 C   0  0  0  0  0  0  0  0  0  0  0  0
  147.4376  141.5775  156.4639 C   0  0  0  0  0  0  0  0  0  0  0  0
  146.5150  142.4166  155.8088 C   0  0  0  0  0  0  0  0  0  0  0  0
  146.6600  142.6864  154.4342 C   0  0  0  0  0  0  0  0  0  0  0  0
  145.7736  143.4934  153.8049 F   0  0  0  0  0  0  0  0  0  0  0  0
  147.7287  142.1179  153.7151 C   0  0  0  0  0  0  0  0  0  0  0  0
  148.6513  141.2786  154.3698 C   0  0  0  0  0  0  0  0  0  0  0  0
  152.5183  142.7082  160.7518 N   0  0  0  0  0  0  0  0  0  0  0  0
  152.2073  143.8289  161.6440 C   0  0  0  0  0  0  0  0  0  0  0  0
  153.5461  141.8331  161.0092 C   0  0  0  0  0  0  0  0  0  0  0  0
  154.2512  141.9676  162.0130 O   0  0  0  0  0  0  0  0  0  0  0  0
  155.0223  139.0643  159.7287 H   0  0  0  0  0  0  0  0  0  0  0  0
  154.7353  139.4259  161.4131 H   0  0  0  0  0  0  0  0  0  0  0  0
  155.8287  140.4321  160.4621 H   0  0  0  0  0  0  0  0  0  0  0  0
  149.4902  143.0389  157.3967 H   0  0  0  0  0  0  0  0  0  0  0  0
  151.0843  141.3661  155.6487 H   0  0  0  0  0  0  0  0  0  0  0  0
  151.6754  140.0047  156.5638 H   0  0  0  0  0  0  0  0  0  0  0  0
  149.1384  139.9370  157.4790 H   0  0  0  0  0  0  0  0  0  0  0  0
  149.4741  138.1727  156.5323 H   0  0  0  0  0  0  0  0  0  0  0  0
  147.3206  141.3797  157.5196 H   0  0  0  0  0  0  0  0  0  0  0  0
  145.6968  142.8543  156.3615 H   0  0  0  0  0  0  0  0  0  0  0  0
  147.8422  142.3263  152.6615 H   0  0  0  0  0  0  0  0  0  0  0  0
  149.4705  140.8512  153.8101 H   0  0  0  0  0  0  0  0  0  0  0  0
  152.8567  143.9051  162.5164 H   0  0  0  0  0  0  0  0  0  0  0  0
  151.1836  143.7393  162.0093 H   0  0  0  0  0  0  0  0  0  0  0  0
  152.2858  144.7701  161.0990 H   0  0  0  0  0  0  0  0  0  0  0  0
  1  2  1  0  0  0  0
  1 24  1  0  0  0  0
  1 25  1  0  0  0  0
  1 26  1  0  0  0  0
  2 22  1  0  0  0  0
  2  3  1  0  0  0  0
  3  4  2  0  0  0  0
  3  5  1  0  0  0  0
  5  9  1  0  0  0  0
  5  6  2  0  0  0  0
  6  7  1  0  0  0  0
  6 20  1  0  0  0  0
  7  8  2  0  0  0  0
  8  9  1  0  0  0  0
  8 27  1  0  0  0  0
  9 10  1  0  0  0  0
 10 11  1  0  0  0  0
 10 28  1  0  0  0  0
 10 29  1  0  0  0  0
 11 12  1  0  0  0  0
 11 13  1  0  0  0  0
 11 30  1  0  0  0  0
 12 31  1  0  0  0  0
 13 19  1  0  0  0  0
 13 14  2  0  0  0  0
 14 15  1  0  0  0  0
 14 32  1  0  0  0  0
 15 16  2  0  0  0  0
 15 33  1  0  0  0  0
 16 17  1  0  0  0  0
 16 18  1  0  0  0  0
 18 19  2  0  0  0  0
 18 34  1  0  0  0  0
 19 35  1  0  0  0  0
 20 21  1  0  0  0  0
 20 22  1  0  0  0  0
 21 36  1  0  0  0  0
 21 37  1  0  0  0  0
 21 38  1  0  0  0  0
 22 23  2  0  0  0  0
M  END
> <s_m_source_file>
AV-unprocessed.smi

> <i_m_source_file_index>
812

> <i_lp_mmshare_version>
43012

> <i_f3d_flags>
0

> <s_epik_input>
Tz1jMW4oW0NIM10pYyg9TyluKFtDSDNdKWMoYzEyKW5bY0hdbjJbQ0gyXVtDQEhdKFtPSF0pYzNbY0hdW2NIXWMoRilbY0hdW2NIXTM=

> <s_epik_cmdline>
J2VwaWtfcHl0aG9uJywgJy1waCcsICc3LjAnLCAnLXRuJywgJzgnLCAnLW1hJywgJzIwMCcsICctbWV0YWxfYmluZGluZycsICctaW1hZScsICc8aW5maWxlLm1hZT4nLCAnLW9tYWUnLCAnPG91dGZpbGUubWFlPic=

> <r_lp_tautomer_probability>
1

> <r_epik_Ionization_Penalty>
1.45649e-06

> <r_epik_Ionization_Penalty_Charging>
3.74189e-09

> <r_epik_Ionization_Penalty_Neutral>
1.45275e-06

> <r_epik_State_Penalty>
-0

> <r_epik_Charging_Adjusted_Penalty>
3.74189e-09

> <i_epik_Tot_Q>
0

> <i_epik_Tot_abs_Q>
0

> <r_epik_Metal_State_Penalty>
-0

> <b_epik_Metal_Only>
0

> <s_lp_Force_Field>
OPLS_2005

> <r_lp_Energy>
34.9814

> <b_lp_Chiralities_Consistent>
1

> <s_lp_Variant>
AV-unprocessed.smi:812-1

> <Gold.Version>
5.8.1

> <Gold.Id.Protein>
6NUR|6NUR_protein|mol2

> <Gold.PLP.Fitness>
51.6764

> <Gold.PLP.PLP>
-46.5414

> <Gold.PLP.part.hbond>
-2.0000

> <Gold.PLP.part.metal>
0.0000

> <Gold.PLP.part.buried>
-3.9279

> <Gold.PLP.part.nonpolar>
-39.8295

> <Gold.PLP.part.repulsive>
0.0849

> <Gold.PLP.ligand.clash>
0.0000

> <Gold.PLP.ligand.torsion>
0.4449

> <Gold.PLP.Chemscore.Hbond>
1.0000

> <Gold.PLP.Chemscore.CHOScore>
1.0000

> <Gold.PLP.Chemscore.Metal>
0.0000

> <Gold.Chemscore.Hbonds>
donor molecule, donor type, donor heavy atom, donor atom, acceptor molecule, acceptor atom, score
      P1  H  7997  8009       L1     4  1.00
      L1  C     8    27       P1  8028  1.00

> <Gold.PLP.Chemscore.Internal.Correction>
0.0249

> <Gold.Rescore>
     Score         DG    S(hbond)    S(metal)    S(lipo)     H(rot)  DE(clash)    DE(int)     intcor
      9.12     -10.90       0.87        0.00      70.49       2.24       1.26       0.52       ----

> <Gold.Chemscore.Fitness>
9.1230

> <Gold.Chemscore.DG>
-10.9001

> <Gold.Chemscore.ZeroCoef>
-5.4800

> <Gold.Chemscore.Hbond>
0.8687

> <Gold.Chemscore.Metal>
0.0000

> <Gold.Chemscore.Lipo>
70.4909

> <Gold.Chemscore.Internal_Hbond>
0.0000

> <Gold.Chemscore.DEClash>
1.2596

> <Gold.Chemscore.DEInternal>
0.5175

> <Gold.Chemscore.Rot>
2.2377

> <Gold.Chemscore.Internal.Correction>
   9.000000E+99

> <Gold.Chemscore.Hbonds>
donor molecule, donor type, donor heavy atom, donor atom, acceptor molecule, acceptor atom, score
      P1  H  7997  8009       L1     4  0.82

> <Gold.Chemscore.Hbond.Weighted>
-2.9013

> <Gold.Chemscore.Metal.Weighted>
-0.0000

> <Gold.Chemscore.Lipo.Weighted>
-8.2474

> <Gold.Chemscore.Internal_Hbond.Weighted>
0.0000

> <Gold.Chemscore.DEClash.Weighted>
1.2596

> <Gold.Chemscore.DEInternal.Weighted>
0.5175

> <Gold.Chemscore.Rot.Weighted>
5.7286

> <Gold.Chemscore.Internal.Correction.Weighted>
   9.000000E+99

> <Gold.Protein.RotatedTorsions>
[ 6907 6896 6895 6894 ] final -112.60 input  -60.11 | X-H torsion
[ 7974 7965 7964 7962 ] final   45.00 input  175.53 | X-H torsion
[ 8008 7997 7996 7995 ] final  157.75 input   59.86 | X-H torsion
[ 10167 10162 10161 10158 ] final  -59.62 input  -65.29 | X-H torsion
[ 10718 10713 10712 10709 ] final  -85.23 input   66.30 | X-H torsion
[ 10763 10752 10751 10750 ] final   36.30 input  -60.55 | X-H torsion
[ 11005 11000 10999 10996 ] final  -40.55 input  -57.11 | X-H torsion

> <Gold.Protein.ActiveResidues>
 VAL166  LYS551  ARG553  GLY616  TRP617  ASP618  TYR619  PRO620  LYS621  CYS622 
 ASP623  PHE694  ASN695  SER759  ASP760  ASP761  ALA762  ILE779  LEU786  VAL792 
 PHE793  MET794  SER795  GLU796  ALA797  LYS798  CYS799  TRP800  GLU811  SER814 

> <Gold.Protein.RotatedAtoms>
  150.7769  133.9067  159.3356 H   0  0  0  0  0  0  0  0  0  0  0  0  # atno 6907 bound_to 6896
  151.6939  135.0940  160.0248 H   0  0  0  0  0  0  0  0  0  0  0  0  # atno 6908 bound_to 6896
  152.3808  133.6506  159.6195 H   0  0  0  0  0  0  0  0  0  0  0  0  # atno 6909 bound_to 6896
  146.0519  139.5012  142.9713 H   0  0  0  0  0  0  0  0  0  0  0  0  # atno 7974 bound_to 7965
  156.2345  140.1877  156.7157 H   0  0  0  0  0  0  0  0  0  0  0  0  # atno 8008 bound_to 7997
  154.6081  140.0626  156.9485 H   0  0  0  0  0  0  0  0  0  0  0  0  # atno 8009 bound_to 7997
  155.2062  140.3296  155.4338 H   0  0  0  0  0  0  0  0  0  0  0  0  # atno 8010 bound_to 7997
  140.6123  143.2391  151.5680 H   0  0  0  0  0  0  0  0  0  0  0  0  # atno 10167 bound_to 10162
  155.9998  130.4724  150.4530 H   0  0  0  0  0  0  0  0  0  0  0  0  # atno 10718 bound_to 10713
  153.0082  135.6309  154.1964 H   0  0  0  0  0  0  0  0  0  0  0  0  # atno 10763 bound_to 10752
  154.1707  135.2818  155.3083 H   0  0  0  0  0  0  0  0  0  0  0  0  # atno 10764 bound_to 10752
  154.5911  135.5617  153.7339 H   0  0  0  0  0  0  0  0  0  0  0  0  # atno 10765 bound_to 10752
  141.0182  133.6875  156.2336 H   0  0  0  0  0  0  0  0  0  0  0  0  # atno 11005 bound_to 11000
  145.6710  141.0216  143.1657 LP  0  0  0  0  0  0  0  0  0  0  0  0  # atno 17320 bound_to 7965
  144.7127  139.8311  143.7409 LP  0  0  0  0  0  0  0  0  0  0  0  0  # atno 17321 bound_to 7965
  139.5371  144.2751  152.1274 LP  0  0  0  0  0  0  0  0  0  0  0  0  # atno 17342 bound_to 10162
  140.1953  144.4712  150.6458 LP  0  0  0  0  0  0  0  0  0  0  0  0  # atno 17343 bound_to 10162
  157.2561  131.0557  151.2349 LP  0  0  0  0  0  0  0  0  0  0  0  0  # atno 17370 bound_to 10713
  157.3480  130.7067  149.6423 LP  0  0  0  0  0  0  0  0  0  0  0  0  # atno 17371 bound_to 10713
  140.6618  134.4960  157.5583 LP  0  0  0  0  0  0  0  0  0  0  0  0  # atno 17394 bound_to 11000
  139.9130  134.8305  156.1462 LP  0  0  0  0  0  0  0  0  0  0  0  0  # atno 17395 bound_to 11000

$$$$
