#       Name:                AV-unprocessed.smi:1877
#       Creating user name   scv26
#       Creation time:       Fri Mar 27 09:35:08 2020


#       File generated by GOLD software.
#

@<TRIPOS>MOLECULE
AV-unprocessed.smi:1877
    35    37     1
SMALL
NO_CHARGES


@<TRIPOS>ATOM
      1 ****        -1.3370   3.0542  -1.5400 O.3            1 S1                 0.0000
      2 ****        -0.9026   1.7165  -1.4007 C.3            1 S1                 0.0000
      3 ****         0.6387   1.7129  -1.3598 C.3            1 S1                 0.0000
      4 ****         1.1883   0.3703  -1.4256 N.pl3          1 S1                 0.0000
      5 ****         1.4434  -0.3450  -2.5379 C.2            1 S1                 0.0000
      6 ****         1.9390  -1.5684  -2.3763 N.2            1 S1                 0.0000
      7 ****         2.0134  -1.6595  -0.9971 C.ar           1 S1                 0.0000
      8 ****         2.4535  -2.7182  -0.1706 C.ar           1 S1                 0.0000
      9 ****         2.4332  -2.5845   1.2333 C.ar           1 S1                 0.0000
     10 ****         1.9763  -1.3922   1.8316 C.ar           1 S1                 0.0000
     11 ****         1.5365  -0.3226   1.0289 C.ar           1 S1                 0.0000
     12 ****         1.5548  -0.4608  -0.3717 C.ar           1 S1                 0.0000
     13 ****        -1.5133   1.0348  -0.1814 C.ar           1 S1                 0.0000
     14 ****        -1.5687   1.7110   1.0581 C.ar           1 S1                 0.0000
     15 ****        -2.1007   1.0728   2.1947 C.ar           1 S1                 0.0000
     16 ****        -2.1451   1.7267   3.3794 F              1 S1                 0.0000
     17 ****        -2.5818  -0.2465   2.1007 C.ar           1 S1                 0.0000
     18 ****        -2.5296  -0.9270   0.8697 C.ar           1 S1                 0.0000
     19 ****        -1.9970  -0.2909  -0.2686 C.ar           1 S1                 0.0000
     20 ****        -1.9412  -0.9669  -1.4413 F              1 S1                 0.0000
     21 ****        -2.2713   3.0522  -1.6823 H              1 S1                 0.0000
     22 ****        -1.2322   1.1995  -2.3025 H              1 S1                 0.0000
     23 ****         1.0372   2.2762  -2.2050 H              1 S1                 0.0000
     24 ****         1.0071   2.2041  -0.4582 H              1 S1                 0.0000
     25 ****         1.2502   0.0547  -3.5229 H              1 S1                 0.0000
     26 ****         2.8053  -3.6361  -0.6178 H              1 S1                 0.0000
     27 ****         2.7701  -3.4013   1.8546 H              1 S1                 0.0000
     28 ****         1.9634  -1.2987   2.9076 H              1 S1                 0.0000
     29 ****         1.1840   0.5905   1.4848 H              1 S1                 0.0000
     30 ****        -1.1921   2.7198   1.1441 H              1 S1                 0.0000
     31 ****        -2.9877  -0.7376   2.9727 H              1 S1                 0.0000
     32 ****        -2.8942  -1.9411   0.7991 H              1 S1                 0.0000
     33 ****        -0.8777   3.4787  -2.3203 LP             1 S1                 0.0000
     34 ****        -1.1234   3.5668  -0.7083 LP             1 S1                 0.0000
     35 ****         2.1914  -2.2443  -3.0686 LP             1 S1                 0.0000
@<TRIPOS>BOND
    1    1    2 1     
    2    1   21 1     
    3    2    3 1     
    4    2   13 1     
    5    2   22 1     
    6    3    4 1     
    7    3   23 1     
    8    3   24 1     
    9    4   12 1     
   10    4    5 1     
   11    5    6 2     
   12    5   25 1     
   13    6    7 1     
   14    7   12 ar    
   15    7    8 ar    
   16    8    9 ar    
   17    8   26 1     
   18    9   10 ar    
   19    9   27 1     
   20   10   11 ar    
   21   10   28 1     
   22   11   12 ar    
   23   11   29 1     
   24   13   19 ar    
   25   13   14 ar    
   26   14   15 ar    
   27   14   30 1     
   28   15   16 1     
   29   15   17 ar    
   30   17   18 ar    
   31   17   31 1     
   32   18   19 ar    
   33   18   32 1     
   34   19   20 1     
   35    1   33 1     
   36    1   34 1     
   37    6   35 1     
@<TRIPOS>SUBSTRUCTURE
      1 S1             1
@<TRIPOS>SET
LONE_PAIRS      STATIC     ATOMS    <user>   **** ""
3 33 34 35
DONOR_HYDROGENS      STATIC     ATOMS    <user>   **** ""
1 21
ATOM$BLUE        STATIC     ATOMS    COLORGROUP SYSTEM
3 33 34 35
ATOM$RED        STATIC     ATOMS    COLORGROUP SYSTEM
1 21
