#       Name:                AV-unprocessed.smi:443
#       Creating user name   scv26
#       Creation time:       Thu Mar 26 22:57:44 2020


#       File generated by GOLD software.
#

@<TRIPOS>MOLECULE
AV-unprocessed.smi:443
    56    57     1
SMALL
NO_CHARGES


@<TRIPOS>ATOM
      1 ****        -1.5584   1.5617   2.2905 C.3            1 S1                 0.0000
      2 ****        -2.3703   0.9973   1.1564 C.2            1 S1                 0.0000
      3 ****        -1.7481   0.8020   0.0403 N.2            1 S1                 0.0000
      4 ****        -2.3986   0.2892  -1.0643 N.am           1 S1                 0.0000
      5 ****        -1.5295   0.0780  -2.2269 C.3            1 S1                 0.0000
      6 ****        -0.9823  -1.3693  -2.2659 C.3            1 S1                 0.0000
      7 ****        -1.5207  -2.0385  -3.3885 O.3            1 S1                 0.0000
      8 ****         0.5479  -1.4254  -2.3833 C.3            1 S1                 0.0000
      9 ****         1.1154  -0.8722  -1.2032 O.3            1 S1                 0.0000
     10 ****         2.4895  -0.8096  -1.0913 C.ar           1 S1                 0.0000
     11 ****         3.3684  -1.3663  -2.0567 C.ar           1 S1                 0.0000
     12 ****         4.7632  -1.2871  -1.8920 C.ar           1 S1                 0.0000
     13 ****         5.3022  -0.6519  -0.7612 C.ar           1 S1                 0.0000
     14 ****         4.4435  -0.0930   0.2011 C.ar           1 S1                 0.0000
     15 ****         3.0401  -0.1622   0.0459 C.ar           1 S1                 0.0000
     16 ****         2.1429   0.4743   1.1090 C.3            1 S1                 0.0000
     17 ****         2.3818   1.9898   1.2124 C.3            1 S1                 0.0000
     18 ****         2.3006  -0.2170   2.4723 C.3            1 S1                 0.0000
     19 ****        -3.7184  -0.0501  -1.1024 C.2            1 S1                 0.0000
     20 ****        -4.2566  -0.5108  -2.1101 O.2            1 S1                 0.0000
     21 ****        -4.4176   0.1744   0.1648 C.2            1 S1                 0.0000
     22 ****        -5.8036  -0.1672   0.1702 C.1            1 S1                 0.0000
     23 ****        -6.9295  -0.4352   0.1946 N.1            1 S1                 0.0000
     24 ****        -3.7886   0.6674   1.2608 C.2            1 S1                 0.0000
     25 ****        -4.4716   0.9107   2.5997 C.3            1 S1                 0.0000
     26 ****        -2.0850   2.3798   2.7818 H              1 S1                 0.0000
     27 ****        -0.6028   1.9551   1.9445 H              1 S1                 0.0000
     28 ****        -1.3519   0.7936   3.0359 H              1 S1                 0.0000
     29 ****        -2.0505   0.3336  -3.1520 H              1 S1                 0.0000
     30 ****        -0.7034   0.7905  -2.1825 H              1 S1                 0.0000
     31 ****        -1.2842  -1.9226  -1.3751 H              1 S1                 0.0000
     32 ****        -1.2219  -2.9349  -3.3761 H              1 S1                 0.0000
     33 ****         0.8637  -2.4646  -2.4901 H              1 S1                 0.0000
     34 ****         0.8812  -0.8741  -3.2645 H              1 S1                 0.0000
     35 ****         2.9981  -1.8661  -2.9386 H              1 S1                 0.0000
     36 ****         5.4199  -1.7165  -2.6341 H              1 S1                 0.0000
     37 ****         6.3728  -0.5913  -0.6321 H              1 S1                 0.0000
     38 ****         4.8720   0.3947   1.0641 H              1 S1                 0.0000
     39 ****         1.1001   0.3484   0.8217 H              1 S1                 0.0000
     40 ****         2.1996   2.4790   0.2550 H              1 S1                 0.0000
     41 ****         3.4032   2.2205   1.5153 H              1 S1                 0.0000
     42 ****         1.7162   2.4449   1.9457 H              1 S1                 0.0000
     43 ****         2.0782  -1.2818   2.3983 H              1 S1                 0.0000
     44 ****         1.6187   0.2104   3.2079 H              1 S1                 0.0000
     45 ****         3.3130  -0.1144   2.8636 H              1 S1                 0.0000
     46 ****        -5.4620   0.4587   2.6421 H              1 S1                 0.0000
     47 ****        -4.5857   1.9806   2.7769 H              1 S1                 0.0000
     48 ****        -3.8899   0.4856   3.4182 H              1 S1                 0.0000
     49 ****        -0.7759   1.0269  -0.0243 LP             1 S1                 0.0000
     50 ****        -1.2112  -1.5915  -4.2278 LP             1 S1                 0.0000
     51 ****        -2.5196  -2.0155  -3.3475 LP             1 S1                 0.0000
     52 ****         0.7826  -1.4174  -0.4338 LP             1 S1                 0.0000
     53 ****         0.7712   0.0633  -1.1224 LP             1 S1                 0.0000
     54 ****        -3.7218  -0.6491  -2.9436 LP             1 S1                 0.0000
     55 ****        -5.2283  -0.7464  -2.0945 LP             1 S1                 0.0000
     56 ****        -7.9021  -0.6667   0.2157 LP             1 S1                 0.0000
@<TRIPOS>BOND
    1    1    2 1     
    2    1   26 1     
    3    1   27 1     
    4    1   28 1     
    5    2   24 1     
    6    2    3 2     
    7    3    4 1     
    8    4    5 1     
    9    4   19 am    
   10    5    6 1     
   11    5   29 1     
   12    5   30 1     
   13    6    7 1     
   14    6    8 1     
   15    6   31 1     
   16    7   32 1     
   17    8    9 1     
   18    8   33 1     
   19    8   34 1     
   20    9   10 1     
   21   10   15 ar    
   22   10   11 ar    
   23   11   12 ar    
   24   11   35 1     
   25   12   13 ar    
   26   12   36 1     
   27   13   14 ar    
   28   13   37 1     
   29   14   15 ar    
   30   14   38 1     
   31   15   16 1     
   32   16   17 1     
   33   16   18 1     
   34   16   39 1     
   35   17   40 1     
   36   17   41 1     
   37   17   42 1     
   38   18   43 1     
   39   18   44 1     
   40   18   45 1     
   41   19   20 2     
   42   19   21 1     
   43   21   22 1     
   44   21   24 2     
   45   22   23 3     
   46   24   25 1     
   47   25   46 1     
   48   25   47 1     
   49   25   48 1     
   50    3   49 1     
   51    7   50 1     
   52    7   51 1     
   53    9   52 1     
   54    9   53 1     
   55   20   54 1     
   56   20   55 1     
   57   23   56 1     
@<TRIPOS>SUBSTRUCTURE
      1 S1             1
@<TRIPOS>SET
LONE_PAIRS      STATIC     ATOMS    <user>   **** ""
8 49 50 51 52 53 54 55 56
DONOR_HYDROGENS      STATIC     ATOMS    <user>   **** ""
1 32
ATOM$BLUE        STATIC     ATOMS    COLORGROUP SYSTEM
8 49 50 51 52 53 54 55 56
ATOM$RED        STATIC     ATOMS    COLORGROUP SYSTEM
1 32
