AV-unprocessed.smi:2202|AV-procd|sdf|8933|dock7
  -GOLD-   2272012153D 1   1.00000     0.00000
 Structure written by MMmdl.
 43 45  0  0  0  0  0  0  0  0  2 V2000
  151.7334  136.0379  156.4947 O   0  0  0  0  0  0  0  0  0  0  0  0
  151.1513  136.5777  155.5521 C   0  0  0  0  0  0  0  0  0  0  0  0
  151.6722  137.8879  154.9446 C   0  0  0  0  0  0  0  0  0  0  0  0
  151.6725  139.0084  155.8937 N   0  0  0  0  0  0  0  0  0  0  0  0
  150.9755  140.1494  155.7231 C   0  0  0  0  0  0  0  0  0  0  0  0
  150.3335  140.4876  154.7295 O   0  0  0  0  0  0  0  0  0  0  0  0
  151.0227  140.9551  157.0126 C   0  0  2  0  0  0  0  0  0  0  0  0
  151.0820  142.4873  157.0325 C   0  0  0  0  0  0  0  0  0  0  0  0
  151.3787  142.9317  158.4686 C   0  0  0  0  0  0  0  0  0  0  0  0
  151.8448  142.1002  159.4329 C   0  0  0  0  0  0  0  0  0  0  0  0
  152.1722  140.6221  159.1961 C   0  0  0  0  0  0  0  0  0  0  0  0
  152.2603  140.3924  157.6826 C   0  0  1  0  0  0  0  0  0  0  0  0
  152.3399  139.0051  157.0645 C   0  0  0  0  0  0  0  0  0  0  0  0
  152.9714  138.0708  157.5573 O   0  0  0  0  0  0  0  0  0  0  0  0
  150.0366  136.0772  154.9984 N   0  0  0  0  0  0  0  0  0  0  0  0
  149.3805  134.8443  155.4165 C   0  0  0  0  0  0  0  0  0  0  0  0
  149.9623  133.6196  154.6896 C   0  0  0  0  0  0  0  0  0  0  0  0
  148.8817  132.7437  154.0871 C   0  0  0  0  0  0  0  0  0  0  0  0
  148.5992  131.4505  154.5779 C   0  0  0  0  0  0  0  0  0  0  0  0
  147.5835  130.6880  153.9638 C   0  0  0  0  0  0  0  0  0  0  0  0
  146.8733  131.2338  152.8742 C   0  0  0  0  0  0  0  0  0  0  0  0
  147.1972  132.5304  152.4250 C   0  0  0  0  0  0  0  0  0  0  0  0
  148.1775  133.2290  153.0386 N   0  3  0  0  0  0  0  0  0  0  0  0
  152.6842  137.7299  154.5673 H   0  0  0  0  0  0  0  0  0  0  0  0
  151.0640  138.1308  154.0718 H   0  0  0  0  0  0  0  0  0  0  0  0
  150.1358  140.6512  157.5740 H   0  0  0  0  0  0  0  0  0  0  0  0
  151.8519  142.8712  156.3621 H   0  0  0  0  0  0  0  0  0  0  0  0
  150.1270  142.9058  156.7137 H   0  0  0  0  0  0  0  0  0  0  0  0
  151.1936  143.9700  158.7017 H   0  0  0  0  0  0  0  0  0  0  0  0
  152.0071  142.4781  160.4317 H   0  0  0  0  0  0  0  0  0  0  0  0
  153.1242  140.3812  159.6700 H   0  0  0  0  0  0  0  0  0  0  0  0
  151.4059  139.9971  159.6561 H   0  0  0  0  0  0  0  0  0  0  0  0
  153.1436  140.9225  157.3184 H   0  0  0  0  0  0  0  0  0  0  0  0
  149.6167  136.5848  154.2326 H   0  0  0  0  0  0  0  0  0  0  0  0
  149.4685  134.7279  156.4982 H   0  0  0  0  0  0  0  0  0  0  0  0
  148.3156  134.9340  155.1999 H   0  0  0  0  0  0  0  0  0  0  0  0
  150.6439  133.9424  153.9014 H   0  0  0  0  0  0  0  0  0  0  0  0
  150.5546  133.0144  155.3775 H   0  0  0  0  0  0  0  0  0  0  0  0
  149.1526  131.0455  155.4128 H   0  0  0  0  0  0  0  0  0  0  0  0
  147.3527  129.6959  154.3237 H   0  0  0  0  0  0  0  0  0  0  0  0
  146.0923  130.6659  152.3900 H   0  0  0  0  0  0  0  0  0  0  0  0
  146.7071  133.0253  151.5992 H   0  0  0  0  0  0  0  0  0  0  0  0
  148.3967  134.1651  152.6963 H   0  0  0  0  0  0  0  0  0  0  0  0
  1  2  2  0  0  0  0
  2  3  1  0  0  0  0
  2 15  1  0  0  0  0
  3  4  1  0  0  0  0
  3 24  1  0  0  0  0
  3 25  1  0  0  0  0
  4 13  1  0  0  0  0
  4  5  1  0  0  0  0
  5  6  2  0  0  0  0
  5  7  1  0  0  0  0
  7 12  1  0  0  0  0
  7  8  1  0  0  0  0
  7 26  1  0  0  0  0
  8  9  1  0  0  0  0
  8 27  1  0  0  0  0
  8 28  1  0  0  0  0
  9 10  2  0  0  0  0
  9 29  1  0  0  0  0
 10 11  1  0  0  0  0
 10 30  1  0  0  0  0
 11 12  1  0  0  0  0
 11 31  1  0  0  0  0
 11 32  1  0  0  0  0
 12 13  1  0  0  0  0
 12 33  1  0  0  0  0
 13 14  2  0  0  0  0
 15 16  1  0  0  0  0
 15 34  1  0  0  0  0
 16 17  1  0  0  0  0
 16 35  1  0  0  0  0
 16 36  1  0  0  0  0
 17 18  1  0  0  0  0
 17 37  1  0  0  0  0
 17 38  1  0  0  0  0
 18 23  1  0  0  0  0
 18 19  2  0  0  0  0
 19 20  1  0  0  0  0
 19 39  1  0  0  0  0
 20 21  2  0  0  0  0
 20 40  1  0  0  0  0
 21 22  1  0  0  0  0
 21 41  1  0  0  0  0
 22 23  2  0  0  0  0
 22 42  1  0  0  0  0
 23 43  1  0  0  0  0
M  CHG  1  23   1
M  END
> <s_m_source_file>
AV-unprocessed.smi

> <i_m_source_file_index>
2202

> <i_lp_mmshare_version>
43012

> <i_f3d_flags>
0

> <s_epik_input>
W0NIMl0xW0NIXT1bQ0hdW0NIMl1bQ0BIXShbQ0BIXTEyKUMoPU8pTihDMj1PKVtDSDJdQyg9TylbTkhdW0NIMl1bQ0gyXWMzW2NIXVtjSF1bY0hdW2NIXW4z

> <s_epik_cmdline>
J2VwaWtfcHl0aG9uJywgJy1waCcsICc3LjAnLCAnLXRuJywgJzgnLCAnLW1hJywgJzIwMCcsICctbWV0YWxfYmluZGluZycsICctaW1hZScsICc8aW5maWxlLm1hZT4nLCAnLW9tYWUnLCAnPG91dGZpbGUubWFlPic=

> <r_lp_tautomer_probability>
1

> <r_epik_Ionization_Penalty>
1.90039

> <r_epik_Ionization_Penalty_Charging>
1.90039

> <r_epik_Ionization_Penalty_Neutral>
1.50224e-07

> <r_epik_State_Penalty>
2.02162

> <r_epik_Charging_Adjusted_Penalty>
3.922

> <i_epik_Tot_Q>
1

> <i_epik_Tot_abs_Q>
1

> <r_epik_Metal_State_Penalty>
2.04542

> <b_epik_Metal_Only>
0

> <s_lp_Force_Field>
OPLS_2005

> <r_lp_Energy>
26.3593

> <b_lp_Chiralities_Consistent>
1

> <s_lp_Variant>
AV-unprocessed.smi:2202-5

> <Gold.Version>
5.8.1

> <Gold.Id.Protein>
6NUR|6NUR_protein|mol2

> <Gold.PLP.Fitness>
53.7370

> <Gold.PLP.PLP>
-43.3113

> <Gold.PLP.part.hbond>
-4.0000

> <Gold.PLP.part.metal>
0.0000

> <Gold.PLP.part.buried>
-4.6573

> <Gold.PLP.part.nonpolar>
-34.5907

> <Gold.PLP.part.repulsive>
0.1912

> <Gold.PLP.ligand.clash>
0.0000

> <Gold.PLP.ligand.torsion>
0.6123

> <Gold.PLP.Chemscore.Hbond>
3.8736

> <Gold.PLP.Chemscore.CHOScore>
0.0000

> <Gold.PLP.Chemscore.Metal>
0.0000

> <Gold.Chemscore.Hbonds>
donor molecule, donor type, donor heavy atom, donor atom, acceptor molecule, acceptor atom, score
      L1  H    23    43       P1  7948  0.66
      P1  H  7989  7998       L1     6  0.99
      P1  H 10752 10763       L1     1  0.04

> <Gold.PLP.Chemscore.Internal.Correction>
0.0296

> <Gold.Rescore>
     Score         DG    S(hbond)    S(metal)    S(lipo)     H(rot)  DE(clash)    DE(int)     intcor
     14.00     -16.51       1.52        0.00      93.85       1.96       0.43       2.08       ----

> <Gold.Chemscore.Fitness>
14.0013

> <Gold.Chemscore.DG>
-16.5106

> <Gold.Chemscore.ZeroCoef>
-5.4800

> <Gold.Chemscore.Hbond>
1.5194

> <Gold.Chemscore.Metal>
0.0000

> <Gold.Chemscore.Lipo>
93.8451

> <Gold.Chemscore.Internal_Hbond>
0.0000

> <Gold.Chemscore.DEClash>
0.4260

> <Gold.Chemscore.DEInternal>
2.0833

> <Gold.Chemscore.Rot>
1.9625

> <Gold.Chemscore.Internal.Correction>
   9.000000E+99

> <Gold.Chemscore.Hbonds>
donor molecule, donor type, donor heavy atom, donor atom, acceptor molecule, acceptor atom, score
      L1  H    15    34       P1  7948  0.02
      L1  H    23    43       P1  7948  0.03
      P1  H  7989  7998       L1     6  0.42

> <Gold.Chemscore.Hbond.Weighted>
-5.0747

> <Gold.Chemscore.Metal.Weighted>
-0.0000

> <Gold.Chemscore.Lipo.Weighted>
-10.9799

> <Gold.Chemscore.Internal_Hbond.Weighted>
0.0000

> <Gold.Chemscore.DEClash.Weighted>
0.4260

> <Gold.Chemscore.DEInternal.Weighted>
2.0833

> <Gold.Chemscore.Rot.Weighted>
5.0240

> <Gold.Chemscore.Internal.Correction.Weighted>
   9.000000E+99

> <Gold.Protein.RotatedTorsions>
[ 6907 6896 6895 6894 ] final  113.70 input  -60.11 | X-H torsion
[ 7974 7965 7964 7962 ] final -152.37 input  175.53 | X-H torsion
[ 8008 7997 7996 7995 ] final -118.34 input   59.86 | X-H torsion
[ 10167 10162 10161 10158 ] final  174.33 input  -65.29 | X-H torsion
[ 10718 10713 10712 10709 ] final   73.76 input   66.30 | X-H torsion
[ 10763 10752 10751 10750 ] final   79.15 input  -60.55 | X-H torsion
[ 11005 11000 10999 10996 ] final   90.53 input  -57.11 | X-H torsion

> <Gold.Protein.ActiveResidues>
 VAL166  LYS551  ARG553  GLY616  TRP617  ASP618  TYR619  PRO620  LYS621  CYS622 
 ASP623  PHE694  ASN695  SER759  ASP760  ASP761  ALA762  ILE779  LEU786  VAL792 
 PHE793  MET794  SER795  GLU796  ALA797  LYS798  CYS799  TRP800  GLU811  SER814 

> <Gold.Protein.RotatedAtoms>
  152.4846  133.8339  159.7117 H   0  0  0  0  0  0  0  0  0  0  0  0  # atno 6907 bound_to 6896
  150.8922  133.7219  159.2908 H   0  0  0  0  0  0  0  0  0  0  0  0  # atno 6908 bound_to 6896
  151.4688  135.1048  159.9798 H   0  0  0  0  0  0  0  0  0  0  0  0  # atno 6909 bound_to 6896
  144.7798  140.4671  143.5847 H   0  0  0  0  0  0  0  0  0  0  0  0  # atno 7974 bound_to 7965
  155.0981  140.0395  157.2689 H   0  0  0  0  0  0  0  0  0  0  0  0  # atno 8008 bound_to 7997
  154.6779  140.2626  155.6913 H   0  0  0  0  0  0  0  0  0  0  0  0  # atno 8009 bound_to 7997
  156.2683  140.2784  156.1312 H   0  0  0  0  0  0  0  0  0  0  0  0  # atno 8010 bound_to 7997
  139.5138  144.3159  152.0248 H   0  0  0  0  0  0  0  0  0  0  0  0  # atno 10167 bound_to 10162
  157.6562  130.9644  150.1115 H   0  0  0  0  0  0  0  0  0  0  0  0  # atno 10718 bound_to 10713
  153.0930  135.4850  154.8726 H   0  0  0  0  0  0  0  0  0  0  0  0  # atno 10763 bound_to 10752
  154.7292  135.3056  154.8922 H   0  0  0  0  0  0  0  0  0  0  0  0  # atno 10764 bound_to 10752
  153.9563  135.6817  153.4798 H   0  0  0  0  0  0  0  0  0  0  0  0  # atno 10765 bound_to 10752
  139.8854  134.8619  156.3298 H   0  0  0  0  0  0  0  0  0  0  0  0  # atno 11005 bound_to 11000
  145.6083  139.1510  143.3090 LP  0  0  0  0  0  0  0  0  0  0  0  0  # atno 17320 bound_to 7965
  146.1999  140.6200  142.9107 LP  0  0  0  0  0  0  0  0  0  0  0  0  # atno 17321 bound_to 7965
  140.2602  144.4075  150.6188 LP  0  0  0  0  0  0  0  0  0  0  0  0  # atno 17342 bound_to 10162
  140.6162  143.2172  151.6786 LP  0  0  0  0  0  0  0  0  0  0  0  0  # atno 17343 bound_to 10162
  156.2010  130.3660  149.8788 LP  0  0  0  0  0  0  0  0  0  0  0  0  # atno 17370 bound_to 10713
  156.6691  130.8813  151.3559 LP  0  0  0  0  0  0  0  0  0  0  0  0  # atno 17371 bound_to 10713
  140.9731  133.7315  156.0562 LP  0  0  0  0  0  0  0  0  0  0  0  0  # atno 17394 bound_to 11000
  140.7846  134.3687  157.5479 LP  0  0  0  0  0  0  0  0  0  0  0  0  # atno 17395 bound_to 11000

$$$$
