AV-unprocessed.smi:103|AV-procd|sdf|979|dock2
  -GOLD-   2262017543D 1   1.00000     0.00000
 Structure written by MMmdl.
 53 55  0  0  0  0  0  0  0  0  1 V2000
  149.4976  130.8253  162.7408 C   0  0  0  0  0  0  0  0  0  0  0  0
  148.8328  130.6543  161.3813 C   0  0  0  0  0  0  0  0  0  0  0  0
  148.9983  129.6385  160.7059 O   0  0  0  0  0  0  0  0  0  0  0  0
  148.0822  131.7123  161.0440 O   0  0  0  0  0  0  0  0  0  0  0  0
  147.4215  131.7344  159.7895 C   0  0  0  0  0  0  0  0  0  0  0  0
  146.5725  133.0072  159.6919 C   0  0  2  0  0  0  0  0  0  0  0  0
  145.8581  132.9804  158.4558 O   0  0  0  0  0  0  0  0  0  0  0  0
  146.1091  134.1509  157.7479 C   0  0  2  0  0  0  0  0  0  0  0  0
  146.0950  133.8439  156.2856 N   0  0  0  0  0  0  0  0  0  0  0  0
  145.0877  134.0074  155.3558 C   0  0  0  0  0  0  0  0  0  0  0  0
  143.4319  134.6069  155.6725 S   0  0  0  0  0  0  0  0  0  0  0  0
  142.6858  134.5513  153.9933 C   0  0  0  0  0  0  0  0  0  0  0  0
  142.7641  133.6183  156.5326 O   0  0  0  0  0  0  0  0  0  0  0  0
  143.5571  136.0079  156.1038 O   0  0  0  0  0  0  0  0  0  0  0  0
  145.3390  133.5954  154.1427 N   0  0  0  0  0  0  0  0  0  0  0  0
  146.6562  133.1661  154.2229 C   0  0  0  0  0  0  0  0  0  0  0  0
  147.5755  132.6255  153.2890 C   0  0  0  0  0  0  0  0  0  0  0  0
  147.2721  132.4182  152.0000 N   0  0  0  0  0  0  0  0  0  0  0  0
  148.8185  132.3034  153.7174 N   0  0  0  0  0  0  0  0  0  0  0  0
  149.1455  132.4997  154.9990 C   0  0  0  0  0  0  0  0  0  0  0  0
  148.3941  132.9925  155.9872 N   0  0  0  0  0  0  0  0  0  0  0  0
  147.1409  133.3190  155.5535 C   0  0  0  0  0  0  0  0  0  0  0  0
  147.4828  134.6340  158.2006 C   0  0  1  0  0  0  0  0  0  0  0  0
  147.6702  136.0254  157.9679 O   0  0  0  0  0  0  0  0  0  0  0  0
  148.7504  136.6579  158.4575 C   0  0  0  0  0  0  0  0  0  0  0  0
  148.7255  138.1526  158.1690 C   0  0  0  0  0  0  0  0  0  0  0  0
  149.6853  136.1357  159.0647 O   0  0  0  0  0  0  0  0  0  0  0  0
  147.4249  134.2909  159.6782 C   0  0  1  0  0  0  0  0  0  0  0  0
  146.7628  135.3173  160.4129 O   0  0  0  0  0  0  0  0  0  0  0  0
  146.6951  135.2539  161.7542 C   0  0  0  0  0  0  0  0  0  0  0  0
  146.4291  136.6135  162.3863 C   0  0  0  0  0  0  0  0  0  0  0  0
  146.8189  134.2385  162.4390 O   0  0  0  0  0  0  0  0  0  0  0  0
  150.1654  131.6869  162.7296 H   0  0  0  0  0  0  0  0  0  0  0  0
  150.0794  129.9398  162.9975 H   0  0  0  0  0  0  0  0  0  0  0  0
  148.7446  130.9801  163.5136 H   0  0  0  0  0  0  0  0  0  0  0  0
  148.1450  131.6939  158.9739 H   0  0  0  0  0  0  0  0  0  0  0  0
  146.7831  130.8538  159.7070 H   0  0  0  0  0  0  0  0  0  0  0  0
  145.8484  133.0181  160.5080 H   0  0  0  0  0  0  0  0  0  0  0  0
  145.3052  134.8594  157.9364 H   0  0  0  0  0  0  0  0  0  0  0  0
  141.6548  134.9002  154.0432 H   0  0  0  0  0  0  0  0  0  0  0  0
  142.7066  133.5291  153.6167 H   0  0  0  0  0  0  0  0  0  0  0  0
  143.2550  135.1954  153.3232 H   0  0  0  0  0  0  0  0  0  0  0  0
  146.3513  132.6508  151.6565 H   0  0  0  0  0  0  0  0  0  0  0  0
  147.9652  132.0342  151.3741 H   0  0  0  0  0  0  0  0  0  0  0  0
  150.1527  132.2210  155.2723 H   0  0  0  0  0  0  0  0  0  0  0  0
  148.2544  134.0256  157.7267 H   0  0  0  0  0  0  0  0  0  0  0  0
  148.7915  138.3302  157.0954 H   0  0  0  0  0  0  0  0  0  0  0  0
  149.5653  138.6506  158.6540 H   0  0  0  0  0  0  0  0  0  0  0  0
  147.8005  138.5956  158.5383 H   0  0  0  0  0  0  0  0  0  0  0  0
  148.4302  134.1317  160.0718 H   0  0  0  0  0  0  0  0  0  0  0  0
  145.4321  136.9654  162.1212 H   0  0  0  0  0  0  0  0  0  0  0  0
  147.1596  137.3435  162.0373 H   0  0  0  0  0  0  0  0  0  0  0  0
  146.4964  136.5504  163.4727 H   0  0  0  0  0  0  0  0  0  0  0  0
  1  2  1  0  0  0  0
  1 33  1  0  0  0  0
  1 34  1  0  0  0  0
  1 35  1  0  0  0  0
  2  3  2  0  0  0  0
  2  4  1  0  0  0  0
  4  5  1  0  0  0  0
  5  6  1  0  0  0  0
  5 36  1  0  0  0  0
  5 37  1  0  0  0  0
  6 28  1  0  0  0  0
  6  7  1  0  0  0  0
  6 38  1  0  0  0  0
  7  8  1  0  0  0  0
  8  9  1  0  0  0  0
  8 23  1  0  0  0  0
  8 39  1  0  0  0  0
  9 22  1  0  0  0  0
  9 10  1  0  0  0  0
 10 11  1  0  0  0  0
 10 15  2  0  0  0  0
 11 12  1  0  0  0  0
 11 13  2  0  0  0  0
 11 14  2  0  0  0  0
 12 40  1  0  0  0  0
 12 41  1  0  0  0  0
 12 42  1  0  0  0  0
 15 16  1  0  0  0  0
 16 22  2  0  0  0  0
 16 17  1  0  0  0  0
 17 18  1  0  0  0  0
 17 19  2  0  0  0  0
 18 43  1  0  0  0  0
 18 44  1  0  0  0  0
 19 20  1  0  0  0  0
 20 21  2  0  0  0  0
 20 45  1  0  0  0  0
 21 22  1  0  0  0  0
 23 24  1  0  0  0  0
 23 28  1  0  0  0  0
 23 46  1  0  0  0  0
 24 25  1  0  0  0  0
 25 26  1  0  0  0  0
 25 27  2  0  0  0  0
 26 47  1  0  0  0  0
 26 48  1  0  0  0  0
 26 49  1  0  0  0  0
 28 29  1  0  0  0  0
 28 50  1  0  0  0  0
 29 30  1  0  0  0  0
 30 31  1  0  0  0  0
 30 32  2  0  0  0  0
 31 51  1  0  0  0  0
 31 52  1  0  0  0  0
 31 53  1  0  0  0  0
M  END
> <s_m_source_file>
AV-unprocessed.smi

> <i_m_source_file_index>
103

> <i_lp_mmshare_version>
43012

> <i_f3d_flags>
0

> <s_epik_input>
W0NIM11DKD1PKU9bQ0gyXVtDQEBIXTFPW0NASF0oW0NAQEhdKE9DKD1PKVtDSDNdKVtDQEhdMU9DKD1PKVtDSDNdKW4oYyhuMilTKD1PKSg9TylbQ0gzXSljKGMyMyluW2NIXW5jM1tOSDJd

> <s_epik_cmdline>
J2VwaWtfcHl0aG9uJywgJy1waCcsICc3LjAnLCAnLXRuJywgJzgnLCAnLW1hJywgJzIwMCcsICctbWV0YWxfYmluZGluZycsICctaW1hZScsICc8aW5maWxlLm1hZT4nLCAnLW9tYWUnLCAnPG91dGZpbGUubWFlPic=

> <r_lp_tautomer_probability>
1

> <r_epik_Ionization_Penalty>
1.51338e-05

> <r_epik_Ionization_Penalty_Charging>
0

> <r_epik_Ionization_Penalty_Neutral>
1.51338e-05

> <r_epik_State_Penalty>
-0

> <r_epik_Charging_Adjusted_Penalty>
0

> <i_epik_Tot_Q>
0

> <i_epik_Tot_abs_Q>
0

> <r_epik_Metal_State_Penalty>
-0

> <b_epik_Metal_Only>
0

> <s_epik_Chemistry_Notes>
This compound has an ester and may undergo hydrolysis at high or low pH. This compound contains an acetal/aminal-like group ( X-CH(R)-Y where X, Y are N, S, or O) that may be acid/base labile, releasing an aldehyde.

> <s_lp_Force_Field>
OPLS_2005

> <r_lp_Energy>
16.6357

> <b_lp_Chiralities_Consistent>
1

> <s_lp_Variant>
AV-unprocessed.smi:103-3

> <Gold.Version>
5.8.1

> <Gold.Id.Protein>
6NUR|6NUR_protein|mol2

> <Gold.PLP.Fitness>
36.6129

> <Gold.PLP.PLP>
-30.4677

> <Gold.PLP.part.hbond>
-3.0000

> <Gold.PLP.part.metal>
0.0000

> <Gold.PLP.part.buried>
-6.7632

> <Gold.PLP.part.nonpolar>
-21.3057

> <Gold.PLP.part.repulsive>
0.6010

> <Gold.PLP.ligand.clash>
0.0000

> <Gold.PLP.ligand.torsion>
2.2954

> <Gold.PLP.Chemscore.Hbond>
2.8320

> <Gold.PLP.Chemscore.CHOScore>
0.0000

> <Gold.PLP.Chemscore.Metal>
0.0000

> <Gold.Chemscore.Hbonds>
donor molecule, donor type, donor heavy atom, donor atom, acceptor molecule, acceptor atom, score
      L1  H    18    44       P1 10747  1.00
      P1  H  6896  6908       L1    27  0.94
      P1  H 11000 11005       L1    13  1.00

> <Gold.PLP.Chemscore.Internal.Correction>
2.2400

> <Gold.Rescore>
     Score         DG    S(hbond)    S(metal)    S(lipo)     H(rot)  DE(clash)    DE(int)     intcor
      3.82      -7.02       2.45        0.00      36.13       4.25       0.17       3.03       ----

> <Gold.Chemscore.Fitness>
3.8194

> <Gold.Chemscore.DG>
-7.0208

> <Gold.Chemscore.ZeroCoef>
-5.4800

> <Gold.Chemscore.Hbond>
2.4498

> <Gold.Chemscore.Metal>
0.0000

> <Gold.Chemscore.Lipo>
36.1308

> <Gold.Chemscore.Internal_Hbond>
0.0000

> <Gold.Chemscore.DEClash>
0.1680

> <Gold.Chemscore.DEInternal>
3.0334

> <Gold.Chemscore.Rot>
4.2456

> <Gold.Chemscore.Internal.Correction>
   9.000000E+99

> <Gold.Chemscore.Hbonds>
donor molecule, donor type, donor heavy atom, donor atom, acceptor molecule, acceptor atom, score
      L1  H    18    44       P1 10747  1.00
      P1  H  6896  6908       L1    27  0.90
      P1  H 11000 11005       L1    13  0.91

> <Gold.Chemscore.Hbond.Weighted>
-8.1822

> <Gold.Chemscore.Metal.Weighted>
-0.0000

> <Gold.Chemscore.Lipo.Weighted>
-4.2273

> <Gold.Chemscore.Internal_Hbond.Weighted>
0.0000

> <Gold.Chemscore.DEClash.Weighted>
0.1680

> <Gold.Chemscore.DEInternal.Weighted>
3.0334

> <Gold.Chemscore.Rot.Weighted>
10.8687

> <Gold.Chemscore.Internal.Correction.Weighted>
   9.000000E+99

> <Gold.Protein.RotatedTorsions>
[ 6907 6896 6895 6894 ] final -148.06 input  -60.11 | X-H torsion
[ 7974 7965 7964 7962 ] final   93.93 input  175.53 | X-H torsion
[ 8008 7997 7996 7995 ] final -151.71 input   59.86 | X-H torsion
[ 10167 10162 10161 10158 ] final -141.39 input  -65.29 | X-H torsion
[ 10718 10713 10712 10709 ] final  134.23 input   66.30 | X-H torsion
[ 10763 10752 10751 10750 ] final -166.18 input  -60.55 | X-H torsion
[ 11005 11000 10999 10996 ] final  -75.76 input  -57.11 | X-H torsion

> <Gold.Protein.ActiveResidues>
 VAL166  LYS551  ARG553  GLY616  TRP617  ASP618  TYR619  PRO620  LYS621  CYS622 
 ASP623  PHE694  ASN695  SER759  ASP760  ASP761  ALA762  ILE779  LEU786  VAL792 
 PHE793  MET794  SER795  GLU796  ALA797  LYS798  CYS799  TRP800  GLU811  SER814 

> <Gold.Protein.RotatedAtoms>
  151.1645  133.4823  159.2593 H   0  0  0  0  0  0  0  0  0  0  0  0  # atno 6907 bound_to 6896
  151.1420  135.0184  159.8640 H   0  0  0  0  0  0  0  0  0  0  0  0  # atno 6908 bound_to 6896
  152.5462  134.1538  159.8582 H   0  0  0  0  0  0  0  0  0  0  0  0  # atno 6909 bound_to 6896
  145.4723  139.2281  143.2928 H   0  0  0  0  0  0  0  0  0  0  0  0  # atno 7974 bound_to 7965
  155.6436  140.0704  157.2610 H   0  0  0  0  0  0  0  0  0  0  0  0  # atno 8008 bound_to 7997
  154.4178  140.1746  156.1649 H   0  0  0  0  0  0  0  0  0  0  0  0  # atno 8009 bound_to 7997
  155.9835  140.3351  155.6688 H   0  0  0  0  0  0  0  0  0  0  0  0  # atno 8010 bound_to 7997
  139.8189  143.7600  152.2665 H   0  0  0  0  0  0  0  0  0  0  0  0  # atno 10167 bound_to 10162
  157.4693  131.1079  150.9822 H   0  0  0  0  0  0  0  0  0  0  0  0  # atno 10718 bound_to 10713
  154.6859  135.2962  154.9549 H   0  0  0  0  0  0  0  0  0  0  0  0  # atno 10763 bound_to 10752
  154.0528  135.6642  153.4806 H   0  0  0  0  0  0  0  0  0  0  0  0  # atno 10764 bound_to 10752
  153.0578  135.5134  154.7925 H   0  0  0  0  0  0  0  0  0  0  0  0  # atno 10765 bound_to 10752
  141.1648  133.6958  156.7565 H   0  0  0  0  0  0  0  0  0  0  0  0  # atno 11005 bound_to 11000
  146.2389  140.5502  142.8942 LP  0  0  0  0  0  0  0  0  0  0  0  0  # atno 17320 bound_to 7965
  144.7938  140.6083  143.6524 LP  0  0  0  0  0  0  0  0  0  0  0  0  # atno 17321 bound_to 7965
  139.7772  144.7457  151.0139 LP  0  0  0  0  0  0  0  0  0  0  0  0  # atno 17342 bound_to 10162
  140.7814  143.4580  151.0317 LP  0  0  0  0  0  0  0  0  0  0  0  0  # atno 17343 bound_to 10162
  157.0593  130.5819  149.5383 LP  0  0  0  0  0  0  0  0  0  0  0  0  # atno 17370 bound_to 10713
  156.0065  130.5153  150.7849 LP  0  0  0  0  0  0  0  0  0  0  0  0  # atno 17371 bound_to 10713
  140.2565  134.8500  157.3718 LP  0  0  0  0  0  0  0  0  0  0  0  0  # atno 17394 bound_to 11000
  140.1652  134.4678  155.7868 LP  0  0  0  0  0  0  0  0  0  0  0  0  # atno 17395 bound_to 11000

$$$$
