AV-unprocessed.smi:1431|AV-procd|sdf|5829|dock1
  -GOLD-   22720 5483D 1   1.00000     0.00000
 Structure written by MMmdl.
 33 34  0  0  0  0  0  0  0  0  1 V2000
  154.0383  140.1467  159.0934 O   0  0  0  0  0  0  0  0  0  0  0  0
  153.8374  140.2863  160.3003 C   0  0  0  0  0  0  0  0  0  0  0  0
  154.1628  139.3603  161.2137 N   0  0  0  0  0  0  0  0  0  0  0  0
  154.8244  138.0930  160.9198 C   0  0  0  0  0  0  0  0  0  0  0  0
  154.4047  136.9799  161.9001 C   0  0  2  0  0  0  0  0  0  0  0  0
  154.2998  137.4791  163.3538 C   0  0  0  0  0  0  0  0  0  0  0  0
  154.1399  136.2656  164.2756 C   0  0  0  0  0  0  0  0  0  0  0  0
  155.1139  134.9230  163.4982 S   0  0  0  0  0  0  0  0  0  0  0  0
  156.4168  134.8077  164.1703 O   0  0  0  0  0  0  0  0  0  0  0  0
  154.2490  133.7476  163.3161 O   0  0  0  0  0  0  0  0  0  0  0  0
  155.3494  135.7661  161.8884 C   0  0  0  0  0  0  0  0  0  0  0  0
  153.2818  141.3660  160.8777 N   0  0  0  0  0  0  0  0  0  0  0  0
  152.8421  142.5648  160.2555 C   0  0  0  0  0  0  0  0  0  0  0  0
  152.4731  143.6002  161.1440 C   0  0  0  0  0  0  0  0  0  0  0  0
  152.0260  144.8310  160.6259 C   0  0  0  0  0  0  0  0  0  0  0  0
  151.9581  144.9947  159.2309 C   0  0  0  0  0  0  0  0  0  0  0  0
  152.3436  143.9136  158.4170 C   0  0  0  0  0  0  0  0  0  0  0  0
  152.7730  142.7335  158.9114 N   0  0  0  0  0  0  0  0  0  0  0  0
  153.9584  139.5531  162.1833 H   0  0  0  0  0  0  0  0  0  0  0  0
  154.5683  137.8086  159.8988 H   0  0  0  0  0  0  0  0  0  0  0  0
  155.9071  138.2280  160.9393 H   0  0  0  0  0  0  0  0  0  0  0  0
  153.4130  136.6226  161.6187 H   0  0  0  0  0  0  0  0  0  0  0  0
  155.2171  138.0057  163.6203 H   0  0  0  0  0  0  0  0  0  0  0  0
  153.4786  138.1850  163.4808 H   0  0  0  0  0  0  0  0  0  0  0  0
  154.4899  136.4493  165.2916 H   0  0  0  0  0  0  0  0  0  0  0  0
  153.0983  135.9463  164.3160 H   0  0  0  0  0  0  0  0  0  0  0  0
  155.1448  135.0754  161.0701 H   0  0  0  0  0  0  0  0  0  0  0  0
  156.3919  136.0793  161.8271 H   0  0  0  0  0  0  0  0  0  0  0  0
  153.1786  141.3355  161.8810 H   0  0  0  0  0  0  0  0  0  0  0  0
  152.5320  143.4575  162.2133 H   0  0  0  0  0  0  0  0  0  0  0  0
  151.7407  145.6354  161.2878 H   0  0  0  0  0  0  0  0  0  0  0  0
  151.6203  145.9236  158.7959 H   0  0  0  0  0  0  0  0  0  0  0  0
  152.3063  143.9977  157.3410 H   0  0  0  0  0  0  0  0  0  0  0  0
  1  2  2  0  0  0  0
  2  3  1  0  0  0  0
  2 12  1  0  0  0  0
  3  4  1  0  0  0  0
  3 19  1  0  0  0  0
  4  5  1  0  0  0  0
  4 20  1  0  0  0  0
  4 21  1  0  0  0  0
  5 11  1  0  0  0  0
  5  6  1  0  0  0  0
  5 22  1  0  0  0  0
  6  7  1  0  0  0  0
  6 23  1  0  0  0  0
  6 24  1  0  0  0  0
  7  8  1  0  0  0  0
  7 25  1  0  0  0  0
  7 26  1  0  0  0  0
  8  9  2  0  0  0  0
  8 10  2  0  0  0  0
  8 11  1  0  0  0  0
 11 27  1  0  0  0  0
 11 28  1  0  0  0  0
 12 13  1  0  0  0  0
 12 29  1  0  0  0  0
 13 18  1  0  0  0  0
 13 14  2  0  0  0  0
 14 15  1  0  0  0  0
 14 30  1  0  0  0  0
 15 16  2  0  0  0  0
 15 31  1  0  0  0  0
 16 17  1  0  0  0  0
 16 32  1  0  0  0  0
 17 18  2  0  0  0  0
 17 33  1  0  0  0  0
M  END
> <s_m_source_file>
AV-unprocessed.smi

> <i_m_source_file_index>
1431

> <i_lp_mmshare_version>
43012

> <i_f3d_flags>
0

> <s_epik_input>
bjFbY0hdW2NIXVtjSF1bY0hdYzFbTkhdQyg9TylbTkhdW0NIMl1bQ0BASF0oW0NIMl0yKVtDSDJdW0NIMl1TMig9Tyk9Tw==

> <s_epik_cmdline>
J2VwaWtfcHl0aG9uJywgJy1waCcsICc3LjAnLCAnLXRuJywgJzgnLCAnLW1hJywgJzIwMCcsICctbWV0YWxfYmluZGluZycsICctaW1hZScsICc8aW5maWxlLm1hZT4nLCAnLW9tYWUnLCAnPG91dGZpbGUubWFlPic=

> <r_lp_tautomer_probability>
1

> <r_epik_Ionization_Penalty>
4.47006e-05

> <r_epik_Ionization_Penalty_Charging>
0

> <r_epik_Ionization_Penalty_Neutral>
4.47006e-05

> <r_epik_State_Penalty>
-0

> <r_epik_Charging_Adjusted_Penalty>
0

> <i_epik_Tot_Q>
0

> <i_epik_Tot_abs_Q>
0

> <r_epik_Metal_State_Penalty>
-0

> <b_epik_Metal_Only>
0

> <s_lp_Force_Field>
OPLS_2005

> <r_lp_Energy>
3.66515

> <b_lp_Chiralities_Consistent>
1

> <s_lp_Variant>
AV-unprocessed.smi:1431-1

> <Gold.Version>
5.8.1

> <Gold.Id.Protein>
6NUR|6NUR_protein|mol2

> <Gold.PLP.Fitness>
41.7501

> <Gold.PLP.PLP>
-39.6231

> <Gold.PLP.part.hbond>
-1.0000

> <Gold.PLP.part.metal>
0.0000

> <Gold.PLP.part.buried>
-5.1348

> <Gold.PLP.part.nonpolar>
-33.3056

> <Gold.PLP.part.repulsive>
0.1363

> <Gold.PLP.ligand.clash>
0.0000

> <Gold.PLP.ligand.torsion>
0.3541

> <Gold.PLP.Chemscore.Hbond>
0.9440

> <Gold.PLP.Chemscore.CHOScore>
0.0000

> <Gold.PLP.Chemscore.Metal>
0.0000

> <Gold.Chemscore.Hbonds>
donor molecule, donor type, donor heavy atom, donor atom, acceptor molecule, acceptor atom, score
      P1  H  7997  8010       L1     1  0.96

> <Gold.PLP.Chemscore.Internal.Correction>
0.0030

> <Gold.Rescore>
     Score         DG    S(hbond)    S(metal)    S(lipo)     H(rot)  DE(clash)    DE(int)     intcor
     13.65     -15.35       0.96        0.00      86.00       1.33       0.05       1.66       ----

> <Gold.Chemscore.Fitness>
13.6451

> <Gold.Chemscore.DG>
-15.3473

> <Gold.Chemscore.ZeroCoef>
-5.4800

> <Gold.Chemscore.Hbond>
0.9597

> <Gold.Chemscore.Metal>
0.0000

> <Gold.Chemscore.Lipo>
85.9959

> <Gold.Chemscore.Internal_Hbond>
0.0000

> <Gold.Chemscore.DEClash>
0.0462

> <Gold.Chemscore.DEInternal>
1.6560

> <Gold.Chemscore.Rot>
1.3280

> <Gold.Chemscore.Internal.Correction>
   9.000000E+99

> <Gold.Chemscore.Hbonds>
donor molecule, donor type, donor heavy atom, donor atom, acceptor molecule, acceptor atom, score
      P1  H  7997  8010       L1     1  0.86

> <Gold.Chemscore.Hbond.Weighted>
-3.2054

> <Gold.Chemscore.Metal.Weighted>
-0.0000

> <Gold.Chemscore.Lipo.Weighted>
-10.0615

> <Gold.Chemscore.Internal_Hbond.Weighted>
0.0000

> <Gold.Chemscore.DEClash.Weighted>
0.0462

> <Gold.Chemscore.DEInternal.Weighted>
1.6560

> <Gold.Chemscore.Rot.Weighted>
3.3996

> <Gold.Chemscore.Internal.Correction.Weighted>
   9.000000E+99

> <Gold.Protein.RotatedTorsions>
[ 6907 6896 6895 6894 ] final -142.29 input  -60.11 | X-H torsion
[ 7974 7965 7964 7962 ] final  173.43 input  175.53 | X-H torsion
[ 8008 7997 7996 7995 ] final    9.60 input   59.86 | X-H torsion
[ 10167 10162 10161 10158 ] final    5.31 input  -65.29 | X-H torsion
[ 10718 10713 10712 10709 ] final -143.33 input   66.30 | X-H torsion
[ 10763 10752 10751 10750 ] final  164.61 input  -60.55 | X-H torsion
[ 11005 11000 10999 10996 ] final -173.32 input  -57.11 | X-H torsion

> <Gold.Protein.ActiveResidues>
 VAL166  LYS551  ARG553  GLY616  TRP617  ASP618  TYR619  PRO620  LYS621  CYS622 
 ASP623  PHE694  ASN695  SER759  ASP760  ASP761  ALA762  ILE779  LEU786  VAL792 
 PHE793  MET794  SER795  GLU796  ALA797  LYS798  CYS799  TRP800  GLU811  SER814 

> <Gold.Protein.RotatedAtoms>
  151.0851  133.5359  159.2618 H   0  0  0  0  0  0  0  0  0  0  0  0  # atno 6907 bound_to 6896
  151.2248  135.0531  159.8974 H   0  0  0  0  0  0  0  0  0  0  0  0  # atno 6908 bound_to 6896
  152.5428  134.0649  159.8222 H   0  0  0  0  0  0  0  0  0  0  0  0  # atno 6909 bound_to 6896
  144.7244  139.9646  143.6435 H   0  0  0  0  0  0  0  0  0  0  0  0  # atno 7974 bound_to 7965
  154.7822  140.2821  155.6055 H   0  0  0  0  0  0  0  0  0  0  0  0  # atno 8008 bound_to 7997
  156.2951  140.2621  156.2578 H   0  0  0  0  0  0  0  0  0  0  0  0  # atno 8009 bound_to 7997
  154.9771  140.0375  157.2250 H   0  0  0  0  0  0  0  0  0  0  0  0  # atno 8010 bound_to 7997
  140.6489  143.7595  150.7542 H   0  0  0  0  0  0  0  0  0  0  0  0  # atno 10167 bound_to 10162
  156.3566  130.7716  151.1877 H   0  0  0  0  0  0  0  0  0  0  0  0  # atno 10718 bound_to 10713
  154.3115  135.2757  155.2564 H   0  0  0  0  0  0  0  0  0  0  0  0  # atno 10763 bound_to 10752
  154.4957  135.5822  153.6496 H   0  0  0  0  0  0  0  0  0  0  0  0  # atno 10764 bound_to 10752
  152.9887  135.6145  154.3292 H   0  0  0  0  0  0  0  0  0  0  0  0  # atno 10765 bound_to 10752
  140.4871  134.6020  157.4941 H   0  0  0  0  0  0  0  0  0  0  0  0  # atno 11005 bound_to 11000
  146.0610  139.3604  143.0581 LP  0  0  0  0  0  0  0  0  0  0  0  0  # atno 17320 bound_to 7965
  145.8092  140.9734  143.0957 LP  0  0  0  0  0  0  0  0  0  0  0  0  # atno 17321 bound_to 7965
  140.1241  143.4585  152.2295 LP  0  0  0  0  0  0  0  0  0  0  0  0  # atno 17342 bound_to 10162
  139.5701  144.7458  151.3913 LP  0  0  0  0  0  0  0  0  0  0  0  0  # atno 17343 bound_to 10162
  157.7468  131.0412  150.4635 LP  0  0  0  0  0  0  0  0  0  0  0  0  # atno 17370 bound_to 10713
  156.4839  130.4080  149.6446 LP  0  0  0  0  0  0  0  0  0  0  0  0  # atno 17371 bound_to 10713
  139.9791  134.7166  155.9892 LP  0  0  0  0  0  0  0  0  0  0  0  0  # atno 17394 bound_to 11000
  141.1503  133.6549  156.3992 LP  0  0  0  0  0  0  0  0  0  0  0  0  # atno 17395 bound_to 11000

$$$$
