#       Name:                AV-unprocessed.smi:513
#       Creating user name   scv26
#       Creation time:       Thu Mar 26 23:24:20 2020


#       File generated by GOLD software.
#

@<TRIPOS>MOLECULE
AV-unprocessed.smi:513
    50    52     1
SMALL
NO_CHARGES


@<TRIPOS>ATOM
      1 ****        -3.1922   1.5761  -2.8435 C.3            1 S1                 0.0000
      2 ****        -1.9678   1.9698  -2.2496 O.3            1 S1                 0.0000
      3 ****        -1.6772   1.2367  -1.0721 C.3            1 S1                 0.0000
      4 ****        -0.3469   1.7327  -0.4942 C.3            1 S1                 0.0000
      5 ****         0.0591   0.9400   0.6642 N.pl3          1 S1                 0.0000
      6 ****         0.7640  -0.2247   0.6842 C.2            1 S1                 0.0000
      7 ****         1.2333  -0.8374  -0.4796 N.pl3          1 S1                 0.0000
      8 ****         1.0726  -2.2621  -0.7591 C.3            1 S1                 0.0000
      9 ****         0.5118  -2.4953  -2.1740 C.3            1 S1                 0.0000
     10 ****         1.3702  -1.8496  -3.1891 N.4            1 S1                 1.0000
     11 ****         1.6243  -0.4240  -2.8953 C.3            1 S1                 0.0000
     12 ****         2.1524  -0.2579  -1.4583 C.3            1 S1                 0.0000
     13 ****         0.9172  -0.7613   1.8957 N.2            1 S1                 0.0000
     14 ****         0.2739   0.1459   2.7231 C.2            1 S1                 0.0000
     15 ****        -0.2648   1.1686   2.0063 C.2            1 S1                 0.0000
     16 ****        -1.0622   2.2612   2.6080 C.2            1 S1                 0.0000
     17 ****        -1.5620   3.1415   1.9111 O.2            1 S1                 0.0000
     18 ****        -1.1603   2.1411   3.9697 N.pl3          1 S1                -1.0000
     19 ****        -0.6220   1.1292   4.7351 C.2            1 S1                 0.0000
     20 ****        -0.7624   1.0940   5.9583 O.2            1 S1                 0.0000
     21 ****         0.0903   0.1258   4.1325 N.am           1 S1                 0.0000
     22 ****         0.6653  -0.9688   4.9196 C.3            1 S1                 0.0000
     23 ****        -3.3723   2.1693  -3.7399 H              1 S1                 0.0000
     24 ****        -4.0294   1.7330  -2.1622 H              1 S1                 0.0000
     25 ****        -3.1690   0.5250  -3.1342 H              1 S1                 0.0000
     26 ****        -2.4761   1.3629  -0.3397 H              1 S1                 0.0000
     27 ****        -1.6099   0.1735  -1.3085 H              1 S1                 0.0000
     28 ****         0.4214   1.6993  -1.2589 H              1 S1                 0.0000
     29 ****        -0.4109   2.7840  -0.2206 H              1 S1                 0.0000
     30 ****         2.0351  -2.7621  -0.6432 H              1 S1                 0.0000
     31 ****         0.4010  -2.7067  -0.0236 H              1 S1                 0.0000
     32 ****         0.4414  -3.5621  -2.3872 H              1 S1                 0.0000
     33 ****        -0.4967  -2.0859  -2.2490 H              1 S1                 0.0000
     34 ****         2.2580  -2.3309  -3.2016 H              1 S1                 0.0000
     35 ****         2.3425  -0.0308  -3.6147 H              1 S1                 0.0000
     36 ****         0.6975   0.1350  -3.0295 H              1 S1                 0.0000
     37 ****         2.3440   0.7904  -1.2318 H              1 S1                 0.0000
     38 ****         3.1179  -0.7567  -1.3633 H              1 S1                 0.0000
     39 ****         1.3308  -0.5792   5.6913 H              1 S1                 0.0000
     40 ****         1.2455  -1.6638   4.3135 H              1 S1                 0.0000
     41 ****        -0.1250  -1.5406   5.4077 H              1 S1                 0.0000
     42 ****         0.9388  -1.9344  -4.0984 H              1 S1                 0.0000
     43 ****        -2.0211   2.9411  -2.0180 LP             1 S1                 0.0000
     44 ****        -1.2300   1.8242  -2.9086 LP             1 S1                 0.0000
     45 ****         1.3824  -1.6104   2.1459 LP             1 S1                 0.0000
     46 ****        -1.4332   3.1277   0.9196 LP             1 S1                 0.0000
     47 ****        -2.0976   3.8716   2.3356 LP             1 S1                 0.0000
     48 ****        -1.6695   2.8535   4.4526 LP             1 S1                 0.0000
     49 ****        -1.2791   1.8130   6.4232 LP             1 S1                 0.0000
     50 ****        -0.3598   0.3464   6.4865 LP             1 S1                 0.0000
@<TRIPOS>BOND
    1    1    2 1     
    2    1   23 1     
    3    1   24 1     
    4    1   25 1     
    5    2    3 1     
    6    3    4 1     
    7    3   26 1     
    8    3   27 1     
    9    4    5 1     
   10    4   28 1     
   11    4   29 1     
   12    5   15 1     
   13    5    6 1     
   14    6    7 1     
   15    6   13 2     
   16    7   12 1     
   17    7    8 1     
   18    8    9 1     
   19    8   30 1     
   20    8   31 1     
   21    9   10 1     
   22    9   32 1     
   23    9   33 1     
   24   10   11 1     
   25   10   34 1     
   26   10   42 1     
   27   11   12 1     
   28   11   35 1     
   29   11   36 1     
   30   12   37 1     
   31   12   38 1     
   32   13   14 1     
   33   14   21 1     
   34   14   15 2     
   35   15   16 1     
   36   16   17 2     
   37   16   18 1     
   38   18   19 1     
   39   19   20 2     
   40   19   21 am    
   41   21   22 1     
   42   22   39 1     
   43   22   40 1     
   44   22   41 1     
   45    2   43 1     
   46    2   44 1     
   47   13   45 1     
   48   17   46 1     
   49   17   47 1     
   50   18   48 1     
   51   20   49 1     
   52   20   50 1     
@<TRIPOS>SUBSTRUCTURE
      1 S1             1
@<TRIPOS>SET
LONE_PAIRS      STATIC     ATOMS    <user>   **** ""
8 43 44 45 46 47 48 49 50
DONOR_HYDROGENS      STATIC     ATOMS    <user>   **** ""
2 34 42
ATOM$BLUE        STATIC     ATOMS    COLORGROUP SYSTEM
8 43 44 45 46 47 48 49 50
ATOM$RED        STATIC     ATOMS    COLORGROUP SYSTEM
2 34 42
