AV-unprocessed.smi:170|AV-procd|sdf|1412|dock1
  -GOLD-   2262019173D 1   1.00000     0.00000
 Structure written by MMmdl.
 57 61  0  0  0  0  0  0  0  0  1 V2000
  150.2419  143.2590  159.2878 O   0  0  0  0  0  0  0  0  0  0  0  0
  151.2854  143.5863  158.3888 C   0  0  2  0  0  0  0  0  0  0  0  0
  151.1904  142.7399  157.1042 C   0  0  0  0  0  0  0  0  0  0  0  0
  150.2418  141.6481  157.2338 N   0  0  0  0  0  0  0  0  0  0  0  0
  148.8947  141.6908  156.9529 C   0  0  0  0  0  0  0  0  0  0  0  0
  148.2468  140.5769  157.1625 N   0  0  0  0  0  0  0  0  0  0  0  0
  149.2234  139.7025  157.6231 C   0  0  0  0  0  0  0  0  0  0  0  0
  149.2130  138.3471  158.0454 C   0  0  0  0  0  0  0  0  0  0  0  0
  148.0785  137.6075  158.0408 N   0  0  0  0  0  0  0  0  0  0  0  0
  147.4916  137.6075  156.7050 C   0  0  0  0  0  0  0  0  0  0  0  0
  146.1188  136.9241  156.7211 C   0  0  0  0  0  0  0  0  0  0  0  0
  146.2689  135.6078  157.2334 O   0  0  0  0  0  0  0  0  0  0  0  0
  146.7368  135.6147  158.5768 C   0  0  0  0  0  0  0  0  0  0  0  0
  148.1316  136.2795  158.6695 C   0  0  2  0  0  0  0  0  0  0  0  0
  148.6207  136.3477  160.1409 C   0  0  0  0  0  0  0  0  0  0  0  0
  147.5464  136.0150  161.1751 C   0  0  0  0  0  0  0  0  0  0  0  0
  147.8968  136.0365  162.6704 C   0  0  0  0  0  0  0  0  0  0  0  0
  146.9241  134.8701  162.8672 C   0  0  0  0  0  0  0  0  0  0  0  0
  147.1021  134.5583  161.3788 C   0  0  0  0  0  0  0  0  0  0  0  0
  150.3940  137.7931  158.4302 N   0  0  0  0  0  0  0  0  0  0  0  0
  151.5107  138.5278  158.4220 C   0  0  0  0  0  0  0  0  0  0  0  0
  151.6676  139.8054  158.0672 N   0  0  0  0  0  0  0  0  0  0  0  0
  150.4853  140.3573  157.6686 C   0  0  0  0  0  0  0  0  0  0  0  0
  152.6527  143.4644  159.0919 C   0  0  1  0  0  0  0  0  0  0  0  0
  152.8283  144.3237  160.3556 C   0  0  0  0  0  0  0  0  0  0  0  0
  153.0146  143.2994  161.4587 C   0  0  0  0  0  0  0  0  0  0  0  0
  153.6137  142.1188  160.7065 C   0  0  0  0  0  0  0  0  0  0  0  0
  152.8938  142.1146  159.4842 O   0  0  0  0  0  0  0  0  0  0  0  0
  150.5791  142.6473  159.9247 H   0  0  0  0  0  0  0  0  0  0  0  0
  151.1412  144.6335  158.1197 H   0  0  0  0  0  0  0  0  0  0  0  0
  150.8817  143.3632  156.2642 H   0  0  0  0  0  0  0  0  0  0  0  0
  152.1645  142.3249  156.8424 H   0  0  0  0  0  0  0  0  0  0  0  0
  148.4039  142.5825  156.5907 H   0  0  0  0  0  0  0  0  0  0  0  0
  147.3861  138.6297  156.3381 H   0  0  0  0  0  0  0  0  0  0  0  0
  148.1571  137.0853  156.0156 H   0  0  0  0  0  0  0  0  0  0  0  0
  145.4055  137.4887  157.3237 H   0  0  0  0  0  0  0  0  0  0  0  0
  145.7137  136.8697  155.7107 H   0  0  0  0  0  0  0  0  0  0  0  0
  146.0164  136.1274  159.2168 H   0  0  0  0  0  0  0  0  0  0  0  0
  146.7793  134.5794  158.9136 H   0  0  0  0  0  0  0  0  0  0  0  0
  148.8297  135.6674  158.0965 H   0  0  0  0  0  0  0  0  0  0  0  0
  149.4579  135.6662  160.2884 H   0  0  0  0  0  0  0  0  0  0  0  0
  149.0206  137.3426  160.3397 H   0  0  0  0  0  0  0  0  0  0  0  0
  146.6589  136.6333  161.0283 H   0  0  0  0  0  0  0  0  0  0  0  0
  148.9327  135.7567  162.8697 H   0  0  0  0  0  0  0  0  0  0  0  0
  147.6214  136.9542  163.1910 H   0  0  0  0  0  0  0  0  0  0  0  0
  147.2752  134.0903  163.5436 H   0  0  0  0  0  0  0  0  0  0  0  0
  145.9130  135.1982  163.1136 H   0  0  0  0  0  0  0  0  0  0  0  0
  146.1861  134.2837  160.8546 H   0  0  0  0  0  0  0  0  0  0  0  0
  147.9030  133.8410  161.1914 H   0  0  0  0  0  0  0  0  0  0  0  0
  152.4069  138.0188  158.7452 H   0  0  0  0  0  0  0  0  0  0  0  0
  153.4349  143.7366  158.3815 H   0  0  0  0  0  0  0  0  0  0  0  0
  153.7259  144.9366  160.2623 H   0  0  0  0  0  0  0  0  0  0  0  0
  151.9921  144.9959  160.5506 H   0  0  0  0  0  0  0  0  0  0  0  0
  153.6483  143.6550  162.2714 H   0  0  0  0  0  0  0  0  0  0  0  0
  152.0462  143.0201  161.8759 H   0  0  0  0  0  0  0  0  0  0  0  0
  154.6740  142.2820  160.5060 H   0  0  0  0  0  0  0  0  0  0  0  0
  153.5034  141.1755  161.2419 H   0  0  0  0  0  0  0  0  0  0  0  0
  1  2  1  0  0  0  0
  1 29  1  0  0  0  0
  2  3  1  0  0  0  0
  2 24  1  0  0  0  0
  2 30  1  0  0  0  0
  3  4  1  0  0  0  0
  3 31  1  0  0  0  0
  3 32  1  0  0  0  0
  4 23  1  0  0  0  0
  4  5  1  0  0  0  0
  5  6  2  0  0  0  0
  5 33  1  0  0  0  0
  6  7  1  0  0  0  0
  7 23  2  0  0  0  0
  7  8  1  0  0  0  0
  8  9  1  0  0  0  0
  8 20  2  0  0  0  0
  9 14  1  0  0  0  0
  9 10  1  0  0  0  0
 10 11  1  0  0  0  0
 10 34  1  0  0  0  0
 10 35  1  0  0  0  0
 11 12  1  0  0  0  0
 11 36  1  0  0  0  0
 11 37  1  0  0  0  0
 12 13  1  0  0  0  0
 13 14  1  0  0  0  0
 13 38  1  0  0  0  0
 13 39  1  0  0  0  0
 14 15  1  0  0  0  0
 14 40  1  0  0  0  0
 15 16  1  0  0  0  0
 15 41  1  0  0  0  0
 15 42  1  0  0  0  0
 16 19  1  0  0  0  0
 16 17  1  0  0  0  0
 16 43  1  0  0  0  0
 17 18  1  0  0  0  0
 17 44  1  0  0  0  0
 17 45  1  0  0  0  0
 18 19  1  0  0  0  0
 18 46  1  0  0  0  0
 18 47  1  0  0  0  0
 19 48  1  0  0  0  0
 19 49  1  0  0  0  0
 20 21  1  0  0  0  0
 21 22  2  0  0  0  0
 21 50  1  0  0  0  0
 22 23  1  0  0  0  0
 24 28  1  0  0  0  0
 24 25  1  0  0  0  0
 24 51  1  0  0  0  0
 25 26  1  0  0  0  0
 25 52  1  0  0  0  0
 25 53  1  0  0  0  0
 26 27  1  0  0  0  0
 26 54  1  0  0  0  0
 26 55  1  0  0  0  0
 27 28  1  0  0  0  0
 27 56  1  0  0  0  0
 27 57  1  0  0  0  0
M  END
> <s_m_source_file>
AV-unprocessed.smi

> <i_m_source_file_index>
170

> <i_lp_mmshare_version>
43012

> <i_f3d_flags>
0

> <s_epik_input>
TzFbQ0gyXVtDSDJdW0NIMl1bQ0BIXTFbQ0BIXShbT0hdKVtDSDJdbihbY0hdbjIpYyhjMjMpbltjSF1uYzNONFtDSDJdW0NIMl1PW0NIMl1bQ0BIXTRbQ0gyXVtDSF01W0NIMl1bQ0gyXVtDSDJdNQ==

> <s_epik_cmdline>
J2VwaWtfcHl0aG9uJywgJy1waCcsICc3LjAnLCAnLXRuJywgJzgnLCAnLW1hJywgJzIwMCcsICctbWV0YWxfYmluZGluZycsICctaW1hZScsICc8aW5maWxlLm1hZT4nLCAnLW9tYWUnLCAnPG91dGZpbGUubWFlPic=

> <r_lp_tautomer_probability>
1

> <r_epik_Ionization_Penalty>
4.98275e-05

> <r_epik_Ionization_Penalty_Charging>
0

> <r_epik_Ionization_Penalty_Neutral>
4.98275e-05

> <r_epik_State_Penalty>
-0

> <r_epik_Charging_Adjusted_Penalty>
0

> <i_epik_Tot_Q>
0

> <i_epik_Tot_abs_Q>
0

> <r_epik_Metal_State_Penalty>
-0

> <b_epik_Metal_Only>
0

> <s_lp_Force_Field>
OPLS_2005

> <r_lp_Energy>
52.9545

> <b_lp_Chiralities_Consistent>
1

> <s_lp_Variant>
AV-unprocessed.smi:170-7

> <Gold.Version>
5.8.1

> <Gold.Id.Protein>
6NUR|6NUR_protein|mol2

> <Gold.PLP.Fitness>
48.4111

> <Gold.PLP.PLP>
-48.6898

> <Gold.PLP.part.hbond>
-0.2774

> <Gold.PLP.part.metal>
0.0000

> <Gold.PLP.part.buried>
-8.5288

> <Gold.PLP.part.nonpolar>
-40.4712

> <Gold.PLP.part.repulsive>
0.0181

> <Gold.PLP.ligand.clash>
0.0000

> <Gold.PLP.ligand.torsion>
1.9245

> <Gold.PLP.Chemscore.Hbond>
0.0000

> <Gold.PLP.Chemscore.CHOScore>
1.0000

> <Gold.PLP.Chemscore.Metal>
0.0000

> <Gold.Chemscore.Hbonds>
donor molecule, donor type, donor heavy atom, donor atom, acceptor molecule, acceptor atom, score
      L1  C     5    33       P1  8028  1.00

> <Gold.PLP.Chemscore.Internal.Correction>
0.5703

> <Gold.Rescore>
     Score         DG    S(hbond)    S(metal)    S(lipo)     H(rot)  DE(clash)    DE(int)     intcor
      9.23     -12.55       0.00        0.00     117.64       2.61       0.05       3.28       ----

> <Gold.Chemscore.Fitness>
9.2278

> <Gold.Chemscore.DG>
-12.5510

> <Gold.Chemscore.ZeroCoef>
-5.4800

> <Gold.Chemscore.Hbond>
0.0000

> <Gold.Chemscore.Metal>
0.0000

> <Gold.Chemscore.Lipo>
117.6407

> <Gold.Chemscore.Internal_Hbond>
0.0000

> <Gold.Chemscore.DEClash>
0.0458

> <Gold.Chemscore.DEInternal>
3.2774

> <Gold.Chemscore.Rot>
2.6144

> <Gold.Chemscore.Internal.Correction>
   9.000000E+99

> <Gold.Chemscore.Hbond.Weighted>
-0.0000

> <Gold.Chemscore.Metal.Weighted>
-0.0000

> <Gold.Chemscore.Lipo.Weighted>
-13.7640

> <Gold.Chemscore.Internal_Hbond.Weighted>
0.0000

> <Gold.Chemscore.DEClash.Weighted>
0.0458

> <Gold.Chemscore.DEInternal.Weighted>
3.2774

> <Gold.Chemscore.Rot.Weighted>
6.6929

> <Gold.Chemscore.Internal.Correction.Weighted>
   9.000000E+99

> <Gold.Protein.RotatedTorsions>
[ 6907 6896 6895 6894 ] final  -30.21 input  -60.11 | X-H torsion
[ 7974 7965 7964 7962 ] final   53.64 input  175.53 | X-H torsion
[ 8008 7997 7996 7995 ] final   49.34 input   59.86 | X-H torsion
[ 10167 10162 10161 10158 ] final  -44.32 input  -65.29 | X-H torsion
[ 10718 10713 10712 10709 ] final  -18.41 input   66.30 | X-H torsion
[ 10763 10752 10751 10750 ] final   67.92 input  -60.55 | X-H torsion
[ 11005 11000 10999 10996 ] final  -51.98 input  -57.11 | X-H torsion

> <Gold.Protein.ActiveResidues>
 VAL166  LYS551  ARG553  GLY616  TRP617  ASP618  TYR619  PRO620  LYS621  CYS622 
 ASP623  PHE694  ASN695  SER759  ASP760  ASP761  ALA762  ILE779  LEU786  VAL792 
 PHE793  MET794  SER795  GLU796  ALA797  LYS798  CYS799  TRP800  GLU811  SER814 

> <Gold.Protein.RotatedAtoms>
  151.1087  135.0014  159.8483 H   0  0  0  0  0  0  0  0  0  0  0  0  # atno 6907 bound_to 6896
  152.5442  134.1862  159.8666 H   0  0  0  0  0  0  0  0  0  0  0  0  # atno 6908 bound_to 6896
  151.1911  133.4622  159.2628 H   0  0  0  0  0  0  0  0  0  0  0  0  # atno 6909 bound_to 6896
  145.9691  139.4132  143.0201 H   0  0  0  0  0  0  0  0  0  0  0  0  # atno 7974 bound_to 7965
  155.4006  140.3437  155.4257 H   0  0  0  0  0  0  0  0  0  0  0  0  # atno 8008 bound_to 7997
  156.1506  140.1569  156.8809 H   0  0  0  0  0  0  0  0  0  0  0  0  # atno 8009 bound_to 7997
  154.5049  140.0805  156.7854 H   0  0  0  0  0  0  0  0  0  0  0  0  # atno 8010 bound_to 7997
  140.6901  143.2936  151.3479 H   0  0  0  0  0  0  0  0  0  0  0  0  # atno 10167 bound_to 10162
  156.5600  130.4723  149.6411 H   0  0  0  0  0  0  0  0  0  0  0  0  # atno 10718 bound_to 10713
  153.0209  135.5266  154.7054 H   0  0  0  0  0  0  0  0  0  0  0  0  # atno 10763 bound_to 10752
  154.6151  135.2882  155.0391 H   0  0  0  0  0  0  0  0  0  0  0  0  # atno 10764 bound_to 10752
  154.1398  135.6580  153.4992 H   0  0  0  0  0  0  0  0  0  0  0  0  # atno 10765 bound_to 10752
  141.0900  133.6634  156.3957 H   0  0  0  0  0  0  0  0  0  0  0  0  # atno 11005 bound_to 11000
  145.7932  140.9805  143.1038 LP  0  0  0  0  0  0  0  0  0  0  0  0  # atno 17320 bound_to 7965
  144.6832  139.9708  143.7482 LP  0  0  0  0  0  0  0  0  0  0  0  0  # atno 17321 bound_to 7965
  139.6296  144.0747  152.2464 LP  0  0  0  0  0  0  0  0  0  0  0  0  # atno 17342 bound_to 10162
  140.0218  144.6147  150.7560 LP  0  0  0  0  0  0  0  0  0  0  0  0  # atno 17343 bound_to 10162
  156.2808  130.7069  151.1893 LP  0  0  0  0  0  0  0  0  0  0  0  0  # atno 17370 bound_to 10713
  157.7370  131.0556  150.5379 LP  0  0  0  0  0  0  0  0  0  0  0  0  # atno 17371 bound_to 10713
  140.5274  134.6245  157.5338 LP  0  0  0  0  0  0  0  0  0  0  0  0  # atno 17394 bound_to 11000
  139.9724  134.7271  156.0015 LP  0  0  0  0  0  0  0  0  0  0  0  0  # atno 17395 bound_to 11000

$$$$
