AV-unprocessed.smi:2021|AV-procd|sdf|8177|dock8
  -GOLD-   2272010423D 1   1.00000     0.00000
 Structure written by MMmdl.
 42 43  0  0  0  0  0  0  0  0  2 V2000
  145.9159  131.8781  149.6781 C   0  0  0  0  0  0  0  0  0  0  0  0
  145.5647  133.1696  150.4357 C   0  0  0  0  0  0  0  0  0  0  0  0
  146.7549  133.6286  151.2914 C   0  0  0  0  0  0  0  0  0  0  0  0
  144.3021  133.0027  151.3097 C   0  0  0  0  0  0  0  0  0  0  0  0
  143.4210  134.2028  151.3061 N   0  3  1  0  0  0  0  0  0  0  0  0
  142.7238  134.4285  152.5955 C   0  0  0  0  0  0  0  0  0  0  0  0
  143.6681  135.0614  153.6329 C   0  0  0  0  0  0  0  0  0  0  0  0
  144.1967  136.2729  153.1101 O   0  0  0  0  0  0  0  0  0  0  0  0
  144.9749  136.0737  151.9336 C   0  0  2  0  0  0  0  0  0  0  0  0
  145.5553  137.4276  151.4868 C   0  0  0  0  0  0  0  0  0  0  0  0
  146.8302  137.7141  152.1361 N   0  0  0  0  0  0  0  0  0  0  0  0
  147.0983  138.8069  152.8651 C   0  0  0  0  0  0  0  0  0  0  0  0
  146.2773  139.6998  153.0762 O   0  0  0  0  0  0  0  0  0  0  0  0
  148.3627  138.7873  153.3220 N   0  0  0  0  0  0  0  0  0  0  0  0
  149.0283  139.7596  154.1144 C   0  0  0  0  0  0  0  0  0  0  0  0
  150.2668  139.5989  154.6062 N   0  0  0  0  0  0  0  0  0  0  0  0
  150.6778  140.6993  155.3474 N   0  0  0  0  0  0  0  0  0  0  0  0
  149.7346  141.6450  155.3847 C   0  0  0  0  0  0  0  0  0  0  0  0
  148.2526  141.2849  154.5164 S   0  0  0  0  0  0  0  0  0  0  0  0
  144.0685  135.4582  150.8440 C   0  0  0  0  0  0  0  0  0  0  0  0
  146.1111  131.0547  150.3657 H   0  0  0  0  0  0  0  0  0  0  0  0
  146.8068  132.0148  149.0643 H   0  0  0  0  0  0  0  0  0  0  0  0
  145.1089  131.5726  149.0118 H   0  0  0  0  0  0  0  0  0  0  0  0
  145.3922  133.9531  149.6988 H   0  0  0  0  0  0  0  0  0  0  0  0
  147.0046  132.8903  152.0542 H   0  0  0  0  0  0  0  0  0  0  0  0
  146.5363  134.5694  151.7972 H   0  0  0  0  0  0  0  0  0  0  0  0
  147.6430  133.7861  150.6785 H   0  0  0  0  0  0  0  0  0  0  0  0
  143.7422  132.1459  150.9318 H   0  0  0  0  0  0  0  0  0  0  0  0
  144.5803  132.7469  152.3321 H   0  0  0  0  0  0  0  0  0  0  0  0
  141.8831  135.1006  152.4178 H   0  0  0  0  0  0  0  0  0  0  0  0
  142.2963  133.4989  152.9732 H   0  0  0  0  0  0  0  0  0  0  0  0
  143.1215  135.2843  154.5493 H   0  0  0  0  0  0  0  0  0  0  0  0
  144.4762  134.3805  153.9037 H   0  0  0  0  0  0  0  0  0  0  0  0
  145.8031  135.3991  152.1558 H   0  0  0  0  0  0  0  0  0  0  0  0
  145.7397  137.4096  150.4124 H   0  0  0  0  0  0  0  0  0  0  0  0
  144.8393  138.2328  151.6609 H   0  0  0  0  0  0  0  0  0  0  0  0
  147.5654  137.0334  152.0133 H   0  0  0  0  0  0  0  0  0  0  0  0
  148.9200  137.9861  153.0648 H   0  0  0  0  0  0  0  0  0  0  0  0
  149.9128  142.5614  155.9275 H   0  0  0  0  0  0  0  0  0  0  0  0
  144.6286  135.2969  149.9242 H   0  0  0  0  0  0  0  0  0  0  0  0
  143.2787  136.1676  150.5929 H   0  0  0  0  0  0  0  0  0  0  0  0
  142.6954  133.9898  150.6362 H   0  0  0  0  0  0  0  0  0  0  0  0
  1  2  1  0  0  0  0
  1 21  1  0  0  0  0
  1 22  1  0  0  0  0
  1 23  1  0  0  0  0
  2  3  1  0  0  0  0
  2  4  1  0  0  0  0
  2 24  1  0  0  0  0
  3 25  1  0  0  0  0
  3 26  1  0  0  0  0
  3 27  1  0  0  0  0
  4  5  1  0  0  0  0
  4 28  1  0  0  0  0
  4 29  1  0  0  0  0
  5 20  1  0  0  0  0
  5  6  1  0  0  0  0
  5 42  1  0  0  0  0
  6  7  1  0  0  0  0
  6 30  1  0  0  0  0
  6 31  1  0  0  0  0
  7  8  1  0  0  0  0
  7 32  1  0  0  0  0
  7 33  1  0  0  0  0
  8  9  1  0  0  0  0
  9 10  1  0  0  0  0
  9 20  1  0  0  0  0
  9 34  1  0  0  0  0
 10 11  1  0  0  0  0
 10 35  1  0  0  0  0
 10 36  1  0  0  0  0
 11 12  1  0  0  0  0
 11 37  1  0  0  0  0
 12 13  2  0  0  0  0
 12 14  1  0  0  0  0
 14 15  1  0  0  0  0
 14 38  1  0  0  0  0
 15 19  1  0  0  0  0
 15 16  2  0  0  0  0
 16 17  1  0  0  0  0
 17 18  2  0  0  0  0
 18 19  1  0  0  0  0
 18 39  1  0  0  0  0
 20 40  1  0  0  0  0
 20 41  1  0  0  0  0
M  CHG  1   5   1
M  END
> <s_m_source_file>
AV-unprocessed.smi

> <i_m_source_file_index>
2021

> <i_lp_mmshare_version>
43012

> <i_f3d_flags>
0

> <s_epik_input>
W0NIM11bQ0hdKFtDSDNdKVtDSDJdTjFbQ0gyXVtDSDJdT1tDQEhdKFtDSDJdMSlbQ0gyXVtOSF1DKD1PKVtOSF1jMm5uW2NIXXMy

> <s_epik_cmdline>
J2VwaWtfcHl0aG9uJywgJy1waCcsICc3LjAnLCAnLXRuJywgJzgnLCAnLW1hJywgJzIwMCcsICctbWV0YWxfYmluZGluZycsICctaW1hZScsICc8aW5maWxlLm1hZT4nLCAnLW9tYWUnLCAnPG91dGZpbGUubWFlPic=

> <r_lp_tautomer_probability>
1

> <r_epik_Ionization_Penalty>
0.102019

> <r_epik_Ionization_Penalty_Charging>
0.098413

> <r_epik_Ionization_Penalty_Neutral>
0.00360555

> <r_epik_State_Penalty>
0.0884988

> <r_epik_Charging_Adjusted_Penalty>
0.186912

> <i_epik_Tot_Q>
1

> <i_epik_Tot_abs_Q>
1

> <r_epik_Metal_State_Penalty>
0.454709

> <b_epik_Metal_Only>
0

> <s_lp_Force_Field>
OPLS_2005

> <r_lp_Energy>
19.4379

> <b_lp_Chiralities_Consistent>
1

> <s_lp_Variant>
AV-unprocessed.smi:2021-3

> <Gold.Version>
5.8.1

> <Gold.Id.Protein>
6NUR|6NUR_protein|mol2

> <Gold.PLP.Fitness>
45.5598

> <Gold.PLP.PLP>
-33.6913

> <Gold.PLP.part.hbond>
-5.6425

> <Gold.PLP.part.metal>
0.0000

> <Gold.PLP.part.buried>
-0.4966

> <Gold.PLP.part.nonpolar>
-30.7826

> <Gold.PLP.part.repulsive>
2.4523

> <Gold.PLP.ligand.clash>
0.0000

> <Gold.PLP.ligand.torsion>
1.3667

> <Gold.PLP.Chemscore.Hbond>
3.8477

> <Gold.PLP.Chemscore.CHOScore>
0.9907

> <Gold.PLP.Chemscore.Metal>
0.0000

> <Gold.Chemscore.Hbonds>
donor molecule, donor type, donor heavy atom, donor atom, acceptor molecule, acceptor atom, score
      L1  H     5    42       P1 10186  1.92
      L1  H    11    37       P1  7948  1.00
      L1  H    14    38       P1  7948  0.74
      L1  C    18    39       P1  8028  0.99

> <Gold.PLP.Chemscore.Internal.Correction>
0.0868

> <Gold.Rescore>
     Score         DG    S(hbond)    S(metal)    S(lipo)     H(rot)  DE(clash)    DE(int)     intcor
     13.31     -17.56       2.35        0.00      77.24       1.88       1.88       2.37       ----

> <Gold.Chemscore.Fitness>
13.3057

> <Gold.Chemscore.DG>
-17.5600

> <Gold.Chemscore.ZeroCoef>
-5.4800

> <Gold.Chemscore.Hbond>
2.3529

> <Gold.Chemscore.Metal>
0.0000

> <Gold.Chemscore.Lipo>
77.2403

> <Gold.Chemscore.Internal_Hbond>
0.0000

> <Gold.Chemscore.DEClash>
1.8819

> <Gold.Chemscore.DEInternal>
2.3723

> <Gold.Chemscore.Rot>
1.8812

> <Gold.Chemscore.Internal.Correction>
   9.000000E+99

> <Gold.Chemscore.Hbonds>
donor molecule, donor type, donor heavy atom, donor atom, acceptor molecule, acceptor atom, score
      L1  H     5    42       P1 10186  0.73
      L1  H    11    37       P1  7948  0.98
      L1  H    14    38       P1  7948  0.70

> <Gold.Chemscore.Hbond.Weighted>
-7.8587

> <Gold.Chemscore.Metal.Weighted>
-0.0000

> <Gold.Chemscore.Lipo.Weighted>
-9.0371

> <Gold.Chemscore.Internal_Hbond.Weighted>
0.0000

> <Gold.Chemscore.DEClash.Weighted>
1.8819

> <Gold.Chemscore.DEInternal.Weighted>
2.3723

> <Gold.Chemscore.Rot.Weighted>
4.8159

> <Gold.Chemscore.Internal.Correction.Weighted>
   9.000000E+99

> <Gold.Protein.RotatedTorsions>
[ 6907 6896 6895 6894 ] final   41.98 input  -60.11 | X-H torsion
[ 7974 7965 7964 7962 ] final  146.26 input  175.53 | X-H torsion
[ 8008 7997 7996 7995 ] final  -75.94 input   59.86 | X-H torsion
[ 10167 10162 10161 10158 ] final  -45.86 input  -65.29 | X-H torsion
[ 10718 10713 10712 10709 ] final    1.17 input   66.30 | X-H torsion
[ 10763 10752 10751 10750 ] final   93.00 input  -60.55 | X-H torsion
[ 11005 11000 10999 10996 ] final   85.12 input  -57.11 | X-H torsion

> <Gold.Protein.ActiveResidues>
 VAL166  LYS551  ARG553  GLY616  TRP617  ASP618  TYR619  PRO620  LYS621  CYS622 
 ASP623  PHE694  ASN695  SER759  ASP760  ASP761  ALA762  ILE779  LEU786  VAL792 
 PHE793  MET794  SER795  GLU796  ALA797  LYS798  CYS799  TRP800  GLU811  SER814 

> <Gold.Protein.RotatedAtoms>
  152.2021  134.8578  160.0506 H   0  0  0  0  0  0  0  0  0  0  0  0  # atno 6907 bound_to 6896
  151.9427  133.3637  159.3979 H   0  0  0  0  0  0  0  0  0  0  0  0  # atno 6908 bound_to 6896
  150.6957  134.4346  159.5308 H   0  0  0  0  0  0  0  0  0  0  0  0  # atno 6909 bound_to 6896
  144.8685  139.5884  143.5898 H   0  0  0  0  0  0  0  0  0  0  0  0  # atno 7974 bound_to 7965
  154.5460  140.0735  156.8590 H   0  0  0  0  0  0  0  0  0  0  0  0  # atno 8008 bound_to 7997
  155.3085  140.3389  155.4226 H   0  0  0  0  0  0  0  0  0  0  0  0  # atno 8009 bound_to 7997
  156.1919  140.1689  156.8062 H   0  0  0  0  0  0  0  0  0  0  0  0  # atno 8010 bound_to 7997
  140.6841  143.2859  151.3699 H   0  0  0  0  0  0  0  0  0  0  0  0  # atno 10167 bound_to 10162
  156.8443  130.5531  149.5675 H   0  0  0  0  0  0  0  0  0  0  0  0  # atno 10718 bound_to 10713
  153.2254  135.4341  155.0536 H   0  0  0  0  0  0  0  0  0  0  0  0  # atno 10763 bound_to 10752
  154.8271  135.3366  154.6865 H   0  0  0  0  0  0  0  0  0  0  0  0  # atno 10764 bound_to 10752
  153.7295  135.7012  153.5049 H   0  0  0  0  0  0  0  0  0  0  0  0  # atno 10765 bound_to 10752
  139.8980  134.8264  156.2538 H   0  0  0  0  0  0  0  0  0  0  0  0  # atno 11005 bound_to 11000
  146.2913  139.7148  142.9159 LP  0  0  0  0  0  0  0  0  0  0  0  0  # atno 17320 bound_to 7965
  145.4175  141.0403  143.2982 LP  0  0  0  0  0  0  0  0  0  0  0  0  # atno 17321 bound_to 7965
  139.6185  144.0954  152.2369 LP  0  0  0  0  0  0  0  0  0  0  0  0  # atno 17342 bound_to 10162
  140.0390  144.6022  150.7426 LP  0  0  0  0  0  0  0  0  0  0  0  0  # atno 17343 bound_to 10162
  156.0863  130.5861  150.9654 LP  0  0  0  0  0  0  0  0  0  0  0  0  # atno 17370 bound_to 10713
  157.6339  131.0918  150.8388 LP  0  0  0  0  0  0  0  0  0  0  0  0  # atno 17371 bound_to 10713
  141.0206  133.7043  156.1262 LP  0  0  0  0  0  0  0  0  0  0  0  0  # atno 17394 bound_to 11000
  140.7238  134.4329  157.5572 LP  0  0  0  0  0  0  0  0  0  0  0  0  # atno 17395 bound_to 11000

$$$$
