AV-unprocessed.smi:2640|AV-procd|sdf|10270|dock8
  -GOLD-   2272014283D 1   1.00000     0.00000
 Structure written by MMmdl.
 41 42  0  0  0  0  0  0  0  0  1 V2000
  144.8310  135.9906  154.1667 O   0  0  0  0  0  0  0  0  0  0  0  0
  145.9864  136.0053  153.7433 C   0  0  0  0  0  0  0  0  0  0  0  0
  146.9874  137.0212  154.2883 C   0  0  0  0  0  0  0  0  0  0  0  0
  148.2926  136.4046  154.5395 N   0  0  0  0  0  0  0  0  0  0  0  0
  149.1442  137.2984  155.3109 C   0  0  0  0  0  0  0  0  0  0  0  0
  149.7079  138.4114  154.4114 C   0  0  0  0  0  0  0  0  0  0  0  0
  149.9660  139.6370  155.1466 N   0  0  0  0  0  0  0  0  0  0  0  0
  150.1857  139.7933  156.4990 C   0  0  0  0  0  0  0  0  0  0  0  0
  150.3729  141.1261  156.7290 C   0  0  0  0  0  0  0  0  0  0  0  0
  150.2500  141.7122  155.4381 C   0  0  0  0  0  0  0  0  0  0  0  0
  150.0067  140.8185  154.4933 N   0  0  0  0  0  0  0  0  0  0  0  0
  146.4430  135.1605  152.8041 N   0  0  0  0  0  0  0  0  0  0  0  0
  145.6501  134.1313  152.1285 C   0  0  2  0  0  0  0  0  0  0  0  0
  146.5350  133.5116  151.0229 C   0  0  0  0  0  0  0  0  0  0  0  0
  146.0881  132.1054  150.5873 C   0  0  0  0  0  0  0  0  0  0  0  0
  144.7144  132.0452  149.9023 C   0  0  0  0  0  0  0  0  0  0  0  0
  143.5520  132.4894  150.8064 C   0  0  0  0  0  0  0  0  0  0  0  0
  143.4754  133.9392  150.9291 N   0  0  0  0  0  0  0  0  0  0  0  0
  144.3885  134.7516  151.4829 C   0  0  0  0  0  0  0  0  0  0  0  0
  144.2220  135.9713  151.4713 O   0  0  0  0  0  0  0  0  0  0  0  0
  147.0961  137.8389  153.5740 H   0  0  0  0  0  0  0  0  0  0  0  0
  146.5921  137.4470  155.2119 H   0  0  0  0  0  0  0  0  0  0  0  0
  148.7596  136.1682  153.6749 H   0  0  0  0  0  0  0  0  0  0  0  0
  148.5833  137.7356  156.1386 H   0  0  0  0  0  0  0  0  0  0  0  0
  149.9664  136.7272  155.7438 H   0  0  0  0  0  0  0  0  0  0  0  0
  150.6486  138.0833  153.9678 H   0  0  0  0  0  0  0  0  0  0  0  0
  149.0303  138.6201  153.5817 H   0  0  0  0  0  0  0  0  0  0  0  0
  150.1871  138.9525  157.1771 H   0  0  0  0  0  0  0  0  0  0  0  0
  150.5674  141.6091  157.6750 H   0  0  0  0  0  0  0  0  0  0  0  0
  150.3297  142.7531  155.1613 H   0  0  0  0  0  0  0  0  0  0  0  0
  147.4037  135.2596  152.5105 H   0  0  0  0  0  0  0  0  0  0  0  0
  145.3633  133.3667  152.8527 H   0  0  0  0  0  0  0  0  0  0  0  0
  146.6008  134.1727  150.1567 H   0  0  0  0  0  0  0  0  0  0  0  0
  147.5564  133.4190  151.3961 H   0  0  0  0  0  0  0  0  0  0  0  0
  146.8335  131.7013  149.9019 H   0  0  0  0  0  0  0  0  0  0  0  0
  146.0912  131.4408  151.4524 H   0  0  0  0  0  0  0  0  0  0  0  0
  144.7247  132.6351  148.9846 H   0  0  0  0  0  0  0  0  0  0  0  0
  144.5363  131.0150  149.5922 H   0  0  0  0  0  0  0  0  0  0  0  0
  142.6110  132.1553  150.3690 H   0  0  0  0  0  0  0  0  0  0  0  0
  143.6147  132.0236  151.7910 H   0  0  0  0  0  0  0  0  0  0  0  0
  142.6589  134.3768  150.5271 H   0  0  0  0  0  0  0  0  0  0  0  0
  1  2  2  0  0  0  0
  2  3  1  0  0  0  0
  2 12  1  0  0  0  0
  3  4  1  0  0  0  0
  3 21  1  0  0  0  0
  3 22  1  0  0  0  0
  4  5  1  0  0  0  0
  4 23  1  0  0  0  0
  5  6  1  0  0  0  0
  5 24  1  0  0  0  0
  5 25  1  0  0  0  0
  6  7  1  0  0  0  0
  6 26  1  0  0  0  0
  6 27  1  0  0  0  0
  7 11  1  0  0  0  0
  7  8  1  0  0  0  0
  8  9  2  0  0  0  0
  8 28  1  0  0  0  0
  9 10  1  0  0  0  0
  9 29  1  0  0  0  0
 10 11  2  0  0  0  0
 10 30  1  0  0  0  0
 12 13  1  0  0  0  0
 12 31  1  0  0  0  0
 13 19  1  0  0  0  0
 13 14  1  0  0  0  0
 13 32  1  0  0  0  0
 14 15  1  0  0  0  0
 14 33  1  0  0  0  0
 14 34  1  0  0  0  0
 15 16  1  0  0  0  0
 15 35  1  0  0  0  0
 15 36  1  0  0  0  0
 16 17  1  0  0  0  0
 16 37  1  0  0  0  0
 16 38  1  0  0  0  0
 17 18  1  0  0  0  0
 17 39  1  0  0  0  0
 17 40  1  0  0  0  0
 18 19  1  0  0  0  0
 18 41  1  0  0  0  0
 19 20  2  0  0  0  0
M  END
> <s_m_source_file>
AV-unprocessed.smi

> <i_m_source_file_index>
2640

> <i_lp_mmshare_version>
43012

> <i_f3d_flags>
0

> <s_epik_input>
Tz1DMVtOSF1bQ0gyXVtDSDJdW0NIMl1bQ0gyXVtDQEhdMVtOSF1DKD1PKVtDSDJdW05IXVtDSDJdW0NIMl1uMltjSF1bY0hdW2NIXW4y

> <s_epik_cmdline>
J2VwaWtfcHl0aG9uJywgJy1waCcsICc3LjAnLCAnLXRuJywgJzgnLCAnLW1hJywgJzIwMCcsICctbWV0YWxfYmluZGluZycsICctaW1hZScsICc8aW5maWxlLm1hZT4nLCAnLW9tYWUnLCAnPG91dGZpbGUubWFlPic=

> <r_lp_tautomer_probability>
1

> <r_epik_Ionization_Penalty>
0.641667

> <r_epik_Ionization_Penalty_Charging>
0

> <r_epik_Ionization_Penalty_Neutral>
0.641667

> <r_epik_State_Penalty>
0.657743

> <r_epik_Charging_Adjusted_Penalty>
0.657743

> <i_epik_Tot_Q>
0

> <i_epik_Tot_abs_Q>
0

> <r_epik_Metal_State_Penalty>
0.656014

> <b_epik_Metal_Only>
0

> <s_lp_Force_Field>
OPLS_2005

> <r_lp_Energy>
11.9791

> <b_lp_Chiralities_Consistent>
1

> <s_lp_Variant>
AV-unprocessed.smi:2640-3

> <Gold.Version>
5.8.1

> <Gold.Id.Protein>
6NUR|6NUR_protein|mol2

> <Gold.PLP.Fitness>
43.8388

> <Gold.PLP.PLP>
-31.2288

> <Gold.PLP.part.hbond>
-4.0000

> <Gold.PLP.part.metal>
0.0000

> <Gold.PLP.part.buried>
-4.8619

> <Gold.PLP.part.nonpolar>
-22.2868

> <Gold.PLP.part.repulsive>
0.3190

> <Gold.PLP.ligand.clash>
0.0000

> <Gold.PLP.ligand.torsion>
0.8669

> <Gold.PLP.Chemscore.Hbond>
3.7680

> <Gold.PLP.Chemscore.CHOScore>
0.9990

> <Gold.PLP.Chemscore.Metal>
0.0000

> <Gold.Chemscore.Hbonds>
donor molecule, donor type, donor heavy atom, donor atom, acceptor molecule, acceptor atom, score
      L1  H     4    23       P1  7948  1.00
      L1  H    12    31       P1  7948  1.00
      L1  H    18    41       P1 10186  1.00
      P1  H  7989  7998       L1    11  0.70
      L1  C    10    30       P1  8028  1.00

> <Gold.PLP.Chemscore.Internal.Correction>
0.0429

> <Gold.Rescore>
     Score         DG    S(hbond)    S(metal)    S(lipo)     H(rot)  DE(clash)    DE(int)     intcor
     17.65     -19.05       3.54        0.00      66.73       2.37       0.66       0.74       ----

> <Gold.Chemscore.Fitness>
17.6487

> <Gold.Chemscore.DG>
-19.0475

> <Gold.Chemscore.ZeroCoef>
-5.4800

> <Gold.Chemscore.Hbond>
3.5436

> <Gold.Chemscore.Metal>
0.0000

> <Gold.Chemscore.Lipo>
66.7274

> <Gold.Chemscore.Internal_Hbond>
0.0000

> <Gold.Chemscore.DEClash>
0.6578

> <Gold.Chemscore.DEInternal>
0.7410

> <Gold.Chemscore.Rot>
2.3732

> <Gold.Chemscore.Internal.Correction>
   9.000000E+99

> <Gold.Chemscore.Hbonds>
donor molecule, donor type, donor heavy atom, donor atom, acceptor molecule, acceptor atom, score
      L1  H     4    23       P1  7948  0.97
      L1  H    12    31       P1  7948  0.98
      L1  H    18    41       P1 10186  0.49
      P1  H  7989  7998       L1    11  0.15

> <Gold.Chemscore.Hbond.Weighted>
-11.8357

> <Gold.Chemscore.Metal.Weighted>
-0.0000

> <Gold.Chemscore.Lipo.Weighted>
-7.8071

> <Gold.Chemscore.Internal_Hbond.Weighted>
0.0000

> <Gold.Chemscore.DEClash.Weighted>
0.6578

> <Gold.Chemscore.DEInternal.Weighted>
0.7410

> <Gold.Chemscore.Rot.Weighted>
6.0753

> <Gold.Chemscore.Internal.Correction.Weighted>
   9.000000E+99

> <Gold.Protein.RotatedTorsions>
[ 6907 6896 6895 6894 ] final -119.14 input  -60.11 | X-H torsion
[ 7974 7965 7964 7962 ] final -112.14 input  175.53 | X-H torsion
[ 8008 7997 7996 7995 ] final   67.93 input   59.86 | X-H torsion
[ 10167 10162 10161 10158 ] final -142.21 input  -65.29 | X-H torsion
[ 10718 10713 10712 10709 ] final  -68.92 input   66.30 | X-H torsion
[ 10763 10752 10751 10750 ] final  -26.06 input  -60.55 | X-H torsion
[ 11005 11000 10999 10996 ] final   80.30 input  -57.11 | X-H torsion

> <Gold.Protein.ActiveResidues>
 VAL166  LYS551  ARG553  GLY616  TRP617  ASP618  TYR619  PRO620  LYS621  CYS622 
 ASP623  PHE694  ASN695  SER759  ASP760  ASP761  ALA762  ILE779  LEU786  VAL792 
 PHE793  MET794  SER795  GLU796  ALA797  LYS798  CYS799  TRP800  GLU811  SER814 

> <Gold.Protein.RotatedAtoms>
  150.8280  133.8140  159.3110 H   0  0  0  0  0  0  0  0  0  0  0  0  # atno 6907 bound_to 6896
  151.5878  135.1053  160.0041 H   0  0  0  0  0  0  0  0  0  0  0  0  # atno 6908 bound_to 6896
  152.4362  133.7324  159.6651 H   0  0  0  0  0  0  0  0  0  0  0  0  # atno 6909 bound_to 6896
  145.1476  140.8812  143.3665 H   0  0  0  0  0  0  0  0  0  0  0  0  # atno 7974 bound_to 7965
  155.7005  140.3495  155.4931 H   0  0  0  0  0  0  0  0  0  0  0  0  # atno 8008 bound_to 7997
  155.9444  140.1107  157.1051 H   0  0  0  0  0  0  0  0  0  0  0  0  # atno 8009 bound_to 7997
  154.4109  140.1206  156.4956 H   0  0  0  0  0  0  0  0  0  0  0  0  # atno 8010 bound_to 7997
  139.8110  143.7702  152.2663 H   0  0  0  0  0  0  0  0  0  0  0  0  # atno 10167 bound_to 10162
  156.0481  130.4303  150.2071 H   0  0  0  0  0  0  0  0  0  0  0  0  # atno 10718 bound_to 10713
  153.7099  135.6951  153.5040 H   0  0  0  0  0  0  0  0  0  0  0  0  # atno 10763 bound_to 10752
  153.2280  135.4347  155.0563 H   0  0  0  0  0  0  0  0  0  0  0  0  # atno 10764 bound_to 10752
  154.8318  135.3477  154.6636 H   0  0  0  0  0  0  0  0  0  0  0  0  # atno 10765 bound_to 10752
  139.9139  134.7910  156.1891 H   0  0  0  0  0  0  0  0  0  0  0  0  # atno 11005 bound_to 11000
  145.0465  139.3216  143.5950 LP  0  0  0  0  0  0  0  0  0  0  0  0  # atno 17320 bound_to 7965
  146.3498  139.9858  142.8691 LP  0  0  0  0  0  0  0  0  0  0  0  0  # atno 17321 bound_to 7965
  139.7851  144.7430  151.0033 LP  0  0  0  0  0  0  0  0  0  0  0  0  # atno 17342 bound_to 10162
  140.7818  143.4501  151.0426 LP  0  0  0  0  0  0  0  0  0  0  0  0  # atno 17343 bound_to 10162
  157.0158  130.9964  151.3353 LP  0  0  0  0  0  0  0  0  0  0  0  0  # atno 17370 bound_to 10713
  157.5379  130.8100  149.7993 LP  0  0  0  0  0  0  0  0  0  0  0  0  # atno 17371 bound_to 10713
  141.0595  133.6849  156.1924 LP  0  0  0  0  0  0  0  0  0  0  0  0  # atno 17394 bound_to 11000
  140.6684  134.4894  157.5586 LP  0  0  0  0  0  0  0  0  0  0  0  0  # atno 17395 bound_to 11000

$$$$
