#       Name:                AV-unprocessed.smi:1933
#       Creating user name   scv26
#       Creation time:       Fri Mar 27 09:56:51 2020


#       File generated by GOLD software.
#

@<TRIPOS>MOLECULE
AV-unprocessed.smi:1933
    55    57     1
SMALL
NO_CHARGES


@<TRIPOS>ATOM
      1 ****        -2.8143   0.2033   0.7469 O.2            1 S1                 0.0000
      2 ****        -2.1704   0.9206  -0.0190 C.2            1 S1                 0.0000
      3 ****        -1.0880   0.5019  -0.6908 N.am           1 S1                 0.0000
      4 ****        -0.5106  -0.8367  -0.6158 C.3            1 S1                 0.0000
      5 ****         1.0408  -0.8175  -0.5538 C.3            1 S1                 0.0000
      6 ****         1.6099  -0.1655   0.7390 C.3            1 S1                 0.0000
      7 ****         3.1250  -0.2358   0.8569 C.3            1 S1                 0.0000
      8 ****         3.4152   0.8317   1.9023 C.3            1 S1                 0.0000
      9 ****         2.4879   1.8692   1.6207 O.3            1 S1                 0.0000
     10 ****         1.3871   1.3484   0.8813 C.3            1 S1                 0.0000
     11 ****         1.6203  -2.1841  -0.7286 N.4            1 S1                 1.0000
     12 ****         1.0893  -3.2419   0.1692 C.3            1 S1                 0.0000
     13 ****         1.9066  -4.5328  -0.0024 C.3            1 S1                 0.0000
     14 ****         1.8668  -4.9426  -1.3644 O.3            1 S1                 0.0000
     15 ****         2.4389  -3.9720  -2.2336 C.3            1 S1                 0.0000
     16 ****         1.6488  -2.6558  -2.1346 C.3            1 S1                 0.0000
     17 ****        -2.4433   2.2086  -0.2925 N.am           1 S1                 0.0000
     18 ****        -3.4874   3.0148   0.2348 C.ar           1 S1                 0.0000
     19 ****        -3.5235   4.3414  -0.2513 C.ar           1 S1                 0.0000
     20 ****        -4.5217   5.2214   0.2100 C.ar           1 S1                 0.0000
     21 ****        -5.4594   4.7519   1.1469 C.ar           1 S1                 0.0000
     22 ****        -5.3517   3.4177   1.5806 C.ar           1 S1                 0.0000
     23 ****        -4.3960   2.5727   1.1398 N.ar           1 S1                 0.0000
     24 ****        -0.6271   1.1614  -1.3006 H              1 S1                 0.0000
     25 ****        -0.9056  -1.3703   0.2498 H              1 S1                 0.0000
     26 ****        -0.8543  -1.3787  -1.4963 H              1 S1                 0.0000
     27 ****         1.4008  -0.2176  -1.3914 H              1 S1                 0.0000
     28 ****         1.1795  -0.6516   1.6157 H              1 S1                 0.0000
     29 ****         3.4890  -1.2189   1.1572 H              1 S1                 0.0000
     30 ****         3.5975   0.0309  -0.0899 H              1 S1                 0.0000
     31 ****         3.2225   0.4477   2.9049 H              1 S1                 0.0000
     32 ****         4.4438   1.1913   1.8648 H              1 S1                 0.0000
     33 ****         1.3746   1.8396  -0.0923 H              1 S1                 0.0000
     34 ****         0.4496   1.5781   1.3875 H              1 S1                 0.0000
     35 ****         1.1318  -2.9195   1.2091 H              1 S1                 0.0000
     36 ****         0.0442  -3.4487  -0.0637 H              1 S1                 0.0000
     37 ****         2.9397  -4.3868   0.3177 H              1 S1                 0.0000
     38 ****         1.4898  -5.3266   0.6178 H              1 S1                 0.0000
     39 ****         3.4892  -3.8157  -1.9820 H              1 S1                 0.0000
     40 ****         2.4095  -4.3514  -3.2552 H              1 S1                 0.0000
     41 ****         0.6333  -2.8073  -2.5014 H              1 S1                 0.0000
     42 ****         2.1135  -1.9042  -2.7737 H              1 S1                 0.0000
     43 ****        -1.8316   2.6690  -0.9500 H              1 S1                 0.0000
     44 ****        -2.7957   4.6865  -0.9712 H              1 S1                 0.0000
     45 ****        -4.5666   6.2386  -0.1496 H              1 S1                 0.0000
     46 ****        -6.2398   5.3965   1.5235 H              1 S1                 0.0000
     47 ****        -6.0507   3.0180   2.3002 H              1 S1                 0.0000
     48 ****         2.5923  -2.0795  -0.4746 H              1 S1                 0.0000
     49 ****        -2.5373  -0.7462   0.8943 LP             1 S1                 0.0000
     50 ****        -3.6143   0.5702   1.2217 LP             1 S1                 0.0000
     51 ****         2.9403   2.5816   1.0843 LP             1 S1                 0.0000
     52 ****         2.1557   2.2591   2.4796 LP             1 S1                 0.0000
     53 ****         0.9137  -5.0900  -1.6288 LP             1 S1                 0.0000
     54 ****         2.3750  -5.7987  -1.4583 LP             1 S1                 0.0000
     55 ****        -4.3582   1.6318   1.4765 LP             1 S1                 0.0000
@<TRIPOS>BOND
    1    1    2 2     
    2    2    3 am    
    3    2   17 am    
    4    3    4 1     
    5    3   24 1     
    6    4    5 1     
    7    4   25 1     
    8    4   26 1     
    9    5    6 1     
   10    5   11 1     
   11    5   27 1     
   12    6   10 1     
   13    6    7 1     
   14    6   28 1     
   15    7    8 1     
   16    7   29 1     
   17    7   30 1     
   18    8    9 1     
   19    8   31 1     
   20    8   32 1     
   21    9   10 1     
   22   10   33 1     
   23   10   34 1     
   24   11   16 1     
   25   11   12 1     
   26   11   48 1     
   27   12   13 1     
   28   12   35 1     
   29   12   36 1     
   30   13   14 1     
   31   13   37 1     
   32   13   38 1     
   33   14   15 1     
   34   15   16 1     
   35   15   39 1     
   36   15   40 1     
   37   16   41 1     
   38   16   42 1     
   39   17   18 1     
   40   17   43 1     
   41   18   23 ar    
   42   18   19 ar    
   43   19   20 ar    
   44   19   44 1     
   45   20   21 ar    
   46   20   45 1     
   47   21   22 ar    
   48   21   46 1     
   49   22   23 ar    
   50   22   47 1     
   51    1   49 1     
   52    1   50 1     
   53    9   51 1     
   54    9   52 1     
   55   14   53 1     
   56   14   54 1     
   57   23   55 1     
@<TRIPOS>SUBSTRUCTURE
      1 S1             1
@<TRIPOS>SET
LONE_PAIRS      STATIC     ATOMS    <user>   **** ""
7 49 50 51 52 53 54 55
DONOR_HYDROGENS      STATIC     ATOMS    <user>   **** ""
3 24 48 43
ATOM$BLUE        STATIC     ATOMS    COLORGROUP SYSTEM
7 49 50 51 52 53 54 55
ATOM$RED        STATIC     ATOMS    COLORGROUP SYSTEM
3 24 48 43
