AV-unprocessed.smi:160|AV-procd|sdf|1356|dock6
  -GOLD-   2262019 63D 1   1.00000     0.00000
 Structure written by MMmdl.
 29 30  0  0  0  0  0  0  0  0  1 V2000
  150.0056  138.4646  153.1178 N   0  0  0  0  0  0  0  0  0  0  0  0
  150.5376  138.6869  154.3242 C   0  0  0  0  0  0  0  0  0  0  0  0
  150.9362  139.7970  154.6731 O   0  0  0  0  0  0  0  0  0  0  0  0
  150.6255  137.4978  155.2412 C   0  0  0  0  0  0  0  0  0  0  0  0
  151.4069  137.5273  156.3612 N   0  0  0  0  0  0  0  0  0  0  0  0
  151.1674  136.3038  156.8153 C   0  0  0  0  0  0  0  0  0  0  0  0
  150.3146  135.5978  156.0629 N   0  0  0  0  0  0  0  0  0  0  0  0
  149.8042  134.1968  156.1955 C   0  0  1  0  0  0  0  0  0  0  0  0
  149.0575  133.8996  155.0538 O   0  0  0  0  0  0  0  0  0  0  0  0
  149.8891  133.2424  154.1036 C   0  0  2  0  0  0  0  0  0  0  0  0
  149.0546  132.5429  153.0162 C   0  0  0  0  0  0  0  0  0  0  0  0
  148.3800  133.5031  152.2315 O   0  0  0  0  0  0  0  0  0  0  0  0
  150.7162  132.3183  155.0060 C   0  0  2  0  0  0  0  0  0  0  0  0
  149.9795  131.1491  155.3280 O   0  0  0  0  0  0  0  0  0  0  0  0
  150.9823  133.2023  156.2257 C   0  0  2  0  0  0  0  0  0  0  0  0
  151.0638  132.4653  157.4315 O   0  0  0  0  0  0  0  0  0  0  0  0
  149.9544  136.3682  155.0067 N   0  0  0  0  0  0  0  0  0  0  0  0
  149.1821  134.2076  157.0914 H   0  0  0  0  0  0  0  0  0  0  0  0
  150.5629  133.9707  153.6475 H   0  0  0  0  0  0  0  0  0  0  0  0
  151.6453  132.0108  154.5249 H   0  0  0  0  0  0  0  0  0  0  0  0
  151.9204  133.7403  156.0794 H   0  0  0  0  0  0  0  0  0  0  0  0
  149.9218  139.2230  152.4570 H   0  0  0  0  0  0  0  0  0  0  0  0
  149.6926  137.5357  152.8754 H   0  0  0  0  0  0  0  0  0  0  0  0
  151.6232  135.9173  157.7154 H   0  0  0  0  0  0  0  0  0  0  0  0
  149.7056  131.9760  152.3501 H   0  0  0  0  0  0  0  0  0  0  0  0
  148.3409  131.8416  153.4500 H   0  0  0  0  0  0  0  0  0  0  0  0
  148.8332  134.3285  152.3125 H   0  0  0  0  0  0  0  0  0  0  0  0
  149.0606  131.3712  155.3380 H   0  0  0  0  0  0  0  0  0  0  0  0
  151.2068  131.5560  157.2170 H   0  0  0  0  0  0  0  0  0  0  0  0
  1  2  1  0  0  0  0
  1 22  1  0  0  0  0
  1 23  1  0  0  0  0
  2  3  2  0  0  0  0
  2  4  1  0  0  0  0
  4 17  2  0  0  0  0
  4  5  1  0  0  0  0
  5  6  2  0  0  0  0
  6  7  1  0  0  0  0
  6 24  1  0  0  0  0
  7  8  1  0  0  0  0
  7 17  1  0  0  0  0
  8 18  1  0  0  0  0
  8 15  1  0  0  0  0
  8  9  1  0  0  0  0
  9 10  1  0  0  0  0
 10 19  1  0  0  0  0
 10 11  1  0  0  0  0
 10 13  1  0  0  0  0
 11 12  1  0  0  0  0
 11 25  1  0  0  0  0
 11 26  1  0  0  0  0
 12 27  1  0  0  0  0
 13 20  1  0  0  0  0
 13 14  1  0  0  0  0
 13 15  1  0  0  0  0
 14 28  1  0  0  0  0
 15 21  1  0  0  0  0
 15 16  1  0  0  0  0
 16 29  1  0  0  0  0
M  END
> <s_m_source_file>
AV-unprocessed.smi

> <i_m_source_file_index>
160

> <i_lp_mmshare_version>
43012

> <i_f3d_flags>
0

> <s_epik_input>
W05IMl1DKD1PKWMxbltjSF1uKG4xKVtDQEBIXTJPW0NASF0oW0NIMl1bT0hdKVtDQEBIXShbT0hdKVtDQEhdMltPSF0=

> <s_epik_cmdline>
J2VwaWtfcHl0aG9uJywgJy1waCcsICc3LjAnLCAnLXRuJywgJzgnLCAnLW1hJywgJzIwMCcsICctbWV0YWxfYmluZGluZycsICctaW1hZScsICc8aW5maWxlLm1hZT4nLCAnLW9tYWUnLCAnPG91dGZpbGUubWFlPic=

> <r_lp_tautomer_probability>
1

> <r_epik_Ionization_Penalty>
1.06932e-05

> <r_epik_Ionization_Penalty_Charging>
0

> <r_epik_Ionization_Penalty_Neutral>
1.06932e-05

> <r_epik_State_Penalty>
-0

> <r_epik_Charging_Adjusted_Penalty>
0

> <i_epik_Tot_Q>
0

> <i_epik_Tot_abs_Q>
0

> <r_epik_Metal_State_Penalty>
0.0142097

> <b_epik_Metal_Only>
0

> <s_epik_Chemistry_Notes>
This compound contains an acetal/aminal-like group ( X-CH(R)-Y where X, Y are N, S, or O) that may be acid/base labile, releasing an aldehyde.

> <s_lp_Force_Field>
OPLS_2005

> <r_lp_Energy>
42.1222

> <b_lp_Chiralities_Consistent>
1

> <s_lp_Variant>
AV-unprocessed.smi:160-14

> <Gold.Version>
5.8.1

> <Gold.Id.Protein>
6NUR|6NUR_protein|mol2

> <Gold.PLP.Fitness>
39.3991

> <Gold.PLP.PLP>
-24.7623

> <Gold.PLP.part.hbond>
-5.0000

> <Gold.PLP.part.metal>
0.0000

> <Gold.PLP.part.buried>
-4.9257

> <Gold.PLP.part.nonpolar>
-14.7177

> <Gold.PLP.part.repulsive>
0.3757

> <Gold.PLP.ligand.clash>
0.0000

> <Gold.PLP.ligand.torsion>
0.1466

> <Gold.PLP.Chemscore.Hbond>
4.9670

> <Gold.PLP.Chemscore.CHOScore>
0.0000

> <Gold.PLP.Chemscore.Metal>
0.0000

> <Gold.Chemscore.Hbonds>
donor molecule, donor type, donor heavy atom, donor atom, acceptor molecule, acceptor atom, score
      L1  H     1    22       P1  7957  1.00
      L1  H     1    23       P1  7948  1.00
      L1  H    12    27       P1  7948  0.05
      P1  H  6896  6909       L1    16  1.00
      P1  H  7989  7998       L1     3  1.00

> <Gold.PLP.Chemscore.Internal.Correction>
0.0290

> <Gold.Rescore>
     Score         DG    S(hbond)    S(metal)    S(lipo)     H(rot)  DE(clash)    DE(int)     intcor
     12.41     -12.52       4.44        0.00      22.16       4.06       0.00       0.12       ----

> <Gold.Chemscore.Fitness>
12.4051

> <Gold.Chemscore.DG>
-12.5208

> <Gold.Chemscore.ZeroCoef>
-5.4800

> <Gold.Chemscore.Hbond>
4.4434

> <Gold.Chemscore.Metal>
0.0000

> <Gold.Chemscore.Lipo>
22.1645

> <Gold.Chemscore.Internal_Hbond>
0.0000

> <Gold.Chemscore.DEClash>
0.0000

> <Gold.Chemscore.DEInternal>
0.1157

> <Gold.Chemscore.Rot>
4.0600

> <Gold.Chemscore.Internal.Correction>
   9.000000E+99

> <Gold.Chemscore.Hbonds>
donor molecule, donor type, donor heavy atom, donor atom, acceptor molecule, acceptor atom, score
      L1  H     1    22       P1  7957  0.75
      L1  H     1    23       P1  7948  0.55
      P1  H  6896  6909       L1    16  0.93
      P1  H  7989  7998       L1     3  0.97

> <Gold.Chemscore.Hbond.Weighted>
-14.8411

> <Gold.Chemscore.Metal.Weighted>
-0.0000

> <Gold.Chemscore.Lipo.Weighted>
-2.5932

> <Gold.Chemscore.Internal_Hbond.Weighted>
0.0000

> <Gold.Chemscore.DEClash.Weighted>
0.0000

> <Gold.Chemscore.DEInternal.Weighted>
0.1157

> <Gold.Chemscore.Rot.Weighted>
10.3936

> <Gold.Chemscore.Internal.Correction.Weighted>
   9.000000E+99

> <Gold.Protein.RotatedTorsions>
[ 6907 6896 6895 6894 ] final  -46.22 input  -60.11 | X-H torsion
[ 7974 7965 7964 7962 ] final  -60.71 input  175.53 | X-H torsion
[ 8008 7997 7996 7995 ] final -119.06 input   59.86 | X-H torsion
[ 10167 10162 10161 10158 ] final   26.19 input  -65.29 | X-H torsion
[ 10718 10713 10712 10709 ] final -178.43 input   66.30 | X-H torsion
[ 10763 10752 10751 10750 ] final -124.06 input  -60.55 | X-H torsion
[ 11005 11000 10999 10996 ] final  -41.94 input  -57.11 | X-H torsion

> <Gold.Protein.ActiveResidues>
 VAL166  LYS551  ARG553  GLY616  TRP617  ASP618  TYR619  PRO620  LYS621  CYS622 
 ASP623  PHE694  ASN695  SER759  ASP760  ASP761  ALA762  ILE779  LEU786  VAL792 
 PHE793  MET794  SER795  GLU796  ALA797  LYS798  CYS799  TRP800  GLU811  SER814 

> <Gold.Protein.RotatedAtoms>
  150.9136  134.8553  159.7441 H   0  0  0  0  0  0  0  0  0  0  0  0  # atno 6907 bound_to 6896
  152.4957  134.4322  159.9526 H   0  0  0  0  0  0  0  0  0  0  0  0  # atno 6908 bound_to 6896
  151.4362  133.3616  159.2810 H   0  0  0  0  0  0  0  0  0  0  0  0  # atno 6909 bound_to 6896
  145.8122  140.8591  143.0176 H   0  0  0  0  0  0  0  0  0  0  0  0  # atno 7974 bound_to 7965
  155.1097  140.0397  157.2720 H   0  0  0  0  0  0  0  0  0  0  0  0  # atno 8008 bound_to 7997
  154.6695  140.2609  155.6997 H   0  0  0  0  0  0  0  0  0  0  0  0  # atno 8009 bound_to 7997
  156.2652  140.2800  156.1198 H   0  0  0  0  0  0  0  0  0  0  0  0  # atno 8010 bound_to 7997
  140.5043  144.0264  150.6345 H   0  0  0  0  0  0  0  0  0  0  0  0  # atno 10167 bound_to 10162
  156.8441  130.9696  151.3097 H   0  0  0  0  0  0  0  0  0  0  0  0  # atno 10718 bound_to 10713
  154.8718  135.4076  154.3045 H   0  0  0  0  0  0  0  0  0  0  0  0  # atno 10763 bound_to 10752
  153.3899  135.7014  153.6508 H   0  0  0  0  0  0  0  0  0  0  0  0  # atno 10764 bound_to 10752
  153.5295  135.3670  155.2640 H   0  0  0  0  0  0  0  0  0  0  0  0  # atno 10765 bound_to 10752
  141.0281  133.6832  156.2526 H   0  0  0  0  0  0  0  0  0  0  0  0  # atno 11005 bound_to 11000
  144.6756  140.0412  143.7481 LP  0  0  0  0  0  0  0  0  0  0  0  0  # atno 17320 bound_to 7965
  145.9765  139.2908  143.1068 LP  0  0  0  0  0  0  0  0  0  0  0  0  # atno 17321 bound_to 7965
  140.3569  143.2930  152.0427 LP  0  0  0  0  0  0  0  0  0  0  0  0  # atno 17342 bound_to 10162
  139.4880  144.6332  151.7027 LP  0  0  0  0  0  0  0  0  0  0  0  0  # atno 17343 bound_to 10162
  157.6339  130.8751  149.9324 LP  0  0  0  0  0  0  0  0  0  0  0  0  # atno 17370 bound_to 10713
  156.0864  130.3667  150.0479 LP  0  0  0  0  0  0  0  0  0  0  0  0  # atno 17371 bound_to 10713
  140.6456  134.5121  157.5573 LP  0  0  0  0  0  0  0  0  0  0  0  0  # atno 17394 bound_to 11000
  139.9189  134.8189  156.1274 LP  0  0  0  0  0  0  0  0  0  0  0  0  # atno 17395 bound_to 11000

$$$$
