AV-unprocessed.smi:870|AV-procd|sdf|4009|dock8
  -GOLD-   22720 1493D 1   1.00000     0.00000
 Structure written by MMmdl.
 47 49  0  0  0  0  0  0  0  0  2 V2000
  140.4083  135.8456  155.1776 C   0  0  0  0  0  0  0  0  0  0  0  0
  141.2950  135.0989  154.3629 O   0  0  0  0  0  0  0  0  0  0  0  0
  142.5349  135.7584  154.1644 C   0  0  0  0  0  0  0  0  0  0  0  0
  143.3829  135.0587  153.1534 C   0  0  0  0  0  0  0  0  0  0  0  0
  143.0025  134.0082  152.3724 N   0  3  0  0  0  0  0  0  0  0  0  0
  144.0624  133.6195  151.5526 C   0  0  0  0  0  0  0  0  0  0  0  0
  144.1537  132.6103  150.5991 C   0  0  0  0  0  0  0  0  0  0  0  0
  145.3890  132.4805  149.9313 C   0  0  0  0  0  0  0  0  0  0  0  0
  146.4727  133.3351  150.2196 C   0  0  0  0  0  0  0  0  0  0  0  0
  146.3684  134.3543  151.1890 C   0  0  0  0  0  0  0  0  0  0  0  0
  145.1442  134.4753  151.8468 C   0  0  0  0  0  0  0  0  0  0  0  0
  144.6787  135.3461  152.8400 N   0  0  0  0  0  0  0  0  0  0  0  0
  145.5727  136.3800  153.3855 C   0  0  0  0  0  0  0  0  0  0  0  0
  145.5271  137.6958  152.5829 C   0  0  2  0  0  0  0  0  0  0  0  0
  146.2922  137.5716  151.4013 O   0  0  0  0  0  0  0  0  0  0  0  0
  146.0617  138.8896  153.3864 C   0  0  0  0  0  0  0  0  0  0  0  0
  147.4156  138.6339  153.7344 O   0  0  0  0  0  0  0  0  0  0  0  0
  148.1670  139.6641  154.2607 C   0  0  0  0  0  0  0  0  0  0  0  0
  147.6622  140.9697  154.4897 C   0  0  0  0  0  0  0  0  0  0  0  0
  148.4894  141.9718  155.0313 C   0  0  0  0  0  0  0  0  0  0  0  0
  149.8283  141.6850  155.3514 C   0  0  0  0  0  0  0  0  0  0  0  0
  150.3400  140.3938  155.1285 C   0  0  0  0  0  0  0  0  0  0  0  0
  149.5153  139.3860  154.5858 C   0  0  0  0  0  0  0  0  0  0  0  0
  150.0833  137.9990  154.3494 C   0  0  0  0  0  0  0  0  0  0  0  0
  139.4732  135.2988  155.2984 H   0  0  0  0  0  0  0  0  0  0  0  0
  140.1772  136.8113  154.7263 H   0  0  0  0  0  0  0  0  0  0  0  0
  140.8304  136.0138  156.1691 H   0  0  0  0  0  0  0  0  0  0  0  0
  142.3613  136.7817  153.8292 H   0  0  0  0  0  0  0  0  0  0  0  0
  143.0850  135.8090  155.1052 H   0  0  0  0  0  0  0  0  0  0  0  0
  143.3243  131.9556  150.3752 H   0  0  0  0  0  0  0  0  0  0  0  0
  145.5076  131.7110  149.1822 H   0  0  0  0  0  0  0  0  0  0  0  0
  147.4032  133.2074  149.6857 H   0  0  0  0  0  0  0  0  0  0  0  0
  147.2043  135.0059  151.3968 H   0  0  0  0  0  0  0  0  0  0  0  0
  145.2610  136.5615  154.4148 H   0  0  0  0  0  0  0  0  0  0  0  0
  146.5876  135.9867  153.4455 H   0  0  0  0  0  0  0  0  0  0  0  0
  144.4995  137.9053  152.2836 H   0  0  0  0  0  0  0  0  0  0  0  0
  146.9362  136.8926  151.5322 H   0  0  0  0  0  0  0  0  0  0  0  0
  145.9781  139.8054  152.7983 H   0  0  0  0  0  0  0  0  0  0  0  0
  145.4707  139.0141  154.2955 H   0  0  0  0  0  0  0  0  0  0  0  0
  146.6406  141.2300  154.2589 H   0  0  0  0  0  0  0  0  0  0  0  0
  148.0949  142.9628  155.2013 H   0  0  0  0  0  0  0  0  0  0  0  0
  150.4623  142.4544  155.7670 H   0  0  0  0  0  0  0  0  0  0  0  0
  151.3697  140.1810  155.3756 H   0  0  0  0  0  0  0  0  0  0  0  0
  151.1298  137.9388  154.6497 H   0  0  0  0  0  0  0  0  0  0  0  0
  150.0184  137.7389  153.2926 H   0  0  0  0  0  0  0  0  0  0  0  0
  149.5237  137.2582  154.9214 H   0  0  0  0  0  0  0  0  0  0  0  0
  142.0809  133.5912  152.4030 H   0  0  0  0  0  0  0  0  0  0  0  0
  1  2  1  0  0  0  0
  1 25  1  0  0  0  0
  1 26  1  0  0  0  0
  1 27  1  0  0  0  0
  2  3  1  0  0  0  0
  3  4  1  0  0  0  0
  3 28  1  0  0  0  0
  3 29  1  0  0  0  0
  4 12  1  0  0  0  0
  4  5  2  0  0  0  0
  5  6  1  0  0  0  0
  5 47  1  0  0  0  0
  6 11  2  0  0  0  0
  6  7  1  0  0  0  0
  7  8  2  0  0  0  0
  7 30  1  0  0  0  0
  8  9  1  0  0  0  0
  8 31  1  0  0  0  0
  9 10  2  0  0  0  0
  9 32  1  0  0  0  0
 10 11  1  0  0  0  0
 10 33  1  0  0  0  0
 11 12  1  0  0  0  0
 12 13  1  0  0  0  0
 13 14  1  0  0  0  0
 13 34  1  0  0  0  0
 13 35  1  0  0  0  0
 14 15  1  0  0  0  0
 14 16  1  0  0  0  0
 14 36  1  0  0  0  0
 15 37  1  0  0  0  0
 16 17  1  0  0  0  0
 16 38  1  0  0  0  0
 16 39  1  0  0  0  0
 17 18  1  0  0  0  0
 18 23  1  0  0  0  0
 18 19  2  0  0  0  0
 19 20  1  0  0  0  0
 19 40  1  0  0  0  0
 20 21  2  0  0  0  0
 20 41  1  0  0  0  0
 21 22  1  0  0  0  0
 21 42  1  0  0  0  0
 22 23  2  0  0  0  0
 22 43  1  0  0  0  0
 23 24  1  0  0  0  0
 24 44  1  0  0  0  0
 24 45  1  0  0  0  0
 24 46  1  0  0  0  0
M  CHG  1   5   1
M  END
> <s_m_source_file>
AV-unprocessed.smi

> <i_m_source_file_index>
870

> <i_lp_mmshare_version>
43012

> <i_f3d_flags>
0

> <s_epik_input>
W2NIXTFbY0hdW2NIXVtjSF1jKGMxMiluKGMobjIpW0NIMl1PW0NIM10pW0NIMl1bQ0BIXShbT0hdKVtDSDJdT2MzW2NIXVtjSF1bY0hdW2NIXWMzW0NIM10=

> <s_epik_cmdline>
J2VwaWtfcHl0aG9uJywgJy1waCcsICc3LjAnLCAnLXRuJywgJzgnLCAnLW1hJywgJzIwMCcsICctbWV0YWxfYmluZGluZycsICctaW1hZScsICc8aW5maWxlLm1hZT4nLCAnLW9tYWUnLCAnPG91dGZpbGUubWFlPic=

> <r_lp_tautomer_probability>
1

> <r_epik_Ionization_Penalty>
1.55338

> <r_epik_Ionization_Penalty_Charging>
1.55338

> <r_epik_Ionization_Penalty_Neutral>
2.3993e-06

> <r_epik_State_Penalty>
1.64778

> <r_epik_Charging_Adjusted_Penalty>
3.20115

> <i_epik_Tot_Q>
1

> <i_epik_Tot_abs_Q>
1

> <r_epik_Metal_State_Penalty>
5.70266

> <b_epik_Metal_Only>
0

> <s_lp_Force_Field>
OPLS_2005

> <r_lp_Energy>
18.2102

> <b_lp_Chiralities_Consistent>
1

> <s_lp_Variant>
AV-unprocessed.smi:870-3

> <Gold.Version>
5.8.1

> <Gold.Id.Protein>
6NUR|6NUR_protein|mol2

> <Gold.PLP.Fitness>
47.9516

> <Gold.PLP.PLP>
-44.7265

> <Gold.PLP.part.hbond>
-2.6814

> <Gold.PLP.part.metal>
0.0000

> <Gold.PLP.part.buried>
-3.9061

> <Gold.PLP.part.nonpolar>
-39.3806

> <Gold.PLP.part.repulsive>
0.9535

> <Gold.PLP.ligand.clash>
0.0000

> <Gold.PLP.ligand.torsion>
0.6447

> <Gold.PLP.Chemscore.Hbond>
1.4657

> <Gold.PLP.Chemscore.CHOScore>
0.0000

> <Gold.PLP.Chemscore.Metal>
0.0000

> <Gold.Chemscore.Hbonds>
donor molecule, donor type, donor heavy atom, donor atom, acceptor molecule, acceptor atom, score
      L1  H    15    37       P1  7948  0.78

> <Gold.PLP.Chemscore.Internal.Correction>
0.1175

> <Gold.Rescore>
     Score         DG    S(hbond)    S(metal)    S(lipo)     H(rot)  DE(clash)    DE(int)     intcor
     14.85     -16.20       1.02        0.00     116.12       2.45       0.21       1.14       ----

> <Gold.Chemscore.Fitness>
14.8468

> <Gold.Chemscore.DG>
-16.2023

> <Gold.Chemscore.ZeroCoef>
-5.4800

> <Gold.Chemscore.Hbond>
1.0201

> <Gold.Chemscore.Metal>
0.0000

> <Gold.Chemscore.Lipo>
116.1165

> <Gold.Chemscore.Internal_Hbond>
0.0000

> <Gold.Chemscore.DEClash>
0.2149

> <Gold.Chemscore.DEInternal>
1.1407

> <Gold.Chemscore.Rot>
2.4494

> <Gold.Chemscore.Internal.Correction>
   9.000000E+99

> <Gold.Chemscore.Hbonds>
donor molecule, donor type, donor heavy atom, donor atom, acceptor molecule, acceptor atom, score
      L1  H    15    37       P1  7948  0.76

> <Gold.Chemscore.Hbond.Weighted>
-3.4072

> <Gold.Chemscore.Metal.Weighted>
-0.0000

> <Gold.Chemscore.Lipo.Weighted>
-13.5856

> <Gold.Chemscore.Internal_Hbond.Weighted>
0.0000

> <Gold.Chemscore.DEClash.Weighted>
0.2149

> <Gold.Chemscore.DEInternal.Weighted>
1.1407

> <Gold.Chemscore.Rot.Weighted>
6.2704

> <Gold.Chemscore.Internal.Correction.Weighted>
   9.000000E+99

> <Gold.Protein.RotatedTorsions>
[ 6907 6896 6895 6894 ] final -106.21 input  -60.11 | X-H torsion
[ 7974 7965 7964 7962 ] final  127.45 input  175.53 | X-H torsion
[ 8008 7997 7996 7995 ] final  -36.84 input   59.86 | X-H torsion
[ 10167 10162 10161 10158 ] final  -76.24 input  -65.29 | X-H torsion
[ 10718 10713 10712 10709 ] final -168.33 input   66.30 | X-H torsion
[ 10763 10752 10751 10750 ] final   29.78 input  -60.55 | X-H torsion
[ 11005 11000 10999 10996 ] final  124.15 input  -57.11 | X-H torsion

> <Gold.Protein.ActiveResidues>
 VAL166  LYS551  ARG553  GLY616  TRP617  ASP618  TYR619  PRO620  LYS621  CYS622 
 ASP623  PHE694  ASN695  SER759  ASP760  ASP761  ALA762  ILE779  LEU786  VAL792 
 PHE793  MET794  SER795  GLU796  ALA797  LYS798  CYS799  TRP800  GLU811  SER814 

> <Gold.Protein.RotatedAtoms>
  150.7377  134.0010  159.3637 H   0  0  0  0  0  0  0  0  0  0  0  0  # atno 6907 bound_to 6896
  151.7964  135.0719  160.0403 H   0  0  0  0  0  0  0  0  0  0  0  0  # atno 6908 bound_to 6896
  152.3171  133.5778  159.5756 H   0  0  0  0  0  0  0  0  0  0  0  0  # atno 6909 bound_to 6896
  145.0505  139.3887  143.5056 H   0  0  0  0  0  0  0  0  0  0  0  0  # atno 7974 bound_to 7965
  154.4065  140.1620  156.2439 H   0  0  0  0  0  0  0  0  0  0  0  0  # atno 8008 bound_to 7997
  155.9177  140.3423  155.6125 H   0  0  0  0  0  0  0  0  0  0  0  0  # atno 8009 bound_to 7997
  155.7260  140.0774  157.2300 H   0  0  0  0  0  0  0  0  0  0  0  0  # atno 8010 bound_to 7997
  140.4874  143.2388  151.7962 H   0  0  0  0  0  0  0  0  0  0  0  0  # atno 10167 bound_to 10162
  156.6953  130.9175  151.3074 H   0  0  0  0  0  0  0  0  0  0  0  0  # atno 10718 bound_to 10713
  153.0410  135.6480  154.0943 H   0  0  0  0  0  0  0  0  0  0  0  0  # atno 10763 bound_to 10752
  154.0649  135.2885  155.3320 H   0  0  0  0  0  0  0  0  0  0  0  0  # atno 10764 bound_to 10752
  154.6633  135.5383  153.8110 H   0  0  0  0  0  0  0  0  0  0  0  0  # atno 10765 bound_to 10752
  139.9345  134.9640  156.8367 H   0  0  0  0  0  0  0  0  0  0  0  0  # atno 11005 bound_to 11000
  146.3517  140.0152  142.8663 LP  0  0  0  0  0  0  0  0  0  0  0  0  # atno 17320 bound_to 7965
  145.1534  140.9635  143.4420 LP  0  0  0  0  0  0  0  0  0  0  0  0  # atno 17321 bound_to 7965
  139.4844  144.4694  151.9443 LP  0  0  0  0  0  0  0  0  0  0  0  0  # atno 17342 bound_to 10162
  140.3780  144.2771  150.5912 LP  0  0  0  0  0  0  0  0  0  0  0  0  # atno 17343 bound_to 10162
  157.6993  130.9316  150.0738 LP  0  0  0  0  0  0  0  0  0  0  0  0  # atno 17370 bound_to 10713
  156.1768  130.3648  149.9090 LP  0  0  0  0  0  0  0  0  0  0  0  0  # atno 17371 bound_to 10713
  140.6111  134.0081  155.7577 LP  0  0  0  0  0  0  0  0  0  0  0  0  # atno 17394 bound_to 11000
  141.0952  133.9854  157.3171 LP  0  0  0  0  0  0  0  0  0  0  0  0  # atno 17395 bound_to 11000

$$$$
