AV-unprocessed.smi:1320|AV-procd|sdf|5461|dock9
  -GOLD-   22720 5 33D 1   1.00000     0.00000
 Structure written by MMmdl.
 37 38  0  0  0  0  0  0  0  0  2 V2000
  147.6924  138.2733  151.7001 O   0  0  0  0  0  0  0  0  0  0  0  0
  146.5665  138.7245  151.9017 C   0  0  0  0  0  0  0  0  0  0  0  0
  145.4374  138.0789  151.5607 N   0  0  0  0  0  0  0  0  0  0  0  0
  145.3686  136.7652  150.9254 C   0  0  0  0  0  0  0  0  0  0  0  0
  144.4092  135.7976  151.6467 C   0  0  0  0  0  0  0  0  0  0  0  0
  144.5681  134.3460  151.2289 C   0  0  0  0  0  0  0  0  0  0  0  0
  145.7847  133.6501  151.3958 C   0  0  0  0  0  0  0  0  0  0  0  0
  145.8791  132.3120  150.9600 C   0  0  0  0  0  0  0  0  0  0  0  0
  144.7567  131.6986  150.3659 C   0  0  0  0  0  0  0  0  0  0  0  0
  143.5664  132.4400  150.2229 C   0  0  0  0  0  0  0  0  0  0  0  0
  143.5152  133.7192  150.6543 N   0  3  0  0  0  0  0  0  0  0  0  0
  146.3758  139.9227  152.4814 N   0  0  0  0  0  0  0  0  0  0  0  0
  147.3883  140.8648  152.9642 C   0  0  0  0  0  0  0  0  0  0  0  0
  148.3331  140.1789  153.9696 C   0  0  0  0  0  0  0  0  0  0  0  0
  148.4537  141.1350  155.1567 C   0  0  0  0  0  0  0  0  0  0  0  0
  147.1123  141.8591  155.1918 C   0  0  0  0  0  0  0  0  0  0  0  0
  146.7510  142.0504  153.7183 C   0  0  0  0  0  0  0  0  0  0  0  0
  144.5577  138.5255  151.7764 H   0  0  0  0  0  0  0  0  0  0  0  0
  145.0850  136.8610  149.8760 H   0  0  0  0  0  0  0  0  0  0  0  0
  146.3738  136.3435  150.9277 H   0  0  0  0  0  0  0  0  0  0  0  0
  144.5666  135.8677  152.7237 H   0  0  0  0  0  0  0  0  0  0  0  0
  143.3773  136.1066  151.4737 H   0  0  0  0  0  0  0  0  0  0  0  0
  146.6387  134.1372  151.8434 H   0  0  0  0  0  0  0  0  0  0  0  0
  146.8027  131.7646  151.0763 H   0  0  0  0  0  0  0  0  0  0  0  0
  144.8099  130.6757  150.0227 H   0  0  0  0  0  0  0  0  0  0  0  0
  142.6618  132.0530  149.7771 H   0  0  0  0  0  0  0  0  0  0  0  0
  145.4162  140.2075  152.6162 H   0  0  0  0  0  0  0  0  0  0  0  0
  147.9795  141.2395  152.1267 H   0  0  0  0  0  0  0  0  0  0  0  0
  147.9059  139.2373  154.3188 H   0  0  0  0  0  0  0  0  0  0  0  0
  149.3047  139.9476  153.5320 H   0  0  0  0  0  0  0  0  0  0  0  0
  148.6781  140.6183  156.0902 H   0  0  0  0  0  0  0  0  0  0  0  0
  149.2541  141.8528  154.9718 H   0  0  0  0  0  0  0  0  0  0  0  0
  146.3664  141.2261  155.6741 H   0  0  0  0  0  0  0  0  0  0  0  0
  147.1559  142.8007  155.7396 H   0  0  0  0  0  0  0  0  0  0  0  0
  147.1907  142.9816  153.3588 H   0  0  0  0  0  0  0  0  0  0  0  0
  145.6727  142.1309  153.5735 H   0  0  0  0  0  0  0  0  0  0  0  0
  142.6457  134.2391  150.5340 H   0  0  0  0  0  0  0  0  0  0  0  0
  1  2  2  0  0  0  0
  2  3  1  0  0  0  0
  2 12  1  0  0  0  0
  3  4  1  0  0  0  0
  3 18  1  0  0  0  0
  4  5  1  0  0  0  0
  4 19  1  0  0  0  0
  4 20  1  0  0  0  0
  5  6  1  0  0  0  0
  5 21  1  0  0  0  0
  5 22  1  0  0  0  0
  6 11  1  0  0  0  0
  6  7  2  0  0  0  0
  7  8  1  0  0  0  0
  7 23  1  0  0  0  0
  8  9  2  0  0  0  0
  8 24  1  0  0  0  0
  9 10  1  0  0  0  0
  9 25  1  0  0  0  0
 10 11  2  0  0  0  0
 10 26  1  0  0  0  0
 11 37  1  0  0  0  0
 12 13  1  0  0  0  0
 12 27  1  0  0  0  0
 13 17  1  0  0  0  0
 13 14  1  0  0  0  0
 13 28  1  0  0  0  0
 14 15  1  0  0  0  0
 14 29  1  0  0  0  0
 14 30  1  0  0  0  0
 15 16  1  0  0  0  0
 15 31  1  0  0  0  0
 15 32  1  0  0  0  0
 16 17  1  0  0  0  0
 16 33  1  0  0  0  0
 16 34  1  0  0  0  0
 17 35  1  0  0  0  0
 17 36  1  0  0  0  0
M  CHG  1  11   1
M  END
> <s_m_source_file>
AV-unprocessed.smi

> <i_m_source_file_index>
1320

> <i_lp_mmshare_version>
43012

> <i_f3d_flags>
0

> <s_epik_input>
W0NIMl0xW0NIMl1bQ0gyXVtDSDJdW0NIXTFbTkhdQyg9TylbTkhdW0NIMl1bQ0gyXWMyW2NIXVtjSF1bY0hdW2NIXW4y

> <s_epik_cmdline>
J2VwaWtfcHl0aG9uJywgJy1waCcsICc3LjAnLCAnLXRuJywgJzgnLCAnLW1hJywgJzIwMCcsICctbWV0YWxfYmluZGluZycsICctaW1hZScsICc8aW5maWxlLm1hZT4nLCAnLW9tYWUnLCAnPG91dGZpbGUubWFlPic=

> <r_epik_Ionization_Penalty>
1.56194

> <r_epik_Ionization_Penalty_Charging>
1.56188

> <r_epik_Ionization_Penalty_Neutral>
5.76468e-05

> <r_epik_State_Penalty>
1.65696

> <r_epik_Charging_Adjusted_Penalty>
3.21884

> <i_epik_Tot_Q>
1

> <i_epik_Tot_abs_Q>
1

> <r_epik_Metal_State_Penalty>
1.69837

> <b_epik_Metal_Only>
0

> <s_lp_Force_Field>
OPLS_2005

> <r_lp_Energy>
32.6171

> <b_lp_Chiralities_Consistent>
1

> <s_lp_Variant>
AV-unprocessed.smi:1320-2

> <Gold.Version>
5.8.1

> <Gold.Id.Protein>
6NUR|6NUR_protein|mol2

> <Gold.PLP.Fitness>
43.4996

> <Gold.PLP.PLP>
-30.3251

> <Gold.PLP.part.hbond>
-4.6348

> <Gold.PLP.part.metal>
0.0000

> <Gold.PLP.part.buried>
-3.4245

> <Gold.PLP.part.nonpolar>
-30.3530

> <Gold.PLP.part.repulsive>
7.6027

> <Gold.PLP.ligand.clash>
0.0000

> <Gold.PLP.ligand.torsion>
0.1283

> <Gold.PLP.Chemscore.Hbond>
4.4729

> <Gold.PLP.Chemscore.CHOScore>
0.0000

> <Gold.PLP.Chemscore.Metal>
0.0000

> <Gold.Chemscore.Hbonds>
donor molecule, donor type, donor heavy atom, donor atom, acceptor molecule, acceptor atom, score
      L1  H     3    18       P1 10175  0.46
      L1  H    11    37       P1 10186  1.92
      L1  H    12    27       P1 10175  1.00
      P1  H  7954  7966       L1     1  1.00

> <Gold.PLP.Chemscore.Internal.Correction>
0.0125

> <Gold.Rescore>
     Score         DG    S(hbond)    S(metal)    S(lipo)     H(rot)  DE(clash)    DE(int)     intcor
     17.83     -22.69       3.42        0.00      84.49       1.59       4.67       0.20       ----

> <Gold.Chemscore.Fitness>
17.8279

> <Gold.Chemscore.DG>
-22.6946

> <Gold.Chemscore.ZeroCoef>
-5.4800

> <Gold.Chemscore.Hbond>
3.4155

> <Gold.Chemscore.Metal>
0.0000

> <Gold.Chemscore.Lipo>
84.4890

> <Gold.Chemscore.Internal_Hbond>
0.0000

> <Gold.Chemscore.DEClash>
4.6709

> <Gold.Chemscore.DEInternal>
0.1958

> <Gold.Chemscore.Rot>
1.5932

> <Gold.Chemscore.Internal.Correction>
   9.000000E+99

> <Gold.Chemscore.Hbonds>
donor molecule, donor type, donor heavy atom, donor atom, acceptor molecule, acceptor atom, score
      L1  H     3    18       P1 10175  0.46
      L1  H    11    37       P1 10186  0.60
      L1  H    12    27       P1 10175  0.91
      P1  H  7954  7966       L1     1  0.93

> <Gold.Chemscore.Hbond.Weighted>
-11.4079

> <Gold.Chemscore.Metal.Weighted>
-0.0000

> <Gold.Chemscore.Lipo.Weighted>
-9.8852

> <Gold.Chemscore.Internal_Hbond.Weighted>
0.0000

> <Gold.Chemscore.DEClash.Weighted>
4.6709

> <Gold.Chemscore.DEInternal.Weighted>
0.1958

> <Gold.Chemscore.Rot.Weighted>
4.0785

> <Gold.Chemscore.Internal.Correction.Weighted>
   9.000000E+99

> <Gold.Protein.RotatedTorsions>
[ 6907 6896 6895 6894 ] final    6.87 input  -60.11 | X-H torsion
[ 7974 7965 7964 7962 ] final    9.54 input  175.53 | X-H torsion
[ 8008 7997 7996 7995 ] final -132.79 input   59.86 | X-H torsion
[ 10167 10162 10161 10158 ] final  134.89 input  -65.29 | X-H torsion
[ 10718 10713 10712 10709 ] final  -98.84 input   66.30 | X-H torsion
[ 10763 10752 10751 10750 ] final -157.05 input  -60.55 | X-H torsion
[ 11005 11000 10999 10996 ] final  145.30 input  -57.11 | X-H torsion

> <Gold.Protein.ActiveResidues>
 VAL166  LYS551  ARG553  GLY616  TRP617  ASP618  TYR619  PRO620  LYS621  CYS622 
 ASP623  PHE694  ASN695  SER759  ASP760  ASP761  ALA762  ILE779  LEU786  VAL792 
 PHE793  MET794  SER795  GLU796  ALA797  LYS798  CYS799  TRP800  GLU811  SER814 

> <Gold.Protein.RotatedAtoms>
  151.6808  135.0962  160.0215 H   0  0  0  0  0  0  0  0  0  0  0  0  # atno 6907 bound_to 6896
  152.3837  133.6577  159.6190 H   0  0  0  0  0  0  0  0  0  0  0  0  # atno 6908 bound_to 6896
  150.7767  133.8988  159.3376 H   0  0  0  0  0  0  0  0  0  0  0  0  # atno 6909 bound_to 6896
  146.2402  139.9768  142.8440 H   0  0  0  0  0  0  0  0  0  0  0  0  # atno 7974 bound_to 7965
  155.3348  140.0469  157.3043 H   0  0  0  0  0  0  0  0  0  0  0  0  # atno 8008 bound_to 7997
  154.5309  140.2256  155.8772 H   0  0  0  0  0  0  0  0  0  0  0  0  # atno 8009 bound_to 7997
  156.1787  140.3079  155.9114 H   0  0  0  0  0  0  0  0  0  0  0  0  # atno 8010 bound_to 7997
  139.5238  144.6545  151.5204 H   0  0  0  0  0  0  0  0  0  0  0  0  # atno 10167 bound_to 10162
  156.0118  130.5256  150.6582 H   0  0  0  0  0  0  0  0  0  0  0  0  # atno 10718 bound_to 10713
  154.7666  135.3133  154.8274 H   0  0  0  0  0  0  0  0  0  0  0  0  # atno 10763 bound_to 10752
  153.9021  135.6814  153.4759 H   0  0  0  0  0  0  0  0  0  0  0  0  # atno 10764 bound_to 10752
  153.1272  135.4796  154.9225 H   0  0  0  0  0  0  0  0  0  0  0  0  # atno 10765 bound_to 10752
  140.0701  134.9156  157.1331 H   0  0  0  0  0  0  0  0  0  0  0  0  # atno 11005 bound_to 11000
  145.1629  140.9682  143.4366 LP  0  0  0  0  0  0  0  0  0  0  0  0  # atno 17320 bound_to 7965
  145.0099  139.3519  143.6125 LP  0  0  0  0  0  0  0  0  0  0  0  0  # atno 17321 bound_to 7965
  140.6364  143.8976  150.6651 LP  0  0  0  0  0  0  0  0  0  0  0  0  # atno 17342 bound_to 10162
  140.2296  143.3746  152.1576 LP  0  0  0  0  0  0  0  0  0  0  0  0  # atno 17343 bound_to 10162
  157.4330  131.0851  151.1020 LP  0  0  0  0  0  0  0  0  0  0  0  0  # atno 17370 bound_to 10713
  157.1587  130.6216  149.5604 LP  0  0  0  0  0  0  0  0  0  0  0  0  # atno 17371 bound_to 10713
  140.3640  134.2463  155.7184 LP  0  0  0  0  0  0  0  0  0  0  0  0  # atno 17394 bound_to 11000
  141.2008  133.7977  157.0470 LP  0  0  0  0  0  0  0  0  0  0  0  0  # atno 17395 bound_to 11000

$$$$
