AV-unprocessed.smi:1052|AV-procd|sdf|4616|dock6
  -GOLD-   22720 3113D 1   1.00000     0.00000
 Structure written by MMmdl.
 40 41  0  0  0  0  0  0  0  0  1 V2000
  150.0988  139.1393  153.7887 C   0  0  0  0  0  0  0  0  0  0  0  0
  151.1020  138.4578  154.7361 C   0  0  0  0  0  0  0  0  0  0  0  0
  150.9355  136.9278  154.6276 C   0  0  0  0  0  0  0  0  0  0  0  0
  152.5321  138.8794  154.3360 C   0  0  0  0  0  0  0  0  0  0  0  0
  150.7838  138.9152  156.0939 N   0  0  0  0  0  0  0  0  0  0  0  0
  151.6220  139.1266  157.1244 C   0  0  0  0  0  0  0  0  0  0  0  0
  152.8384  138.9429  157.0687 O   0  0  0  0  0  0  0  0  0  0  0  0
  150.9677  139.5980  158.4308 C   0  0  0  0  0  0  0  0  0  0  0  0
  151.6535  140.7486  159.0374 N   0  0  0  0  0  0  0  0  0  0  0  0
  152.7613  140.4107  159.7907 N   0  0  0  0  0  0  0  0  0  0  0  0
  153.4684  141.3194  160.3738 C   0  0  0  0  0  0  0  0  0  0  0  0
  154.6600  140.8652  161.1679 C   0  0  0  0  0  0  0  0  0  0  0  0
  155.8356  140.1766  160.5146 C   0  0  0  0  0  0  0  0  0  0  0  0
  154.9328  139.4051  161.4493 C   0  0  0  0  0  0  0  0  0  0  0  0
  153.0902  142.7121  160.2409 C   0  0  0  0  0  0  0  0  0  0  0  0
  152.0065  143.0604  159.5050 C   0  0  0  0  0  0  0  0  0  0  0  0
  151.5683  144.5147  159.3512 C   0  0  0  0  0  0  0  0  0  0  0  0
  151.7907  144.9380  158.1068 F   0  0  0  0  0  0  0  0  0  0  0  0
  150.2668  144.6471  159.6104 F   0  0  0  0  0  0  0  0  0  0  0  0
  152.2313  145.3201  160.1825 F   0  0  0  0  0  0  0  0  0  0  0  0
  151.2047  142.0237  158.8378 C   0  0  0  0  0  0  0  0  0  0  0  0
  150.2118  142.2678  158.1507 O   0  0  0  0  0  0  0  0  0  0  0  0
  150.2702  138.8468  152.7521 H   0  0  0  0  0  0  0  0  0  0  0  0
  150.1787  140.2261  153.8395 H   0  0  0  0  0  0  0  0  0  0  0  0
  149.0705  138.8733  154.0377 H   0  0  0  0  0  0  0  0  0  0  0  0
  149.9365  136.6146  154.9334 H   0  0  0  0  0  0  0  0  0  0  0  0
  151.6534  136.3922  155.2486 H   0  0  0  0  0  0  0  0  0  0  0  0
  151.0849  136.5887  153.6021 H   0  0  0  0  0  0  0  0  0  0  0  0
  152.7373  138.6295  153.2946 H   0  0  0  0  0  0  0  0  0  0  0  0
  153.2920  138.3804  154.9373 H   0  0  0  0  0  0  0  0  0  0  0  0
  152.6756  139.9546  154.4492 H   0  0  0  0  0  0  0  0  0  0  0  0
  149.8060  139.0976  156.2683 H   0  0  0  0  0  0  0  0  0  0  0  0
  149.9180  139.8413  158.2547 H   0  0  0  0  0  0  0  0  0  0  0  0
  150.9584  138.7549  159.1239 H   0  0  0  0  0  0  0  0  0  0  0  0
  154.8800  141.5697  161.9679 H   0  0  0  0  0  0  0  0  0  0  0  0
  155.7683  139.9480  159.4525 H   0  0  0  0  0  0  0  0  0  0  0  0
  156.8299  140.4333  160.8740 H   0  0  0  0  0  0  0  0  0  0  0  0
  155.3277  139.1487  162.4304 H   0  0  0  0  0  0  0  0  0  0  0  0
  154.2765  138.6604  161.0029 H   0  0  0  0  0  0  0  0  0  0  0  0
  153.6902  143.4589  160.7391 H   0  0  0  0  0  0  0  0  0  0  0  0
  1  2  1  0  0  0  0
  1 23  1  0  0  0  0
  1 24  1  0  0  0  0
  1 25  1  0  0  0  0
  2  3  1  0  0  0  0
  2  4  1  0  0  0  0
  2  5  1  0  0  0  0
  3 26  1  0  0  0  0
  3 27  1  0  0  0  0
  3 28  1  0  0  0  0
  4 29  1  0  0  0  0
  4 30  1  0  0  0  0
  4 31  1  0  0  0  0
  5  6  1  0  0  0  0
  5 32  1  0  0  0  0
  6  7  2  0  0  0  0
  6  8  1  0  0  0  0
  8  9  1  0  0  0  0
  8 33  1  0  0  0  0
  8 34  1  0  0  0  0
  9 21  1  0  0  0  0
  9 10  1  0  0  0  0
 10 11  2  0  0  0  0
 11 12  1  0  0  0  0
 11 15  1  0  0  0  0
 12 14  1  0  0  0  0
 12 13  1  0  0  0  0
 12 35  1  0  0  0  0
 13 14  1  0  0  0  0
 13 36  1  0  0  0  0
 13 37  1  0  0  0  0
 14 38  1  0  0  0  0
 14 39  1  0  0  0  0
 15 16  2  0  0  0  0
 15 40  1  0  0  0  0
 16 17  1  0  0  0  0
 16 21  1  0  0  0  0
 17 18  1  0  0  0  0
 17 19  1  0  0  0  0
 17 20  1  0  0  0  0
 21 22  2  0  0  0  0
M  END
> <s_m_source_file>
AV-unprocessed.smi

> <i_m_source_file_index>
1052

> <i_lp_mmshare_version>
43012

> <i_f3d_flags>
0

> <s_epik_input>
W0NIM11DKFtDSDNdKShbQ0gzXSlbTkhdQyg9TylbQ0gyXW4xbmMoW0NIXTJbQ0gyXVtDSDJdMilbY0hdYyhDKEYpKEYpRiljMT1P

> <s_epik_cmdline>
J2VwaWtfcHl0aG9uJywgJy1waCcsICc3LjAnLCAnLXRuJywgJzgnLCAnLW1hJywgJzIwMCcsICctbWV0YWxfYmluZGluZycsICctaW1hZScsICc8aW5maWxlLm1hZT4nLCAnLW9tYWUnLCAnPG91dGZpbGUubWFlPic=

> <r_lp_tautomer_probability>
1

> <r_epik_Ionization_Penalty>
2.47799e-08

> <r_epik_Ionization_Penalty_Charging>
1.49243e-10

> <r_epik_Ionization_Penalty_Neutral>
2.46307e-08

> <r_epik_State_Penalty>
-0

> <r_epik_Charging_Adjusted_Penalty>
1.49243e-10

> <i_epik_Tot_Q>
0

> <i_epik_Tot_abs_Q>
0

> <r_epik_Metal_State_Penalty>
-0

> <b_epik_Metal_Only>
0

> <s_lp_Force_Field>
OPLS_2005

> <r_lp_Energy>
24.0208

> <b_lp_Chiralities_Consistent>
1

> <s_lp_Variant>
AV-unprocessed.smi:1052-1

> <Gold.Version>
5.8.1

> <Gold.Id.Protein>
6NUR|6NUR_protein|mol2

> <Gold.PLP.Fitness>
46.7003

> <Gold.PLP.PLP>
-45.9843

> <Gold.PLP.part.hbond>
-1.0000

> <Gold.PLP.part.metal>
0.0000

> <Gold.PLP.part.buried>
-3.7008

> <Gold.PLP.part.nonpolar>
-40.2259

> <Gold.PLP.part.repulsive>
0.1189

> <Gold.PLP.ligand.clash>
0.1294

> <Gold.PLP.ligand.torsion>
1.3819

> <Gold.PLP.Chemscore.Hbond>
1.0000

> <Gold.PLP.Chemscore.CHOScore>
0.0000

> <Gold.PLP.Chemscore.Metal>
0.0000

> <Gold.Chemscore.Hbonds>
donor molecule, donor type, donor heavy atom, donor atom, acceptor molecule, acceptor atom, score
      P1  H  7997  8010       L1     7  1.00

> <Gold.PLP.Chemscore.Internal.Correction>
0.6091

> <Gold.Rescore>
     Score         DG    S(hbond)    S(metal)    S(lipo)     H(rot)  DE(clash)    DE(int)     intcor
     11.62     -16.43       0.97        0.00     102.93       1.69       0.45       4.36       ----

> <Gold.Chemscore.Fitness>
11.6166

> <Gold.Chemscore.DG>
-16.4324

> <Gold.Chemscore.ZeroCoef>
-5.4800

> <Gold.Chemscore.Hbond>
0.9690

> <Gold.Chemscore.Metal>
0.0000

> <Gold.Chemscore.Lipo>
102.9326

> <Gold.Chemscore.Internal_Hbond>
0.0000

> <Gold.Chemscore.DEClash>
0.4513

> <Gold.Chemscore.DEInternal>
4.3645

> <Gold.Chemscore.Rot>
1.6903

> <Gold.Chemscore.Internal.Correction>
   9.000000E+99

> <Gold.Chemscore.Hbonds>
donor molecule, donor type, donor heavy atom, donor atom, acceptor molecule, acceptor atom, score
      P1  H  7997  8010       L1     7  0.96

> <Gold.Chemscore.Hbond.Weighted>
-3.2364

> <Gold.Chemscore.Metal.Weighted>
-0.0000

> <Gold.Chemscore.Lipo.Weighted>
-12.0431

> <Gold.Chemscore.Internal_Hbond.Weighted>
0.0000

> <Gold.Chemscore.DEClash.Weighted>
0.4513

> <Gold.Chemscore.DEInternal.Weighted>
4.3645

> <Gold.Chemscore.Rot.Weighted>
4.3272

> <Gold.Chemscore.Internal.Correction.Weighted>
   9.000000E+99

> <Gold.Protein.RotatedTorsions>
[ 6907 6896 6895 6894 ] final -140.44 input  -60.11 | X-H torsion
[ 7974 7965 7964 7962 ] final -158.13 input  175.53 | X-H torsion
[ 8008 7997 7996 7995 ] final   44.16 input   59.86 | X-H torsion
[ 10167 10162 10161 10158 ] final -120.82 input  -65.29 | X-H torsion
[ 10718 10713 10712 10709 ] final -159.48 input   66.30 | X-H torsion
[ 10763 10752 10751 10750 ] final -151.65 input  -60.55 | X-H torsion
[ 11005 11000 10999 10996 ] final  161.60 input  -57.11 | X-H torsion

> <Gold.Protein.ActiveResidues>
 VAL166  LYS551  ARG553  GLY616  TRP617  ASP618  TYR619  PRO620  LYS621  CYS622 
 ASP623  PHE694  ASN695  SER759  ASP760  ASP761  ALA762  ILE779  LEU786  VAL792 
 PHE793  MET794  SER795  GLU796  ALA797  LYS798  CYS799  TRP800  GLU811  SER814 

> <Gold.Protein.RotatedAtoms>
  151.0607  133.5546  159.2634 H   0  0  0  0  0  0  0  0  0  0  0  0  # atno 6907 bound_to 6896
  151.2523  135.0625  159.9076 H   0  0  0  0  0  0  0  0  0  0  0  0  # atno 6908 bound_to 6896
  152.5397  134.0366  159.8102 H   0  0  0  0  0  0  0  0  0  0  0  0  # atno 6909 bound_to 6896
  144.7518  140.3870  143.6042 H   0  0  0  0  0  0  0  0  0  0  0  0  # atno 7974 bound_to 7965
  155.3148  140.3393  155.4243 H   0  0  0  0  0  0  0  0  0  0  0  0  # atno 8008 bound_to 7997
  156.1938  140.1707  156.8077 H   0  0  0  0  0  0  0  0  0  0  0  0  # atno 8009 bound_to 7997
  154.5474  140.0712  156.8595 H   0  0  0  0  0  0  0  0  0  0  0  0  # atno 8010 bound_to 7997
  140.0317  143.5241  152.2173 H   0  0  0  0  0  0  0  0  0  0  0  0  # atno 10167 bound_to 10162
  156.5687  130.8679  151.2831 H   0  0  0  0  0  0  0  0  0  0  0  0  # atno 10718 bound_to 10713
  154.8044  135.3255  154.7469 H   0  0  0  0  0  0  0  0  0  0  0  0  # atno 10763 bound_to 10752
  153.8130  135.6894  153.4842 H   0  0  0  0  0  0  0  0  0  0  0  0  # atno 10764 bound_to 10752
  153.1780  135.4597  154.9935 H   0  0  0  0  0  0  0  0  0  0  0  0  # atno 10765 bound_to 10752
  140.2174  134.8222  157.3184 H   0  0  0  0  0  0  0  0  0  0  0  0  # atno 11005 bound_to 11000
  145.6916  139.1640  143.2643 LP  0  0  0  0  0  0  0  0  0  0  0  0  # atno 17320 bound_to 7965
  146.1479  140.6967  142.9336 LP  0  0  0  0  0  0  0  0  0  0  0  0  # atno 17321 bound_to 7965
  139.6072  144.7599  151.3035 LP  0  0  0  0  0  0  0  0  0  0  0  0  # atno 17342 bound_to 10162
  140.7299  143.6895  150.7934 LP  0  0  0  0  0  0  0  0  0  0  0  0  # atno 17343 bound_to 10162
  157.7353  130.9760  150.2073 LP  0  0  0  0  0  0  0  0  0  0  0  0  # atno 17370 bound_to 10713
  156.2734  130.3724  149.8008 LP  0  0  0  0  0  0  0  0  0  0  0  0  # atno 17371 bound_to 10713
  140.1886  134.4400  155.7729 LP  0  0  0  0  0  0  0  0  0  0  0  0  # atno 17394 bound_to 11000
  141.2224  133.7016  156.7989 LP  0  0  0  0  0  0  0  0  0  0  0  0  # atno 17395 bound_to 11000

$$$$
