AV-unprocessed.smi:25|AV-procd|sdf|179|dock10
  -GOLD-   2262015443D 1   1.00000     0.00000
 Structure written by MMmdl.
 47 50  0  0  0  0  0  0  0  0  1 V2000
  150.8911  139.6240  156.2359 C   0  0  0  0  0  0  0  0  0  0  0  0
  150.7211  140.0569  157.7060 C   0  0  2  0  0  0  0  0  0  0  0  0
  151.3256  141.4570  157.9557 C   0  0  0  0  0  0  0  0  0  0  0  0
  152.4522  141.1788  158.9020 C   0  0  0  0  0  0  0  0  0  0  0  0
  153.3881  142.1171  159.3702 C   0  0  0  0  0  0  0  0  0  0  0  0
  154.4053  141.6717  160.2378 C   0  0  0  0  0  0  0  0  0  0  0  0
  154.4738  140.3112  160.6095 C   0  0  0  0  0  0  0  0  0  0  0  0
  153.5250  139.3825  160.1284 C   0  0  0  0  0  0  0  0  0  0  0  0
  152.4920  139.8355  159.2723 C   0  0  0  0  0  0  0  0  0  0  0  0
  151.4168  139.1403  158.6390 N   0  0  0  0  0  0  0  0  0  0  0  0
  150.9118  137.9016  158.8945 C   0  0  0  0  0  0  0  0  0  0  0  0
  151.4657  137.1441  159.6952 O   0  0  0  0  0  0  0  0  0  0  0  0
  149.6494  137.3875  158.1753 C   0  0  0  0  0  0  0  0  0  0  0  0
  149.0920  136.1449  158.7591 N   0  0  0  0  0  0  0  0  0  0  0  0
  149.1197  134.9577  157.9845 C   0  0  0  0  0  0  0  0  0  0  0  0
  149.5863  134.9496  156.8442 O   0  0  0  0  0  0  0  0  0  0  0  0
  148.5762  133.7691  158.6321 C   0  0  0  0  0  0  0  0  0  0  0  0
  148.5692  132.5969  157.9750 F   0  0  0  0  0  0  0  0  0  0  0  0
  148.0825  133.8259  159.8859 C   0  0  0  0  0  0  0  0  0  0  0  0
  148.0569  134.9918  160.6281 N   0  0  0  0  0  0  0  0  0  0  0  0
  147.5100  135.0079  162.0372 C   0  0  2  0  0  0  0  0  0  0  0  0
  147.0523  133.6024  162.4456 C   0  0  0  0  0  0  0  0  0  0  0  0
  145.5604  133.6708  162.1991 C   0  0  0  0  0  0  0  0  0  0  0  0
  145.2603  135.1247  162.5422 C   0  0  0  0  0  0  0  0  0  0  0  0
  146.3944  135.8508  162.0803 O   0  0  0  0  0  0  0  0  0  0  0  0
  148.5839  136.1812  160.0804 C   0  0  0  0  0  0  0  0  0  0  0  0
  148.6116  137.2207  160.7428 O   0  0  0  0  0  0  0  0  0  0  0  0
  150.4225  140.3427  155.5632 H   0  0  0  0  0  0  0  0  0  0  0  0
  150.4334  138.6548  156.0389 H   0  0  0  0  0  0  0  0  0  0  0  0
  151.9452  139.5547  155.9649 H   0  0  0  0  0  0  0  0  0  0  0  0
  149.6565  140.0924  157.9456 H   0  0  0  0  0  0  0  0  0  0  0  0
  151.6948  141.9308  157.0453 H   0  0  0  0  0  0  0  0  0  0  0  0
  150.6050  142.1259  158.4274 H   0  0  0  0  0  0  0  0  0  0  0  0
  153.3332  143.1530  159.0690 H   0  0  0  0  0  0  0  0  0  0  0  0
  155.1395  142.3701  160.6117 H   0  0  0  0  0  0  0  0  0  0  0  0
  155.2641  139.9763  161.2651 H   0  0  0  0  0  0  0  0  0  0  0  0
  153.6425  138.3579  160.4307 H   0  0  0  0  0  0  0  0  0  0  0  0
  148.8958  138.1742  158.2009 H   0  0  0  0  0  0  0  0  0  0  0  0
  149.8803  137.2285  157.1216 H   0  0  0  0  0  0  0  0  0  0  0  0
  147.6991  132.9142  160.3193 H   0  0  0  0  0  0  0  0  0  0  0  0
  148.2965  135.4171  162.6730 H   0  0  0  0  0  0  0  0  0  0  0  0
  147.5608  132.8182  161.8830 H   0  0  0  0  0  0  0  0  0  0  0  0
  147.2578  133.4652  163.5079 H   0  0  0  0  0  0  0  0  0  0  0  0
  145.3410  133.4764  161.1487 H   0  0  0  0  0  0  0  0  0  0  0  0
  144.9928  132.9634  162.8040 H   0  0  0  0  0  0  0  0  0  0  0  0
  144.3392  135.4854  162.0843 H   0  0  0  0  0  0  0  0  0  0  0  0
  145.1772  135.2510  163.6223 H   0  0  0  0  0  0  0  0  0  0  0  0
  1  2  1  0  0  0  0
  1 28  1  0  0  0  0
  1 29  1  0  0  0  0
  1 30  1  0  0  0  0
  2 10  1  0  0  0  0
  2  3  1  0  0  0  0
  2 31  1  0  0  0  0
  3  4  1  0  0  0  0
  3 32  1  0  0  0  0
  3 33  1  0  0  0  0
  4  9  2  0  0  0  0
  4  5  1  0  0  0  0
  5  6  2  0  0  0  0
  5 34  1  0  0  0  0
  6  7  1  0  0  0  0
  6 35  1  0  0  0  0
  7  8  2  0  0  0  0
  7 36  1  0  0  0  0
  8  9  1  0  0  0  0
  8 37  1  0  0  0  0
  9 10  1  0  0  0  0
 10 11  1  0  0  0  0
 11 12  2  0  0  0  0
 11 13  1  0  0  0  0
 13 14  1  0  0  0  0
 13 38  1  0  0  0  0
 13 39  1  0  0  0  0
 14 26  1  0  0  0  0
 14 15  1  0  0  0  0
 15 16  2  0  0  0  0
 15 17  1  0  0  0  0
 17 18  1  0  0  0  0
 17 19  2  0  0  0  0
 19 20  1  0  0  0  0
 19 40  1  0  0  0  0
 20 21  1  0  0  0  0
 20 26  1  0  0  0  0
 21 25  1  0  0  0  0
 21 22  1  0  0  0  0
 21 41  1  0  0  0  0
 22 23  1  0  0  0  0
 22 42  1  0  0  0  0
 22 43  1  0  0  0  0
 23 24  1  0  0  0  0
 23 44  1  0  0  0  0
 23 45  1  0  0  0  0
 24 25  1  0  0  0  0
 24 46  1  0  0  0  0
 24 47  1  0  0  0  0
 26 27  2  0  0  0  0
M  END
> <s_m_source_file>
AV-unprocessed.smi

> <i_m_source_file_index>
25

> <i_lp_mmshare_version>
43012

> <i_f3d_flags>
0

> <s_epik_input>
W2NIXTFbY0hdW2NIXVtjSF1jKGMxMilOKFtDQEhdKFtDSDNdKVtDSDJdMilDKD1PKVtDSDJdbjNjKD1PKWMoRilbY0hdbihjMz1PKVtDQEBIXTRbQ0gyXVtDSDJdW0NIMl1PNA==

> <s_epik_cmdline>
J2VwaWtfcHl0aG9uJywgJy1waCcsICc3LjAnLCAnLXRuJywgJzgnLCAnLW1hJywgJzIwMCcsICctbWV0YWxfYmluZGluZycsICctaW1hZScsICc8aW5maWxlLm1hZT4nLCAnLW9tYWUnLCAnPG91dGZpbGUubWFlPic=

> <r_lp_tautomer_probability>
1

> <r_epik_Ionization_Penalty>
1.67943e-06

> <r_epik_Ionization_Penalty_Charging>
3.79603e-09

> <r_epik_Ionization_Penalty_Neutral>
1.67563e-06

> <r_epik_State_Penalty>
-0

> <r_epik_Charging_Adjusted_Penalty>
3.79603e-09

> <i_epik_Tot_Q>
0

> <i_epik_Tot_abs_Q>
0

> <r_epik_Metal_State_Penalty>
-0

> <b_epik_Metal_Only>
0

> <s_epik_Chemistry_Notes>
This compound contains an acetal/aminal-like group ( X-CH(R)-Y where X, Y are N, S, or O) that may be acid/base labile, releasing an aldehyde.

> <s_lp_Force_Field>
OPLS_2005

> <r_lp_Energy>
56.1974

> <b_lp_Chiralities_Consistent>
1

> <s_lp_Variant>
AV-unprocessed.smi:25-1

> <Gold.Version>
5.8.1

> <Gold.Id.Protein>
6NUR|6NUR_protein|mol2

> <Gold.PLP.Fitness>
52.5257

> <Gold.PLP.PLP>
-46.5055

> <Gold.PLP.part.hbond>
-2.7915

> <Gold.PLP.part.metal>
0.0000

> <Gold.PLP.part.buried>
-6.1613

> <Gold.PLP.part.nonpolar>
-37.8113

> <Gold.PLP.part.repulsive>
0.0000

> <Gold.PLP.ligand.clash>
0.0000

> <Gold.PLP.ligand.torsion>
0.1882

> <Gold.PLP.Chemscore.Hbond>
2.1212

> <Gold.PLP.Chemscore.CHOScore>
0.0000

> <Gold.PLP.Chemscore.Metal>
0.0000

> <Gold.Chemscore.Hbonds>
donor molecule, donor type, donor heavy atom, donor atom, acceptor molecule, acceptor atom, score
      P1  H  6896  6909       L1    12  1.00
      P1  H  6931  6943       L1    27  0.80
      P1  H  6934  6947       L1    27  0.16

> <Gold.PLP.Chemscore.Internal.Correction>
0.0329

> <Gold.Rescore>
     Score         DG    S(hbond)    S(metal)    S(lipo)     H(rot)  DE(clash)    DE(int)     intcor
     18.34     -20.55       2.40        0.00      94.11       1.55       0.04       2.17       ----

> <Gold.Chemscore.Fitness>
18.3365

> <Gold.Chemscore.DG>
-20.5483

> <Gold.Chemscore.ZeroCoef>
-5.4800

> <Gold.Chemscore.Hbond>
2.4019

> <Gold.Chemscore.Metal>
0.0000

> <Gold.Chemscore.Lipo>
94.1110

> <Gold.Chemscore.Internal_Hbond>
0.0000

> <Gold.Chemscore.DEClash>
0.0402

> <Gold.Chemscore.DEInternal>
2.1716

> <Gold.Chemscore.Rot>
1.5489

> <Gold.Chemscore.Internal.Correction>
   9.000000E+99

> <Gold.Chemscore.Hbonds>
donor molecule, donor type, donor heavy atom, donor atom, acceptor molecule, acceptor atom, score
      P1  H  6896  6909       L1    12  0.97
      P1  H  6931  6943       L1    27  0.78
      P1  H  6934  6947       L1    27  0.17

> <Gold.Chemscore.Hbond.Weighted>
-8.0225

> <Gold.Chemscore.Metal.Weighted>
-0.0000

> <Gold.Chemscore.Lipo.Weighted>
-11.0110

> <Gold.Chemscore.Internal_Hbond.Weighted>
0.0000

> <Gold.Chemscore.DEClash.Weighted>
0.0402

> <Gold.Chemscore.DEInternal.Weighted>
2.1716

> <Gold.Chemscore.Rot.Weighted>
3.9651

> <Gold.Chemscore.Internal.Correction.Weighted>
   9.000000E+99

> <Gold.Protein.RotatedTorsions>
[ 6907 6896 6895 6894 ] final  111.51 input  -60.11 | X-H torsion
[ 7974 7965 7964 7962 ] final  -31.74 input  175.53 | X-H torsion
[ 8008 7997 7996 7995 ] final -144.91 input   59.86 | X-H torsion
[ 10167 10162 10161 10158 ] final  -68.93 input  -65.29 | X-H torsion
[ 10718 10713 10712 10709 ] final  -22.57 input   66.30 | X-H torsion
[ 10763 10752 10751 10750 ] final  -43.69 input  -60.55 | X-H torsion
[ 11005 11000 10999 10996 ] final  121.72 input  -57.11 | X-H torsion

> <Gold.Protein.ActiveResidues>
 VAL166  LYS551  ARG553  GLY616  TRP617  ASP618  TYR619  PRO620  LYS621  CYS622 
 ASP623  PHE694  ASN695  SER759  ASP760  ASP761  ALA762  ILE779  LEU786  VAL792 
 PHE793  MET794  SER795  GLU796  ALA797  LYS798  CYS799  TRP800  GLU811  SER814 

> <Gold.Protein.RotatedAtoms>
  152.4965  133.8647  159.7267 H   0  0  0  0  0  0  0  0  0  0  0  0  # atno 6907 bound_to 6896
  150.9149  133.6942  159.2852 H   0  0  0  0  0  0  0  0  0  0  0  0  # atno 6908 bound_to 6896
  151.4339  135.1017  159.9703 H   0  0  0  0  0  0  0  0  0  0  0  0  # atno 6909 bound_to 6896
  146.1044  140.5705  142.8806 H   0  0  0  0  0  0  0  0  0  0  0  0  # atno 7974 bound_to 7965
  155.5346  140.0602  157.2882 H   0  0  0  0  0  0  0  0  0  0  0  0  # atno 8008 bound_to 7997
  154.4473  140.1930  156.0573 H   0  0  0  0  0  0  0  0  0  0  0  0  # atno 8009 bound_to 7997
  156.0628  140.3270  155.7486 H   0  0  0  0  0  0  0  0  0  0  0  0  # atno 8010 bound_to 7997
  140.5470  143.2313  151.6984 H   0  0  0  0  0  0  0  0  0  0  0  0  # atno 10167 bound_to 10162
  156.5027  130.4592  149.6692 H   0  0  0  0  0  0  0  0  0  0  0  0  # atno 10718 bound_to 10713
  153.9998  135.6695  153.4758 H   0  0  0  0  0  0  0  0  0  0  0  0  # atno 10763 bound_to 10752
  153.0668  135.4996  154.8213 H   0  0  0  0  0  0  0  0  0  0  0  0  # atno 10764 bound_to 10752
  154.7060  135.3088  154.9233 H   0  0  0  0  0  0  0  0  0  0  0  0  # atno 10765 bound_to 10752
  139.9238  134.9639  156.8001 H   0  0  0  0  0  0  0  0  0  0  0  0  # atno 11005 bound_to 11000
  144.7458  140.5065  143.6836 LP  0  0  0  0  0  0  0  0  0  0  0  0  # atno 17320 bound_to 7965
  145.5791  139.1488  143.3245 LP  0  0  0  0  0  0  0  0  0  0  0  0  # atno 17321 bound_to 7965
  139.5011  144.3879  152.0309 LP  0  0  0  0  0  0  0  0  0  0  0  0  # atno 17342 bound_to 10162
  140.2993  144.3665  150.6065 LP  0  0  0  0  0  0  0  0  0  0  0  0  # atno 17343 bound_to 10162
  156.3317  130.7335  151.2265 LP  0  0  0  0  0  0  0  0  0  0  0  0  # atno 17370 bound_to 10713
  157.7461  131.0428  150.4712 LP  0  0  0  0  0  0  0  0  0  0  0  0  # atno 17371 bound_to 10713
  140.6397  133.9830  155.7701 LP  0  0  0  0  0  0  0  0  0  0  0  0  # atno 17394 bound_to 11000
  141.0779  134.0106  157.3429 LP  0  0  0  0  0  0  0  0  0  0  0  0  # atno 17395 bound_to 11000

$$$$
