AV-unprocessed.smi:2144|AV-procd|sdf|8730|dock4
  -GOLD-   2272011493D 1   1.00000     0.00000
 Structure written by MMmdl.
 40 42  0  0  0  0  0  0  0  0  1 V2000
  151.6490  136.6140  155.4104 O   0  0  0  0  0  0  0  0  0  0  0  0
  151.7167  137.9877  155.7246 C   0  0  0  0  0  0  0  0  0  0  0  0
  150.5869  138.7772  155.1361 C   0  0  0  0  0  0  0  0  0  0  0  0
  149.6453  138.1978  154.3904 N   0  0  0  0  0  0  0  0  0  0  0  0
  148.8095  139.2520  154.0802 C   0  0  0  0  0  0  0  0  0  0  0  0
  147.6203  139.2874  153.3173 C   0  0  0  0  0  0  0  0  0  0  0  0
  146.9212  140.4994  153.1410 C   0  0  0  0  0  0  0  0  0  0  0  0
  147.3994  141.6904  153.7245 C   0  0  0  0  0  0  0  0  0  0  0  0
  148.5833  141.6772  154.4866 C   0  0  0  0  0  0  0  0  0  0  0  0
  149.2793  140.4653  154.6569 C   0  0  0  0  0  0  0  0  0  0  0  0
  150.4487  140.1153  155.3256 N   0  0  0  0  0  0  0  0  0  0  0  0
  151.3036  141.0260  156.0779 C   0  0  0  0  0  0  0  0  0  0  0  0
  150.7638  141.3198  157.4929 C   0  0  2  0  0  0  0  0  0  0  0  0
  149.3999  141.6827  157.4254 O   0  0  0  0  0  0  0  0  0  0  0  0
  151.5337  142.4521  158.1874 C   0  0  0  0  0  0  0  0  0  0  0  0
  152.5788  141.8838  158.9652 O   0  0  0  0  0  0  0  0  0  0  0  0
  152.7119  142.2849  160.2773 C   0  0  0  0  0  0  0  0  0  0  0  0
  152.0716  143.4236  160.8300 C   0  0  0  0  0  0  0  0  0  0  0  0
  152.2621  143.7619  162.1839 C   0  0  0  0  0  0  0  0  0  0  0  0
  153.0908  142.9708  163.0005 C   0  0  0  0  0  0  0  0  0  0  0  0
  153.7302  141.8397  162.4609 C   0  0  0  0  0  0  0  0  0  0  0  0
  153.5408  141.5002  161.1074 C   0  0  0  0  0  0  0  0  0  0  0  0
  154.1621  140.4086  160.6002 F   0  0  0  0  0  0  0  0  0  0  0  0
  151.0115  136.2077  155.9771 H   0  0  0  0  0  0  0  0  0  0  0  0
  151.7017  138.0934  156.8098 H   0  0  0  0  0  0  0  0  0  0  0  0
  152.6697  138.3971  155.3899 H   0  0  0  0  0  0  0  0  0  0  0  0
  147.2446  138.3796  152.8689 H   0  0  0  0  0  0  0  0  0  0  0  0
  146.0129  140.5147  152.5565 H   0  0  0  0  0  0  0  0  0  0  0  0
  146.8567  142.6143  153.5870 H   0  0  0  0  0  0  0  0  0  0  0  0
  148.9514  142.5878  154.9355 H   0  0  0  0  0  0  0  0  0  0  0  0
  152.2926  140.5712  156.1446 H   0  0  0  0  0  0  0  0  0  0  0  0
  151.4372  141.9559  155.5272 H   0  0  0  0  0  0  0  0  0  0  0  0
  150.8298  140.4220  158.1080 H   0  0  0  0  0  0  0  0  0  0  0  0
  149.0319  141.3194  156.6342 H   0  0  0  0  0  0  0  0  0  0  0  0
  151.9338  143.1433  157.4435 H   0  0  0  0  0  0  0  0  0  0  0  0
  150.8596  143.0092  158.8405 H   0  0  0  0  0  0  0  0  0  0  0  0
  151.4277  144.0542  160.2363 H   0  0  0  0  0  0  0  0  0  0  0  0
  151.7707  144.6308  162.5963 H   0  0  0  0  0  0  0  0  0  0  0  0
  153.2356  143.2313  164.0387 H   0  0  0  0  0  0  0  0  0  0  0  0
  154.3671  141.2307  163.0854 H   0  0  0  0  0  0  0  0  0  0  0  0
  1  2  1  0  0  0  0
  1 24  1  0  0  0  0
  2  3  1  0  0  0  0
  2 25  1  0  0  0  0
  2 26  1  0  0  0  0
  3 11  1  0  0  0  0
  3  4  2  0  0  0  0
  4  5  1  0  0  0  0
  5 10  2  0  0  0  0
  5  6  1  0  0  0  0
  6  7  2  0  0  0  0
  6 27  1  0  0  0  0
  7  8  1  0  0  0  0
  7 28  1  0  0  0  0
  8  9  2  0  0  0  0
  8 29  1  0  0  0  0
  9 10  1  0  0  0  0
  9 30  1  0  0  0  0
 10 11  1  0  0  0  0
 11 12  1  0  0  0  0
 12 13  1  0  0  0  0
 12 31  1  0  0  0  0
 12 32  1  0  0  0  0
 13 14  1  0  0  0  0
 13 15  1  0  0  0  0
 13 33  1  0  0  0  0
 14 34  1  0  0  0  0
 15 16  1  0  0  0  0
 15 35  1  0  0  0  0
 15 36  1  0  0  0  0
 16 17  1  0  0  0  0
 17 22  1  0  0  0  0
 17 18  2  0  0  0  0
 18 19  1  0  0  0  0
 18 37  1  0  0  0  0
 19 20  2  0  0  0  0
 19 38  1  0  0  0  0
 20 21  1  0  0  0  0
 20 39  1  0  0  0  0
 21 22  2  0  0  0  0
 21 40  1  0  0  0  0
 22 23  1  0  0  0  0
M  END
> <s_m_source_file>
AV-unprocessed.smi

> <i_m_source_file_index>
2144

> <i_lp_mmshare_version>
43012

> <i_f3d_flags>
0

> <s_epik_input>
W2NIXTFbY0hdW2NIXVtjSF1jKGMxMiluKGMobjIpW0NIMl1bT0hdKVtDSDJdW0NASF0oW09IXSlbQ0gyXU9jM1tjSF1bY0hdW2NIXVtjSF1jM0Y=

> <s_epik_cmdline>
J2VwaWtfcHl0aG9uJywgJy1waCcsICc3LjAnLCAnLXRuJywgJzgnLCAnLW1hJywgJzIwMCcsICctbWV0YWxfYmluZGluZycsICctaW1hZScsICc8aW5maWxlLm1hZT4nLCAnLW9tYWUnLCAnPG91dGZpbGUubWFlPic=

> <r_lp_tautomer_probability>
1

> <r_epik_Ionization_Penalty>
0.0547315

> <r_epik_Ionization_Penalty_Charging>
0

> <r_epik_Ionization_Penalty_Neutral>
0.0547315

> <r_epik_State_Penalty>
0.047032

> <r_epik_Charging_Adjusted_Penalty>
0.047032

> <i_epik_Tot_Q>
0

> <i_epik_Tot_abs_Q>
0

> <r_epik_Metal_State_Penalty>
4.89471e-05

> <b_epik_Metal_Only>
0

> <s_lp_Force_Field>
OPLS_2005

> <r_lp_Energy>
15.0425

> <b_lp_Chiralities_Consistent>
1

> <s_lp_Variant>
AV-unprocessed.smi:2144-1

> <Gold.Version>
5.8.1

> <Gold.Id.Protein>
6NUR|6NUR_protein|mol2

> <Gold.PLP.Fitness>
53.9507

> <Gold.PLP.PLP>
-53.4184

> <Gold.PLP.part.hbond>
-1.0000

> <Gold.PLP.part.metal>
0.0000

> <Gold.PLP.part.buried>
-1.3566

> <Gold.PLP.part.nonpolar>
-49.3336

> <Gold.PLP.part.repulsive>
0.2304

> <Gold.PLP.ligand.clash>
0.0000

> <Gold.PLP.ligand.torsion>
1.3167

> <Gold.PLP.Chemscore.Hbond>
1.0000

> <Gold.PLP.Chemscore.CHOScore>
0.0000

> <Gold.PLP.Chemscore.Metal>
0.0000

> <Gold.Chemscore.Hbonds>
donor molecule, donor type, donor heavy atom, donor atom, acceptor molecule, acceptor atom, score
      P1  H 10752 10763       L1     1  0.99

> <Gold.PLP.Chemscore.Internal.Correction>
0.1657

> <Gold.Rescore>
     Score         DG    S(hbond)    S(metal)    S(lipo)     H(rot)  DE(clash)    DE(int)     intcor
     14.87     -16.29       0.95        0.00     135.70       3.22       0.11       1.31       ----

> <Gold.Chemscore.Fitness>
14.8708

> <Gold.Chemscore.DG>
-16.2863

> <Gold.Chemscore.ZeroCoef>
-5.4800

> <Gold.Chemscore.Hbond>
0.9496

> <Gold.Chemscore.Metal>
0.0000

> <Gold.Chemscore.Lipo>
135.7008

> <Gold.Chemscore.Internal_Hbond>
0.0000

> <Gold.Chemscore.DEClash>
0.1066

> <Gold.Chemscore.DEInternal>
1.3090

> <Gold.Chemscore.Rot>
3.2196

> <Gold.Chemscore.Internal.Correction>
   9.000000E+99

> <Gold.Chemscore.Hbonds>
donor molecule, donor type, donor heavy atom, donor atom, acceptor molecule, acceptor atom, score
      P1  H 10752 10763       L1     1  0.93

> <Gold.Chemscore.Hbond.Weighted>
-3.1716

> <Gold.Chemscore.Metal.Weighted>
-0.0000

> <Gold.Chemscore.Lipo.Weighted>
-15.8770

> <Gold.Chemscore.Internal_Hbond.Weighted>
0.0000

> <Gold.Chemscore.DEClash.Weighted>
0.1066

> <Gold.Chemscore.DEInternal.Weighted>
1.3090

> <Gold.Chemscore.Rot.Weighted>
8.2422

> <Gold.Chemscore.Internal.Correction.Weighted>
   9.000000E+99

> <Gold.Protein.RotatedTorsions>
[ 6907 6896 6895 6894 ] final -136.14 input  -60.11 | X-H torsion
[ 7974 7965 7964 7962 ] final  -45.46 input  175.53 | X-H torsion
[ 8008 7997 7996 7995 ] final   26.51 input   59.86 | X-H torsion
[ 10167 10162 10161 10158 ] final -138.24 input  -65.29 | X-H torsion
[ 10718 10713 10712 10709 ] final  126.45 input   66.30 | X-H torsion
[ 10763 10752 10751 10750 ] final   48.68 input  -60.55 | X-H torsion
[ 11005 11000 10999 10996 ] final  109.40 input  -57.11 | X-H torsion

> <Gold.Protein.ActiveResidues>
 VAL166  LYS551  ARG553  GLY616  TRP617  ASP618  TYR619  PRO620  LYS621  CYS622 
 ASP623  PHE694  ASN695  SER759  ASP760  ASP761  ALA762  ILE779  LEU786  VAL792 
 PHE793  MET794  SER795  GLU796  ALA797  LYS798  CYS799  TRP800  GLU811  SER814 

> <Gold.Protein.RotatedAtoms>
  151.0064  133.6007  159.2688 H   0  0  0  0  0  0  0  0  0  0  0  0  # atno 6907 bound_to 6896
  151.3174  135.0809  159.9303 H   0  0  0  0  0  0  0  0  0  0  0  0  # atno 6908 bound_to 6896
  152.5288  133.9718  159.7819 H   0  0  0  0  0  0  0  0  0  0  0  0  # atno 6909 bound_to 6896
  145.9818  140.7275  142.9360 H   0  0  0  0  0  0  0  0  0  0  0  0  # atno 7974 bound_to 7965
  155.0284  140.3156  155.4767 H   0  0  0  0  0  0  0  0  0  0  0  0  # atno 8008 bound_to 7997
  156.2879  140.2184  156.5347 H   0  0  0  0  0  0  0  0  0  0  0  0  # atno 8009 bound_to 7997
  154.7391  140.0475  157.0783 H   0  0  0  0  0  0  0  0  0  0  0  0  # atno 8010 bound_to 7997
  139.8498  143.7214  152.2658 H   0  0  0  0  0  0  0  0  0  0  0  0  # atno 10167 bound_to 10162
  157.5418  131.1096  150.8846 H   0  0  0  0  0  0  0  0  0  0  0  0  # atno 10718 bound_to 10713
  152.9790  135.5936  154.3965 H   0  0  0  0  0  0  0  0  0  0  0  0  # atno 10763 bound_to 10752
  154.3615  135.2767  155.2319 H   0  0  0  0  0  0  0  0  0  0  0  0  # atno 10764 bound_to 10752
  154.4314  135.6035  153.6126 H   0  0  0  0  0  0  0  0  0  0  0  0  # atno 10765 bound_to 10752
  139.8861  134.9457  156.6119 H   0  0  0  0  0  0  0  0  0  0  0  0  # atno 11005 bound_to 11000
  144.6863  140.2922  143.7276 LP  0  0  0  0  0  0  0  0  0  0  0  0  # atno 17320 bound_to 7965
  145.7758  139.1873  143.2186 LP  0  0  0  0  0  0  0  0  0  0  0  0  # atno 17321 bound_to 7965
  139.7477  144.7543  151.0555 LP  0  0  0  0  0  0  0  0  0  0  0  0  # atno 17342 bound_to 10162
  140.7789  143.4897  150.9909 LP  0  0  0  0  0  0  0  0  0  0  0  0  # atno 17343 bound_to 10162
  156.9397  130.5380  149.5280 LP  0  0  0  0  0  0  0  0  0  0  0  0  # atno 17370 bound_to 10713
  156.0503  130.5573  150.8973 LP  0  0  0  0  0  0  0  0  0  0  0  0  # atno 17371 bound_to 10713
  140.7805  133.8664  155.8564 LP  0  0  0  0  0  0  0  0  0  0  0  0  # atno 17394 bound_to 11000
  140.9764  134.1463  157.4532 LP  0  0  0  0  0  0  0  0  0  0  0  0  # atno 17395 bound_to 11000

$$$$
