#       Name:                AV-unprocessed.smi:289
#       Creating user name   scv26
#       Creation time:       Thu Mar 26 22:04:49 2020


#       File generated by GOLD software.
#

@<TRIPOS>MOLECULE
AV-unprocessed.smi:289
    63    66     1
SMALL
NO_CHARGES


@<TRIPOS>ATOM
      1 ****        -1.3142   1.0911  -0.0365 O.2            1 S1                 0.0000
      2 ****        -0.6306   0.0698   0.0597 C.2            1 S1                 0.0000
      3 ****         0.9049   0.2030   0.1440 C.3            1 S1                 0.0000
      4 ****         1.3914   1.5966   0.0285 N.am           1 S1                 0.0000
      5 ****         1.5503   2.3625   1.2093 C.2            1 S1                 0.0000
      6 ****         1.3127   1.8836   2.3191 O.2            1 S1                 0.0000
      7 ****         1.9900   3.7381   1.0109 C.2            1 S1                 0.0000
      8 ****         2.1314   4.5507   2.0718 F              1 S1                 0.0000
      9 ****         2.2413   4.2168  -0.2247 C.2            1 S1                 0.0000
     10 ****         2.1202   3.4481  -1.3709 N.am           1 S1                 0.0000
     11 ****         2.3202   4.0177  -2.7678 C.3            1 S1                 0.0000
     12 ****         3.1769   5.2901  -2.8158 C.3            1 S1                 0.0000
     13 ****         2.1404   6.4106  -2.8389 C.3            1 S1                 0.0000
     14 ****         0.7867   5.6923  -2.8199 C.3            1 S1                 0.0000
     15 ****         1.0771   4.3791  -3.2790 O.3            1 S1                 0.0000
     16 ****         1.6421   2.1227  -1.2618 C.2            1 S1                 0.0000
     17 ****         1.4441   1.4400  -2.2695 O.2            1 S1                 0.0000
     18 ****        -1.1860  -1.1663   0.0939 N.am           1 S1                 0.0000
     19 ****        -0.4595  -2.4328   0.2693 C.3            1 S1                 0.0000
     20 ****        -0.9085  -3.1015   1.5848 C.3            1 S1                 0.0000
     21 ****        -2.3680  -3.3065   1.5583 N.am           1 S1                 0.0000
     22 ****        -3.0025  -4.5060   1.5476 C.2            1 S1                 0.0000
     23 ****        -4.1836  -4.6283   1.2216 O.2            1 S1                 0.0000
     24 ****        -2.2621  -5.7206   1.9527 C.2            1 S1                 0.0000
     25 ****        -2.3126  -6.9931   1.4505 C.2            1 S1                 0.0000
     26 ****        -1.4386  -7.7817   2.2487 C.2            1 S1                 0.0000
     27 ****        -0.9344  -6.9395   3.1975 C.2            1 S1                 0.0000
     28 ****        -1.4374  -5.6850   3.0411 O.3            1 S1                 0.0000
     29 ****        -3.0887  -2.0385   1.3614 C.3            1 S1                 0.0000
     30 ****        -2.6374  -1.3904   0.0391 C.3            1 S1                 0.0000
     31 ****         1.2436  -0.2468   1.0787 H              1 S1                 0.0000
     32 ****         1.3569  -0.4126  -0.6352 H              1 S1                 0.0000
     33 ****         2.5349   5.2519  -0.2967 H              1 S1                 0.0000
     34 ****         2.7739   3.2121  -3.3474 H              1 S1                 0.0000
     35 ****         3.9017   5.3429  -2.0036 H              1 S1                 0.0000
     36 ****         3.7340   5.2888  -3.7534 H              1 S1                 0.0000
     37 ****         2.2441   7.0896  -1.9923 H              1 S1                 0.0000
     38 ****         2.2484   6.9980  -3.7513 H              1 S1                 0.0000
     39 ****         0.3826   5.6472  -1.8078 H              1 S1                 0.0000
     40 ****         0.0462   6.1796  -3.4542 H              1 S1                 0.0000
     41 ****        -0.6799  -3.0869  -0.5758 H              1 S1                 0.0000
     42 ****         0.6231  -2.3240   0.2784 H              1 S1                 0.0000
     43 ****        -0.3383  -4.0212   1.6961 H              1 S1                 0.0000
     44 ****        -0.6487  -2.4749   2.4392 H              1 S1                 0.0000
     45 ****        -2.9061  -7.3168   0.6079 H              1 S1                 0.0000
     46 ****        -1.2149  -8.8334   2.1472 H              1 S1                 0.0000
     47 ****        -0.2481  -7.0630   4.0223 H              1 S1                 0.0000
     48 ****        -4.1722  -2.1647   1.3570 H              1 S1                 0.0000
     49 ****        -2.8723  -1.3726   2.1983 H              1 S1                 0.0000
     50 ****        -3.2032  -0.4732  -0.1283 H              1 S1                 0.0000
     51 ****        -2.8714  -2.0438  -0.8028 H              1 S1                 0.0000
     52 ****        -0.8726   1.9881  -0.0589 LP             1 S1                 0.0000
     53 ****        -2.3103   1.0227  -0.0922 LP             1 S1                 0.0000
     54 ****         1.0011   0.9368   2.3988 LP             1 S1                 0.0000
     55 ****         1.4314   2.4417   3.1403 LP             1 S1                 0.0000
     56 ****         0.3773   3.7425  -2.9550 LP             1 S1                 0.0000
     57 ****         1.1028   4.3656  -4.2786 LP             1 S1                 0.0000
     58 ****         1.1029   0.5043  -2.1804 LP             1 S1                 0.0000
     59 ****         1.6247   1.8222  -3.1758 LP             1 S1                 0.0000
     60 ****        -4.7134  -3.8245   0.9508 LP             1 S1                 0.0000
     61 ****        -4.6130  -5.5314   1.2276 LP             1 S1                 0.0000
     62 ****        -1.9534  -5.4175   3.8548 LP             1 S1                 0.0000
     63 ****        -0.6945  -5.0332   2.8884 LP             1 S1                 0.0000
@<TRIPOS>BOND
    1    1    2 2     
    2    2    3 1     
    3    2   18 am    
    4    3    4 1     
    5    3   31 1     
    6    3   32 1     
    7    4   16 am    
    8    4    5 am    
    9    5    6 2     
   10    5    7 1     
   11    7    8 1     
   12    7    9 2     
   13    9   10 1     
   14    9   33 1     
   15   10   11 1     
   16   10   16 am    
   17   11   15 1     
   18   11   12 1     
   19   11   34 1     
   20   12   13 1     
   21   12   35 1     
   22   12   36 1     
   23   13   14 1     
   24   13   37 1     
   25   13   38 1     
   26   14   15 1     
   27   14   39 1     
   28   14   40 1     
   29   16   17 2     
   30   18   30 1     
   31   18   19 1     
   32   19   20 1     
   33   19   41 1     
   34   19   42 1     
   35   20   21 1     
   36   20   43 1     
   37   20   44 1     
   38   21   22 am    
   39   21   29 1     
   40   22   23 2     
   41   22   24 1     
   42   24   28 1     
   43   24   25 2     
   44   25   26 1     
   45   25   45 1     
   46   26   27 2     
   47   26   46 1     
   48   27   28 1     
   49   27   47 1     
   50   29   30 1     
   51   29   48 1     
   52   29   49 1     
   53   30   50 1     
   54   30   51 1     
   55    1   52 1     
   56    1   53 1     
   57    6   54 1     
   58    6   55 1     
   59   15   56 1     
   60   15   57 1     
   61   17   58 1     
   62   17   59 1     
   63   23   60 1     
   64   23   61 1     
   65   28   62 1     
   66   28   63 1     
@<TRIPOS>SUBSTRUCTURE
      1 S1             1
@<TRIPOS>SET
LONE_PAIRS      STATIC     ATOMS    <user>   **** ""
12 52 53 54 55 56 57 58 59 60 61 62 63
ATOM$BLUE        STATIC     ATOMS    COLORGROUP SYSTEM
12 52 53 54 55 56 57 58 59 60 61 62 63
