#       Name:                AV-unprocessed.smi:781
#       Creating user name   scv26
#       Creation time:       Fri Mar 27 01:13:18 2020


#       File generated by GOLD software.
#

@<TRIPOS>MOLECULE
AV-unprocessed.smi:781
    45    47     1
SMALL
NO_CHARGES


@<TRIPOS>ATOM
      1 ****        -6.1775   3.0514   0.3001 C.3            1 S1                 0.0000
      2 ****        -4.7267   2.7131   0.3470 C.2            1 S1                 0.0000
      3 ****        -3.9937   1.6882  -0.1820 C.2            1 S1                 0.0000
      4 ****        -2.6732   1.9832   0.2495 C.2            1 S1                 0.0000
      5 ****        -1.5880   1.1401  -0.1003 N.am           1 S1                 0.0000
      6 ****        -0.2988   1.2742   0.2544 C.2            1 S1                 0.0000
      7 ****         0.1523   2.1701   0.9682 O.2            1 S1                 0.0000
      8 ****         0.4525   0.2938  -0.2656 N.am           1 S1                 0.0000
      9 ****         1.8927   0.1414  -0.0559 C.3            1 S1                 0.0000
     10 ****         2.2532  -0.4511   1.3316 C.3            1 S1                 0.0000
     11 ****         1.4351  -1.7264   1.6263 C.3            1 S1                 0.0000
     12 ****         2.0344  -2.7439   0.6392 C.3            1 S1                 0.0000
     13 ****         3.1408  -1.9318  -0.0666 C.3            1 S1                 0.0000
     14 ****         3.6327  -1.0487   1.0743 C.3            1 S1                 0.0000
     15 ****         2.5609  -0.8684  -1.0312 C.3            1 S1                 0.0000
     16 ****         1.6969  -1.4047  -2.1951 C.3            1 S1                 0.0000
     17 ****         2.4600  -2.2616  -3.0175 O.3            1 S1                 0.0000
     18 ****        -2.6058   3.0885   0.9758 N.2            1 S1                 0.0000
     19 ****        -3.9214   3.5626   1.0409 O.3            1 S1                 0.0000
     20 ****        -6.7770   2.1647   0.0941 H              1 S1                 0.0000
     21 ****        -6.3773   3.7845  -0.4812 H              1 S1                 0.0000
     22 ****        -6.5105   3.4696   1.2502 H              1 S1                 0.0000
     23 ****        -4.3483   0.8622  -0.7803 H              1 S1                 0.0000
     24 ****        -1.8186   0.3495  -0.6833 H              1 S1                 0.0000
     25 ****         0.0002  -0.4021  -0.8395 H              1 S1                 0.0000
     26 ****         2.3728   1.1145  -0.1772 H              1 S1                 0.0000
     27 ****         2.2176   0.2811   2.1390 H              1 S1                 0.0000
     28 ****         1.6008  -2.0548   2.6533 H              1 S1                 0.0000
     29 ****         0.3602  -1.5991   1.5000 H              1 S1                 0.0000
     30 ****         2.4670  -3.5843   1.1835 H              1 S1                 0.0000
     31 ****         1.2936  -3.1523  -0.0463 H              1 S1                 0.0000
     32 ****         3.9134  -2.5534  -0.5203 H              1 S1                 0.0000
     33 ****         4.3739  -0.3094   0.7653 H              1 S1                 0.0000
     34 ****         4.0269  -1.6131   1.9215 H              1 S1                 0.0000
     35 ****         3.4083  -0.3541  -1.4889 H              1 S1                 0.0000
     36 ****         0.8139  -1.9375  -1.8439 H              1 S1                 0.0000
     37 ****         1.3418  -0.5760  -2.8084 H              1 S1                 0.0000
     38 ****         1.9149  -2.5599  -3.7295 H              1 S1                 0.0000
     39 ****        -0.4576   2.8736   1.3330 LP             1 S1                 0.0000
     40 ****         1.1286   2.1943   1.1831 LP             1 S1                 0.0000
     41 ****         2.7771  -3.0460  -2.4844 LP             1 S1                 0.0000
     42 ****         3.2482  -1.7654  -3.3816 LP             1 S1                 0.0000
     43 ****        -1.7913   3.4963   1.3885 LP             1 S1                 0.0000
     44 ****        -4.2177   3.6028   1.9951 LP             1 S1                 0.0000
     45 ****        -3.9699   4.4766   0.6380 LP             1 S1                 0.0000
@<TRIPOS>BOND
    1    1    2 1     
    2    1   20 1     
    3    1   21 1     
    4    1   22 1     
    5    2   19 1     
    6    2    3 2     
    7    3    4 1     
    8    3   23 1     
    9    4    5 1     
   10    4   18 2     
   11    5    6 am    
   12    5   24 1     
   13    6    7 2     
   14    6    8 am    
   15    8    9 1     
   16    8   25 1     
   17    9   15 1     
   18    9   10 1     
   19    9   26 1     
   20   10   14 1     
   21   10   11 1     
   22   10   27 1     
   23   11   12 1     
   24   11   28 1     
   25   11   29 1     
   26   12   13 1     
   27   12   30 1     
   28   12   31 1     
   29   13   14 1     
   30   13   15 1     
   31   13   32 1     
   32   14   33 1     
   33   14   34 1     
   34   15   16 1     
   35   15   35 1     
   36   16   17 1     
   37   16   36 1     
   38   16   37 1     
   39   17   38 1     
   40   18   19 1     
   41    7   39 1     
   42    7   40 1     
   43   17   41 1     
   44   17   42 1     
   45   18   43 1     
   46   19   44 1     
   47   19   45 1     
@<TRIPOS>SUBSTRUCTURE
      1 S1             1
@<TRIPOS>SET
LONE_PAIRS      STATIC     ATOMS    <user>   **** ""
7 39 40 41 42 43 44 45
DONOR_HYDROGENS      STATIC     ATOMS    <user>   **** ""
3 24 25 38
ATOM$BLUE        STATIC     ATOMS    COLORGROUP SYSTEM
7 39 40 41 42 43 44 45
ATOM$RED        STATIC     ATOMS    COLORGROUP SYSTEM
3 24 25 38
