AV-unprocessed.smi:1060|AV-procd|sdf|4658|dock9
  -GOLD-   22720 3173D 1   1.00000     0.00000
 Structure written by MMmdl.
 36 37  0  0  0  0  0  0  0  0  2 V2000
  148.6267  139.8410  155.0474 O   0  0  0  0  0  0  0  0  0  0  0  0
  148.7718  141.0037  154.6709 C   0  0  0  0  0  0  0  0  0  0  0  0
  147.9153  141.5414  153.5228 C   0  0  0  0  0  0  0  0  0  0  0  0
  146.5555  141.5946  153.9269 O   0  0  0  0  0  0  0  0  0  0  0  0
  146.2182  142.8144  154.5644 C   0  0  0  0  0  0  0  0  0  0  0  0
  144.7275  142.7875  154.9234 C   0  0  2  0  0  0  0  0  0  0  0  0
  144.3062  143.8859  155.8951 C   0  0  0  0  0  0  0  0  0  0  0  0
  143.0305  143.3293  156.5025 C   0  0  0  0  0  0  0  0  0  0  0  0
  143.1514  141.8166  156.2903 C   0  0  0  0  0  0  0  0  0  0  0  0
  144.4085  141.6147  155.6556 O   0  0  0  0  0  0  0  0  0  0  0  0
  149.6452  141.8916  155.1856 N   0  0  0  0  0  0  0  0  0  0  0  0
  150.5830  141.7486  156.2245 C   0  0  0  0  0  0  0  0  0  0  0  0
  150.7132  142.5873  157.2904 C   0  0  0  0  0  0  0  0  0  0  0  0
  151.7076  142.3749  158.3347 C   0  0  0  0  0  0  0  0  0  0  0  0
  151.9398  143.3362  159.4871 C   0  0  0  0  0  0  0  0  0  0  0  0
  152.4850  144.4644  159.0346 F   0  0  0  0  0  0  0  0  0  0  0  0
  150.7923  143.6434  160.0923 F   0  0  0  0  0  0  0  0  0  0  0  0
  152.7644  142.8094  160.3924 F   0  0  0  0  0  0  0  0  0  0  0  0
  152.4855  141.2583  158.0994 C   0  0  0  0  0  0  0  0  0  0  0  0
  152.4106  140.3683  157.0862 N   0  5  0  0  0  0  0  0  0  0  0  0
  151.4749  140.5745  156.1171 C   0  0  0  0  0  0  0  0  0  0  0  0
  151.3589  139.8057  155.1620 O   0  0  0  0  0  0  0  0  0  0  0  0
  148.2632  142.5369  153.2416 H   0  0  0  0  0  0  0  0  0  0  0  0
  148.0298  140.8867  152.6575 H   0  0  0  0  0  0  0  0  0  0  0  0
  146.8267  142.9722  155.4563 H   0  0  0  0  0  0  0  0  0  0  0  0
  146.4160  143.6400  153.8792 H   0  0  0  0  0  0  0  0  0  0  0  0
  144.1130  142.8367  154.0223 H   0  0  0  0  0  0  0  0  0  0  0  0
  145.0602  144.0092  156.6738 H   0  0  0  0  0  0  0  0  0  0  0  0
  144.1606  144.8506  155.4081 H   0  0  0  0  0  0  0  0  0  0  0  0
  142.9366  143.5944  157.5561 H   0  0  0  0  0  0  0  0  0  0  0  0
  142.1541  143.7133  155.9794 H   0  0  0  0  0  0  0  0  0  0  0  0
  143.1059  141.2616  157.2273 H   0  0  0  0  0  0  0  0  0  0  0  0
  142.3532  141.4544  155.6416 H   0  0  0  0  0  0  0  0  0  0  0  0
  149.6316  142.8129  154.7724 H   0  0  0  0  0  0  0  0  0  0  0  0
  150.0756  143.4462  157.4081 H   0  0  0  0  0  0  0  0  0  0  0  0
  153.2922  141.0516  158.8347 H   0  0  0  0  0  0  0  0  0  0  0  0
  1  2  2  0  0  0  0
  2  3  1  0  0  0  0
  2 11  1  0  0  0  0
  3  4  1  0  0  0  0
  3 23  1  0  0  0  0
  3 24  1  0  0  0  0
  4  5  1  0  0  0  0
  5  6  1  0  0  0  0
  5 25  1  0  0  0  0
  5 26  1  0  0  0  0
  6 10  1  0  0  0  0
  6  7  1  0  0  0  0
  6 27  1  0  0  0  0
  7  8  1  0  0  0  0
  7 28  1  0  0  0  0
  7 29  1  0  0  0  0
  8  9  1  0  0  0  0
  8 30  1  0  0  0  0
  8 31  1  0  0  0  0
  9 10  1  0  0  0  0
  9 32  1  0  0  0  0
  9 33  1  0  0  0  0
 11 12  1  0  0  0  0
 11 34  1  0  0  0  0
 12 21  1  0  0  0  0
 12 13  2  0  0  0  0
 13 14  1  0  0  0  0
 13 35  1  0  0  0  0
 14 15  1  0  0  0  0
 14 19  2  0  0  0  0
 15 16  1  0  0  0  0
 15 17  1  0  0  0  0
 15 18  1  0  0  0  0
 19 20  1  0  0  0  0
 19 36  1  0  0  0  0
 20 21  1  0  0  0  0
 21 22  2  0  0  0  0
M  CHG  1  20  -1
M  END
> <s_m_source_file>
AV-unprocessed.smi

> <i_m_source_file_index>
1060

> <i_lp_mmshare_version>
43012

> <i_f3d_flags>
0

> <s_epik_input>
Tz1jMVtuSF1bY0hdYyhDKEYpKEYpRilbY0hdYzFbTkhdQyg9TylbQ0gyXU9bQ0gyXVtDQEBIXTJbQ0gyXVtDSDJdW0NIMl1PMg==

> <s_epik_cmdline>
J2VwaWtfcHl0aG9uJywgJy1waCcsICc3LjAnLCAnLXRuJywgJzgnLCAnLW1hJywgJzIwMCcsICctbWV0YWxfYmluZGluZycsICctaW1hZScsICc8aW5maWxlLm1hZT4nLCAnLW9tYWUnLCAnPG91dGZpbGUubWFlPic=

> <r_epik_Ionization_Penalty>
2.50578

> <r_epik_Ionization_Penalty_Charging>
0.0523173

> <r_epik_Ionization_Penalty_Neutral>
2.45346

> <r_epik_State_Penalty>
2.61512

> <r_epik_Charging_Adjusted_Penalty>
2.66744

> <i_epik_Tot_Q>
-1

> <i_epik_Tot_abs_Q>
1

> <r_epik_Metal_State_Penalty>
0.513209

> <b_epik_Metal_Only>
0

> <s_lp_Force_Field>
OPLS_2005

> <r_lp_Energy>
34.3401

> <b_lp_Chiralities_Consistent>
1

> <s_lp_Variant>
AV-unprocessed.smi:1060-3

> <Gold.Version>
5.8.1

> <Gold.Id.Protein>
6NUR|6NUR_protein|mol2

> <Gold.PLP.Fitness>
44.9327

> <Gold.PLP.PLP>
-37.3605

> <Gold.PLP.part.hbond>
-3.0000

> <Gold.PLP.part.metal>
0.0000

> <Gold.PLP.part.buried>
-3.3013

> <Gold.PLP.part.nonpolar>
-31.0413

> <Gold.PLP.part.repulsive>
0.5977

> <Gold.PLP.ligand.clash>
0.0000

> <Gold.PLP.ligand.torsion>
1.1128

> <Gold.PLP.Chemscore.Hbond>
3.2388

> <Gold.PLP.Chemscore.CHOScore>
0.0000

> <Gold.PLP.Chemscore.Metal>
0.0000

> <Gold.Chemscore.Hbonds>
donor molecule, donor type, donor heavy atom, donor atom, acceptor molecule, acceptor atom, score
      L1  H    11    34       P1  8028  0.32
      P1  H  7989  7998       L1    22  1.00
      P1  H  7997  8008       L1    20  1.95

> <Gold.PLP.Chemscore.Internal.Correction>
0.0814

> <Gold.Rescore>
     Score         DG    S(hbond)    S(metal)    S(lipo)     H(rot)  DE(clash)    DE(int)     intcor
     11.15     -15.55       2.15        0.00      66.65       1.92       0.59       3.81       ----

> <Gold.Chemscore.Fitness>
11.1485

> <Gold.Chemscore.DG>
-15.5523

> <Gold.Chemscore.ZeroCoef>
-5.4800

> <Gold.Chemscore.Hbond>
2.1518

> <Gold.Chemscore.Metal>
0.0000

> <Gold.Chemscore.Lipo>
66.6493

> <Gold.Chemscore.Internal_Hbond>
0.0000

> <Gold.Chemscore.DEClash>
0.5916

> <Gold.Chemscore.DEInternal>
3.8123

> <Gold.Chemscore.Rot>
1.9190

> <Gold.Chemscore.Internal.Correction>
   9.000000E+99

> <Gold.Chemscore.Hbonds>
donor molecule, donor type, donor heavy atom, donor atom, acceptor molecule, acceptor atom, score
      L1  H    11    34       P1  8028  0.31
      P1  H  7989  7998       L1    22  0.58
      P1  H  7997  8008       L1    20  0.29

> <Gold.Chemscore.Hbond.Weighted>
-7.1870

> <Gold.Chemscore.Metal.Weighted>
-0.0000

> <Gold.Chemscore.Lipo.Weighted>
-7.7980

> <Gold.Chemscore.Internal_Hbond.Weighted>
0.0000

> <Gold.Chemscore.DEClash.Weighted>
0.5916

> <Gold.Chemscore.DEInternal.Weighted>
3.8123

> <Gold.Chemscore.Rot.Weighted>
4.9126

> <Gold.Chemscore.Internal.Correction.Weighted>
   9.000000E+99

> <Gold.Protein.RotatedTorsions>
[ 6907 6896 6895 6894 ] final -150.27 input  -60.11 | X-H torsion
[ 7974 7965 7964 7962 ] final -106.84 input  175.53 | X-H torsion
[ 8008 7997 7996 7995 ] final  -56.69 input   59.86 | X-H torsion
[ 10167 10162 10161 10158 ] final  100.64 input  -65.29 | X-H torsion
[ 10718 10713 10712 10709 ] final   11.85 input   66.30 | X-H torsion
[ 10763 10752 10751 10750 ] final  -34.80 input  -60.55 | X-H torsion
[ 11005 11000 10999 10996 ] final   44.18 input  -57.11 | X-H torsion

> <Gold.Protein.ActiveResidues>
 VAL166  LYS551  ARG553  GLY616  TRP617  ASP618  TYR619  PRO620  LYS621  CYS622 
 ASP623  PHE694  ASN695  SER759  ASP760  ASP761  ALA762  ILE779  LEU786  VAL792 
 PHE793  MET794  SER795  GLU796  ALA797  LYS798  CYS799  TRP800  GLU811  SER814 

> <Gold.Protein.RotatedAtoms>
  151.1962  133.4638  159.2595 H   0  0  0  0  0  0  0  0  0  0  0  0  # atno 6907 bound_to 6896
  151.1115  135.0029  159.8506 H   0  0  0  0  0  0  0  0  0  0  0  0  # atno 6908 bound_to 6896
  152.5450  134.1881  159.8715 H   0  0  0  0  0  0  0  0  0  0  0  0  # atno 6909 bound_to 6896
  145.2128  140.9103  143.3304 H   0  0  0  0  0  0  0  0  0  0  0  0  # atno 7974 bound_to 7965
  154.4239  140.1124  156.5677 H   0  0  0  0  0  0  0  0  0  0  0  0  # atno 8008 bound_to 7997
  155.6244  140.3495  155.4643 H   0  0  0  0  0  0  0  0  0  0  0  0  # atno 8009 bound_to 7997
  155.9998  140.1196  157.0548 H   0  0  0  0  0  0  0  0  0  0  0  0  # atno 8010 bound_to 7997
  139.7509  144.6984  151.0434 H   0  0  0  0  0  0  0  0  0  0  0  0  # atno 10167 bound_to 10162
  157.0016  130.6082  149.5697 H   0  0  0  0  0  0  0  0  0  0  0  0  # atno 10718 bound_to 10713
  153.8526  135.6847  153.4791 H   0  0  0  0  0  0  0  0  0  0  0  0  # atno 10763 bound_to 10752
  153.1388  135.4666  154.9462 H   0  0  0  0  0  0  0  0  0  0  0  0  # atno 10764 bound_to 10752
  154.7795  135.3264  154.7968 H   0  0  0  0  0  0  0  0  0  0  0  0  # atno 10765 bound_to 10752
  140.1576  134.4382  155.8339 H   0  0  0  0  0  0  0  0  0  0  0  0  # atno 11005 bound_to 11000
  144.9839  139.3755  143.6248 LP  0  0  0  0  0  0  0  0  0  0  0  0  # atno 17320 bound_to 7965
  146.3394  139.8992  142.8797 LP  0  0  0  0  0  0  0  0  0  0  0  0  # atno 17321 bound_to 7965
  140.7797  143.4810  151.0018 LP  0  0  0  0  0  0  0  0  0  0  0  0  # atno 17342 bound_to 10162
  139.8498  143.7453  152.3178 LP  0  0  0  0  0  0  0  0  0  0  0  0  # atno 17343 bound_to 10162
  156.0169  130.5263  150.8160 LP  0  0  0  0  0  0  0  0  0  0  0  0  # atno 17370 bound_to 10713
  157.5386  131.0940  150.9859 LP  0  0  0  0  0  0  0  0  0  0  0  0  # atno 17371 bound_to 10713
  141.2206  133.6899  156.7535 LP  0  0  0  0  0  0  0  0  0  0  0  0  # atno 17394 bound_to 11000
  140.2529  134.8527  157.3684 LP  0  0  0  0  0  0  0  0  0  0  0  0  # atno 17395 bound_to 11000

$$$$
