#       Name:                AV-unprocessed.smi:369
#       Creating user name   scv26
#       Creation time:       Thu Mar 26 22:37:31 2020


#       File generated by GOLD software.
#

@<TRIPOS>MOLECULE
AV-unprocessed.smi:369
    58    59     1
SMALL
NO_CHARGES


@<TRIPOS>ATOM
      1 ****        -4.0235   4.6368   1.1682 C.3            1 S1                 0.0000
      2 ****        -3.5541   5.0933  -0.2336 C.3            1 S1                 0.0000
      3 ****        -4.7745   5.5862  -1.0374 C.3            1 S1                 0.0000
      4 ****        -2.5563   6.2584  -0.0672 C.3            1 S1                 0.0000
      5 ****        -2.8660   3.9569  -1.0286 C.2            1 S1                 0.0000
      6 ****        -2.3619   4.2003  -2.1264 O.2            1 S1                 0.0000
      7 ****        -2.8446   2.7252  -0.4903 N.am           1 S1                 0.0000
      8 ****        -2.2263   1.5487  -1.0949 C.3            1 S1                 0.0000
      9 ****        -0.7290   1.4435  -0.7846 C.2            1 S1                 0.0000
     10 ****        -0.2700   1.9013   0.2628 O.2            1 S1                 0.0000
     11 ****         0.0165   0.8025  -1.6975 N.am           1 S1                 0.0000
     12 ****         1.4510   0.5517  -1.5907 C.3            1 S1                 0.0000
     13 ****         1.8340  -0.7455  -0.8869 C.ar           1 S1                 0.0000
     14 ****         3.1940  -1.0357  -0.6625 C.ar           1 S1                 0.0000
     15 ****         3.5455  -2.2421  -0.0274 C.ar           1 S1                 0.0000
     16 ****         2.5233  -3.1354   0.3708 C.ar           1 S1                 0.0000
     17 ****         2.8526  -4.3560   0.9992 N.3            1 S1                 0.0000
     18 ****         1.7717  -5.1150   1.6261 C.3            1 S1                 0.0000
     19 ****         2.3442  -6.2570   2.4826 C.3            1 S1                 0.0000
     20 ****         3.1981  -7.0719   1.6868 O.3            1 S1                 0.0000
     21 ****         4.3059  -6.3375   1.1769 C.3            1 S1                 0.0000
     22 ****         3.8049  -5.1954   0.2762 C.3            1 S1                 0.0000
     23 ****         1.2142  -2.8507   0.1636 N.ar           1 S1                 0.0000
     24 ****         0.8831  -1.6943  -0.4482 C.ar           1 S1                 0.0000
     25 ****        -4.4885   5.4598   1.7120 H              1 S1                 0.0000
     26 ****        -3.1910   4.2806   1.7770 H              1 S1                 0.0000
     27 ****        -4.7630   3.8368   1.1087 H              1 S1                 0.0000
     28 ****        -5.5048   4.7888  -1.1824 H              1 S1                 0.0000
     29 ****        -4.4899   5.9551  -2.0238 H              1 S1                 0.0000
     30 ****        -5.2824   6.4023  -0.5224 H              1 S1                 0.0000
     31 ****        -3.0014   7.0815   0.4929 H              1 S1                 0.0000
     32 ****        -2.2361   6.6616  -1.0291 H              1 S1                 0.0000
     33 ****        -1.6619   5.9438   0.4722 H              1 S1                 0.0000
     34 ****        -3.2713   2.5991   0.4161 H              1 S1                 0.0000
     35 ****        -2.7214   0.6616  -0.6997 H              1 S1                 0.0000
     36 ****        -2.3924   1.5440  -2.1739 H              1 S1                 0.0000
     37 ****        -0.4449   0.4576  -2.5270 H              1 S1                 0.0000
     38 ****         1.8569   0.5193  -2.6020 H              1 S1                 0.0000
     39 ****         1.9452   1.3873  -1.0920 H              1 S1                 0.0000
     40 ****         3.9619  -0.3432  -0.9746 H              1 S1                 0.0000
     41 ****         4.5867  -2.4619   0.1553 H              1 S1                 0.0000
     42 ****         1.1669  -4.4602   2.2547 H              1 S1                 0.0000
     43 ****         1.1181  -5.5213   0.8530 H              1 S1                 0.0000
     44 ****         2.8934  -5.8632   3.3395 H              1 S1                 0.0000
     45 ****         1.5348  -6.8708   2.8780 H              1 S1                 0.0000
     46 ****         4.9083  -5.9481   1.9993 H              1 S1                 0.0000
     47 ****         4.9450  -7.0116   0.6066 H              1 S1                 0.0000
     48 ****         3.3118  -5.6060  -0.6059 H              1 S1                 0.0000
     49 ****         4.6606  -4.6221  -0.0773 H              1 S1                 0.0000
     50 ****        -0.1758  -1.5388  -0.5901 H              1 S1                 0.0000
     51 ****        -2.3987   5.1276  -2.4990 LP             1 S1                 0.0000
     52 ****        -1.9160   3.4705  -2.6448 LP             1 S1                 0.0000
     53 ****        -0.8759   2.3474   0.9214 LP             1 S1                 0.0000
     54 ****         0.7087   1.8268   0.4545 LP             1 S1                 0.0000
     55 ****         3.3495  -4.0010   1.7911 LP             1 S1                 0.0000
     56 ****         2.6723  -7.4388   0.9194 LP             1 S1                 0.0000
     57 ****         3.5403  -7.8261   2.2473 LP             1 S1                 0.0000
     58 ****         0.5037  -3.4888   0.4600 LP             1 S1                 0.0000
@<TRIPOS>BOND
    1    1    2 1     
    2    1   25 1     
    3    1   26 1     
    4    1   27 1     
    5    2    3 1     
    6    2    4 1     
    7    2    5 1     
    8    3   28 1     
    9    3   29 1     
   10    3   30 1     
   11    4   31 1     
   12    4   32 1     
   13    4   33 1     
   14    5    6 2     
   15    5    7 am    
   16    7    8 1     
   17    7   34 1     
   18    8    9 1     
   19    8   35 1     
   20    8   36 1     
   21    9   10 2     
   22    9   11 am    
   23   11   12 1     
   24   11   37 1     
   25   12   13 1     
   26   12   38 1     
   27   12   39 1     
   28   13   24 ar    
   29   13   14 ar    
   30   14   15 ar    
   31   14   40 1     
   32   15   16 ar    
   33   15   41 1     
   34   16   17 1     
   35   16   23 ar    
   36   17   22 1     
   37   17   18 1     
   38   18   19 1     
   39   18   42 1     
   40   18   43 1     
   41   19   20 1     
   42   19   44 1     
   43   19   45 1     
   44   20   21 1     
   45   21   22 1     
   46   21   46 1     
   47   21   47 1     
   48   22   48 1     
   49   22   49 1     
   50   23   24 ar    
   51   24   50 1     
   52    6   51 1     
   53    6   52 1     
   54   10   53 1     
   55   10   54 1     
   56   17   55 1     
   57   20   56 1     
   58   20   57 1     
   59   23   58 1     
@<TRIPOS>SUBSTRUCTURE
      1 S1             1
@<TRIPOS>SET
LONE_PAIRS      STATIC     ATOMS    <user>   **** ""
8 51 52 53 54 55 56 57 58
DONOR_HYDROGENS      STATIC     ATOMS    <user>   **** ""
2 34 37
ATOM$BLUE        STATIC     ATOMS    COLORGROUP SYSTEM
8 51 52 53 54 55 56 57 58
ATOM$RED        STATIC     ATOMS    COLORGROUP SYSTEM
2 34 37
