AV-unprocessed.smi:1662|AV-procd|sdf|6659|dock2
  -GOLD-   22720 7373D 1   1.00000     0.00000
 Structure written by MMmdl.
 47 48  0  0  0  0  0  0  0  0  1 V2000
  150.7699  141.0015  155.9302 C   0  0  0  0  0  0  0  0  0  0  0  0
  151.0948  139.5836  156.3157 C   0  0  0  0  0  0  0  0  0  0  0  0
  151.8435  139.4224  157.3570 N   0  0  0  0  0  0  0  0  0  0  0  0
  152.2070  138.1630  157.7935 N   0  0  0  0  0  0  0  0  0  0  0  0
  153.0720  138.1664  158.9827 C   0  0  0  0  0  0  0  0  0  0  0  0
  153.6111  139.5591  159.3401 C   0  0  0  0  0  0  0  0  0  0  0  0
  154.7963  139.8431  159.1598 O   0  0  0  0  0  0  0  0  0  0  0  0
  152.7136  140.4254  159.8342 N   0  0  0  0  0  0  0  0  0  0  0  0
  152.9933  141.8034  160.2349 C   0  0  2  0  0  0  0  0  0  0  0  0
  153.1437  141.8662  161.7677 C   0  0  0  0  0  0  0  0  0  0  0  0
  153.3911  143.2996  162.2459 C   0  0  0  0  0  0  0  0  0  0  0  0
  152.2624  144.2246  161.7795 C   0  0  0  0  0  0  0  0  0  0  0  0
  152.1011  144.2056  160.2463 C   0  0  2  0  0  0  0  0  0  0  0  0
  150.9779  145.1767  159.8371 C   0  0  0  0  0  0  0  0  0  0  0  0
  151.8794  142.7576  159.7228 C   0  0  1  0  0  0  0  0  0  0  0  0
  151.7750  142.7108  158.1822 C   0  0  0  0  0  0  0  0  0  0  0  0
  151.8262  136.9950  157.1996 C   0  0  0  0  0  0  0  0  0  0  0  0
  152.1737  135.8919  157.6242 O   0  0  0  0  0  0  0  0  0  0  0  0
  150.9760  137.1856  156.0224 C   0  0  0  0  0  0  0  0  0  0  0  0
  150.5570  135.9883  155.3679 C   0  0  0  0  0  0  0  0  0  0  0  0
  150.2241  135.0054  154.8544 N   0  0  0  0  0  0  0  0  0  0  0  0
  150.6123  138.4168  155.5841 C   0  0  0  0  0  0  0  0  0  0  0  0
  149.7322  138.6668  154.3672 C   0  0  0  0  0  0  0  0  0  0  0  0
  149.7049  141.2000  156.0509 H   0  0  0  0  0  0  0  0  0  0  0  0
  151.0339  141.1910  154.8897 H   0  0  0  0  0  0  0  0  0  0  0  0
  151.3121  141.7240  156.5419 H   0  0  0  0  0  0  0  0  0  0  0  0
  152.5268  137.7844  159.8478 H   0  0  0  0  0  0  0  0  0  0  0  0
  153.9069  137.4780  158.8365 H   0  0  0  0  0  0  0  0  0  0  0  0
  151.7615  140.1071  159.9432 H   0  0  0  0  0  0  0  0  0  0  0  0
  153.9362  142.1183  159.7829 H   0  0  0  0  0  0  0  0  0  0  0  0
  152.2440  141.4745  162.2448 H   0  0  0  0  0  0  0  0  0  0  0  0
  153.9672  141.2295  162.0931 H   0  0  0  0  0  0  0  0  0  0  0  0
  153.4651  143.3213  163.3334 H   0  0  0  0  0  0  0  0  0  0  0  0
  154.3467  143.6583  161.8616 H   0  0  0  0  0  0  0  0  0  0  0  0
  151.3267  143.9239  162.2531 H   0  0  0  0  0  0  0  0  0  0  0  0
  152.4671  145.2398  162.1216 H   0  0  0  0  0  0  0  0  0  0  0  0
  153.0301  144.5811  159.8146 H   0  0  0  0  0  0  0  0  0  0  0  0
  150.0025  144.8144  160.1626 H   0  0  0  0  0  0  0  0  0  0  0  0
  150.9397  145.3260  158.7588 H   0  0  0  0  0  0  0  0  0  0  0  0
  151.1301  146.1599  160.2831 H   0  0  0  0  0  0  0  0  0  0  0  0
  150.9288  142.4026  160.1253 H   0  0  0  0  0  0  0  0  0  0  0  0
  152.6766  143.1069  157.7140 H   0  0  0  0  0  0  0  0  0  0  0  0
  150.9267  143.2870  157.8154 H   0  0  0  0  0  0  0  0  0  0  0  0
  151.6323  141.6953  157.8133 H   0  0  0  0  0  0  0  0  0  0  0  0
  149.3310  137.7428  153.9522 H   0  0  0  0  0  0  0  0  0  0  0  0
  150.3031  139.1615  153.5812 H   0  0  0  0  0  0  0  0  0  0  0  0
  148.8834  139.3000  154.6270 H   0  0  0  0  0  0  0  0  0  0  0  0
  1  2  1  0  0  0  0
  1 24  1  0  0  0  0
  1 25  1  0  0  0  0
  1 26  1  0  0  0  0
  2 22  1  0  0  0  0
  2  3  2  0  0  0  0
  3  4  1  0  0  0  0
  4  5  1  0  0  0  0
  4 17  1  0  0  0  0
  5  6  1  0  0  0  0
  5 27  1  0  0  0  0
  5 28  1  0  0  0  0
  6  7  2  0  0  0  0
  6  8  1  0  0  0  0
  8  9  1  0  0  0  0
  8 29  1  0  0  0  0
  9 15  1  0  0  0  0
  9 10  1  0  0  0  0
  9 30  1  0  0  0  0
 10 11  1  0  0  0  0
 10 31  1  0  0  0  0
 10 32  1  0  0  0  0
 11 12  1  0  0  0  0
 11 33  1  0  0  0  0
 11 34  1  0  0  0  0
 12 13  1  0  0  0  0
 12 35  1  0  0  0  0
 12 36  1  0  0  0  0
 13 14  1  0  0  0  0
 13 15  1  0  0  0  0
 13 37  1  0  0  0  0
 14 38  1  0  0  0  0
 14 39  1  0  0  0  0
 14 40  1  0  0  0  0
 15 16  1  0  0  0  0
 15 41  1  0  0  0  0
 16 42  1  0  0  0  0
 16 43  1  0  0  0  0
 16 44  1  0  0  0  0
 17 18  2  0  0  0  0
 17 19  1  0  0  0  0
 19 20  1  0  0  0  0
 19 22  2  0  0  0  0
 20 21  3  0  0  0  0
 22 23  1  0  0  0  0
 23 45  1  0  0  0  0
 23 46  1  0  0  0  0
 23 47  1  0  0  0  0
M  END
> <s_m_source_file>
AV-unprocessed.smi

> <i_m_source_file_index>
1662

> <i_lp_mmshare_version>
43012

> <i_f3d_flags>
0

> <s_epik_input>
TiNDYyhjMVtDSDNdKWMoPU8pbihuYzFbQ0gzXSlbQ0gyXUMoPU8pW05IXVtDQEBIXTJbQ0gyXVtDSDJdW0NIMl1bQ0BASF0oW0NIM10pW0NASF0yW0NIM10=

> <s_epik_cmdline>
J2VwaWtfcHl0aG9uJywgJy1waCcsICc3LjAnLCAnLXRuJywgJzgnLCAnLW1hJywgJzIwMCcsICctbWV0YWxfYmluZGluZycsICctaW1hZScsICc8aW5maWxlLm1hZT4nLCAnLW9tYWUnLCAnPG91dGZpbGUubWFlPic=

> <r_lp_tautomer_probability>
1

> <r_epik_Ionization_Penalty>
1.90709e-08

> <r_epik_Ionization_Penalty_Charging>
2.37982e-11

> <r_epik_Ionization_Penalty_Neutral>
1.90471e-08

> <r_epik_State_Penalty>
-0

> <r_epik_Charging_Adjusted_Penalty>
2.37982e-11

> <i_epik_Tot_Q>
0

> <i_epik_Tot_abs_Q>
0

> <r_epik_Metal_State_Penalty>
-0

> <b_epik_Metal_Only>
0

> <s_lp_Force_Field>
OPLS_2005

> <r_lp_Energy>
27.4579

> <b_lp_Chiralities_Consistent>
1

> <s_lp_Variant>
AV-unprocessed.smi:1662-3

> <Gold.Version>
5.8.1

> <Gold.Id.Protein>
6NUR|6NUR_protein|mol2

> <Gold.PLP.Fitness>
43.8179

> <Gold.PLP.PLP>
-41.7632

> <Gold.PLP.part.hbond>
-1.8950

> <Gold.PLP.part.metal>
0.0000

> <Gold.PLP.part.buried>
-5.0858

> <Gold.PLP.part.nonpolar>
-33.5780

> <Gold.PLP.part.repulsive>
0.3153

> <Gold.PLP.ligand.clash>
0.0000

> <Gold.PLP.ligand.torsion>
0.4785

> <Gold.PLP.Chemscore.Hbond>
1.0000

> <Gold.PLP.Chemscore.CHOScore>
0.0000

> <Gold.PLP.Chemscore.Metal>
0.0000

> <Gold.Chemscore.Hbonds>
donor molecule, donor type, donor heavy atom, donor atom, acceptor molecule, acceptor atom, score
      P1  H  7997  8010       L1     7  1.00

> <Gold.PLP.Chemscore.Internal.Correction>
0.0117

> <Gold.Rescore>
     Score         DG    S(hbond)    S(metal)    S(lipo)     H(rot)  DE(clash)    DE(int)     intcor
     16.90     -19.17       0.97        0.00     121.21       1.45       1.50       0.78       ----

> <Gold.Chemscore.Fitness>
16.8953

> <Gold.Chemscore.DG>
-19.1742

> <Gold.Chemscore.ZeroCoef>
-5.4800

> <Gold.Chemscore.Hbond>
0.9659

> <Gold.Chemscore.Metal>
0.0000

> <Gold.Chemscore.Lipo>
121.2053

> <Gold.Chemscore.Internal_Hbond>
0.0000

> <Gold.Chemscore.DEClash>
1.5030

> <Gold.Chemscore.DEInternal>
0.7759

> <Gold.Chemscore.Rot>
1.4504

> <Gold.Chemscore.Internal.Correction>
   9.000000E+99

> <Gold.Chemscore.Hbonds>
donor molecule, donor type, donor heavy atom, donor atom, acceptor molecule, acceptor atom, score
      P1  H  7997  8010       L1     7  0.84

> <Gold.Chemscore.Hbond.Weighted>
-3.2261

> <Gold.Chemscore.Metal.Weighted>
-0.0000

> <Gold.Chemscore.Lipo.Weighted>
-14.1810

> <Gold.Chemscore.Internal_Hbond.Weighted>
0.0000

> <Gold.Chemscore.DEClash.Weighted>
1.5030

> <Gold.Chemscore.DEInternal.Weighted>
0.7759

> <Gold.Chemscore.Rot.Weighted>
3.7129

> <Gold.Chemscore.Internal.Correction.Weighted>
   9.000000E+99

> <Gold.Protein.RotatedTorsions>
[ 6907 6896 6895 6894 ] final -137.86 input  -60.11 | X-H torsion
[ 7974 7965 7964 7962 ] final -146.45 input  175.53 | X-H torsion
[ 8008 7997 7996 7995 ] final   -6.59 input   59.86 | X-H torsion
[ 10167 10162 10161 10158 ] final  129.23 input  -65.29 | X-H torsion
[ 10718 10713 10712 10709 ] final    1.19 input   66.30 | X-H torsion
[ 10763 10752 10751 10750 ] final  -42.05 input  -60.55 | X-H torsion
[ 11005 11000 10999 10996 ] final   82.56 input  -57.11 | X-H torsion

> <Gold.Protein.ActiveResidues>
 VAL166  LYS551  ARG553  GLY616  TRP617  ASP618  TYR619  PRO620  LYS621  CYS622 
 ASP623  PHE694  ASN695  SER759  ASP760  ASP761  ALA762  ILE779  LEU786  VAL792 
 PHE793  MET794  SER795  GLU796  ALA797  LYS798  CYS799  TRP800  GLU811  SER814 

> <Gold.Protein.RotatedAtoms>
  151.0277  133.5818  159.2663 H   0  0  0  0  0  0  0  0  0  0  0  0  # atno 6907 bound_to 6896
  151.2911  135.0741  159.9214 H   0  0  0  0  0  0  0  0  0  0  0  0  # atno 6908 bound_to 6896
  152.5338  133.9975  159.7933 H   0  0  0  0  0  0  0  0  0  0  0  0  # atno 6909 bound_to 6896
  144.8158  140.5454  143.5611 H   0  0  0  0  0  0  0  0  0  0  0  0  # atno 7974 bound_to 7965
  154.5923  140.2429  155.7904 H   0  0  0  0  0  0  0  0  0  0  0  0  # atno 8008 bound_to 7997
  156.2255  140.2984  156.0011 H   0  0  0  0  0  0  0  0  0  0  0  0  # atno 8009 bound_to 7997
  155.2353  140.0405  157.2958 H   0  0  0  0  0  0  0  0  0  0  0  0  # atno 8010 bound_to 7997
  139.5488  144.6796  151.4389 H   0  0  0  0  0  0  0  0  0  0  0  0  # atno 10167 bound_to 10162
  156.8445  130.5532  149.5675 H   0  0  0  0  0  0  0  0  0  0  0  0  # atno 10718 bound_to 10713
  153.9726  135.6726  153.4747 H   0  0  0  0  0  0  0  0  0  0  0  0  # atno 10763 bound_to 10752
  153.0786  135.4935  154.8452 H   0  0  0  0  0  0  0  0  0  0  0  0  # atno 10764 bound_to 10752
  154.7210  135.3117  154.9008 H   0  0  0  0  0  0  0  0  0  0  0  0  # atno 10765 bound_to 10752
  139.9059  134.8080  156.2191 H   0  0  0  0  0  0  0  0  0  0  0  0  # atno 11005 bound_to 11000
  145.5217  139.1476  143.3548 LP  0  0  0  0  0  0  0  0  0  0  0  0  # atno 17320 bound_to 7965
  146.2461  140.5358  142.8913 LP  0  0  0  0  0  0  0  0  0  0  0  0  # atno 17321 bound_to 7965
  140.6744  143.8221  150.7040 LP  0  0  0  0  0  0  0  0  0  0  0  0  # atno 17342 bound_to 10162
  140.1656  143.4238  152.2037 LP  0  0  0  0  0  0  0  0  0  0  0  0  # atno 17343 bound_to 10162
  156.0862  130.5860  150.9653 LP  0  0  0  0  0  0  0  0  0  0  0  0  # atno 17370 bound_to 10713
  157.6337  131.0918  150.8390 LP  0  0  0  0  0  0  0  0  0  0  0  0  # atno 17371 bound_to 10713
  141.0417  133.6934  156.1610 LP  0  0  0  0  0  0  0  0  0  0  0  0  # atno 17394 bound_to 11000
  140.6945  134.4630  157.5588 LP  0  0  0  0  0  0  0  0  0  0  0  0  # atno 17395 bound_to 11000

$$$$
