#       Name:                AV-unprocessed.smi:1695
#       Creating user name   scv26
#       Creation time:       Fri Mar 27 07:56:23 2020


#       File generated by GOLD software.
#

@<TRIPOS>MOLECULE
AV-unprocessed.smi:1695
    56    58     1
SMALL
NO_CHARGES


@<TRIPOS>ATOM
      1 ****        -2.7311   5.8858   2.0463 C.3            1 S1                 0.0000
      2 ****        -2.7424   4.4860   1.4579 C.ar           1 S1                 0.0000
      3 ****        -3.5652   4.2169   0.3411 C.ar           1 S1                 0.0000
      4 ****        -3.6071   2.9279  -0.2340 C.ar           1 S1                 0.0000
      5 ****        -4.3303   2.4478  -1.3124 N.2            1 S1                 0.0000
      6 ****        -3.9408   1.1767  -1.3511 C.2            1 S1                 0.0000
      7 ****        -3.0493   0.7765  -0.4241 N.pl3          1 S1                 0.0000
      8 ****        -2.4823  -0.5510  -0.2669 C.3            1 S1                 0.0000
      9 ****        -1.0569  -0.6587  -0.8440 C.3            1 S1                 0.0000
     10 ****        -1.1064  -0.3510  -2.2245 O.3            1 S1                 0.0000
     11 ****        -0.4725  -2.0760  -0.6645 C.3            1 S1                 0.0000
     12 ****         0.9732  -2.1373  -0.4429 N.3            1 S1                 0.0000
     13 ****         1.7389  -1.7169  -1.6194 C.3            1 S1                 0.0000
     14 ****         3.2579  -1.7375  -1.3766 C.3            1 S1                 0.0000
     15 ****         3.7216  -3.1397  -0.9334 C.3            1 S1                 0.0000
     16 ****         5.2192  -3.1550  -0.5990 C.2            1 S1                 0.0000
     17 ****         5.9898  -3.9924  -1.2978 N.am           1 S1                 0.0000
     18 ****         5.6771  -2.4236   0.2770 O.2            1 S1                 0.0000
     19 ****         2.8760  -3.5886   0.2744 C.3            1 S1                 0.0000
     20 ****         1.3764  -3.4881  -0.0500 C.3            1 S1                 0.0000
     21 ****        -2.7961   1.9075   0.3433 C.ar           1 S1                 0.0000
     22 ****        -1.9715   2.1632   1.4529 C.ar           1 S1                 0.0000
     23 ****        -1.9414   3.4566   2.0149 C.ar           1 S1                 0.0000
     24 ****        -1.0484   3.7220   3.2139 C.3            1 S1                 0.0000
     25 ****        -3.4456   6.5360   1.5410 H              1 S1                 0.0000
     26 ****        -1.7420   6.3330   1.9463 H              1 S1                 0.0000
     27 ****        -2.9947   5.8597   3.1037 H              1 S1                 0.0000
     28 ****        -4.1739   5.0008  -0.0847 H              1 S1                 0.0000
     29 ****        -4.3231   0.4964  -2.0982 H              1 S1                 0.0000
     30 ****        -2.4771  -0.7905   0.7972 H              1 S1                 0.0000
     31 ****        -3.1447  -1.2737  -0.7463 H              1 S1                 0.0000
     32 ****        -0.4199   0.0716  -0.3424 H              1 S1                 0.0000
     33 ****        -0.2252  -0.3681  -2.5653 H              1 S1                 0.0000
     34 ****        -0.9544  -2.5140   0.2106 H              1 S1                 0.0000
     35 ****        -0.7599  -2.7172  -1.4996 H              1 S1                 0.0000
     36 ****         1.4958  -2.3576  -2.4686 H              1 S1                 0.0000
     37 ****         1.4585  -0.7036  -1.9049 H              1 S1                 0.0000
     38 ****         3.7788  -1.4381  -2.2868 H              1 S1                 0.0000
     39 ****         3.5084  -0.9946  -0.6172 H              1 S1                 0.0000
     40 ****         3.5400  -3.8347  -1.7554 H              1 S1                 0.0000
     41 ****         6.9820  -4.0370  -1.1161 H              1 S1                 0.0000
     42 ****         5.5755  -4.5774  -2.0089 H              1 S1                 0.0000
     43 ****         3.1240  -4.6145   0.5490 H              1 S1                 0.0000
     44 ****         3.0973  -2.9707   1.1464 H              1 S1                 0.0000
     45 ****         0.8091  -3.7999   0.8279 H              1 S1                 0.0000
     46 ****         1.1276  -4.1945  -0.8438 H              1 S1                 0.0000
     47 ****        -1.3674   1.3692   1.8666 H              1 S1                 0.0000
     48 ****        -0.4501   2.8459   3.4656 H              1 S1                 0.0000
     49 ****        -1.6498   3.9801   4.0857 H              1 S1                 0.0000
     50 ****        -0.3633   4.5449   3.0085 H              1 S1                 0.0000
     51 ****        -4.9752   2.9295  -1.9056 LP             1 S1                 0.0000
     52 ****        -1.5011   0.5586  -2.3539 LP             1 S1                 0.0000
     53 ****        -1.6663  -1.0283  -2.7017 LP             1 S1                 0.0000
     54 ****         1.1777  -1.4963   0.2969 LP             1 S1                 0.0000
     55 ****         5.0715  -1.8085   0.7819 LP             1 S1                 0.0000
     56 ****         6.6551  -2.4439   0.4846 LP             1 S1                 0.0000
@<TRIPOS>BOND
    1    1    2 1     
    2    1   25 1     
    3    1   26 1     
    4    1   27 1     
    5    2   23 ar    
    6    2    3 ar    
    7    3    4 ar    
    8    3   28 1     
    9    4   21 ar    
   10    4    5 1     
   11    5    6 2     
   12    6    7 1     
   13    6   29 1     
   14    7    8 1     
   15    7   21 1     
   16    8    9 1     
   17    8   30 1     
   18    8   31 1     
   19    9   10 1     
   20    9   11 1     
   21    9   32 1     
   22   10   33 1     
   23   11   12 1     
   24   11   34 1     
   25   11   35 1     
   26   12   20 1     
   27   12   13 1     
   28   13   14 1     
   29   13   36 1     
   30   13   37 1     
   31   14   15 1     
   32   14   38 1     
   33   14   39 1     
   34   15   16 1     
   35   15   19 1     
   36   15   40 1     
   37   16   17 am    
   38   16   18 2     
   39   17   41 1     
   40   17   42 1     
   41   19   20 1     
   42   19   43 1     
   43   19   44 1     
   44   20   45 1     
   45   20   46 1     
   46   21   22 ar    
   47   22   23 ar    
   48   22   47 1     
   49   23   24 1     
   50   24   48 1     
   51   24   49 1     
   52   24   50 1     
   53    5   51 1     
   54   10   52 1     
   55   10   53 1     
   56   12   54 1     
   57   18   55 1     
   58   18   56 1     
@<TRIPOS>SUBSTRUCTURE
      1 S1             1
@<TRIPOS>SET
LONE_PAIRS      STATIC     ATOMS    <user>   **** ""
6 51 52 53 54 55 56
DONOR_HYDROGENS      STATIC     ATOMS    <user>   **** ""
3 33 41 42
ATOM$BLUE        STATIC     ATOMS    COLORGROUP SYSTEM
6 51 52 53 54 55 56
ATOM$RED        STATIC     ATOMS    COLORGROUP SYSTEM
3 33 41 42
