AV-unprocessed.smi:2351|AV-procd|sdf|9375|dock2
  -GOLD-   2272013 03D 1   1.00000     0.00000
 Structure written by MMmdl.
 47 49  0  0  0  0  0  0  0  0  2 V2000
  148.6226  138.8558  155.4791 O   0  0  0  0  0  0  0  0  0  0  0  0
  148.8407  139.2841  154.3462 C   0  0  0  0  0  0  0  0  0  0  0  0
  148.0729  139.0632  153.2653 N   0  0  0  0  0  0  0  0  0  0  0  0
  146.8592  138.3286  153.1665 C   0  0  0  0  0  0  0  0  0  0  0  0
  146.2405  137.6603  154.2508 C   0  0  0  0  0  0  0  0  0  0  0  0
  145.0438  136.9541  154.0137 C   0  0  0  0  0  0  0  0  0  0  0  0
  144.4551  136.8724  152.8017 N   0  0  0  0  0  0  0  0  0  0  0  0
  145.0549  137.4993  151.7679 C   0  0  0  0  0  0  0  0  0  0  0  0
  146.2524  138.2314  151.8963 C   0  0  0  0  0  0  0  0  0  0  0  0
  146.8044  138.8340  150.8154 F   0  0  0  0  0  0  0  0  0  0  0  0
  149.8915  140.0603  154.0432 N   0  0  0  0  0  0  0  0  0  0  0  0
  150.8963  140.5216  154.9969 C   0  0  2  0  0  0  0  0  0  0  0  0
  151.2833  139.3767  155.9455 C   0  0  0  0  0  0  0  0  0  0  0  0
  152.2869  139.8529  157.0091 C   0  0  0  0  0  0  0  0  0  0  0  0
  151.7505  141.0061  157.7782 N   0  3  1  0  0  0  0  0  0  0  0  0
  152.6342  141.4060  158.9046 C   0  0  0  0  0  0  0  0  0  0  0  0
  152.0132  142.5250  159.7624 C   0  0  1  0  0  0  0  0  0  0  0  0
  152.6935  142.6987  161.1061 C   0  0  0  0  0  0  0  0  0  0  0  0
  152.2252  144.0880  161.5264 C   0  0  0  0  0  0  0  0  0  0  0  0
  152.0462  144.8171  160.3162 O   0  0  0  0  0  0  0  0  0  0  0  0
  152.1447  143.9410  159.1984 C   0  0  0  0  0  0  0  0  0  0  0  0
  151.3984  142.1402  156.8830 C   0  0  0  0  0  0  0  0  0  0  0  0
  150.3738  141.7133  155.8189 C   0  0  0  0  0  0  0  0  0  0  0  0
  148.3514  139.5393  152.4198 H   0  0  0  0  0  0  0  0  0  0  0  0
  146.6572  137.6633  155.2459 H   0  0  0  0  0  0  0  0  0  0  0  0
  144.5489  136.4349  154.8210 H   0  0  0  0  0  0  0  0  0  0  0  0
  144.5669  137.4138  150.8083 H   0  0  0  0  0  0  0  0  0  0  0  0
  149.9931  140.3691  153.0873 H   0  0  0  0  0  0  0  0  0  0  0  0
  151.7911  140.8296  154.4519 H   0  0  0  0  0  0  0  0  0  0  0  0
  150.3924  138.9838  156.4383 H   0  0  0  0  0  0  0  0  0  0  0  0
  151.7135  138.5500  155.3786 H   0  0  0  0  0  0  0  0  0  0  0  0
  152.5022  139.0260  157.6872 H   0  0  0  0  0  0  0  0  0  0  0  0
  153.2306  140.1340  156.5390 H   0  0  0  0  0  0  0  0  0  0  0  0
  152.7941  140.5475  159.5590 H   0  0  0  0  0  0  0  0  0  0  0  0
  153.6250  141.6855  158.5423 H   0  0  0  0  0  0  0  0  0  0  0  0
  150.9585  142.3078  159.9407 H   0  0  0  0  0  0  0  0  0  0  0  0
  152.4245  141.9263  161.8274 H   0  0  0  0  0  0  0  0  0  0  0  0
  153.7782  142.6919  160.9880 H   0  0  0  0  0  0  0  0  0  0  0  0
  151.2648  144.0277  162.0397 H   0  0  0  0  0  0  0  0  0  0  0  0
  152.9340  144.5831  162.1905 H   0  0  0  0  0  0  0  0  0  0  0  0
  153.1220  144.0858  158.7358 H   0  0  0  0  0  0  0  0  0  0  0  0
  151.3796  144.1685  158.4559 H   0  0  0  0  0  0  0  0  0  0  0  0
  150.9877  142.9660  157.4620 H   0  0  0  0  0  0  0  0  0  0  0  0
  152.3013  142.5163  156.3992 H   0  0  0  0  0  0  0  0  0  0  0  0
  150.1554  142.5573  155.1633 H   0  0  0  0  0  0  0  0  0  0  0  0
  149.4338  141.4477  156.3048 H   0  0  0  0  0  0  0  0  0  0  0  0
  150.8899  140.6825  158.1964 H   0  0  0  0  0  0  0  0  0  0  0  0
  1  2  2  0  0  0  0
  2  3  1  0  0  0  0
  2 11  1  0  0  0  0
  3  4  1  0  0  0  0
  3 24  1  0  0  0  0
  4  9  1  0  0  0  0
  4  5  2  0  0  0  0
  5  6  1  0  0  0  0
  5 25  1  0  0  0  0
  6  7  2  0  0  0  0
  6 26  1  0  0  0  0
  7  8  1  0  0  0  0
  8  9  2  0  0  0  0
  8 27  1  0  0  0  0
  9 10  1  0  0  0  0
 11 12  1  0  0  0  0
 11 28  1  0  0  0  0
 12 23  1  0  0  0  0
 12 13  1  0  0  0  0
 12 29  1  0  0  0  0
 13 14  1  0  0  0  0
 13 30  1  0  0  0  0
 13 31  1  0  0  0  0
 14 15  1  0  0  0  0
 14 32  1  0  0  0  0
 14 33  1  0  0  0  0
 15 16  1  0  0  0  0
 15 22  1  0  0  0  0
 15 47  1  0  0  0  0
 16 17  1  0  0  0  0
 16 34  1  0  0  0  0
 16 35  1  0  0  0  0
 17 21  1  0  0  0  0
 17 18  1  0  0  0  0
 17 36  1  0  0  0  0
 18 19  1  0  0  0  0
 18 37  1  0  0  0  0
 18 38  1  0  0  0  0
 19 20  1  0  0  0  0
 19 39  1  0  0  0  0
 19 40  1  0  0  0  0
 20 21  1  0  0  0  0
 21 41  1  0  0  0  0
 21 42  1  0  0  0  0
 22 23  1  0  0  0  0
 22 43  1  0  0  0  0
 22 44  1  0  0  0  0
 23 45  1  0  0  0  0
 23 46  1  0  0  0  0
M  CHG  1  15   1
M  END
> <s_m_source_file>
AV-unprocessed.smi

> <i_m_source_file_index>
2351

> <i_lp_mmshare_version>
43012

> <i_f3d_flags>
0

> <s_epik_input>
RmMxW2NIXW5bY0hdW2NIXWMxW05IXUMoPU8pW05IXVtDSF0yW0NIMl1bQ0gyXU4oW0NIMl1bQ0gyXTIpW0NIMl1bQ0BASF0zW0NIMl1bQ0gyXU9bQ0gyXTM=

> <s_epik_cmdline>
J2VwaWtfcHl0aG9uJywgJy1waCcsICc3LjAnLCAnLXRuJywgJzgnLCAnLW1hJywgJzIwMCcsICctbWV0YWxfYmluZGluZycsICctaW1hZScsICc8aW5maWxlLm1hZT4nLCAnLW9tYWUnLCAnPG91dGZpbGUubWFlPic=

> <r_epik_Ionization_Penalty>
0.0102464

> <r_epik_Ionization_Penalty_Charging>
0.00747775

> <r_epik_Ionization_Penalty_Neutral>
0.00276864

> <r_epik_State_Penalty>
0.00558817

> <r_epik_Charging_Adjusted_Penalty>
0.0130659

> <i_epik_Tot_Q>
1

> <i_epik_Tot_abs_Q>
1

> <r_epik_Metal_State_Penalty>
-0

> <b_epik_Metal_Only>
0

> <s_lp_Force_Field>
OPLS_2005

> <r_lp_Energy>
39.8259

> <b_lp_Chiralities_Consistent>
1

> <s_lp_Variant>
AV-unprocessed.smi:2351-2

> <Gold.Version>
5.8.1

> <Gold.Id.Protein>
6NUR|6NUR_protein|mol2

> <Gold.PLP.Fitness>
43.5022

> <Gold.PLP.PLP>
-35.7692

> <Gold.PLP.part.hbond>
-2.3203

> <Gold.PLP.part.metal>
0.0000

> <Gold.PLP.part.buried>
5.5889

> <Gold.PLP.part.nonpolar>
-38.4283

> <Gold.PLP.part.repulsive>
1.2893

> <Gold.PLP.ligand.clash>
0.0000

> <Gold.PLP.ligand.torsion>
0.4144

> <Gold.PLP.Chemscore.Hbond>
1.8779

> <Gold.PLP.Chemscore.CHOScore>
0.9678

> <Gold.PLP.Chemscore.Metal>
0.0000

> <Gold.Chemscore.Hbonds>
donor molecule, donor type, donor heavy atom, donor atom, acceptor molecule, acceptor atom, score
      L1  H     3    24       P1  7957  1.00
      L1  H    11    28       P1  7957  0.98
      L1  C     8    27       P1 10171  0.14

> <Gold.PLP.Chemscore.Internal.Correction>
0.0249

> <Gold.Rescore>
     Score         DG    S(hbond)    S(metal)    S(lipo)     H(rot)  DE(clash)    DE(int)     intcor
     14.45     -21.25       1.91        0.00     112.04       1.45       3.82       2.99       ----

> <Gold.Chemscore.Fitness>
14.4461

> <Gold.Chemscore.DG>
-21.2548

> <Gold.Chemscore.ZeroCoef>
-5.4800

> <Gold.Chemscore.Hbond>
1.9083

> <Gold.Chemscore.Metal>
0.0000

> <Gold.Chemscore.Lipo>
112.0415

> <Gold.Chemscore.Internal_Hbond>
0.0000

> <Gold.Chemscore.DEClash>
3.8208

> <Gold.Chemscore.DEInternal>
2.9879

> <Gold.Chemscore.Rot>
1.4483

> <Gold.Chemscore.Internal.Correction>
   9.000000E+99

> <Gold.Chemscore.Hbonds>
donor molecule, donor type, donor heavy atom, donor atom, acceptor molecule, acceptor atom, score
      L1  H     3    24       P1  7957  0.97
      L1  H    11    28       P1  7957  0.90

> <Gold.Chemscore.Hbond.Weighted>
-6.3737

> <Gold.Chemscore.Metal.Weighted>
-0.0000

> <Gold.Chemscore.Lipo.Weighted>
-13.1089

> <Gold.Chemscore.Internal_Hbond.Weighted>
0.0000

> <Gold.Chemscore.DEClash.Weighted>
3.8208

> <Gold.Chemscore.DEInternal.Weighted>
2.9879

> <Gold.Chemscore.Rot.Weighted>
3.7077

> <Gold.Chemscore.Internal.Correction.Weighted>
   9.000000E+99

> <Gold.Protein.RotatedTorsions>
[ 6907 6896 6895 6894 ] final  -53.10 input  -60.11 | X-H torsion
[ 7974 7965 7964 7962 ] final  109.66 input  175.53 | X-H torsion
[ 8008 7997 7996 7995 ] final   63.98 input   59.86 | X-H torsion
[ 10167 10162 10161 10158 ] final -105.55 input  -65.29 | X-H torsion
[ 10718 10713 10712 10709 ] final -105.66 input   66.30 | X-H torsion
[ 10763 10752 10751 10750 ] final  -29.91 input  -60.55 | X-H torsion
[ 11005 11000 10999 10996 ] final  -38.49 input  -57.11 | X-H torsion

> <Gold.Protein.ActiveResidues>
 VAL166  LYS551  ARG553  GLY616  TRP617  ASP618  TYR619  PRO620  LYS621  CYS622 
 ASP623  PHE694  ASN695  SER759  ASP760  ASP761  ALA762  ILE779  LEU786  VAL792 
 PHE793  MET794  SER795  GLU796  ALA797  LYS798  CYS799  TRP800  GLU811  SER814 

> <Gold.Protein.RotatedAtoms>
  150.8457  134.7766  159.6968 H   0  0  0  0  0  0  0  0  0  0  0  0  # atno 6907 bound_to 6896
  152.4535  134.5340  159.9829 H   0  0  0  0  0  0  0  0  0  0  0  0  # atno 6908 bound_to 6896
  151.5471  133.3385  159.2982 H   0  0  0  0  0  0  0  0  0  0  0  0  # atno 6909 bound_to 6896
  145.2649  139.2688  143.3997 H   0  0  0  0  0  0  0  0  0  0  0  0  # atno 7974 bound_to 7965
  155.6387  140.3496  155.4707 H   0  0  0  0  0  0  0  0  0  0  0  0  # atno 8008 bound_to 7997
  155.9943  140.1200  157.0632 H   0  0  0  0  0  0  0  0  0  0  0  0  # atno 8009 bound_to 7997
  154.4229  140.1113  156.5595 H   0  0  0  0  0  0  0  0  0  0  0  0  # atno 8010 bound_to 7997
  140.1973  143.3846  152.1158 H   0  0  0  0  0  0  0  0  0  0  0  0  # atno 10167 bound_to 10162
  156.0356  130.5575  150.7571 H   0  0  0  0  0  0  0  0  0  0  0  0  # atno 10718 bound_to 10713
  153.7723  135.6911  153.4904 H   0  0  0  0  0  0  0  0  0  0  0  0  # atno 10763 bound_to 10752
  153.1866  135.4486  155.0095 H   0  0  0  0  0  0  0  0  0  0  0  0  # atno 10764 bound_to 10752
  154.8113  135.3379  154.7231 H   0  0  0  0  0  0  0  0  0  0  0  0  # atno 10765 bound_to 10752
  141.0031  133.6945  156.2060 H   0  0  0  0  0  0  0  0  0  0  0  0  # atno 11005 bound_to 11000
  146.3264  140.3077  142.8624 LP  0  0  0  0  0  0  0  0  0  0  0  0  # atno 17320 bound_to 7965
  144.9385  140.8053  143.5645 LP  0  0  0  0  0  0  0  0  0  0  0  0  # atno 17321 bound_to 7965
  139.5231  144.7068  151.5330 LP  0  0  0  0  0  0  0  0  0  0  0  0  # atno 17342 bound_to 10162
  140.6415  143.8880  150.6696 LP  0  0  0  0  0  0  0  0  0  0  0  0  # atno 17343 bound_to 10162
  157.5100  131.0925  151.0210 LP  0  0  0  0  0  0  0  0  0  0  0  0  # atno 17370 bound_to 10713
  157.0567  130.5809  149.5379 LP  0  0  0  0  0  0  0  0  0  0  0  0  # atno 17371 bound_to 10713
  140.6856  134.4720  157.5589 LP  0  0  0  0  0  0  0  0  0  0  0  0  # atno 17394 bound_to 11000
  139.9049  134.8471  156.1746 LP  0  0  0  0  0  0  0  0  0  0  0  0  # atno 17395 bound_to 11000

$$$$
