AV-unprocessed.smi:1791|AV-procd|sdf|7218|dock2
  -GOLD-   22720 8463D 1   1.00000     0.00000
 Structure written by MMmdl.
 38 39  0  0  0  0  0  0  0  0  1 V2000
  151.6702  141.4104  158.0838 C   0  0  0  0  0  0  0  0  0  0  0  0
  151.6549  141.2214  156.6729 O   0  0  0  0  0  0  0  0  0  0  0  0
  151.1417  140.0408  156.1760 C   0  0  0  0  0  0  0  0  0  0  0  0
  150.9600  138.9587  157.0601 C   0  0  0  0  0  0  0  0  0  0  0  0
  150.4447  137.7475  156.5593 C   0  0  0  0  0  0  0  0  0  0  0  0
  150.1326  137.6549  155.1815 C   0  0  0  0  0  0  0  0  0  0  0  0
  149.6029  136.4979  154.5477 N   0  0  0  0  0  0  0  0  0  0  0  0
  149.2986  135.3037  155.0841 C   0  0  0  0  0  0  0  0  0  0  0  0
  149.3947  135.0099  156.2750 O   0  0  0  0  0  0  0  0  0  0  0  0
  148.8759  134.4506  154.1398 N   0  0  0  0  0  0  0  0  0  0  0  0
  148.4727  133.0614  154.3522 C   0  0  2  0  0  0  0  0  0  0  0  0
  149.7168  132.2324  154.7031 C   0  0  0  0  0  0  0  0  0  0  0  0
  147.7562  132.5189  153.0999 C   0  0  2  0  0  0  0  0  0  0  0  0
  146.6874  133.4447  152.5147 C   0  0  0  0  0  0  0  0  0  0  0  0
  145.7431  132.4951  151.7933 C   0  0  0  0  0  0  0  0  0  0  0  0
  146.1349  131.1096  152.3139 C   0  0  0  0  0  0  0  0  0  0  0  0
  147.0006  131.3590  153.4118 O   0  0  0  0  0  0  0  0  0  0  0  0
  150.3360  138.8008  154.3856 C   0  0  0  0  0  0  0  0  0  0  0  0
  150.8296  139.9641  154.8590 N   0  0  0  0  0  0  0  0  0  0  0  0
  152.0906  142.3894  158.3128 H   0  0  0  0  0  0  0  0  0  0  0  0
  152.2884  140.6606  158.5796 H   0  0  0  0  0  0  0  0  0  0  0  0
  150.6631  141.3775  158.5020 H   0  0  0  0  0  0  0  0  0  0  0  0
  151.2110  139.0561  158.1061 H   0  0  0  0  0  0  0  0  0  0  0  0
  150.2935  136.9272  157.2427 H   0  0  0  0  0  0  0  0  0  0  0  0
  149.5109  136.5635  153.5446 H   0  0  0  0  0  0  0  0  0  0  0  0
  148.8330  134.7877  153.1894 H   0  0  0  0  0  0  0  0  0  0  0  0
  147.7855  132.9956  155.1975 H   0  0  0  0  0  0  0  0  0  0  0  0
  149.4560  131.1906  154.8919 H   0  0  0  0  0  0  0  0  0  0  0  0
  150.2023  132.6153  155.6013 H   0  0  0  0  0  0  0  0  0  0  0  0
  150.4485  132.2500  153.8947 H   0  0  0  0  0  0  0  0  0  0  0  0
  148.4848  132.2647  152.3270 H   0  0  0  0  0  0  0  0  0  0  0  0
  146.1493  133.9528  153.3163 H   0  0  0  0  0  0  0  0  0  0  0  0
  147.1061  134.2070  151.8570 H   0  0  0  0  0  0  0  0  0  0  0  0
  144.7044  132.7331  152.0244 H   0  0  0  0  0  0  0  0  0  0  0  0
  145.8674  132.5492  150.7113 H   0  0  0  0  0  0  0  0  0  0  0  0
  145.2727  130.5164  152.6191 H   0  0  0  0  0  0  0  0  0  0  0  0
  146.6782  130.5525  151.5494 H   0  0  0  0  0  0  0  0  0  0  0  0
  150.1016  138.7841  153.3311 H   0  0  0  0  0  0  0  0  0  0  0  0
  1  2  1  0  0  0  0
  1 20  1  0  0  0  0
  1 21  1  0  0  0  0
  1 22  1  0  0  0  0
  2  3  1  0  0  0  0
  3 19  1  0  0  0  0
  3  4  2  0  0  0  0
  4  5  1  0  0  0  0
  4 23  1  0  0  0  0
  5  6  2  0  0  0  0
  5 24  1  0  0  0  0
  6  7  1  0  0  0  0
  6 18  1  0  0  0  0
  7  8  1  0  0  0  0
  7 25  1  0  0  0  0
  8  9  2  0  0  0  0
  8 10  1  0  0  0  0
 10 11  1  0  0  0  0
 10 26  1  0  0  0  0
 11 12  1  0  0  0  0
 11 13  1  0  0  0  0
 11 27  1  0  0  0  0
 12 28  1  0  0  0  0
 12 29  1  0  0  0  0
 12 30  1  0  0  0  0
 13 17  1  0  0  0  0
 13 14  1  0  0  0  0
 13 31  1  0  0  0  0
 14 15  1  0  0  0  0
 14 32  1  0  0  0  0
 14 33  1  0  0  0  0
 15 16  1  0  0  0  0
 15 34  1  0  0  0  0
 15 35  1  0  0  0  0
 16 17  1  0  0  0  0
 16 36  1  0  0  0  0
 16 37  1  0  0  0  0
 18 19  2  0  0  0  0
 18 38  1  0  0  0  0
M  END
> <s_m_source_file>
AV-unprocessed.smi

> <i_m_source_file_index>
1791

> <i_lp_mmshare_version>
43012

> <i_f3d_flags>
0

> <s_epik_input>
W0NIM11PYzFbY0hdW2NIXWMoW2NIXW4xKVtOSF1DKD1PKVtOSF1bQ0BIXShbQ0gzXSlbQ0BASF0yW0NIMl1bQ0gyXVtDSDJdTzI=

> <s_epik_cmdline>
J2VwaWtfcHl0aG9uJywgJy1waCcsICc3LjAnLCAnLXRuJywgJzgnLCAnLW1hJywgJzIwMCcsICctbWV0YWxfYmluZGluZycsICctaW1hZScsICc8aW5maWxlLm1hZT4nLCAnLW9tYWUnLCAnPG91dGZpbGUubWFlPic=

> <r_lp_tautomer_probability>
1

> <r_epik_Ionization_Penalty>
9.18737e-05

> <r_epik_Ionization_Penalty_Charging>
0

> <r_epik_Ionization_Penalty_Neutral>
9.18737e-05

> <r_epik_State_Penalty>
-0

> <r_epik_Charging_Adjusted_Penalty>
0

> <i_epik_Tot_Q>
0

> <i_epik_Tot_abs_Q>
0

> <r_epik_Metal_State_Penalty>
-0

> <b_epik_Metal_Only>
0

> <s_lp_Force_Field>
OPLS_2005

> <r_lp_Energy>
20.7661

> <b_lp_Chiralities_Consistent>
1

> <s_lp_Variant>
AV-unprocessed.smi:1791-1

> <Gold.Version>
5.8.1

> <Gold.Id.Protein>
6NUR|6NUR_protein|mol2

> <Gold.PLP.Fitness>
38.2802

> <Gold.PLP.PLP>
-27.6129

> <Gold.PLP.part.hbond>
-3.0000

> <Gold.PLP.part.metal>
0.0000

> <Gold.PLP.part.buried>
-3.2930

> <Gold.PLP.part.nonpolar>
-21.5673

> <Gold.PLP.part.repulsive>
0.2481

> <Gold.PLP.ligand.clash>
0.0000

> <Gold.PLP.ligand.torsion>
0.5412

> <Gold.PLP.Chemscore.Hbond>
2.9000

> <Gold.PLP.Chemscore.CHOScore>
1.0000

> <Gold.PLP.Chemscore.Metal>
0.0000

> <Gold.Chemscore.Hbonds>
donor molecule, donor type, donor heavy atom, donor atom, acceptor molecule, acceptor atom, score
      L1  H     7    25       P1  7948  1.00
      L1  H    10    26       P1  7948  0.95
      P1  H  7989  7998       L1    19  1.00
      L1  C    18    38       P1  7957  0.97

> <Gold.PLP.Chemscore.Internal.Correction>
0.0498

> <Gold.Rescore>
     Score         DG    S(hbond)    S(metal)    S(lipo)     H(rot)  DE(clash)    DE(int)     intcor
     15.80     -17.16       2.57        0.00      58.56       1.47       0.11       1.25       ----

> <Gold.Chemscore.Fitness>
15.8039

> <Gold.Chemscore.DG>
-17.1622

> <Gold.Chemscore.ZeroCoef>
-5.4800

> <Gold.Chemscore.Hbond>
2.5723

> <Gold.Chemscore.Metal>
0.0000

> <Gold.Chemscore.Lipo>
58.5634

> <Gold.Chemscore.Internal_Hbond>
0.0000

> <Gold.Chemscore.DEClash>
0.1103

> <Gold.Chemscore.DEInternal>
1.2481

> <Gold.Chemscore.Rot>
1.4693

> <Gold.Chemscore.Internal.Correction>
   9.000000E+99

> <Gold.Chemscore.Hbonds>
donor molecule, donor type, donor heavy atom, donor atom, acceptor molecule, acceptor atom, score
      L1  H     7    25       P1  7948  0.74
      L1  H    10    26       P1  7948  0.21
      P1  H  7989  7998       L1    19  0.70

> <Gold.Chemscore.Hbond.Weighted>
-8.5916

> <Gold.Chemscore.Metal.Weighted>
-0.0000

> <Gold.Chemscore.Lipo.Weighted>
-6.8519

> <Gold.Chemscore.Internal_Hbond.Weighted>
0.0000

> <Gold.Chemscore.DEClash.Weighted>
0.1103

> <Gold.Chemscore.DEInternal.Weighted>
1.2481

> <Gold.Chemscore.Rot.Weighted>
3.7613

> <Gold.Chemscore.Internal.Correction.Weighted>
   9.000000E+99

> <Gold.Protein.RotatedTorsions>
[ 6907 6896 6895 6894 ] final   64.89 input  -60.11 | X-H torsion
[ 7974 7965 7964 7962 ] final -179.65 input  175.53 | X-H torsion
[ 8008 7997 7996 7995 ] final -161.92 input   59.86 | X-H torsion
[ 10167 10162 10161 10158 ] final  150.23 input  -65.29 | X-H torsion
[ 10718 10713 10712 10709 ] final  -55.43 input   66.30 | X-H torsion
[ 10763 10752 10751 10750 ] final   84.49 input  -60.55 | X-H torsion
[ 11005 11000 10999 10996 ] final   80.43 input  -57.11 | X-H torsion

> <Gold.Protein.ActiveResidues>
 VAL166  LYS551  ARG553  GLY616  TRP617  ASP618  TYR619  PRO620  LYS621  CYS622 
 ASP623  PHE694  ASN695  SER759  ASP760  ASP761  ALA762  ILE779  LEU786  VAL792 
 PHE793  MET794  SER795  GLU796  ALA797  LYS798  CYS799  TRP800  GLU811  SER814 

> <Gold.Protein.RotatedAtoms>
  152.4366  134.5674  159.9911 H   0  0  0  0  0  0  0  0  0  0  0  0  # atno 6907 bound_to 6896
  151.5783  133.3375  159.3011 H   0  0  0  0  0  0  0  0  0  0  0  0  # atno 6908 bound_to 6896
  150.8265  134.7534  159.6882 H   0  0  0  0  0  0  0  0  0  0  0  0  # atno 6909 bound_to 6896
  144.7138  140.0686  143.6430 H   0  0  0  0  0  0  0  0  0  0  0  0  # atno 7974 bound_to 7965
  155.7992  140.0889  157.1966 H   0  0  0  0  0  0  0  0  0  0  0  0  # atno 8008 bound_to 7997
  154.3982  140.1475  156.3313 H   0  0  0  0  0  0  0  0  0  0  0  0  # atno 8009 bound_to 7997
  155.8479  140.3436  155.5677 H   0  0  0  0  0  0  0  0  0  0  0  0  # atno 8010 bound_to 7997
  139.4852  144.5539  151.7352 H   0  0  0  0  0  0  0  0  0  0  0  0  # atno 10167 bound_to 10162
  156.1369  130.4156  150.0170 H   0  0  0  0  0  0  0  0  0  0  0  0  # atno 10718 bound_to 10713
  153.1387  135.4652  154.9462 H   0  0  0  0  0  0  0  0  0  0  0  0  # atno 10763 bound_to 10752
  154.7728  135.3164  154.8157 H   0  0  0  0  0  0  0  0  0  0  0  0  # atno 10764 bound_to 10752
  153.8684  135.6906  153.4830 H   0  0  0  0  0  0  0  0  0  0  0  0  # atno 10765 bound_to 10752
  139.9135  134.7920  156.1908 H   0  0  0  0  0  0  0  0  0  0  0  0  # atno 11005 bound_to 11000
  145.9803  139.2936  143.1046 LP  0  0  0  0  0  0  0  0  0  0  0  0  # atno 17320 bound_to 7965
  145.9018  140.9237  143.0499 LP  0  0  0  0  0  0  0  0  0  0  0  0  # atno 17321 bound_to 7965
  140.5097  144.1044  150.5992 LP  0  0  0  0  0  0  0  0  0  0  0  0  # atno 17342 bound_to 10162
  140.3965  143.2725  151.9998 LP  0  0  0  0  0  0  0  0  0  0  0  0  # atno 17343 bound_to 10162
  156.8067  130.9310  151.3645 LP  0  0  0  0  0  0  0  0  0  0  0  0  # atno 17370 bound_to 10713
  157.6540  130.8909  149.9691 LP  0  0  0  0  0  0  0  0  0  0  0  0  # atno 17371 bound_to 10713
  141.0585  133.6853  156.1906 LP  0  0  0  0  0  0  0  0  0  0  0  0  # atno 17394 bound_to 11000
  140.6699  134.4878  157.5587 LP  0  0  0  0  0  0  0  0  0  0  0  0  # atno 17395 bound_to 11000

$$$$
