AV-unprocessed.smi:1464|AV-procd|sdf|5937|dock3
  -GOLD-   22720 6 23D 1   1.00000     0.00000
 Structure written by MMmdl.
 40 41  0  0  0  0  0  0  0  0  2 V2000
  153.0480  142.6584  162.3777 C   0  0  0  0  0  0  0  0  0  0  0  0
  152.9503  143.2583  160.9627 C   0  0  2  0  0  0  0  0  0  0  0  0
  152.1765  144.5908  161.0220 C   0  0  0  0  0  0  0  0  0  0  0  0
  152.0775  145.2545  159.6445 C   0  0  0  0  0  0  0  0  0  0  0  0
  151.4121  144.3101  158.6394 C   0  0  0  0  0  0  0  0  0  0  0  0
  152.1694  142.9723  158.5410 C   0  0  2  0  0  0  0  0  0  0  0  0
  151.4743  142.0952  157.6001 N   0  0  0  0  0  0  0  0  0  0  0  0
  150.1870  141.7254  157.6835 C   0  0  0  0  0  0  0  0  0  0  0  0
  149.4393  142.0929  158.5914 O   0  0  0  0  0  0  0  0  0  0  0  0
  149.6901  140.8013  156.5600 C   0  0  0  0  0  0  0  0  0  0  0  0
  150.3158  139.4708  156.5498 N   0  0  0  0  0  0  0  0  0  0  0  0
  150.1733  138.7428  157.8079 N   0  5  0  0  0  0  0  0  0  0  0  0
  150.7289  137.5076  157.9252 C   0  0  0  0  0  0  0  0  0  0  0  0
  150.6643  136.8428  158.9567 O   0  0  0  0  0  0  0  0  0  0  0  0
  151.4234  136.9575  156.7729 C   0  0  0  0  0  0  0  0  0  0  0  0
  151.5202  137.6429  155.6167 C   0  0  0  0  0  0  0  0  0  0  0  0
  150.9445  138.9715  155.4474 C   0  0  0  0  0  0  0  0  0  0  0  0
  151.0215  139.5994  154.3910 O   0  0  0  0  0  0  0  0  0  0  0  0
  152.3153  142.2864  159.9269 C   0  0  1  0  0  0  0  0  0  0  0  0
  153.1086  140.9660  159.8093 C   0  0  0  0  0  0  0  0  0  0  0  0
  152.0731  142.3267  162.7362 H   0  0  0  0  0  0  0  0  0  0  0  0
  153.4281  143.3929  163.0881 H   0  0  0  0  0  0  0  0  0  0  0  0
  153.7285  141.8085  162.4145 H   0  0  0  0  0  0  0  0  0  0  0  0
  153.9660  143.4839  160.6336 H   0  0  0  0  0  0  0  0  0  0  0  0
  151.1735  144.4188  161.4149 H   0  0  0  0  0  0  0  0  0  0  0  0
  152.6647  145.2763  161.7158 H   0  0  0  0  0  0  0  0  0  0  0  0
  151.5083  146.1815  159.7169 H   0  0  0  0  0  0  0  0  0  0  0  0
  153.0731  145.5274  159.2921 H   0  0  0  0  0  0  0  0  0  0  0  0
  150.3788  144.1304  158.9401 H   0  0  0  0  0  0  0  0  0  0  0  0
  151.3700  144.7919  157.6616 H   0  0  0  0  0  0  0  0  0  0  0  0
  153.1745  143.1734  158.1640 H   0  0  0  0  0  0  0  0  0  0  0  0
  152.0127  141.7475  156.8201 H   0  0  0  0  0  0  0  0  0  0  0  0
  148.6063  140.7068  156.6518 H   0  0  0  0  0  0  0  0  0  0  0  0
  149.8580  141.2936  155.6005 H   0  0  0  0  0  0  0  0  0  0  0  0
  151.8699  135.9767  156.8450 H   0  0  0  0  0  0  0  0  0  0  0  0
  152.0452  137.1948  154.7861 H   0  0  0  0  0  0  0  0  0  0  0  0
  151.3137  142.0349  160.2797 H   0  0  0  0  0  0  0  0  0  0  0  0
  154.1364  141.1506  159.4954 H   0  0  0  0  0  0  0  0  0  0  0  0
  152.6615  140.2864  159.0841 H   0  0  0  0  0  0  0  0  0  0  0  0
  153.1386  140.4227  160.7527 H   0  0  0  0  0  0  0  0  0  0  0  0
  1  2  1  0  0  0  0
  1 21  1  0  0  0  0
  1 22  1  0  0  0  0
  1 23  1  0  0  0  0
  2 19  1  0  0  0  0
  2  3  1  0  0  0  0
  2 24  1  0  0  0  0
  3  4  1  0  0  0  0
  3 25  1  0  0  0  0
  3 26  1  0  0  0  0
  4  5  1  0  0  0  0
  4 27  1  0  0  0  0
  4 28  1  0  0  0  0
  5  6  1  0  0  0  0
  5 29  1  0  0  0  0
  5 30  1  0  0  0  0
  6  7  1  0  0  0  0
  6 19  1  0  0  0  0
  6 31  1  0  0  0  0
  7  8  1  0  0  0  0
  7 32  1  0  0  0  0
  8  9  2  0  0  0  0
  8 10  1  0  0  0  0
 10 33  1  0  0  0  0
 10 34  1  0  0  0  0
 10 11  1  0  0  0  0
 11 12  1  0  0  0  0
 11 17  1  0  0  0  0
 12 13  1  0  0  0  0
 13 14  2  0  0  0  0
 13 15  1  0  0  0  0
 15 35  1  0  0  0  0
 15 16  2  0  0  0  0
 16 36  1  0  0  0  0
 16 17  1  0  0  0  0
 17 18  2  0  0  0  0
 19 20  1  0  0  0  0
 19 37  1  0  0  0  0
 20 38  1  0  0  0  0
 20 39  1  0  0  0  0
 20 40  1  0  0  0  0
M  CHG  1  12  -1
M  END
> <s_m_source_file>
AV-unprocessed.smi

> <i_m_source_file_index>
1464

> <i_lp_mmshare_version>
43012

> <i_f3d_flags>
0

> <s_epik_input>
W0NIM11bQ0BASF0xW0NIMl1bQ0gyXVtDSDJdW0NASF0oW0NASF0xW0NIM10pW05IXUMoPU8pW0NIMl1uMltuSF1jKD1PKVtjSF1bY0hdYzI9Tw==

> <s_epik_cmdline>
J2VwaWtfcHl0aG9uJywgJy1waCcsICc3LjAnLCAnLXRuJywgJzgnLCAnLW1hJywgJzIwMCcsICctbWV0YWxfYmluZGluZycsICctaW1hZScsICc8aW5maWxlLm1hZT4nLCAnLW9tYWUnLCAnPG91dGZpbGUubWFlPic=

> <r_lp_tautomer_probability>
1

> <r_epik_Ionization_Penalty>
0.101366

> <r_epik_Ionization_Penalty_Charging>
0.101366

> <r_epik_Ionization_Penalty_Neutral>
1.90469e-08

> <r_epik_State_Penalty>
0.035861

> <r_epik_Charging_Adjusted_Penalty>
0.137227

> <i_epik_Tot_Q>
-1

> <i_epik_Tot_abs_Q>
1

> <r_epik_Metal_State_Penalty>
0.035861

> <b_epik_Metal_Only>
0

> <s_lp_Force_Field>
OPLS_2005

> <r_lp_Energy>
28.4396

> <b_lp_Chiralities_Consistent>
1

> <s_lp_Variant>
AV-unprocessed.smi:1464-3

> <Gold.Version>
5.8.1

> <Gold.Id.Protein>
6NUR|6NUR_protein|mol2

> <Gold.PLP.Fitness>
46.5349

> <Gold.PLP.PLP>
-40.7257

> <Gold.PLP.part.hbond>
-2.5165

> <Gold.PLP.part.metal>
0.0000

> <Gold.PLP.part.buried>
-5.1646

> <Gold.PLP.part.nonpolar>
-33.6813

> <Gold.PLP.part.repulsive>
0.2472

> <Gold.PLP.ligand.clash>
0.0000

> <Gold.PLP.ligand.torsion>
0.0879

> <Gold.PLP.Chemscore.Hbond>
1.9920

> <Gold.PLP.Chemscore.CHOScore>
0.0000

> <Gold.PLP.Chemscore.Metal>
0.0000

> <Gold.Chemscore.Hbonds>
donor molecule, donor type, donor heavy atom, donor atom, acceptor molecule, acceptor atom, score
      P1  H  6896  6909       L1    14  0.99
      P1  H  7989  7998       L1    18  1.00

> <Gold.PLP.Chemscore.Internal.Correction>
0.0090

> <Gold.Rescore>
     Score         DG    S(hbond)    S(metal)    S(lipo)     H(rot)  DE(clash)    DE(int)     intcor
     19.35     -20.27       1.99        0.00     105.67       1.64       0.00       0.92       ----

> <Gold.Chemscore.Fitness>
19.3530

> <Gold.Chemscore.DG>
-20.2709

> <Gold.Chemscore.ZeroCoef>
-5.4800

> <Gold.Chemscore.Hbond>
1.9867

> <Gold.Chemscore.Metal>
0.0000

> <Gold.Chemscore.Lipo>
105.6704

> <Gold.Chemscore.Internal_Hbond>
0.0000

> <Gold.Chemscore.DEClash>
0.0021

> <Gold.Chemscore.DEInternal>
0.9158

> <Gold.Chemscore.Rot>
1.6438

> <Gold.Chemscore.Internal.Correction>
   9.000000E+99

> <Gold.Chemscore.Hbonds>
donor molecule, donor type, donor heavy atom, donor atom, acceptor molecule, acceptor atom, score
      P1  H  6896  6909       L1    14  0.91
      P1  H  7989  7998       L1    18  1.00

> <Gold.Chemscore.Hbond.Weighted>
-6.6355

> <Gold.Chemscore.Metal.Weighted>
-0.0000

> <Gold.Chemscore.Lipo.Weighted>
-12.3634

> <Gold.Chemscore.Internal_Hbond.Weighted>
0.0000

> <Gold.Chemscore.DEClash.Weighted>
0.0021

> <Gold.Chemscore.DEInternal.Weighted>
0.9158

> <Gold.Chemscore.Rot.Weighted>
4.2080

> <Gold.Chemscore.Internal.Correction.Weighted>
   9.000000E+99

> <Gold.Protein.RotatedTorsions>
[ 6907 6896 6895 6894 ] final   84.15 input  -60.11 | X-H torsion
[ 7974 7965 7964 7962 ] final -103.50 input  175.53 | X-H torsion
[ 8008 7997 7996 7995 ] final  103.87 input   59.86 | X-H torsion
[ 10167 10162 10161 10158 ] final -145.36 input  -65.29 | X-H torsion
[ 10718 10713 10712 10709 ] final -149.89 input   66.30 | X-H torsion
[ 10763 10752 10751 10750 ] final  133.90 input  -60.55 | X-H torsion
[ 11005 11000 10999 10996 ] final -124.45 input  -57.11 | X-H torsion

> <Gold.Protein.ActiveResidues>
 VAL166  LYS551  ARG553  GLY616  TRP617  ASP618  TYR619  PRO620  LYS621  CYS622 
 ASP623  PHE694  ASN695  SER759  ASP760  ASP761  ALA762  ILE779  LEU786  VAL792 
 PHE793  MET794  SER795  GLU796  ALA797  LYS798  CYS799  TRP800  GLU811  SER814 

> <Gold.Protein.RotatedAtoms>
  152.5345  134.2785  159.8997 H   0  0  0  0  0  0  0  0  0  0  0  0  # atno 6907 bound_to 6896
  151.2739  133.4235  159.2630 H   0  0  0  0  0  0  0  0  0  0  0  0  # atno 6908 bound_to 6896
  151.0343  134.9577  159.8184 H   0  0  0  0  0  0  0  0  0  0  0  0  # atno 6909 bound_to 6896
  145.2551  140.9251  143.3073 H   0  0  0  0  0  0  0  0  0  0  0  0  # atno 7974 bound_to 7965
  156.1523  140.3157  155.8668 H   0  0  0  0  0  0  0  0  0  0  0  0  # atno 8008 bound_to 7997
  155.3947  140.0496  157.3056 H   0  0  0  0  0  0  0  0  0  0  0  0  # atno 8009 bound_to 7997
  154.5069  140.2150  155.9244 H   0  0  0  0  0  0  0  0  0  0  0  0  # atno 8010 bound_to 7997
  139.7813  143.8097  152.2639 H   0  0  0  0  0  0  0  0  0  0  0  0  # atno 10167 bound_to 10162
  156.4390  130.8113  151.2342 H   0  0  0  0  0  0  0  0  0  0  0  0  # atno 10718 bound_to 10713
  153.8147  135.3124  155.3404 H   0  0  0  0  0  0  0  0  0  0  0  0  # atno 10763 bound_to 10752
  154.8037  135.4711  154.0342 H   0  0  0  0  0  0  0  0  0  0  0  0  # atno 10764 bound_to 10752
  153.1731  135.6881  153.8669 H   0  0  0  0  0  0  0  0  0  0  0  0  # atno 10765 bound_to 10752
  140.9840  134.0633  157.3733 H   0  0  0  0  0  0  0  0  0  0  0  0  # atno 11005 bound_to 11000
  144.9468  139.4127  143.6422 LP  0  0  0  0  0  0  0  0  0  0  0  0  # atno 17320 bound_to 7965
  146.3291  139.8455  142.8882 LP  0  0  0  0  0  0  0  0  0  0  0  0  # atno 17321 bound_to 7965
  139.8160  144.7316  150.9634 LP  0  0  0  0  0  0  0  0  0  0  0  0  # atno 17342 bound_to 10162
  140.7818  143.4204  151.0850 LP  0  0  0  0  0  0  0  0  0  0  0  0  # atno 17343 bound_to 10162
  157.7507  131.0174  150.3584 LP  0  0  0  0  0  0  0  0  0  0  0  0  # atno 17370 bound_to 10713
  156.3938  130.3903  149.7010 LP  0  0  0  0  0  0  0  0  0  0  0  0  # atno 17371 bound_to 10713
  139.8962  135.0145  156.7041 LP  0  0  0  0  0  0  0  0  0  0  0  0  # atno 17394 bound_to 11000
  140.7143  133.9196  155.8105 LP  0  0  0  0  0  0  0  0  0  0  0  0  # atno 17395 bound_to 11000

$$$$
