#       Name:                AV-unprocessed.smi:2451
#       Creating user name   scv26
#       Creation time:       Fri Mar 27 13:30:49 2020


#       File generated by GOLD software.
#

@<TRIPOS>MOLECULE
AV-unprocessed.smi:2451
    42    43     1
SMALL
NO_CHARGES


@<TRIPOS>ATOM
      1 ****        -1.9666  -3.1430  -2.0757 C.3            1 S1                 0.0000
      2 ****        -1.3902  -2.3377  -0.8975 C.3            1 S1                 0.0000
      3 ****        -1.8177  -2.9812   0.4371 C.3            1 S1                 0.0000
      4 ****        -1.2352  -2.2374   1.6462 C.3            1 S1                 0.0000
      5 ****        -1.6286  -0.7531   1.6336 C.3            1 S1                 0.0000
      6 ****        -1.2617  -0.0704   0.3037 C.3            1 S1                 0.0000
      7 ****         0.1910   0.1310   0.2278 N.3            1 S1                 0.0000
      8 ****         0.8162   1.7353   0.3221 S.o2           1 S1                 0.0000
      9 ****         0.6193   2.3640  -0.9929 O.2            1 S1                 0.0000
     10 ****         0.2533   2.3630   1.5278 O.2            1 S1                 0.0000
     11 ****         2.6156   1.4491   0.5940 C.3            1 S1                 0.0000
     12 ****         3.3408   2.7647   0.5903 C.2            1 S1                 0.0000
     13 ****         3.3598   3.7681   1.5985 C.2            1 S1                 0.0000
     14 ****         4.1672   4.7344   1.0716 C.2            1 S1                 0.0000
     15 ****         4.6157   4.3626  -0.1537 O.3            1 S1                 0.0000
     16 ****         4.0839   3.1029  -0.4517 N.2            1 S1                 0.0000
     17 ****        -1.7923  -0.8383  -0.9336 C.3            1 S1                 0.0000
     18 ****        -1.4175  -0.1228  -2.2468 C.3            1 S1                 0.0000
     19 ****        -3.0536  -3.0676  -2.1151 H              1 S1                 0.0000
     20 ****        -1.7114  -4.1997  -1.9891 H              1 S1                 0.0000
     21 ****        -1.5705  -2.8004  -3.0314 H              1 S1                 0.0000
     22 ****        -0.3031  -2.4008  -0.9640 H              1 S1                 0.0000
     23 ****        -2.9062  -2.9939   0.5091 H              1 S1                 0.0000
     24 ****        -1.4963  -4.0229   0.4685 H              1 S1                 0.0000
     25 ****        -1.5793  -2.7031   2.5701 H              1 S1                 0.0000
     26 ****        -0.1485  -2.3298   1.6427 H              1 S1                 0.0000
     27 ****        -2.7054  -0.6734   1.7875 H              1 S1                 0.0000
     28 ****        -1.1638  -0.2319   2.4714 H              1 S1                 0.0000
     29 ****        -1.7318   0.9143   0.3053 H              1 S1                 0.0000
     30 ****         0.5891  -0.3752  -0.5629 H              1 S1                 0.0000
     31 ****         2.7435   0.9320   1.5450 H              1 S1                 0.0000
     32 ****         2.9810   0.7911  -0.1949 H              1 S1                 0.0000
     33 ****         2.8557   3.7789   2.5535 H              1 S1                 0.0000
     34 ****         4.5032   5.6970   1.4280 H              1 S1                 0.0000
     35 ****        -2.8813  -0.8035  -0.8696 H              1 S1                 0.0000
     36 ****        -0.3527  -0.2119  -2.4638 H              1 S1                 0.0000
     37 ****        -1.6574   0.9396  -2.1942 H              1 S1                 0.0000
     38 ****        -1.9651  -0.5283  -3.0970 H              1 S1                 0.0000
     39 ****         0.4982  -0.2550   1.0977 LP             1 S1                 0.0000
     40 ****         5.6146   4.3154  -0.1483 LP             1 S1                 0.0000
     41 ****         4.3171   5.0266  -0.8391 LP             1 S1                 0.0000
     42 ****         4.2346   2.5673  -1.2827 LP             1 S1                 0.0000
@<TRIPOS>BOND
    1    1    2 1     
    2    1   19 1     
    3    1   20 1     
    4    1   21 1     
    5    2   17 1     
    6    2    3 1     
    7    2   22 1     
    8    3    4 1     
    9    3   23 1     
   10    3   24 1     
   11    4    5 1     
   12    4   25 1     
   13    4   26 1     
   14    5    6 1     
   15    5   27 1     
   16    5   28 1     
   17    6    7 1     
   18    6   17 1     
   19    6   29 1     
   20    7    8 1     
   21    7   30 1     
   22    8    9 2     
   23    8   10 2     
   24    8   11 1     
   25   11   12 1     
   26   11   31 1     
   27   11   32 1     
   28   12   16 2     
   29   12   13 1     
   30   13   14 2     
   31   13   33 1     
   32   14   15 1     
   33   14   34 1     
   34   15   16 1     
   35   17   18 1     
   36   17   35 1     
   37   18   36 1     
   38   18   37 1     
   39   18   38 1     
   40    7   39 1     
   41   15   40 1     
   42   15   41 1     
   43   16   42 1     
@<TRIPOS>SUBSTRUCTURE
      1 S1             1
@<TRIPOS>SET
LONE_PAIRS      STATIC     ATOMS    <user>   **** ""
6 39 9 10 40 41 42
DONOR_HYDROGENS      STATIC     ATOMS    <user>   **** ""
1 30
ATOM$BLUE        STATIC     ATOMS    COLORGROUP SYSTEM
6 39 9 10 40 41 42
ATOM$RED        STATIC     ATOMS    COLORGROUP SYSTEM
1 30
