AV-unprocessed.smi:3078|AV-procd|sdf|11732|dock5
  -GOLD-   2272017133D 1   1.00000     0.00000
 Structure written by MMmdl.
 23 23  0  0  0  0  0  0  0  0  2 V2000
  145.9308  130.8407  152.2509 C   0  0  0  0  0  0  0  0  0  0  0  0
  145.4396  132.1529  151.8880 N   0  0  0  0  0  0  0  0  0  0  0  0
  146.1589  133.2806  151.5569 C   0  0  0  0  0  0  0  0  0  0  0  0
  145.2615  134.2790  151.2923 C   0  0  0  0  0  0  0  0  0  0  0  0
  145.5127  135.7037  150.8730 C   0  0  1  0  0  0  0  0  0  0  0  0
  144.7637  136.0192  149.6697 N   0  0  0  0  0  0  0  0  0  0  0  0
  145.0980  136.6806  151.9880 C   0  0  0  0  0  0  0  0  0  0  0  0
  145.2809  138.0846  151.5815 N   0  3  0  0  0  0  0  0  0  0  0  0
  144.0007  133.6453  151.4887 C   0  0  0  0  0  0  0  0  0  0  0  0
  144.1107  132.3768  151.8466 N   0  0  0  0  0  0  0  0  0  0  0  0
  147.0164  130.8077  152.1562 H   0  0  0  0  0  0  0  0  0  0  0  0
  145.4951  130.0875  151.5935 H   0  0  0  0  0  0  0  0  0  0  0  0
  145.6573  130.6175  153.2826 H   0  0  0  0  0  0  0  0  0  0  0  0
  147.2388  133.2804  151.5355 H   0  0  0  0  0  0  0  0  0  0  0  0
  146.5712  135.8444  150.6494 H   0  0  0  0  0  0  0  0  0  0  0  0
  144.6339  137.0188  149.5993 H   0  0  0  0  0  0  0  0  0  0  0  0
  145.2982  135.7444  148.8572 H   0  0  0  0  0  0  0  0  0  0  0  0
  144.0604  136.5203  152.2855 H   0  0  0  0  0  0  0  0  0  0  0  0
  145.7110  136.5135  152.8746 H   0  0  0  0  0  0  0  0  0  0  0  0
  145.0743  138.1814  150.5978 H   0  0  0  0  0  0  0  0  0  0  0  0
  146.2382  138.3568  151.7539 H   0  0  0  0  0  0  0  0  0  0  0  0
  143.0129  134.0689  151.3819 H   0  0  0  0  0  0  0  0  0  0  0  0
  144.6608  138.6749  152.1172 H   0  0  0  0  0  0  0  0  0  0  0  0
  1  2  1  0  0  0  0
  1 11  1  0  0  0  0
  1 12  1  0  0  0  0
  1 13  1  0  0  0  0
  2 10  1  0  0  0  0
  2  3  1  0  0  0  0
  3  4  2  0  0  0  0
  3 14  1  0  0  0  0
  4  5  1  0  0  0  0
  4  9  1  0  0  0  0
  5  6  1  0  0  0  0
  5  7  1  0  0  0  0
  5 15  1  0  0  0  0
  6 16  1  0  0  0  0
  6 17  1  0  0  0  0
  7  8  1  0  0  0  0
  7 18  1  0  0  0  0
  7 19  1  0  0  0  0
  8 20  1  0  0  0  0
  8 21  1  0  0  0  0
  8 23  1  0  0  0  0
  9 10  2  0  0  0  0
  9 22  1  0  0  0  0
M  CHG  1   8   1
M  END
> <s_m_source_file>
AV-unprocessed.smi

> <i_m_source_file_index>
3078

> <i_lp_mmshare_version>
43012

> <i_f3d_flags>
0

> <s_epik_input>
W0NIM11uMVtjSF1jKFtjSF1uMSlbQ0BIXShbTkgyXSlbQ0gyXVtOSDJd

> <s_epik_cmdline>
J2VwaWtfcHl0aG9uJywgJy1waCcsICc3LjAnLCAnLXRuJywgJzgnLCAnLW1hJywgJzIwMCcsICctbWV0YWxfYmluZGluZycsICctaW1hZScsICc8aW5maWxlLm1hZT4nLCAnLW9tYWUnLCAnPG91dGZpbGUubWFlPic=

> <r_lp_tautomer_probability>
1

> <r_epik_Ionization_Penalty>
0.0498714

> <r_epik_Ionization_Penalty_Charging>
0.00651912

> <r_epik_Ionization_Penalty_Neutral>
0.0433523

> <r_epik_State_Penalty>
0.141593

> <r_epik_Charging_Adjusted_Penalty>
0.148112

> <i_epik_Tot_Q>
1

> <i_epik_Tot_abs_Q>
1

> <r_epik_Metal_State_Penalty>
0.141584

> <b_epik_Metal_Only>
0

> <s_lp_Force_Field>
OPLS_2005

> <r_lp_Energy>
-1.23381

> <b_lp_Chiralities_Consistent>
1

> <s_lp_Variant>
AV-unprocessed.smi:3078-2

> <Gold.Version>
5.8.1

> <Gold.Id.Protein>
6NUR|6NUR_protein|mol2

> <Gold.PLP.Fitness>
38.3033

> <Gold.PLP.PLP>
-21.7757

> <Gold.PLP.part.hbond>
-3.6071

> <Gold.PLP.part.metal>
0.0000

> <Gold.PLP.part.buried>
-4.1742

> <Gold.PLP.part.nonpolar>
-14.1393

> <Gold.PLP.part.repulsive>
0.2298

> <Gold.PLP.ligand.clash>
0.0000

> <Gold.PLP.ligand.torsion>
0.1254

> <Gold.PLP.Chemscore.Hbond>
4.5920

> <Gold.PLP.Chemscore.CHOScore>
1.0000

> <Gold.PLP.Chemscore.Metal>
0.0000

> <Gold.Chemscore.Hbonds>
donor molecule, donor type, donor heavy atom, donor atom, acceptor molecule, acceptor atom, score
      L1  H     6    16       P1 10171  1.00
      L1  H     6    17       P1  7921  1.00
      L1  H     8    20       P1 10171  0.63
      L1  H     8    23       P1 10175  1.89
      L1  C     9    22       P1 10186  0.51

> <Gold.PLP.Chemscore.Internal.Correction>
0.0025

> <Gold.Rescore>
     Score         DG    S(hbond)    S(metal)    S(lipo)     H(rot)  DE(clash)    DE(int)     intcor
     18.15     -18.18       3.56        0.00      37.89       1.41       0.00       0.03       ----

> <Gold.Chemscore.Fitness>
18.1490

> <Gold.Chemscore.DG>
-18.1775

> <Gold.Chemscore.ZeroCoef>
-5.4800

> <Gold.Chemscore.Hbond>
3.5570

> <Gold.Chemscore.Metal>
0.0000

> <Gold.Chemscore.Lipo>
37.8851

> <Gold.Chemscore.Internal_Hbond>
0.0000

> <Gold.Chemscore.DEClash>
0.0000

> <Gold.Chemscore.DEInternal>
0.0285

> <Gold.Chemscore.Rot>
1.4123

> <Gold.Chemscore.Internal.Correction>
   9.000000E+99

> <Gold.Chemscore.Hbonds>
donor molecule, donor type, donor heavy atom, donor atom, acceptor molecule, acceptor atom, score
      L1  H     6    16       P1 10171  0.99
      L1  H     6    17       P1  7921  1.00
      L1  H     8    20       P1 10171  0.61
      L1  H     8    23       P1 10175  0.87

> <Gold.Chemscore.Hbond.Weighted>
-11.8803

> <Gold.Chemscore.Metal.Weighted>
-0.0000

> <Gold.Chemscore.Lipo.Weighted>
-4.4326

> <Gold.Chemscore.Internal_Hbond.Weighted>
0.0000

> <Gold.Chemscore.DEClash.Weighted>
0.0000

> <Gold.Chemscore.DEInternal.Weighted>
0.0285

> <Gold.Chemscore.Rot.Weighted>
3.6154

> <Gold.Chemscore.Internal.Correction.Weighted>
   9.000000E+99

> <Gold.Protein.RotatedTorsions>
[ 6907 6896 6895 6894 ] final  168.28 input  -60.11 | X-H torsion
[ 7974 7965 7964 7962 ] final  -35.02 input  175.53 | X-H torsion
[ 8008 7997 7996 7995 ] final -170.51 input   59.86 | X-H torsion
[ 10167 10162 10161 10158 ] final   -0.95 input  -65.29 | X-H torsion
[ 10718 10713 10712 10709 ] final  -31.93 input   66.30 | X-H torsion
[ 10763 10752 10751 10750 ] final -161.82 input  -60.55 | X-H torsion
[ 11005 11000 10999 10996 ] final -138.19 input  -57.11 | X-H torsion

> <Gold.Protein.ActiveResidues>
 VAL166  LYS551  ARG553  GLY616  TRP617  ASP618  TYR619  PRO620  LYS621  CYS622 
 ASP623  PHE694  ASN695  SER759  ASP760  ASP761  ALA762  ILE779  LEU786  VAL792 
 PHE793  MET794  SER795  GLU796  ALA797  LYS798  CYS799  TRP800  GLU811  SER814 

> <Gold.Protein.RotatedAtoms>
  151.8501  133.3438  159.3670 H   0  0  0  0  0  0  0  0  0  0  0  0  # atno 6907 bound_to 6896
  150.7209  134.5307  159.5708 H   0  0  0  0  0  0  0  0  0  0  0  0  # atno 6908 bound_to 6896
  152.2799  134.7841  160.0449 H   0  0  0  0  0  0  0  0  0  0  0  0  # atno 6909 bound_to 6896
  146.0781  140.6109  142.8921 H   0  0  0  0  0  0  0  0  0  0  0  0  # atno 7974 bound_to 7965
  155.9193  140.1071  157.1219 H   0  0  0  0  0  0  0  0  0  0  0  0  # atno 8008 bound_to 7997
  154.4051  140.1259  156.4723 H   0  0  0  0  0  0  0  0  0  0  0  0  # atno 8009 bound_to 7997
  155.7216  140.3469  155.5020 H   0  0  0  0  0  0  0  0  0  0  0  0  # atno 8010 bound_to 7997
  140.6789  143.6833  150.8087 H   0  0  0  0  0  0  0  0  0  0  0  0  # atno 10167 bound_to 10162
  156.3812  130.4356  149.7468 H   0  0  0  0  0  0  0  0  0  0  0  0  # atno 10718 bound_to 10713
  154.7270  135.3038  154.8955 H   0  0  0  0  0  0  0  0  0  0  0  0  # atno 10763 bound_to 10752
  153.9809  135.6730  153.4754 H   0  0  0  0  0  0  0  0  0  0  0  0  # atno 10764 bound_to 10752
  153.0884  135.4972  154.8561 H   0  0  0  0  0  0  0  0  0  0  0  0  # atno 10765 bound_to 10752
  140.8639  134.2134  157.4691 H   0  0  0  0  0  0  0  0  0  0  0  0  # atno 11005 bound_to 11000
  144.7275  140.4569  143.6962 LP  0  0  0  0  0  0  0  0  0  0  0  0  # atno 17320 bound_to 7965
  145.6269  139.1531  143.2991 LP  0  0  0  0  0  0  0  0  0  0  0  0  # atno 17321 bound_to 7965
  140.0530  143.5230  152.2664 LP  0  0  0  0  0  0  0  0  0  0  0  0  # atno 17342 bound_to 10162
  139.6099  144.7606  151.2975 LP  0  0  0  0  0  0  0  0  0  0  0  0  # atno 17343 bound_to 10162
  156.4558  130.7928  151.2949 LP  0  0  0  0  0  0  0  0  0  0  0  0  # atno 17370 bound_to 10713
  157.7492  131.0081  150.3216 LP  0  0  0  0  0  0  0  0  0  0  0  0  # atno 17371 bound_to 10713
  139.8708  134.9743  156.4840 LP  0  0  0  0  0  0  0  0  0  0  0  0  # atno 17394 bound_to 11000
  140.8651  133.8031  155.9305 LP  0  0  0  0  0  0  0  0  0  0  0  0  # atno 17395 bound_to 11000

$$$$
