AV-unprocessed.smi:3282|AV-procd|sdf|12560|dock1
  -GOLD-   2272018483D 1   1.00000     0.00000
 Structure written by MMmdl.
 34 35  0  0  0  0  0  0  0  0  1 V2000
  153.8413  143.4294  163.9746 C   0  0  0  0  0  0  0  0  0  0  0  0
  153.1814  143.2328  162.6002 C   0  0  0  0  0  0  0  0  0  0  0  0
  153.6961  142.0013  161.8360 C   0  0  0  0  0  0  0  0  0  0  0  0
  154.5624  141.2845  162.3394 O   0  0  0  0  0  0  0  0  0  0  0  0
  153.1729  141.7417  160.6195 N   0  0  0  0  0  0  0  0  0  0  0  0
  153.5292  140.6142  159.7606 C   0  0  0  0  0  0  0  0  0  0  0  0
  152.5335  140.6378  158.6009 C   0  0  0  0  0  0  0  0  0  0  0  0
  152.0461  142.0848  158.5371 C   0  0  1  0  0  0  0  0  0  0  0  0
  150.6763  142.1949  158.0463 N   0  0  0  0  0  0  0  0  0  0  0  0
  150.2692  141.8190  156.8255 C   0  0  0  0  0  0  0  0  0  0  0  0
  151.0184  141.3248  155.9821 O   0  0  0  0  0  0  0  0  0  0  0  0
  148.9567  142.0504  156.6548 N   0  0  0  0  0  0  0  0  0  0  0  0
  148.1809  141.8031  155.4942 C   0  0  0  0  0  0  0  0  0  0  0  0
  146.8656  141.9837  155.3638 N   0  0  0  0  0  0  0  0  0  0  0  0
  146.5877  141.5985  154.0602 C   0  0  0  0  0  0  0  0  0  0  0  0
  147.7614  141.2039  153.4712 C   0  0  0  0  0  0  0  0  0  0  0  0
  148.7843  141.3282  154.3726 O   0  0  0  0  0  0  0  0  0  0  0  0
  152.1624  142.5822  159.9818 C   0  0  0  0  0  0  0  0  0  0  0  0
  153.4355  144.3099  164.4731 H   0  0  0  0  0  0  0  0  0  0  0  0
  154.9187  143.5717  163.8835 H   0  0  0  0  0  0  0  0  0  0  0  0
  153.6669  142.5731  164.6271 H   0  0  0  0  0  0  0  0  0  0  0  0
  152.1033  143.1422  162.7364 H   0  0  0  0  0  0  0  0  0  0  0  0
  153.3526  144.1207  161.9910 H   0  0  0  0  0  0  0  0  0  0  0  0
  154.5451  140.7559  159.3894 H   0  0  0  0  0  0  0  0  0  0  0  0
  153.4890  139.6616  160.2904 H   0  0  0  0  0  0  0  0  0  0  0  0
  152.9739  140.3010  157.6619 H   0  0  0  0  0  0  0  0  0  0  0  0
  151.7014  139.9710  158.8328 H   0  0  0  0  0  0  0  0  0  0  0  0
  152.7244  142.6672  157.9103 H   0  0  0  0  0  0  0  0  0  0  0  0
  149.9957  142.5915  158.6777 H   0  0  0  0  0  0  0  0  0  0  0  0
  148.4595  142.4544  157.4348 H   0  0  0  0  0  0  0  0  0  0  0  0
  145.5862  141.6338  153.6575 H   0  0  0  0  0  0  0  0  0  0  0  0
  148.0206  140.8335  152.4904 H   0  0  0  0  0  0  0  0  0  0  0  0
  151.2220  142.4584  160.5219 H   0  0  0  0  0  0  0  0  0  0  0  0
  152.4314  143.6393  160.0132 H   0  0  0  0  0  0  0  0  0  0  0  0
  1  2  1  0  0  0  0
  1 19  1  0  0  0  0
  1 20  1  0  0  0  0
  1 21  1  0  0  0  0
  2  3  1  0  0  0  0
  2 22  1  0  0  0  0
  2 23  1  0  0  0  0
  3  4  2  0  0  0  0
  3  5  1  0  0  0  0
  5 18  1  0  0  0  0
  5  6  1  0  0  0  0
  6  7  1  0  0  0  0
  6 24  1  0  0  0  0
  6 25  1  0  0  0  0
  7  8  1  0  0  0  0
  7 26  1  0  0  0  0
  7 27  1  0  0  0  0
  8  9  1  0  0  0  0
  8 18  1  0  0  0  0
  8 28  1  0  0  0  0
  9 10  1  0  0  0  0
  9 29  1  0  0  0  0
 10 11  2  0  0  0  0
 10 12  1  0  0  0  0
 12 13  1  0  0  0  0
 12 30  1  0  0  0  0
 13 17  1  0  0  0  0
 13 14  2  0  0  0  0
 14 15  1  0  0  0  0
 15 16  2  0  0  0  0
 15 31  1  0  0  0  0
 16 17  1  0  0  0  0
 16 32  1  0  0  0  0
 18 33  1  0  0  0  0
 18 34  1  0  0  0  0
M  END
> <s_m_source_file>
AV-unprocessed.smi

> <i_m_source_file_index>
3282

> <i_lp_mmshare_version>
43012

> <i_f3d_flags>
0

> <s_epik_input>
W0NIM11bQ0gyXUMoPU8pTjFbQ0gyXVtDSDJdW0NASF0oW0NIMl0xKVtOSF1DKD1PKVtOSF1jMm5bY0hdW2NIXW8y

> <s_epik_cmdline>
J2VwaWtfcHl0aG9uJywgJy1waCcsICc3LjAnLCAnLXRuJywgJzgnLCAnLW1hJywgJzIwMCcsICctbWV0YWxfYmluZGluZycsICctaW1hZScsICc8aW5maWxlLm1hZT4nLCAnLW9tYWUnLCAnPG91dGZpbGUubWFlPic=

> <r_lp_tautomer_probability>
0.785861

> <r_epik_Ionization_Penalty>
4.35681e-05

> <r_epik_Ionization_Penalty_Charging>
0

> <r_epik_Ionization_Penalty_Neutral>
4.35681e-05

> <r_epik_State_Penalty>
0.0212547

> <r_epik_Charging_Adjusted_Penalty>
0.0212547

> <i_epik_Tot_Q>
0

> <i_epik_Tot_abs_Q>
0

> <r_epik_Metal_State_Penalty>
0.00779955

> <b_epik_Metal_Only>
0

> <s_lp_Force_Field>
OPLS_2005

> <r_lp_Energy>
25.4051

> <b_lp_Chiralities_Consistent>
1

> <s_lp_Variant>
AV-unprocessed.smi:3282-1

> <Gold.Version>
5.8.1

> <Gold.Id.Protein>
6NUR|6NUR_protein|mol2

> <Gold.PLP.Fitness>
43.0822

> <Gold.PLP.PLP>
-37.0861

> <Gold.PLP.part.hbond>
-2.0620

> <Gold.PLP.part.metal>
0.0000

> <Gold.PLP.part.buried>
-4.8947

> <Gold.PLP.part.nonpolar>
-29.6241

> <Gold.PLP.part.repulsive>
0.3817

> <Gold.PLP.ligand.clash>
0.0000

> <Gold.PLP.ligand.torsion>
0.0064

> <Gold.PLP.Chemscore.Hbond>
0.0000

> <Gold.PLP.Chemscore.CHOScore>
2.0000

> <Gold.PLP.Chemscore.Metal>
0.0000

> <Gold.Chemscore.Hbonds>
donor molecule, donor type, donor heavy atom, donor atom, acceptor molecule, acceptor atom, score
      L1  C    15    31       P1 10175  0.83
      L1  C    16    32       P1  7957  1.00

> <Gold.PLP.Chemscore.Internal.Correction>
0.0090

> <Gold.Rescore>
     Score         DG    S(hbond)    S(metal)    S(lipo)     H(rot)  DE(clash)    DE(int)     intcor
     10.15     -11.84       0.44        0.00      70.68       1.32       0.22       1.47       ----

> <Gold.Chemscore.Fitness>
10.1505

> <Gold.Chemscore.DG>
-11.8412

> <Gold.Chemscore.ZeroCoef>
-5.4800

> <Gold.Chemscore.Hbond>
0.4402

> <Gold.Chemscore.Metal>
0.0000

> <Gold.Chemscore.Lipo>
70.6829

> <Gold.Chemscore.Internal_Hbond>
0.0000

> <Gold.Chemscore.DEClash>
0.2225

> <Gold.Chemscore.DEInternal>
1.4682

> <Gold.Chemscore.Rot>
1.3199

> <Gold.Chemscore.Internal.Correction>
   9.000000E+99

> <Gold.Chemscore.Hbond.Weighted>
-1.4703

> <Gold.Chemscore.Metal.Weighted>
-0.0000

> <Gold.Chemscore.Lipo.Weighted>
-8.2699

> <Gold.Chemscore.Internal_Hbond.Weighted>
0.0000

> <Gold.Chemscore.DEClash.Weighted>
0.2225

> <Gold.Chemscore.DEInternal.Weighted>
1.4682

> <Gold.Chemscore.Rot.Weighted>
3.3789

> <Gold.Chemscore.Internal.Correction.Weighted>
   9.000000E+99

> <Gold.Protein.RotatedTorsions>
[ 6907 6896 6895 6894 ] final -135.72 input  -60.11 | X-H torsion
[ 7974 7965 7964 7962 ] final   29.84 input  175.53 | X-H torsion
[ 8008 7997 7996 7995 ] final -146.74 input   59.86 | X-H torsion
[ 10167 10162 10161 10158 ] final -142.81 input  -65.29 | X-H torsion
[ 10718 10713 10712 10709 ] final  -32.70 input   66.30 | X-H torsion
[ 10763 10752 10751 10750 ] final  174.76 input  -60.55 | X-H torsion
[ 11005 11000 10999 10996 ] final -148.68 input  -57.11 | X-H torsion

> <Gold.Protein.ActiveResidues>
 VAL166  LYS551  ARG553  GLY616  TRP617  ASP618  TYR619  PRO620  LYS621  CYS622 
 ASP623  PHE694  ASN695  SER759  ASP760  ASP761  ALA762  ILE779  LEU786  VAL792 
 PHE793  MET794  SER795  GLU796  ALA797  LYS798  CYS799  TRP800  GLU811  SER814 

> <Gold.Protein.RotatedAtoms>
  151.0013  133.6053  159.2694 H   0  0  0  0  0  0  0  0  0  0  0  0  # atno 6907 bound_to 6896
  151.3239  135.0824  159.9325 H   0  0  0  0  0  0  0  0  0  0  0  0  # atno 6908 bound_to 6896
  152.5274  133.9655  159.7791 H   0  0  0  0  0  0  0  0  0  0  0  0  # atno 6909 bound_to 6896
  146.1648  139.6868  142.9009 H   0  0  0  0  0  0  0  0  0  0  0  0  # atno 7974 bound_to 7965
  155.5643  140.0628  157.2821 H   0  0  0  0  0  0  0  0  0  0  0  0  # atno 8008 bound_to 7997
  154.4380  140.1880  156.0860 H   0  0  0  0  0  0  0  0  0  0  0  0  # atno 8009 bound_to 7997
  156.0423  140.3294  155.7261 H   0  0  0  0  0  0  0  0  0  0  0  0  # atno 8010 bound_to 7997
  139.8053  143.7777  152.2660 H   0  0  0  0  0  0  0  0  0  0  0  0  # atno 10167 bound_to 10162
  156.3717  130.4340  149.7540 H   0  0  0  0  0  0  0  0  0  0  0  0  # atno 10718 bound_to 10713
  154.4583  135.2767  155.1731 H   0  0  0  0  0  0  0  0  0  0  0  0  # atno 10763 bound_to 10752
  154.3530  135.6146  153.5656 H   0  0  0  0  0  0  0  0  0  0  0  0  # atno 10764 bound_to 10752
  152.9852  135.5816  154.4940 H   0  0  0  0  0  0  0  0  0  0  0  0  # atno 10765 bound_to 10752
  140.7587  134.3323  157.5107 H   0  0  0  0  0  0  0  0  0  0  0  0  # atno 11005 bound_to 11000
  145.4496  141.0427  143.2812 LP  0  0  0  0  0  0  0  0  0  0  0  0  # atno 17320 bound_to 7965
  144.8077  139.6021  143.7043 LP  0  0  0  0  0  0  0  0  0  0  0  0  # atno 17321 bound_to 7965
  139.7910  144.7410  150.9956 LP  0  0  0  0  0  0  0  0  0  0  0  0  # atno 17342 bound_to 10162
  140.7819  143.4443  151.0506 LP  0  0  0  0  0  0  0  0  0  0  0  0  # atno 17343 bound_to 10162
  156.4665  130.7976  151.2995 LP  0  0  0  0  0  0  0  0  0  0  0  0  # atno 17370 bound_to 10713
  157.7484  131.0049  150.3094 LP  0  0  0  0  0  0  0  0  0  0  0  0  # atno 17371 bound_to 10713
  139.8774  134.9188  156.3212 LP  0  0  0  0  0  0  0  0  0  0  0  0  # atno 17394 bound_to 11000
  140.9683  133.7344  156.0498 LP  0  0  0  0  0  0  0  0  0  0  0  0  # atno 17395 bound_to 11000

$$$$
