AV-unprocessed.smi:275|AV-procd|sdf|2064|dock9
  -GOLD-   2262021313D 1   1.00000     0.00000
 Structure written by MMmdl.
 65 69  0  0  0  0  0  0  0  0  1 V2000
  145.6387  132.3095  161.7900 C   0  0  0  0  0  0  0  0  0  0  0  0
  146.6187  132.2853  160.6049 C   0  0  0  0  0  0  0  0  0  0  0  0
  147.9713  131.7303  161.0820 C   0  0  0  0  0  0  0  0  0  0  0  0
  146.7865  133.6667  159.9453 C   0  0  2  0  0  0  0  0  0  0  0  0
  148.1398  133.9257  159.4577 N   0  0  0  0  0  0  0  0  0  0  0  0
  148.4437  133.6818  158.0880 C   0  0  0  0  0  0  0  0  0  0  0  0
  149.7090  133.8045  157.6036 N   0  0  0  0  0  0  0  0  0  0  0  0
  149.9783  133.5731  156.3156 C   0  0  0  0  0  0  0  0  0  0  0  0
  149.1431  133.2087  155.3419 N   0  0  0  0  0  0  0  0  0  0  0  0
  147.8706  133.0814  155.8131 C   0  0  0  0  0  0  0  0  0  0  0  0
  147.4428  133.2981  157.1535 C   0  0  0  0  0  0  0  0  0  0  0  0
  146.0750  133.0778  157.2560 N   0  0  0  0  0  0  0  0  0  0  0  0
  145.7139  132.7491  156.0459 C   0  0  0  0  0  0  0  0  0  0  0  0
  146.7322  132.7076  155.1198 N   0  0  0  0  0  0  0  0  0  0  0  0
  146.6108  132.3831  153.7089 C   0  0  0  0  0  0  0  0  0  0  0  0
  145.6894  133.3375  152.9044 C   0  0  1  0  0  0  0  0  0  0  0  0
  146.3151  134.7535  152.9441 C   0  0  0  0  0  0  0  0  0  0  0  0
  145.3392  135.7667  152.8148 O   0  0  0  0  0  0  0  0  0  0  0  0
  145.4361  132.8479  151.4452 C   0  0  2  0  0  0  0  0  0  0  0  0
  144.5416  133.7422  150.6009 C   0  0  0  0  0  0  0  0  0  0  0  0
  144.1404  132.8176  149.4613 C   0  0  0  0  0  0  0  0  0  0  0  0
  143.9661  131.5517  150.0782 O   0  0  0  0  0  0  0  0  0  0  0  0
  144.6936  131.5088  151.3024 C   0  0  0  0  0  0  0  0  0  0  0  0
  148.0218  135.3422  159.7526 C   0  0  0  0  0  0  0  0  0  0  0  0
  146.9496  134.9597  160.7858 C   0  0  0  0  0  0  0  0  0  0  0  0
  147.4695  134.8221  162.2350 C   0  0  0  0  0  0  0  0  0  0  0  0
  147.7997  136.1780  162.8829 C   0  0  0  0  0  0  0  0  0  0  0  0
  146.5827  137.1118  162.8666 C   0  0  0  0  0  0  0  0  0  0  0  0
  146.0080  137.2480  161.4509 C   0  0  0  0  0  0  0  0  0  0  0  0
  145.7117  135.8699  160.8360 C   0  0  0  0  0  0  0  0  0  0  0  0
  145.9550  133.0209  162.5533 H   0  0  0  0  0  0  0  0  0  0  0  0
  145.5654  131.3288  162.2605 H   0  0  0  0  0  0  0  0  0  0  0  0
  144.6338  132.5849  161.4705 H   0  0  0  0  0  0  0  0  0  0  0  0
  146.2202  131.5828  159.8723 H   0  0  0  0  0  0  0  0  0  0  0  0
  148.4108  132.3729  161.8455 H   0  0  0  0  0  0  0  0  0  0  0  0
  148.6921  131.6501  160.2704 H   0  0  0  0  0  0  0  0  0  0  0  0
  147.8580  130.7350  161.5121 H   0  0  0  0  0  0  0  0  0  0  0  0
  146.0441  133.8414  159.1646 H   0  0  0  0  0  0  0  0  0  0  0  0
  151.0111  133.6964  156.0247 H   0  0  0  0  0  0  0  0  0  0  0  0
  144.6886  132.5185  155.7959 H   0  0  0  0  0  0  0  0  0  0  0  0
  147.6216  132.4019  153.3000 H   0  0  0  0  0  0  0  0  0  0  0  0
  146.2623  131.3547  153.6074 H   0  0  0  0  0  0  0  0  0  0  0  0
  144.7325  133.3898  153.4260 H   0  0  0  0  0  0  0  0  0  0  0  0
  146.8164  134.9313  153.8959 H   0  0  0  0  0  0  0  0  0  0  0  0
  147.0711  134.8673  152.1665 H   0  0  0  0  0  0  0  0  0  0  0  0
  145.2929  136.2454  153.6285 H   0  0  0  0  0  0  0  0  0  0  0  0
  146.3954  132.7630  150.9318 H   0  0  0  0  0  0  0  0  0  0  0  0
  143.6561  134.0407  151.1640 H   0  0  0  0  0  0  0  0  0  0  0  0
  145.0436  134.6419  150.2441 H   0  0  0  0  0  0  0  0  0  0  0  0
  143.2341  133.1441  148.9511 H   0  0  0  0  0  0  0  0  0  0  0  0
  144.9415  132.7455  148.7245 H   0  0  0  0  0  0  0  0  0  0  0  0
  145.3753  130.6592  151.2970 H   0  0  0  0  0  0  0  0  0  0  0  0
  143.9780  131.3653  152.1124 H   0  0  0  0  0  0  0  0  0  0  0  0
  148.9309  135.7784  160.1669 H   0  0  0  0  0  0  0  0  0  0  0  0
  147.6311  135.9225  158.9140 H   0  0  0  0  0  0  0  0  0  0  0  0
  146.7366  134.3129  162.8589 H   0  0  0  0  0  0  0  0  0  0  0  0
  148.3627  134.1969  162.2627 H   0  0  0  0  0  0  0  0  0  0  0  0
  148.1382  136.0279  163.9085 H   0  0  0  0  0  0  0  0  0  0  0  0
  148.6282  136.6487  162.3529 H   0  0  0  0  0  0  0  0  0  0  0  0
  145.8142  136.7169  163.5321 H   0  0  0  0  0  0  0  0  0  0  0  0
  146.8566  138.0921  163.2571 H   0  0  0  0  0  0  0  0  0  0  0  0
  145.0981  137.8481  161.4761 H   0  0  0  0  0  0  0  0  0  0  0  0
  146.7151  137.7859  160.8184 H   0  0  0  0  0  0  0  0  0  0  0  0
  145.3081  136.0129  159.8330 H   0  0  0  0  0  0  0  0  0  0  0  0
  144.9164  135.3873  161.4052 H   0  0  0  0  0  0  0  0  0  0  0  0
  1  2  1  0  0  0  0
  1 31  1  0  0  0  0
  1 32  1  0  0  0  0
  1 33  1  0  0  0  0
  2  3  1  0  0  0  0
  2  4  1  0  0  0  0
  2 34  1  0  0  0  0
  3 35  1  0  0  0  0
  3 36  1  0  0  0  0
  3 37  1  0  0  0  0
  4 25  1  0  0  0  0
  4  5  1  0  0  0  0
  4 38  1  0  0  0  0
  5  6  1  0  0  0  0
  5 24  1  0  0  0  0
  6 11  1  0  0  0  0
  6  7  2  0  0  0  0
  7  8  1  0  0  0  0
  8  9  2  0  0  0  0
  8 39  1  0  0  0  0
  9 10  1  0  0  0  0
 10 14  1  0  0  0  0
 10 11  2  0  0  0  0
 11 12  1  0  0  0  0
 12 13  2  0  0  0  0
 13 14  1  0  0  0  0
 13 40  1  0  0  0  0
 14 15  1  0  0  0  0
 15 16  1  0  0  0  0
 15 41  1  0  0  0  0
 15 42  1  0  0  0  0
 16 17  1  0  0  0  0
 16 19  1  0  0  0  0
 16 43  1  0  0  0  0
 17 18  1  0  0  0  0
 17 44  1  0  0  0  0
 17 45  1  0  0  0  0
 18 46  1  0  0  0  0
 19 23  1  0  0  0  0
 19 20  1  0  0  0  0
 19 47  1  0  0  0  0
 20 21  1  0  0  0  0
 20 48  1  0  0  0  0
 20 49  1  0  0  0  0
 21 22  1  0  0  0  0
 21 50  1  0  0  0  0
 21 51  1  0  0  0  0
 22 23  1  0  0  0  0
 23 52  1  0  0  0  0
 23 53  1  0  0  0  0
 24 25  1  0  0  0  0
 24 54  1  0  0  0  0
 24 55  1  0  0  0  0
 25 30  1  0  0  0  0
 25 26  1  0  0  0  0
 26 27  1  0  0  0  0
 26 56  1  0  0  0  0
 26 57  1  0  0  0  0
 27 28  1  0  0  0  0
 27 58  1  0  0  0  0
 27 59  1  0  0  0  0
 28 29  1  0  0  0  0
 28 60  1  0  0  0  0
 28 61  1  0  0  0  0
 29 30  1  0  0  0  0
 29 62  1  0  0  0  0
 29 63  1  0  0  0  0
 30 64  1  0  0  0  0
 30 65  1  0  0  0  0
M  END
> <s_m_source_file>
AV-unprocessed.smi

> <i_m_source_file_index>
275

> <i_lp_mmshare_version>
43012

> <i_f3d_flags>
0

> <s_epik_input>
W0NIMl0xW0NIMl1bQ0gyXVtDSDJdW0NIMl1DMTJbQ0BIXShbQ0hdKFtDSDNdKVtDSDNdKU4oW0NIMl0yKWMobltjSF1uMyljKGMzNCluW2NIXW40W0NIMl1bQ0BIXShbQ0gyXVtPSF0pW0NAQEhdNVtDSDJdW0NIMl1PW0NIMl01

> <s_epik_cmdline>
J2VwaWtfcHl0aG9uJywgJy1waCcsICc3LjAnLCAnLXRuJywgJzgnLCAnLW1hJywgJzIwMCcsICctbWV0YWxfYmluZGluZycsICctaW1hZScsICc8aW5maWxlLm1hZT4nLCAnLW9tYWUnLCAnPG91dGZpbGUubWFlPic=

> <r_lp_tautomer_probability>
1

> <r_epik_Ionization_Penalty>
0.00375122

> <r_epik_Ionization_Penalty_Charging>
0

> <r_epik_Ionization_Penalty_Neutral>
0.00375122

> <r_epik_State_Penalty>
0.00260593

> <r_epik_Charging_Adjusted_Penalty>
0.00260593

> <i_epik_Tot_Q>
0

> <i_epik_Tot_abs_Q>
0

> <r_epik_Metal_State_Penalty>
-0

> <b_epik_Metal_Only>
0

> <s_lp_Force_Field>
OPLS_2005

> <r_lp_Energy>
64.5971

> <b_lp_Chiralities_Consistent>
1

> <s_lp_Variant>
AV-unprocessed.smi:275-3

> <Gold.Version>
5.8.1

> <Gold.Id.Protein>
6NUR|6NUR_protein|mol2

> <Gold.PLP.Fitness>
45.7764

> <Gold.PLP.PLP>
-39.7621

> <Gold.PLP.part.hbond>
-2.0000

> <Gold.PLP.part.metal>
0.0000

> <Gold.PLP.part.buried>
-6.4332

> <Gold.PLP.part.nonpolar>
-31.8862

> <Gold.PLP.part.repulsive>
0.2044

> <Gold.PLP.ligand.clash>
0.0000

> <Gold.PLP.ligand.torsion>
1.2667

> <Gold.PLP.Chemscore.Hbond>
1.6435

> <Gold.PLP.Chemscore.CHOScore>
1.0000

> <Gold.PLP.Chemscore.Metal>
0.0000

> <Gold.Chemscore.Hbonds>
donor molecule, donor type, donor heavy atom, donor atom, acceptor molecule, acceptor atom, score
      P1  H  6896  6908       L1     7  1.00
      P1  H 10785 10796       L1    22  0.63
      L1  C    13    40       P1 10957  1.00

> <Gold.PLP.Chemscore.Internal.Correction>
0.6173

> <Gold.Rescore>
     Score         DG    S(hbond)    S(metal)    S(lipo)     H(rot)  DE(clash)    DE(int)     intcor
     12.04     -14.65       0.88        0.00     108.90       2.54       0.03       2.58       ----

> <Gold.Chemscore.Fitness>
12.0383

> <Gold.Chemscore.DG>
-14.6537

> <Gold.Chemscore.ZeroCoef>
-5.4800

> <Gold.Chemscore.Hbond>
0.8770

> <Gold.Chemscore.Metal>
0.0000

> <Gold.Chemscore.Lipo>
108.8992

> <Gold.Chemscore.Internal_Hbond>
0.0000

> <Gold.Chemscore.DEClash>
0.0310

> <Gold.Chemscore.DEInternal>
2.5845

> <Gold.Chemscore.Rot>
2.5377

> <Gold.Chemscore.Internal.Correction>
   9.000000E+99

> <Gold.Chemscore.Hbonds>
donor molecule, donor type, donor heavy atom, donor atom, acceptor molecule, acceptor atom, score
      P1  H  6896  6908       L1     7  0.38
      P1  H 10785 10796       L1    22  0.51

> <Gold.Chemscore.Hbond.Weighted>
-2.9291

> <Gold.Chemscore.Metal.Weighted>
-0.0000

> <Gold.Chemscore.Lipo.Weighted>
-12.7412

> <Gold.Chemscore.Internal_Hbond.Weighted>
0.0000

> <Gold.Chemscore.DEClash.Weighted>
0.0310

> <Gold.Chemscore.DEInternal.Weighted>
2.5845

> <Gold.Chemscore.Rot.Weighted>
6.4966

> <Gold.Chemscore.Internal.Correction.Weighted>
   9.000000E+99

> <Gold.Protein.RotatedTorsions>
[ 6907 6896 6895 6894 ] final  119.23 input  -60.11 | X-H torsion
[ 7974 7965 7964 7962 ] final -126.25 input  175.53 | X-H torsion
[ 8008 7997 7996 7995 ] final   15.43 input   59.86 | X-H torsion
[ 10167 10162 10161 10158 ] final -156.27 input  -65.29 | X-H torsion
[ 10718 10713 10712 10709 ] final  -82.97 input   66.30 | X-H torsion
[ 10763 10752 10751 10750 ] final  -75.47 input  -60.55 | X-H torsion
[ 11005 11000 10999 10996 ] final -159.26 input  -57.11 | X-H torsion

> <Gold.Protein.ActiveResidues>
 VAL166  LYS551  ARG553  GLY616  TRP617  ASP618  TYR619  PRO620  LYS621  CYS622 
 ASP623  PHE694  ASN695  SER759  ASP760  ASP761  ALA762  ILE779  LEU786  VAL792 
 PHE793  MET794  SER795  GLU796  ALA797  LYS798  CYS799  TRP800  GLU811  SER814 

> <Gold.Protein.RotatedAtoms>
  152.4487  133.7586  159.6733 H   0  0  0  0  0  0  0  0  0  0  0  0  # atno 6907 bound_to 6896
  150.8393  133.7952  159.3073 H   0  0  0  0  0  0  0  0  0  0  0  0  # atno 6908 bound_to 6896
  151.5582  135.1069  160.0018 H   0  0  0  0  0  0  0  0  0  0  0  0  # atno 6909 bound_to 6896
  144.9892  140.7715  143.4565 H   0  0  0  0  0  0  0  0  0  0  0  0  # atno 7974 bound_to 7965
  154.8626  140.2946  155.5530 H   0  0  0  0  0  0  0  0  0  0  0  0  # atno 8008 bound_to 7997
  156.3020  140.2475  156.3535 H   0  0  0  0  0  0  0  0  0  0  0  0  # atno 8009 bound_to 7997
  154.8902  140.0395  157.1823 H   0  0  0  0  0  0  0  0  0  0  0  0  # atno 8010 bound_to 7997
  139.6864  143.9494  152.2363 H   0  0  0  0  0  0  0  0  0  0  0  0  # atno 10167 bound_to 10162
  156.0025  130.4651  150.4185 H   0  0  0  0  0  0  0  0  0  0  0  0  # atno 10718 bound_to 10713
  154.4869  135.5830  153.6431 H   0  0  0  0  0  0  0  0  0  0  0  0  # atno 10763 bound_to 10752
  152.9856  135.6103  154.3174 H   0  0  0  0  0  0  0  0  0  0  0  0  # atno 10764 bound_to 10752
  154.3070  135.2845  155.2563 H   0  0  0  0  0  0  0  0  0  0  0  0  # atno 10765 bound_to 10752
  140.6445  134.4516  157.5234 H   0  0  0  0  0  0  0  0  0  0  0  0  # atno 11005 bound_to 11000
  145.2310  139.2115  143.5043 LP  0  0  0  0  0  0  0  0  0  0  0  0  # atno 17320 bound_to 7965
  146.3427  140.2187  142.8591 LP  0  0  0  0  0  0  0  0  0  0  0  0  # atno 17321 bound_to 7965
  139.9298  144.6748  150.8374 LP  0  0  0  0  0  0  0  0  0  0  0  0  # atno 17342 bound_to 10162
  140.7669  143.3316  151.2398 LP  0  0  0  0  0  0  0  0  0  0  0  0  # atno 17343 bound_to 10162
  157.2243  131.0489  151.2529 LP  0  0  0  0  0  0  0  0  0  0  0  0  # atno 17370 bound_to 10713
  157.3771  130.7211  149.6604 LP  0  0  0  0  0  0  0  0  0  0  0  0  # atno 17371 bound_to 10713
  139.9068  134.8432  156.1677 LP  0  0  0  0  0  0  0  0  0  0  0  0  # atno 17394 bound_to 11000
  141.0582  133.6855  156.1901 LP  0  0  0  0  0  0  0  0  0  0  0  0  # atno 17395 bound_to 11000

$$$$
