AV-unprocessed.smi:2605|AV-procd|sdf|10195|dock6
  -GOLD-   2272014203D 1   1.00000     0.00000
 Structure written by MMmdl.
 26 27  0  0  0  0  0  0  0  0  2 V2000
  140.8883  136.0526  153.8974 C   0  0  0  0  0  0  0  0  0  0  0  0
  141.6656  135.0845  153.2304 C   0  0  0  0  0  0  0  0  0  0  0  0
  142.7915  135.5110  152.4946 C   0  0  0  0  0  0  0  0  0  0  0  0
  143.6507  134.5020  151.7487 C   0  0  2  0  0  0  0  0  0  0  0  0
  144.2402  135.0647  150.4344 C   0  0  0  0  0  0  0  0  0  0  0  0
  145.0737  134.0549  149.7882 N   0  0  0  0  0  0  0  0  0  0  0  0
  144.2437  132.9026  149.4507 C   0  0  0  0  0  0  0  0  0  0  0  0
  143.6659  132.2813  150.7363 C   0  0  0  0  0  0  0  0  0  0  0  0
  142.8640  133.2824  151.4682 N   0  3  0  0  0  0  0  0  0  0  0  0
  143.0808  136.8928  152.4552 C   0  0  0  0  0  0  0  0  0  0  0  0
  142.2389  137.7784  153.1577 C   0  0  0  0  0  0  0  0  0  0  0  0
  141.1632  137.3738  153.8655 N   0  0  0  0  0  0  0  0  0  0  0  0
  140.0217  135.7571  154.4702 H   0  0  0  0  0  0  0  0  0  0  0  0
  141.3985  134.0394  153.2884 H   0  0  0  0  0  0  0  0  0  0  0  0
  144.4777  134.2176  152.4024 H   0  0  0  0  0  0  0  0  0  0  0  0
  143.4557  135.3817  149.7463 H   0  0  0  0  0  0  0  0  0  0  0  0
  144.8544  135.9407  150.6451 H   0  0  0  0  0  0  0  0  0  0  0  0
  145.4776  134.4392  148.9449 H   0  0  0  0  0  0  0  0  0  0  0  0
  143.4457  133.2030  148.7701 H   0  0  0  0  0  0  0  0  0  0  0  0
  144.8547  132.1695  148.9235 H   0  0  0  0  0  0  0  0  0  0  0  0
  143.0337  131.4269  150.4945 H   0  0  0  0  0  0  0  0  0  0  0  0
  144.4673  131.9146  151.3794 H   0  0  0  0  0  0  0  0  0  0  0  0
  142.5394  132.8854  152.3382 H   0  0  0  0  0  0  0  0  0  0  0  0
  143.9243  137.2752  151.8997 H   0  0  0  0  0  0  0  0  0  0  0  0
  142.4334  138.8406  153.1473 H   0  0  0  0  0  0  0  0  0  0  0  0
  142.0671  133.5382  150.9030 H   0  0  0  0  0  0  0  0  0  0  0  0
  1 12  1  0  0  0  0
  1  2  2  0  0  0  0
  1 13  1  0  0  0  0
  2  3  1  0  0  0  0
  2 14  1  0  0  0  0
  3  4  1  0  0  0  0
  3 10  2  0  0  0  0
  4  9  1  0  0  0  0
  4  5  1  0  0  0  0
  4 15  1  0  0  0  0
  5  6  1  0  0  0  0
  5 16  1  0  0  0  0
  5 17  1  0  0  0  0
  6  7  1  0  0  0  0
  6 18  1  0  0  0  0
  7  8  1  0  0  0  0
  7 19  1  0  0  0  0
  7 20  1  0  0  0  0
  8  9  1  0  0  0  0
  8 21  1  0  0  0  0
  8 22  1  0  0  0  0
  9 23  1  0  0  0  0
  9 26  1  0  0  0  0
 10 11  1  0  0  0  0
 10 24  1  0  0  0  0
 11 12  2  0  0  0  0
 11 25  1  0  0  0  0
M  CHG  1   9   1
M  END
> <s_m_source_file>
AV-unprocessed.smi

> <i_m_source_file_index>
2605

> <i_lp_mmshare_version>
43012

> <i_f3d_flags>
0

> <s_epik_input>
W2NIXTFbY0hdbltjSF1bY0hdYzFbQ0BASF0yW0NIMl1bTkhdW0NIMl1bQ0gyXVtOSF0y

> <s_epik_cmdline>
J2VwaWtfcHl0aG9uJywgJy1waCcsICc3LjAnLCAnLXRuJywgJzgnLCAnLW1hJywgJzIwMCcsICctbWV0YWxfYmluZGluZycsICctaW1hZScsICc8aW5maWxlLm1hZT4nLCAnLW9tYWUnLCAnPG91dGZpbGUubWFlPic=

> <r_epik_Ionization_Penalty>
0.0246915

> <r_epik_Ionization_Penalty_Charging>
0.015072

> <r_epik_Ionization_Penalty_Neutral>
0.00961942

> <r_epik_State_Penalty>
0.518662

> <r_epik_Charging_Adjusted_Penalty>
0.533734

> <i_epik_Tot_Q>
1

> <i_epik_Tot_abs_Q>
1

> <r_epik_Metal_State_Penalty>
0.520249

> <b_epik_Metal_Only>
0

> <s_lp_Force_Field>
OPLS_2005

> <r_lp_Energy>
7.08803

> <b_lp_Chiralities_Consistent>
1

> <s_lp_Variant>
AV-unprocessed.smi:2605-3

> <Gold.Version>
5.8.1

> <Gold.Id.Protein>
6NUR|6NUR_protein|mol2

> <Gold.PLP.Fitness>
38.9784

> <Gold.PLP.PLP>
-25.7713

> <Gold.PLP.part.hbond>
-1.9994

> <Gold.PLP.part.metal>
0.0000

> <Gold.PLP.part.buried>
-3.5063

> <Gold.PLP.part.nonpolar>
-20.6374

> <Gold.PLP.part.repulsive>
0.0901

> <Gold.PLP.ligand.clash>
0.0000

> <Gold.PLP.ligand.torsion>
0.6974

> <Gold.PLP.Chemscore.Hbond>
2.9913

> <Gold.PLP.Chemscore.CHOScore>
1.8721

> <Gold.PLP.Chemscore.Metal>
0.0000

> <Gold.Chemscore.Hbonds>
donor molecule, donor type, donor heavy atom, donor atom, acceptor molecule, acceptor atom, score
      L1  H     6    18       P1  7921  0.96
      L1  H     9    26       P1 10186  2.00
      L1  C     1    13       P1 11000  0.41
      L1  C    11    25       P1 10175  1.00

> <Gold.PLP.Chemscore.Internal.Correction>
0.0118

> <Gold.Rescore>
     Score         DG    S(hbond)    S(metal)    S(lipo)     H(rot)  DE(clash)    DE(int)     intcor
     15.81     -16.19       1.81        0.00      61.68       1.00       0.17       0.21       ----

> <Gold.Chemscore.Fitness>
15.8079

> <Gold.Chemscore.DG>
-16.1917

> <Gold.Chemscore.ZeroCoef>
-5.4800

> <Gold.Chemscore.Hbond>
1.8130

> <Gold.Chemscore.Metal>
0.0000

> <Gold.Chemscore.Lipo>
61.6783

> <Gold.Chemscore.Internal_Hbond>
0.0000

> <Gold.Chemscore.DEClash>
0.1713

> <Gold.Chemscore.DEInternal>
0.2125

> <Gold.Chemscore.Rot>
1.0000

> <Gold.Chemscore.Internal.Correction>
   9.000000E+99

> <Gold.Chemscore.Hbonds>
donor molecule, donor type, donor heavy atom, donor atom, acceptor molecule, acceptor atom, score
      L1  H     6    18       P1  7921  0.88
      L1  H     9    26       P1 10186  0.74

> <Gold.Chemscore.Hbond.Weighted>
-6.0553

> <Gold.Chemscore.Metal.Weighted>
-0.0000

> <Gold.Chemscore.Lipo.Weighted>
-7.2164

> <Gold.Chemscore.Internal_Hbond.Weighted>
0.0000

> <Gold.Chemscore.DEClash.Weighted>
0.1713

> <Gold.Chemscore.DEInternal.Weighted>
0.2125

> <Gold.Chemscore.Rot.Weighted>
2.5600

> <Gold.Chemscore.Internal.Correction.Weighted>
   9.000000E+99

> <Gold.Protein.RotatedTorsions>
[ 6907 6896 6895 6894 ] final -135.15 input  -60.11 | X-H torsion
[ 7974 7965 7964 7962 ] final  117.77 input  175.53 | X-H torsion
[ 8008 7997 7996 7995 ] final   52.75 input   59.86 | X-H torsion
[ 10167 10162 10161 10158 ] final -119.85 input  -65.29 | X-H torsion
[ 10718 10713 10712 10709 ] final  151.46 input   66.30 | X-H torsion
[ 10763 10752 10751 10750 ] final  -28.87 input  -60.55 | X-H torsion
[ 11005 11000 10999 10996 ] final -137.84 input  -57.11 | X-H torsion

> <Gold.Protein.ActiveResidues>
 VAL166  LYS551  ARG553  GLY616  TRP617  ASP618  TYR619  PRO620  LYS621  CYS622 
 ASP623  PHE694  ASN695  SER759  ASP760  ASP761  ALA762  ILE779  LEU786  VAL792 
 PHE793  MET794  SER795  GLU796  ALA797  LYS798  CYS799  TRP800  GLU811  SER814 

> <Gold.Protein.RotatedAtoms>
  150.9944  133.6118  159.2703 H   0  0  0  0  0  0  0  0  0  0  0  0  # atno 6907 bound_to 6896
  151.3327  135.0844  159.9354 H   0  0  0  0  0  0  0  0  0  0  0  0  # atno 6908 bound_to 6896
  152.5255  133.9570  159.7753 H   0  0  0  0  0  0  0  0  0  0  0  0  # atno 6909 bound_to 6896
  145.1633  139.3142  143.4506 H   0  0  0  0  0  0  0  0  0  0  0  0  # atno 7974 bound_to 7965
  155.4569  140.3460  155.4308 H   0  0  0  0  0  0  0  0  0  0  0  0  # atno 8008 bound_to 7997
  156.1185  140.1480  156.9268 H   0  0  0  0  0  0  0  0  0  0  0  0  # atno 8009 bound_to 7997
  154.4806  140.0871  156.7347 H   0  0  0  0  0  0  0  0  0  0  0  0  # atno 8010 bound_to 7997
  140.0422  143.5142  152.2124 H   0  0  0  0  0  0  0  0  0  0  0  0  # atno 10167 bound_to 10162
  157.2705  131.0816  151.1603 H   0  0  0  0  0  0  0  0  0  0  0  0  # atno 10718 bound_to 10713
  153.7553  135.6923  153.4937 H   0  0  0  0  0  0  0  0  0  0  0  0  # atno 10763 bound_to 10752
  153.1975  135.4448  155.0225 H   0  0  0  0  0  0  0  0  0  0  0  0  # atno 10764 bound_to 10752
  154.8172  135.3405  154.7071 H   0  0  0  0  0  0  0  0  0  0  0  0  # atno 10765 bound_to 10752
  140.8672  134.2095  157.4672 H   0  0  0  0  0  0  0  0  0  0  0  0  # atno 11005 bound_to 11000
  146.3479  140.1752  142.8589 LP  0  0  0  0  0  0  0  0  0  0  0  0  # atno 17320 bound_to 7965
  145.0308  140.8869  143.5111 LP  0  0  0  0  0  0  0  0  0  0  0  0  # atno 17321 bound_to 7965
  139.6006  144.7581  151.3180 LP  0  0  0  0  0  0  0  0  0  0  0  0  # atno 17342 bound_to 10162
  140.7255  143.7016  150.7840 LP  0  0  0  0  0  0  0  0  0  0  0  0  # atno 17343 bound_to 10162
  157.3077  130.6874  149.6198 LP  0  0  0  0  0  0  0  0  0  0  0  0  # atno 17370 bound_to 10713
  155.9663  130.4373  150.5169 LP  0  0  0  0  0  0  0  0  0  0  0  0  # atno 17371 bound_to 10713
  139.8710  134.9757  156.4895 LP  0  0  0  0  0  0  0  0  0  0  0  0  # atno 17394 bound_to 11000
  140.8615  133.8056  155.9269 LP  0  0  0  0  0  0  0  0  0  0  0  0  # atno 17395 bound_to 11000

$$$$
