AV-unprocessed.smi:3237|AV-procd|sdf|12370|dock3
  -GOLD-   2272018233D 1   1.00000     0.00000
 Structure written by MMmdl.
 36 38  0  0  0  0  0  0  0  0  3 V2000
  146.8343  136.5925  162.7057 C   0  0  0  0  0  0  0  0  0  0  0  0
  147.3189  136.2411  161.3407 C   0  0  0  0  0  0  0  0  0  0  0  0
  148.1443  135.2579  160.8735 C   0  0  0  0  0  0  0  0  0  0  0  0
  148.1869  135.5073  159.4745 C   0  0  0  0  0  0  0  0  0  0  0  0
  148.8677  134.7919  158.5657 N   0  5  0  0  0  0  0  0  0  0  0  0
  148.7775  135.0988  157.2519 C   0  0  0  0  0  0  0  0  0  0  0  0
  148.4303  136.1809  156.7734 O   0  0  0  0  0  0  0  0  0  0  0  0
  149.1121  134.0872  156.4393 N   0  0  0  0  0  0  0  0  0  0  0  0
  149.1028  134.1348  154.9817 C   0  0  1  0  0  0  0  0  0  0  0  0
  149.5811  132.8483  154.3026 C   0  0  0  0  0  0  0  0  0  0  0  0
  148.7983  132.7955  152.9797 C   0  0  0  0  0  0  0  0  0  0  0  0
  147.8105  133.8988  153.0225 N   0  3  1  0  0  0  0  0  0  0  0  0
  146.5221  133.5902  152.3675 C   0  0  0  0  0  0  0  0  0  0  0  0
  146.6517  133.2894  150.8936 C   0  0  0  0  0  0  0  0  0  0  0  0
  146.0993  134.6226  151.3499 C   0  0  0  0  0  0  0  0  0  0  0  0
  147.6895  134.2986  154.4346 C   0  0  0  0  0  0  0  0  0  0  0  0
  147.4403  136.5403  159.1218 N   0  0  0  0  0  0  0  0  0  0  0  0
  146.8857  137.0211  160.3141 O   0  0  0  0  0  0  0  0  0  0  0  0
  146.5759  135.6944  163.2667 H   0  0  0  0  0  0  0  0  0  0  0  0
  145.9483  137.2260  162.6571 H   0  0  0  0  0  0  0  0  0  0  0  0
  147.6040  137.1290  163.2607 H   0  0  0  0  0  0  0  0  0  0  0  0
  148.6418  134.4860  161.4412 H   0  0  0  0  0  0  0  0  0  0  0  0
  149.3888  133.2181  156.8722 H   0  0  0  0  0  0  0  0  0  0  0  0
  149.7095  134.9747  154.6364 H   0  0  0  0  0  0  0  0  0  0  0  0
  150.6607  132.8421  154.1492 H   0  0  0  0  0  0  0  0  0  0  0  0
  149.3287  131.9787  154.9113 H   0  0  0  0  0  0  0  0  0  0  0  0
  149.4530  132.9278  152.1179 H   0  0  0  0  0  0  0  0  0  0  0  0
  148.3051  131.8276  152.8765 H   0  0  0  0  0  0  0  0  0  0  0  0
  145.7792  133.0746  152.9740 H   0  0  0  0  0  0  0  0  0  0  0  0
  147.6483  133.2812  150.4553 H   0  0  0  0  0  0  0  0  0  0  0  0
  145.9483  132.5803  150.4618 H   0  0  0  0  0  0  0  0  0  0  0  0
  145.0323  134.7909  151.2187 H   0  0  0  0  0  0  0  0  0  0  0  0
  146.7285  135.5007  151.2144 H   0  0  0  0  0  0  0  0  0  0  0  0
  146.9975  133.6293  154.9499 H   0  0  0  0  0  0  0  0  0  0  0  0
  147.3173  135.3188  154.5341 H   0  0  0  0  0  0  0  0  0  0  0  0
  148.2288  134.6807  152.5389 H   0  0  0  0  0  0  0  0  0  0  0  0
  1  2  1  0  0  0  0
  1 19  1  0  0  0  0
  1 20  1  0  0  0  0
  1 21  1  0  0  0  0
  2 18  1  0  0  0  0
  2  3  2  0  0  0  0
  3  4  1  0  0  0  0
  3 22  1  0  0  0  0
  4  5  1  0  0  0  0
  4 17  2  0  0  0  0
  5  6  1  0  0  0  0
  6  7  2  0  0  0  0
  6  8  1  0  0  0  0
  8  9  1  0  0  0  0
  8 23  1  0  0  0  0
  9 16  1  0  0  0  0
  9 10  1  0  0  0  0
  9 24  1  0  0  0  0
 10 11  1  0  0  0  0
 10 25  1  0  0  0  0
 10 26  1  0  0  0  0
 11 12  1  0  0  0  0
 11 27  1  0  0  0  0
 11 28  1  0  0  0  0
 12 13  1  0  0  0  0
 12 16  1  0  0  0  0
 12 36  1  0  0  0  0
 13 15  1  0  0  0  0
 13 14  1  0  0  0  0
 13 29  1  0  0  0  0
 14 15  1  0  0  0  0
 14 30  1  0  0  0  0
 14 31  1  0  0  0  0
 15 32  1  0  0  0  0
 15 33  1  0  0  0  0
 16 34  1  0  0  0  0
 16 35  1  0  0  0  0
 17 18  1  0  0  0  0
M  CHG  1   5  -1
M  CHG  1  12   1
M  END
> <s_m_source_file>
AV-unprocessed.smi

> <i_m_source_file_index>
3237

> <i_lp_mmshare_version>
43012

> <i_f3d_flags>
0

> <s_epik_input>
W0NIM11jMVtjSF1jKG5vMSlbTkhdQyg9TylbTkhdW0NAQEhdMltDSDJdW0NIMl1OKFtDSDJdMilbQ0hdM1tDSDJdW0NIMl0z

> <s_epik_cmdline>
J2VwaWtfcHl0aG9uJywgJy1waCcsICc3LjAnLCAnLXRuJywgJzgnLCAnLW1hJywgJzIwMCcsICctbWV0YWxfYmluZGluZycsICctaW1hZScsICc8aW5maWxlLm1hZT4nLCAnLW9tYWUnLCAnPG91dGZpbGUubWFlPic=

> <r_epik_Ionization_Penalty>
6.08472

> <r_epik_Ionization_Penalty_Charging>
6.08464

> <r_epik_Ionization_Penalty_Neutral>
8.41751e-05

> <r_epik_State_Penalty>
6.08438

> <r_epik_Charging_Adjusted_Penalty>
12.169

> <i_epik_Tot_Q>
0

> <i_epik_Tot_abs_Q>
2

> <r_epik_Metal_State_Penalty>
2.0369

> <b_epik_Metal_Only>
1

> <s_lp_Force_Field>
OPLS_2005

> <r_lp_Energy>
23.7623

> <b_lp_Chiralities_Consistent>
1

> <s_lp_Variant>
AV-unprocessed.smi:3237-8

> <Gold.Version>
5.8.1

> <Gold.Id.Protein>
6NUR|6NUR_protein|mol2

> <Gold.PLP.Fitness>
42.2250

> <Gold.PLP.PLP>
-27.6011

> <Gold.PLP.part.hbond>
-3.0000

> <Gold.PLP.part.metal>
0.0000

> <Gold.PLP.part.buried>
-3.5299

> <Gold.PLP.part.nonpolar>
-21.3909

> <Gold.PLP.part.repulsive>
0.0468

> <Gold.PLP.ligand.clash>
0.0000

> <Gold.PLP.ligand.torsion>
0.8307

> <Gold.PLP.Chemscore.Hbond>
5.0000

> <Gold.PLP.Chemscore.CHOScore>
0.0000

> <Gold.PLP.Chemscore.Metal>
0.0000

> <Gold.Chemscore.Hbonds>
donor molecule, donor type, donor heavy atom, donor atom, acceptor molecule, acceptor atom, score
      L1  H    12    36       P1  7948  2.00
      P1  H  6896  6907       L1     5  2.00
      P1  H  6934  6947       L1    18  0.80

> <Gold.PLP.Chemscore.Internal.Correction>
1.2853

> <Gold.Rescore>
     Score         DG    S(hbond)    S(metal)    S(lipo)     H(rot)  DE(clash)    DE(int)     intcor
     15.27     -17.94       2.61        0.00      59.25       1.25       0.12       2.55       ----

> <Gold.Chemscore.Fitness>
15.2720

> <Gold.Chemscore.DG>
-17.9428

> <Gold.Chemscore.ZeroCoef>
-5.4800

> <Gold.Chemscore.Hbond>
2.6112

> <Gold.Chemscore.Metal>
0.0000

> <Gold.Chemscore.Lipo>
59.2496

> <Gold.Chemscore.Internal_Hbond>
0.0000

> <Gold.Chemscore.DEClash>
0.1236

> <Gold.Chemscore.DEInternal>
2.5472

> <Gold.Chemscore.Rot>
1.2464

> <Gold.Chemscore.Internal.Correction>
   9.000000E+99

> <Gold.Chemscore.Hbonds>
donor molecule, donor type, donor heavy atom, donor atom, acceptor molecule, acceptor atom, score
      L1  H    12    36       P1  7948  0.40
      P1  H  6896  6907       L1     5  0.47
      P1  H  6934  6947       L1    18  0.47

> <Gold.Chemscore.Hbond.Weighted>
-8.7215

> <Gold.Chemscore.Metal.Weighted>
-0.0000

> <Gold.Chemscore.Lipo.Weighted>
-6.9322

> <Gold.Chemscore.Internal_Hbond.Weighted>
0.0000

> <Gold.Chemscore.DEClash.Weighted>
0.1236

> <Gold.Chemscore.DEInternal.Weighted>
2.5472

> <Gold.Chemscore.Rot.Weighted>
3.1909

> <Gold.Chemscore.Internal.Correction.Weighted>
   9.000000E+99

> <Gold.Protein.RotatedTorsions>
[ 6907 6896 6895 6894 ] final  -83.41 input  -60.11 | X-H torsion
[ 7974 7965 7964 7962 ] final  175.98 input  175.53 | X-H torsion
[ 8008 7997 7996 7995 ] final -135.04 input   59.86 | X-H torsion
[ 10167 10162 10161 10158 ] final  124.83 input  -65.29 | X-H torsion
[ 10718 10713 10712 10709 ] final  111.19 input   66.30 | X-H torsion
[ 10763 10752 10751 10750 ] final   70.12 input  -60.55 | X-H torsion
[ 11005 11000 10999 10996 ] final  135.31 input  -57.11 | X-H torsion

> <Gold.Protein.ActiveResidues>
 VAL166  LYS551  ARG553  GLY616  TRP617  ASP618  TYR619  PRO620  LYS621  CYS622 
 ASP623  PHE694  ASN695  SER759  ASP760  ASP761  ALA762  ILE779  LEU786  VAL792 
 PHE793  MET794  SER795  GLU796  ALA797  LYS798  CYS799  TRP800  GLU811  SER814 

> <Gold.Protein.RotatedAtoms>
  150.6886  134.3516  159.4911 H   0  0  0  0  0  0  0  0  0  0  0  0  # atno 6907 bound_to 6896
  152.1356  134.9099  160.0565 H   0  0  0  0  0  0  0  0  0  0  0  0  # atno 6908 bound_to 6896
  152.0252  133.3880  159.4311 H   0  0  0  0  0  0  0  0  0  0  0  0  # atno 6909 bound_to 6896
  144.7192  140.0028  143.6440 H   0  0  0  0  0  0  0  0  0  0  0  0  # atno 7974 bound_to 7965
  155.3721  140.0489  157.3045 H   0  0  0  0  0  0  0  0  0  0  0  0  # atno 8008 bound_to 7997
  154.5124  140.2196  155.9092 H   0  0  0  0  0  0  0  0  0  0  0  0  # atno 8009 bound_to 7997
  156.1598  140.3119  155.8794 H   0  0  0  0  0  0  0  0  0  0  0  0  # atno 8010 bound_to 7997
  139.5719  144.6943  151.3755 H   0  0  0  0  0  0  0  0  0  0  0  0  # atno 10167 bound_to 10162
  157.6457  131.0946  150.6712 H   0  0  0  0  0  0  0  0  0  0  0  0  # atno 10718 bound_to 10713
  153.0324  135.5185  154.7392 H   0  0  0  0  0  0  0  0  0  0  0  0  # atno 10763 bound_to 10752
  154.6396  135.2910  155.0121 H   0  0  0  0  0  0  0  0  0  0  0  0  # atno 10764 bound_to 10752
  154.1044  135.6631  153.4926 H   0  0  0  0  0  0  0  0  0  0  0  0  # atno 10765 bound_to 10752
  139.9971  134.9493  156.9990 H   0  0  0  0  0  0  0  0  0  0  0  0  # atno 11005 bound_to 11000
  146.0322  139.3345  143.0748 LP  0  0  0  0  0  0  0  0  0  0  0  0  # atno 17320 bound_to 7965
  145.8439  140.9566  143.0785 LP  0  0  0  0  0  0  0  0  0  0  0  0  # atno 17321 bound_to 7965
  140.7004  143.7647  150.7393 LP  0  0  0  0  0  0  0  0  0  0  0  0  # atno 17342 bound_to 10162
  140.1155  143.4659  152.2344 LP  0  0  0  0  0  0  0  0  0  0  0  0  # atno 17343 bound_to 10162
  156.7030  130.4629  149.5568 LP  0  0  0  0  0  0  0  0  0  0  0  0  # atno 17370 bound_to 10713
  156.1782  130.6482  151.0920 LP  0  0  0  0  0  0  0  0  0  0  0  0  # atno 17371 bound_to 10713
  140.4797  134.1302  155.7215 LP  0  0  0  0  0  0  0  0  0  0  0  0  # atno 17394 bound_to 11000
  141.1613  133.8787  157.1839 LP  0  0  0  0  0  0  0  0  0  0  0  0  # atno 17395 bound_to 11000

$$$$
