AV-unprocessed.smi:2377|AV-procd|sdf|9448|dock8
  -GOLD-   2272013 83D 1   1.00000     0.00000
 Structure written by MMmdl.
 23 23  0  0  0  0  0  0  0  0  1 V2000
  149.7411  141.4169  155.4963 C   0  0  0  0  0  0  0  0  0  0  0  0
  150.4753  142.5486  156.0473 N   0  0  0  0  0  0  0  0  0  0  0  0
  150.8790  142.3510  157.4373 C   0  0  0  0  0  0  0  0  0  0  0  0
  151.6738  143.5545  157.9763 C   0  0  1  0  0  0  0  0  0  0  0  0
  150.8798  144.7113  157.8155 O   0  0  0  0  0  0  0  0  0  0  0  0
  152.1133  143.3639  159.4207 C   0  0  0  0  0  0  0  0  0  0  0  0
  152.8747  142.2389  159.8015 C   0  0  0  0  0  0  0  0  0  0  0  0
  153.2542  142.0977  161.1501 C   0  0  0  0  0  0  0  0  0  0  0  0
  152.8534  143.0898  162.0665 C   0  0  0  0  0  0  0  0  0  0  0  0
  152.1228  144.1699  161.7171 N   0  0  0  0  0  0  0  0  0  0  0  0
  151.7629  144.2973  160.4216 C   0  0  0  0  0  0  0  0  0  0  0  0
  149.4740  141.6020  154.4560 H   0  0  0  0  0  0  0  0  0  0  0  0
  148.8199  141.2382  156.0516 H   0  0  0  0  0  0  0  0  0  0  0  0
  150.3400  140.5064  155.5301 H   0  0  0  0  0  0  0  0  0  0  0  0
  149.9085  143.3877  155.9782 H   0  0  0  0  0  0  0  0  0  0  0  0
  149.9920  142.2028  158.0549 H   0  0  0  0  0  0  0  0  0  0  0  0
  151.4739  141.4410  157.5270 H   0  0  0  0  0  0  0  0  0  0  0  0
  152.5608  143.6961  157.3570 H   0  0  0  0  0  0  0  0  0  0  0  0
  150.1418  144.4945  157.2663 H   0  0  0  0  0  0  0  0  0  0  0  0
  153.1636  141.4938  159.0749 H   0  0  0  0  0  0  0  0  0  0  0  0
  153.8370  141.2487  161.4752 H   0  0  0  0  0  0  0  0  0  0  0  0
  153.1265  143.0128  163.1085 H   0  0  0  0  0  0  0  0  0  0  0  0
  151.1766  145.1707  160.1769 H   0  0  0  0  0  0  0  0  0  0  0  0
  1  2  1  0  0  0  0
  1 12  1  0  0  0  0
  1 13  1  0  0  0  0
  1 14  1  0  0  0  0
  2  3  1  0  0  0  0
  2 15  1  0  0  0  0
  3  4  1  0  0  0  0
  3 16  1  0  0  0  0
  3 17  1  0  0  0  0
  4  5  1  0  0  0  0
  4  6  1  0  0  0  0
  4 18  1  0  0  0  0
  5 19  1  0  0  0  0
  6 11  1  0  0  0  0
  6  7  2  0  0  0  0
  7  8  1  0  0  0  0
  7 20  1  0  0  0  0
  8  9  2  0  0  0  0
  8 21  1  0  0  0  0
  9 10  1  0  0  0  0
  9 22  1  0  0  0  0
 10 11  2  0  0  0  0
 11 23  1  0  0  0  0
M  END
> <s_m_source_file>
AV-unprocessed.smi

> <i_m_source_file_index>
2377

> <i_lp_mmshare_version>
43012

> <i_f3d_flags>
0

> <s_epik_input>
W0NIM11bTkhdW0NIMl1bQ0BIXShbT0hdKWMxW2NIXVtjSF1bY0hdbltjSF0x

> <s_epik_cmdline>
J2VwaWtfcHl0aG9uJywgJy1waCcsICc3LjAnLCAnLXRuJywgJzgnLCAnLW1hJywgJzIwMCcsICctbWV0YWxfYmluZGluZycsICctaW1hZScsICc8aW5maWxlLm1hZT4nLCAnLW9tYWUnLCAnPG91dGZpbGUubWFlPic=

> <r_epik_Ionization_Penalty>
2.4626

> <r_epik_Ionization_Penalty_Charging>
0

> <r_epik_Ionization_Penalty_Neutral>
2.4626

> <r_epik_State_Penalty>
2.6219

> <r_epik_Charging_Adjusted_Penalty>
2.6219

> <i_epik_Tot_Q>
0

> <i_epik_Tot_abs_Q>
0

> <r_epik_Metal_State_Penalty>
2.61964

> <b_epik_Metal_Only>
0

> <s_lp_Force_Field>
OPLS_2005

> <r_lp_Energy>
6.69751

> <b_lp_Chiralities_Consistent>
1

> <s_lp_Variant>
AV-unprocessed.smi:2377-4

> <Gold.Version>
5.8.1

> <Gold.Id.Protein>
6NUR|6NUR_protein|mol2

> <Gold.PLP.Fitness>
37.6676

> <Gold.PLP.PLP>
-31.7082

> <Gold.PLP.part.hbond>
-2.5843

> <Gold.PLP.part.metal>
0.0000

> <Gold.PLP.part.buried>
-4.4359

> <Gold.PLP.part.nonpolar>
-25.6606

> <Gold.PLP.part.repulsive>
0.1858

> <Gold.PLP.ligand.clash>
0.0000

> <Gold.PLP.ligand.torsion>
0.0249

> <Gold.PLP.Chemscore.Hbond>
2.0000

> <Gold.PLP.Chemscore.CHOScore>
0.0000

> <Gold.PLP.Chemscore.Metal>
0.0000

> <Gold.Chemscore.Hbonds>
donor molecule, donor type, donor heavy atom, donor atom, acceptor molecule, acceptor atom, score
      L1  H     2    15       P1  8028  1.00
      L1  H     5    19       P1  8028  1.00

> <Gold.PLP.Chemscore.Internal.Correction>
0.0091

> <Gold.Rescore>
     Score         DG    S(hbond)    S(metal)    S(lipo)     H(rot)  DE(clash)    DE(int)     intcor
     16.51     -16.65       1.83        0.00      85.55       1.94       0.14       0.01       ----

> <Gold.Chemscore.Fitness>
16.5053

> <Gold.Chemscore.DG>
-16.6486

> <Gold.Chemscore.ZeroCoef>
-5.4800

> <Gold.Chemscore.Hbond>
1.8313

> <Gold.Chemscore.Metal>
0.0000

> <Gold.Chemscore.Lipo>
85.5469

> <Gold.Chemscore.Internal_Hbond>
0.0000

> <Gold.Chemscore.DEClash>
0.1354

> <Gold.Chemscore.DEInternal>
0.0079

> <Gold.Chemscore.Rot>
1.9363

> <Gold.Chemscore.Internal.Correction>
   9.000000E+99

> <Gold.Chemscore.Hbonds>
donor molecule, donor type, donor heavy atom, donor atom, acceptor molecule, acceptor atom, score
      L1  H     2    15       P1  8028  1.00
      L1  H     5    19       P1  8028  0.41

> <Gold.Chemscore.Hbond.Weighted>
-6.1166

> <Gold.Chemscore.Metal.Weighted>
-0.0000

> <Gold.Chemscore.Lipo.Weighted>
-10.0090

> <Gold.Chemscore.Internal_Hbond.Weighted>
0.0000

> <Gold.Chemscore.DEClash.Weighted>
0.1354

> <Gold.Chemscore.DEInternal.Weighted>
0.0079

> <Gold.Chemscore.Rot.Weighted>
4.9570

> <Gold.Chemscore.Internal.Correction.Weighted>
   9.000000E+99

> <Gold.Protein.RotatedTorsions>
[ 6907 6896 6895 6894 ] final  -38.85 input  -60.11 | X-H torsion
[ 7974 7965 7964 7962 ] final   66.46 input  175.53 | X-H torsion
[ 8008 7997 7996 7995 ] final   96.32 input   59.86 | X-H torsion
[ 10167 10162 10161 10158 ] final  -53.61 input  -65.29 | X-H torsion
[ 10718 10713 10712 10709 ] final  -29.54 input   66.30 | X-H torsion
[ 10763 10752 10751 10750 ] final  -93.22 input  -60.55 | X-H torsion
[ 11005 11000 10999 10996 ] final  -98.19 input  -57.11 | X-H torsion

> <Gold.Protein.ActiveResidues>
 VAL166  LYS551  ARG553  GLY616  TRP617  ASP618  TYR619  PRO620  LYS621  CYS622 
 ASP623  PHE694  ASN695  SER759  ASP760  ASP761  ALA762  ILE779  LEU786  VAL792 
 PHE793  MET794  SER795  GLU796  ALA797  LYS798  CYS799  TRP800  GLU811  SER814 

> <Gold.Protein.RotatedAtoms>
  150.9974  134.9295  159.7934 H   0  0  0  0  0  0  0  0  0  0  0  0  # atno 6907 bound_to 6896
  152.5268  134.3199  159.9154 H   0  0  0  0  0  0  0  0  0  0  0  0  # atno 6908 bound_to 6896
  151.3205  133.4000  159.2688 H   0  0  0  0  0  0  0  0  0  0  0  0  # atno 6909 bound_to 6896
  145.8264  139.3114  143.1013 H   0  0  0  0  0  0  0  0  0  0  0  0  # atno 7974 bound_to 7965
  156.0784  140.3274  155.7662 H   0  0  0  0  0  0  0  0  0  0  0  0  # atno 8008 bound_to 7997
  155.5193  140.0584  157.2927 H   0  0  0  0  0  0  0  0  0  0  0  0  # atno 8009 bound_to 7997
  154.4568  140.1946  156.0374 H   0  0  0  0  0  0  0  0  0  0  0  0  # atno 8010 bound_to 7997
  140.6475  143.2544  151.4817 H   0  0  0  0  0  0  0  0  0  0  0  0  # atno 10167 bound_to 10162
  156.4111  130.4408  149.7251 H   0  0  0  0  0  0  0  0  0  0  0  0  # atno 10718 bound_to 10713
  154.6938  135.5202  153.8430 H   0  0  0  0  0  0  0  0  0  0  0  0  # atno 10763 bound_to 10752
  153.0652  135.6582  154.0380 H   0  0  0  0  0  0  0  0  0  0  0  0  # atno 10764 bound_to 10752
  154.0250  135.2990  155.3355 H   0  0  0  0  0  0  0  0  0  0  0  0  # atno 10765 bound_to 10752
  141.1353  133.8227  157.0806 H   0  0  0  0  0  0  0  0  0  0  0  0  # atno 11005 bound_to 11000
  145.9619  140.8829  143.0206 LP  0  0  0  0  0  0  0  0  0  0  0  0  # atno 17320 bound_to 7965
  144.6743  140.1824  143.7404 LP  0  0  0  0  0  0  0  0  0  0  0  0  # atno 17321 bound_to 7965
  139.5687  144.1980  152.1804 LP  0  0  0  0  0  0  0  0  0  0  0  0  # atno 17342 bound_to 10162
  140.1270  144.5322  150.6826 LP  0  0  0  0  0  0  0  0  0  0  0  0  # atno 17343 bound_to 10162
  156.4230  130.7778  151.2795 LP  0  0  0  0  0  0  0  0  0  0  0  0  # atno 17370 bound_to 10713
  157.7507  131.0177  150.3596 LP  0  0  0  0  0  0  0  0  0  0  0  0  # atno 17371 bound_to 10713
  140.0454  134.9833  157.1039 LP  0  0  0  0  0  0  0  0  0  0  0  0  # atno 17394 bound_to 11000
  140.4071  134.2020  155.7163 LP  0  0  0  0  0  0  0  0  0  0  0  0  # atno 17395 bound_to 11000

$$$$
