AV-unprocessed.smi:1894|AV-procd|sdf|7679|dock3
  -GOLD-   22720 9423D 1   1.00000     0.00000
 Structure written by MMmdl.
 32 34  0  0  0  0  0  0  0  0  1 V2000
  151.5678  140.0061  157.8870 O   0  0  0  0  0  0  0  0  0  0  0  0
  151.3760  141.0111  157.2033 C   0  0  0  0  0  0  0  0  0  0  0  0
  151.1574  140.8776  155.6964 C   0  0  0  0  0  0  0  0  0  0  0  0
  151.3911  139.5141  155.2587 N   0  0  0  0  0  0  0  0  0  0  0  0
  152.4361  138.7078  155.4536 C   0  0  0  0  0  0  0  0  0  0  0  0
  152.3031  137.5140  154.8922 N   0  0  0  0  0  0  0  0  0  0  0  0
  151.0670  137.6630  154.3293 C   0  0  0  0  0  0  0  0  0  0  0  0
  150.4765  138.8432  154.5187 N   0  0  0  0  0  0  0  0  0  0  0  0
  151.3507  142.2574  157.7008 N   0  0  0  0  0  0  0  0  0  0  0  0
  151.5548  142.6224  159.0984 C   0  0  0  0  0  0  0  0  0  0  0  0
  151.1078  144.0431  159.4036 C   0  0  0  0  0  0  0  0  0  0  0  0
  151.8901  145.2369  158.9078 C   0  0  0  0  0  0  0  0  0  0  0  0
  151.8592  144.9141  160.3835 C   0  0  0  0  0  0  0  0  0  0  0  0
  153.0005  142.4238  159.5164 C   0  0  0  0  0  0  0  0  0  0  0  0
  153.4752  141.1053  160.0785 C   0  0  0  0  0  0  0  0  0  0  0  0
  153.3972  142.3238  160.9704 C   0  0  0  0  0  0  0  0  0  0  0  0
  150.1341  141.1567  155.4425 H   0  0  0  0  0  0  0  0  0  0  0  0
  151.8201  141.5549  155.1548 H   0  0  0  0  0  0  0  0  0  0  0  0
  153.3113  139.0014  156.0146 H   0  0  0  0  0  0  0  0  0  0  0  0
  150.5879  136.8779  153.7629 H   0  0  0  0  0  0  0  0  0  0  0  0
  151.1913  143.0169  157.0546 H   0  0  0  0  0  0  0  0  0  0  0  0
  150.9533  141.9491  159.7130 H   0  0  0  0  0  0  0  0  0  0  0  0
  150.0258  144.1633  159.4007 H   0  0  0  0  0  0  0  0  0  0  0  0
  152.8232  145.0540  158.3792 H   0  0  0  0  0  0  0  0  0  0  0  0
  151.3244  146.1024  158.5695 H   0  0  0  0  0  0  0  0  0  0  0  0
  151.2721  145.5627  161.0301 H   0  0  0  0  0  0  0  0  0  0  0  0
  152.7709  144.5176  160.8253 H   0  0  0  0  0  0  0  0  0  0  0  0
  153.7101  142.9420  158.8735 H   0  0  0  0  0  0  0  0  0  0  0  0
  152.7342  140.3231  160.2325 H   0  0  0  0  0  0  0  0  0  0  0  0
  154.4633  140.7598  159.7818 H   0  0  0  0  0  0  0  0  0  0  0  0
  154.3334  142.7918  161.2678 H   0  0  0  0  0  0  0  0  0  0  0  0
  152.6083  142.3421  161.7196 H   0  0  0  0  0  0  0  0  0  0  0  0
  1  2  2  0  0  0  0
  2  3  1  0  0  0  0
  2  9  1  0  0  0  0
  3  4  1  0  0  0  0
  3 17  1  0  0  0  0
  3 18  1  0  0  0  0
  4  8  1  0  0  0  0
  4  5  1  0  0  0  0
  5  6  2  0  0  0  0
  5 19  1  0  0  0  0
  6  7  1  0  0  0  0
  7  8  2  0  0  0  0
  7 20  1  0  0  0  0
  9 10  1  0  0  0  0
  9 21  1  0  0  0  0
 10 11  1  0  0  0  0
 10 14  1  0  0  0  0
 10 22  1  0  0  0  0
 11 13  1  0  0  0  0
 11 12  1  0  0  0  0
 11 23  1  0  0  0  0
 12 13  1  0  0  0  0
 12 24  1  0  0  0  0
 12 25  1  0  0  0  0
 13 26  1  0  0  0  0
 13 27  1  0  0  0  0
 14 16  1  0  0  0  0
 14 15  1  0  0  0  0
 14 28  1  0  0  0  0
 15 16  1  0  0  0  0
 15 29  1  0  0  0  0
 15 30  1  0  0  0  0
 16 31  1  0  0  0  0
 16 32  1  0  0  0  0
M  END
> <s_m_source_file>
AV-unprocessed.smi

> <i_m_source_file_index>
1894

> <i_lp_mmshare_version>
43012

> <i_f3d_flags>
0

> <s_epik_input>
W0NIMl0xW0NIMl1bQ0hdMVtDSF0oW0NIXTJbQ0gyXVtDSDJdMilbTkhdQyg9TylbQ0gyXW4zW2NIXW5bY0hdbjM=

> <s_epik_cmdline>
J2VwaWtfcHl0aG9uJywgJy1waCcsICc3LjAnLCAnLXRuJywgJzgnLCAnLW1hJywgJzIwMCcsICctbWV0YWxfYmluZGluZycsICctaW1hZScsICc8aW5maWxlLm1hZT4nLCAnLW9tYWUnLCAnPG91dGZpbGUubWFlPic=

> <r_lp_tautomer_probability>
1

> <r_epik_Ionization_Penalty>
9.18136e-06

> <r_epik_Ionization_Penalty_Charging>
0

> <r_epik_Ionization_Penalty_Neutral>
9.18136e-06

> <r_epik_State_Penalty>
-0

> <r_epik_Charging_Adjusted_Penalty>
0

> <i_epik_Tot_Q>
0

> <i_epik_Tot_abs_Q>
0

> <r_epik_Metal_State_Penalty>
-0

> <b_epik_Metal_Only>
0

> <s_lp_Force_Field>
OPLS_2005

> <r_lp_Energy>
25.0863

> <b_lp_Chiralities_Consistent>
1

> <s_lp_Variant>
AV-unprocessed.smi:1894-1

> <Gold.Version>
5.8.1

> <Gold.Id.Protein>
6NUR|6NUR_protein|mol2

> <Gold.PLP.Fitness>
45.5914

> <Gold.PLP.PLP>
-40.7529

> <Gold.PLP.part.hbond>
-1.0000

> <Gold.PLP.part.metal>
0.0000

> <Gold.PLP.part.buried>
-4.6323

> <Gold.PLP.part.nonpolar>
-35.4473

> <Gold.PLP.part.repulsive>
0.2742

> <Gold.PLP.ligand.clash>
0.0000

> <Gold.PLP.ligand.torsion>
1.4020

> <Gold.PLP.Chemscore.Hbond>
0.7360

> <Gold.PLP.Chemscore.CHOScore>
1.0908

> <Gold.PLP.Chemscore.Metal>
0.0000

> <Gold.Chemscore.Hbonds>
donor molecule, donor type, donor heavy atom, donor atom, acceptor molecule, acceptor atom, score
      P1  H 10752 10765       L1     6  0.70
      L1  C     7    20       P1  7948  0.52
      L1  C     7    20       P1  7949  0.59

> <Gold.PLP.Chemscore.Internal.Correction>
2.1623

> <Gold.Rescore>
     Score         DG    S(hbond)    S(metal)    S(lipo)     H(rot)  DE(clash)    DE(int)     intcor
      9.51     -12.18       0.93        0.00      85.26       2.50       0.06       2.61       ----

> <Gold.Chemscore.Fitness>
9.5121

> <Gold.Chemscore.DG>
-12.1773

> <Gold.Chemscore.ZeroCoef>
-5.4800

> <Gold.Chemscore.Hbond>
0.9328

> <Gold.Chemscore.Metal>
0.0000

> <Gold.Chemscore.Lipo>
85.2636

> <Gold.Chemscore.Internal_Hbond>
0.0000

> <Gold.Chemscore.DEClash>
0.0576

> <Gold.Chemscore.DEInternal>
2.6076

> <Gold.Chemscore.Rot>
2.4977

> <Gold.Chemscore.Internal.Correction>
   9.000000E+99

> <Gold.Chemscore.Hbonds>
donor molecule, donor type, donor heavy atom, donor atom, acceptor molecule, acceptor atom, score
      P1  H 10752 10765       L1     6  0.43

> <Gold.Chemscore.Hbond.Weighted>
-3.1155

> <Gold.Chemscore.Metal.Weighted>
-0.0000

> <Gold.Chemscore.Lipo.Weighted>
-9.9758

> <Gold.Chemscore.Internal_Hbond.Weighted>
0.0000

> <Gold.Chemscore.DEClash.Weighted>
0.0576

> <Gold.Chemscore.DEInternal.Weighted>
2.6076

> <Gold.Chemscore.Rot.Weighted>
6.3941

> <Gold.Chemscore.Internal.Correction.Weighted>
   9.000000E+99

> <Gold.Protein.RotatedTorsions>
[ 6907 6896 6895 6894 ] final    4.24 input  -60.11 | X-H torsion
[ 7974 7965 7964 7962 ] final   42.91 input  175.53 | X-H torsion
[ 8008 7997 7996 7995 ] final -144.46 input   59.86 | X-H torsion
[ 10167 10162 10161 10158 ] final  112.55 input  -65.29 | X-H torsion
[ 10718 10713 10712 10709 ] final  132.17 input   66.30 | X-H torsion
[ 10763 10752 10751 10750 ] final  174.14 input  -60.55 | X-H torsion
[ 11005 11000 10999 10996 ] final -162.28 input  -57.11 | X-H torsion

> <Gold.Protein.ActiveResidues>
 VAL166  LYS551  ARG553  GLY616  TRP617  ASP618  TYR619  PRO620  LYS621  CYS622 
 ASP623  PHE694  ASN695  SER759  ASP760  ASP761  ALA762  ILE779  LEU786  VAL792 
 PHE793  MET794  SER795  GLU796  ALA797  LYS798  CYS799  TRP800  GLU811  SER814 

> <Gold.Protein.RotatedAtoms>
  151.6381  135.1016  160.0135 H   0  0  0  0  0  0  0  0  0  0  0  0  # atno 6907 bound_to 6896
  152.4069  133.6899  159.6372 H   0  0  0  0  0  0  0  0  0  0  0  0  # atno 6908 bound_to 6896
  150.7963  133.8610  159.3273 H   0  0  0  0  0  0  0  0  0  0  0  0  # atno 6909 bound_to 6896
  146.0700  139.5246  142.9603 H   0  0  0  0  0  0  0  0  0  0  0  0  # atno 7974 bound_to 7965
  155.5273  140.0596  157.2895 H   0  0  0  0  0  0  0  0  0  0  0  0  # atno 8008 bound_to 7997
  154.4496  140.1942  156.0504 H   0  0  0  0  0  0  0  0  0  0  0  0  # atno 8009 bound_to 7997
  156.0677  140.3264  155.7541 H   0  0  0  0  0  0  0  0  0  0  0  0  # atno 8010 bound_to 7997
  139.6527  144.7128  151.2016 H   0  0  0  0  0  0  0  0  0  0  0  0  # atno 10167 bound_to 10162
  157.4897  131.1090  150.9573 H   0  0  0  0  0  0  0  0  0  0  0  0  # atno 10718 bound_to 10713
  154.4497  135.2764  155.1789 H   0  0  0  0  0  0  0  0  0  0  0  0  # atno 10763 bound_to 10752
  154.3621  135.6127  153.5700 H   0  0  0  0  0  0  0  0  0  0  0  0  # atno 10764 bound_to 10752
  152.9846  135.5837  154.4840 H   0  0  0  0  0  0  0  0  0  0  0  0  # atno 10765 bound_to 10752
  140.6110  134.4849  157.5215 H   0  0  0  0  0  0  0  0  0  0  0  0  # atno 11005 bound_to 11000
  145.6408  141.0284  143.1813 LP  0  0  0  0  0  0  0  0  0  0  0  0  # atno 17320 bound_to 7965
  144.7226  139.7980  143.7376 LP  0  0  0  0  0  0  0  0  0  0  0  0  # atno 17321 bound_to 7965
  140.7545  143.6123  150.8593 LP  0  0  0  0  0  0  0  0  0  0  0  0  # atno 17342 bound_to 10162
  139.9773  143.5990  152.2954 LP  0  0  0  0  0  0  0  0  0  0  0  0  # atno 17343 bound_to 10162
  157.0278  130.5699  149.5339 LP  0  0  0  0  0  0  0  0  0  0  0  0  # atno 17370 bound_to 10713
  156.0166  130.5261  150.8154 LP  0  0  0  0  0  0  0  0  0  0  0  0  # atno 17371 bound_to 10713
  139.9192  134.8183  156.1266 LP  0  0  0  0  0  0  0  0  0  0  0  0  # atno 17394 bound_to 11000
  141.0808  133.6755  156.2331 LP  0  0  0  0  0  0  0  0  0  0  0  0  # atno 17395 bound_to 11000

$$$$
