AV-unprocessed.smi:2018|AV-procd|sdf|8170|dock10
  -GOLD-   2272010423D 1   1.00000     0.00000
 Structure written by MMmdl.
 34 35  0  0  0  0  0  0  0  0  2 V2000
  152.7419  143.5455  161.9542 C   0  0  0  0  0  0  0  0  0  0  0  0
  152.1026  143.7217  160.6198 C   0  0  0  0  0  0  0  0  0  0  0  0
  151.4676  142.7428  159.9730 N   0  0  0  0  0  0  0  0  0  0  0  0
  150.9252  143.1593  158.7490 C   0  0  0  0  0  0  0  0  0  0  0  0
  150.1475  142.1906  157.8906 C   0  0  0  0  0  0  0  0  0  0  0  0
  150.7853  141.8821  156.5162 C   0  0  0  0  0  0  0  0  0  0  0  0
  151.3694  140.5407  156.5180 N   0  5  0  0  0  0  0  0  0  0  0  0
  151.0100  139.5183  155.6871 C   0  0  0  0  0  0  0  0  0  0  0  0
  150.9337  139.5708  154.4536 O   0  0  0  0  0  0  0  0  0  0  0  0
  150.6545  138.2018  156.2942 C   0  0  0  0  0  0  0  0  0  0  0  0
  150.4770  137.1714  155.5271 N   0  0  0  0  0  0  0  0  0  0  0  0
  150.1863  135.9188  156.0245 N   0  0  0  0  0  0  0  0  0  0  0  0
  150.3191  134.8532  155.0314 C   0  0  0  0  0  0  0  0  0  0  0  0
  149.7968  135.6724  157.3014 C   0  0  0  0  0  0  0  0  0  0  0  0
  149.5584  134.5498  157.7471 O   0  0  0  0  0  0  0  0  0  0  0  0
  149.6260  136.8941  158.2090 C   0  0  0  0  0  0  0  0  0  0  0  0
  150.5486  138.0595  157.8011 C   0  0  0  0  0  0  0  0  0  0  0  0
  151.1990  144.4766  158.4664 C   0  0  0  0  0  0  0  0  0  0  0  0
  152.1096  145.2436  159.7389 S   0  0  0  0  0  0  0  0  0  0  0  0
  152.5794  142.5336  162.3275 H   0  0  0  0  0  0  0  0  0  0  0  0
  152.3156  144.2518  162.6666 H   0  0  0  0  0  0  0  0  0  0  0  0
  153.8146  143.7237  161.8798 H   0  0  0  0  0  0  0  0  0  0  0  0
  150.0281  141.2511  158.4309 H   0  0  0  0  0  0  0  0  0  0  0  0
  149.1333  142.5629  157.7389 H   0  0  0  0  0  0  0  0  0  0  0  0
  150.0257  142.0013  155.7421 H   0  0  0  0  0  0  0  0  0  0  0  0
  151.5426  142.6380  156.3055 H   0  0  0  0  0  0  0  0  0  0  0  0
  150.0460  133.8653  155.4041 H   0  0  0  0  0  0  0  0  0  0  0  0
  151.3503  134.7980  154.6802 H   0  0  0  0  0  0  0  0  0  0  0  0
  149.6843  135.0631  154.1698 H   0  0  0  0  0  0  0  0  0  0  0  0
  148.5845  137.2097  158.1393 H   0  0  0  0  0  0  0  0  0  0  0  0
  149.8018  136.6173  159.2491 H   0  0  0  0  0  0  0  0  0  0  0  0
  151.5450  137.9110  158.2185 H   0  0  0  0  0  0  0  0  0  0  0  0
  150.1591  138.9744  158.2489 H   0  0  0  0  0  0  0  0  0  0  0  0
  150.9075  145.0425  157.5943 H   0  0  0  0  0  0  0  0  0  0  0  0
  1  2  1  0  0  0  0
  1 20  1  0  0  0  0
  1 21  1  0  0  0  0
  1 22  1  0  0  0  0
  2 19  1  0  0  0  0
  2  3  2  0  0  0  0
  3  4  1  0  0  0  0
  4  5  1  0  0  0  0
  4 18  2  0  0  0  0
  5  6  1  0  0  0  0
  5 23  1  0  0  0  0
  5 24  1  0  0  0  0
  6  7  1  0  0  0  0
  6 25  1  0  0  0  0
  6 26  1  0  0  0  0
  7  8  1  0  0  0  0
  8  9  2  0  0  0  0
  8 10  1  0  0  0  0
 10 17  1  0  0  0  0
 10 11  2  0  0  0  0
 11 12  1  0  0  0  0
 12 13  1  0  0  0  0
 12 14  1  0  0  0  0
 13 27  1  0  0  0  0
 13 28  1  0  0  0  0
 13 29  1  0  0  0  0
 14 15  2  0  0  0  0
 14 16  1  0  0  0  0
 16 17  1  0  0  0  0
 16 30  1  0  0  0  0
 16 31  1  0  0  0  0
 17 32  1  0  0  0  0
 17 33  1  0  0  0  0
 18 19  1  0  0  0  0
 18 34  1  0  0  0  0
M  CHG  1   7  -1
M  END
> <s_m_source_file>
AV-unprocessed.smi

> <i_m_source_file_index>
2018

> <i_lp_mmshare_version>
43012

> <i_f3d_flags>
0

> <s_epik_input>
W0NIM11jMW5jKFtjSF1zMSlbQ0gyXVtDSDJdW05IXUMoPU8pQzI9Tk4oW0NIM10pQyg9TylbQ0gyXVtDSDJdMg==

> <s_epik_cmdline>
J2VwaWtfcHl0aG9uJywgJy1waCcsICc3LjAnLCAnLXRuJywgJzgnLCAnLW1hJywgJzIwMCcsICctbWV0YWxfYmluZGluZycsICctaW1hZScsICc8aW5maWxlLm1hZT4nLCAnLW9tYWUnLCAnPG91dGZpbGUubWFlPic=

> <r_epik_Ionization_Penalty>
5.30398

> <r_epik_Ionization_Penalty_Charging>
5.30014

> <r_epik_Ionization_Penalty_Neutral>
0.0038335

> <r_epik_State_Penalty>
5.30046

> <r_epik_Charging_Adjusted_Penalty>
10.6006

> <i_epik_Tot_Q>
-1

> <i_epik_Tot_abs_Q>
1

> <r_epik_Metal_State_Penalty>
1.34504

> <b_epik_Metal_Only>
1

> <s_epik_Chemistry_Notes>
This compound has an imine and may undergo hydrolysis.

> <s_lp_Force_Field>
OPLS_2005

> <r_lp_Energy>
22.7314

> <b_lp_Chiralities_Consistent>
1

> <s_lp_Variant>
AV-unprocessed.smi:2018-2

> <Gold.Version>
5.8.1

> <Gold.Id.Protein>
6NUR|6NUR_protein|mol2

> <Gold.PLP.Fitness>
42.5887

> <Gold.PLP.PLP>
-35.2716

> <Gold.PLP.part.hbond>
-2.5534

> <Gold.PLP.part.metal>
0.0000

> <Gold.PLP.part.buried>
-6.3749

> <Gold.PLP.part.nonpolar>
-26.2639

> <Gold.PLP.part.repulsive>
0.2310

> <Gold.PLP.ligand.clash>
0.0000

> <Gold.PLP.ligand.torsion>
0.8359

> <Gold.PLP.Chemscore.Hbond>
2.0000

> <Gold.PLP.Chemscore.CHOScore>
0.9888

> <Gold.PLP.Chemscore.Metal>
0.0000

> <Gold.Chemscore.Hbonds>
donor molecule, donor type, donor heavy atom, donor atom, acceptor molecule, acceptor atom, score
      P1  H  6896  6907       L1    15  1.00
      P1  H  7989  7998       L1     9  1.00
      L1  C    18    34       P1  8028  0.40

> <Gold.PLP.Chemscore.Internal.Correction>
0.0227

> <Gold.Rescore>
     Score         DG    S(hbond)    S(metal)    S(lipo)     H(rot)  DE(clash)    DE(int)     intcor
     18.12     -18.90       1.94        0.00      90.25       1.42       0.11       0.67       ----

> <Gold.Chemscore.Fitness>
18.1179

> <Gold.Chemscore.DG>
-18.8986

> <Gold.Chemscore.ZeroCoef>
-5.4800

> <Gold.Chemscore.Hbond>
1.9429

> <Gold.Chemscore.Metal>
0.0000

> <Gold.Chemscore.Lipo>
90.2475

> <Gold.Chemscore.Internal_Hbond>
0.0000

> <Gold.Chemscore.DEClash>
0.1110

> <Gold.Chemscore.DEInternal>
0.6697

> <Gold.Chemscore.Rot>
1.4178

> <Gold.Chemscore.Internal.Correction>
   9.000000E+99

> <Gold.Chemscore.Hbonds>
donor molecule, donor type, donor heavy atom, donor atom, acceptor molecule, acceptor atom, score
      P1  H  6896  6907       L1    15  0.84
      P1  H  7989  7998       L1     9  1.00

> <Gold.Chemscore.Hbond.Weighted>
-6.4891

> <Gold.Chemscore.Metal.Weighted>
-0.0000

> <Gold.Chemscore.Lipo.Weighted>
-10.5590

> <Gold.Chemscore.Internal_Hbond.Weighted>
0.0000

> <Gold.Chemscore.DEClash.Weighted>
0.1110

> <Gold.Chemscore.DEInternal.Weighted>
0.6697

> <Gold.Chemscore.Rot.Weighted>
3.6295

> <Gold.Chemscore.Internal.Correction.Weighted>
   9.000000E+99

> <Gold.Protein.RotatedTorsions>
[ 6907 6896 6895 6894 ] final -107.02 input  -60.11 | X-H torsion
[ 7974 7965 7964 7962 ] final -167.03 input  175.53 | X-H torsion
[ 8008 7997 7996 7995 ] final  -93.31 input   59.86 | X-H torsion
[ 10167 10162 10161 10158 ] final   19.56 input  -65.29 | X-H torsion
[ 10718 10713 10712 10709 ] final -170.27 input   66.30 | X-H torsion
[ 10763 10752 10751 10750 ] final  178.85 input  -60.55 | X-H torsion
[ 11005 11000 10999 10996 ] final   90.11 input  -57.11 | X-H torsion

> <Gold.Protein.ActiveResidues>
 VAL166  LYS551  ARG553  GLY616  TRP617  ASP618  TYR619  PRO620  LYS621  CYS622 
 ASP623  PHE694  ASN695  SER759  ASP760  ASP761  ALA762  ILE779  LEU786  VAL792 
 PHE793  MET794  SER795  GLU796  ALA797  LYS798  CYS799  TRP800  GLU811  SER814 

> <Gold.Protein.RotatedAtoms>
  150.7421  133.9889  159.3600 H   0  0  0  0  0  0  0  0  0  0  0  0  # atno 6907 bound_to 6896
  151.7835  135.0753  160.0386 H   0  0  0  0  0  0  0  0  0  0  0  0  # atno 6908 bound_to 6896
  152.3257  133.5866  159.5811 H   0  0  0  0  0  0  0  0  0  0  0  0  # atno 6909 bound_to 6896
  144.7232  140.2578  143.6269 H   0  0  0  0  0  0  0  0  0  0  0  0  # atno 7974 bound_to 7965
  154.7341  140.0500  157.0753 H   0  0  0  0  0  0  0  0  0  0  0  0  # atno 8008 bound_to 7997
  155.0263  140.3153  155.4755 H   0  0  0  0  0  0  0  0  0  0  0  0  # atno 8009 bound_to 7997
  156.2848  140.2158  156.5383 H   0  0  0  0  0  0  0  0  0  0  0  0  # atno 8010 bound_to 7997
  140.5570  143.9407  150.6616 H   0  0  0  0  0  0  0  0  0  0  0  0  # atno 10167 bound_to 10162
  156.7237  130.9280  151.3099 H   0  0  0  0  0  0  0  0  0  0  0  0  # atno 10718 bound_to 10713
  154.5130  135.2789  155.1327 H   0  0  0  0  0  0  0  0  0  0  0  0  # atno 10763 bound_to 10752
  154.2914  135.6266  153.5390 H   0  0  0  0  0  0  0  0  0  0  0  0  # atno 10764 bound_to 10752
  152.9922  135.5675  154.5600 H   0  0  0  0  0  0  0  0  0  0  0  0  # atno 10765 bound_to 10752
  139.8862  134.8593  156.3238 H   0  0  0  0  0  0  0  0  0  0  0  0  # atno 11005 bound_to 11000
  145.8165  139.2025  143.1962 LP  0  0  0  0  0  0  0  0  0  0  0  0  # atno 17320 bound_to 7965
  146.0551  140.8029  142.9762 LP  0  0  0  0  0  0  0  0  0  0  0  0  # atno 17321 bound_to 7965
  140.2847  143.3365  152.1118 LP  0  0  0  0  0  0  0  0  0  0  0  0  # atno 17342 bound_to 10162
  139.5052  144.6791  151.6054 LP  0  0  0  0  0  0  0  0  0  0  0  0  # atno 17343 bound_to 10162
  157.6887  130.9212  150.0456 LP  0  0  0  0  0  0  0  0  0  0  0  0  # atno 17370 bound_to 10713
  156.1577  130.3643  149.9345 LP  0  0  0  0  0  0  0  0  0  0  0  0  # atno 17371 bound_to 10713
  140.9769  133.7292  156.0615 LP  0  0  0  0  0  0  0  0  0  0  0  0  # atno 17394 bound_to 11000
  140.7800  134.3736  157.5489 LP  0  0  0  0  0  0  0  0  0  0  0  0  # atno 17395 bound_to 11000

$$$$
