AV-unprocessed.smi:165|AV-procd|sdf|1386|dock9
  -GOLD-   2262019123D 1   1.00000     0.00000
 Structure written by MMmdl.
 55 59  0  0  0  0  0  0  0  0  1 V2000
  142.2927  132.7158  149.8861 O   0  0  0  0  0  0  0  0  0  0  0  0
  143.6336  132.5427  149.4717 C   0  0  0  0  0  0  0  0  0  0  0  0
  144.6269  133.3828  150.2963 C   0  0  0  0  0  0  0  0  0  0  0  0
  144.2990  134.8500  149.9478 C   0  0  0  0  0  0  0  0  0  0  0  0
  145.3814  135.7338  150.1605 O   0  0  0  0  0  0  0  0  0  0  0  0
  144.7251  133.0437  151.8013 C   0  0  0  0  0  0  0  0  0  0  0  0
  146.2553  133.1013  151.7246 C   0  0  0  0  0  0  0  0  0  0  0  0
  147.0658  132.1849  152.4733 N   0  0  0  0  0  0  0  0  0  0  0  0
  148.1559  132.4968  153.2541 C   0  0  0  0  0  0  0  0  0  0  0  0
  148.7067  131.4872  153.8709 N   0  0  0  0  0  0  0  0  0  0  0  0
  147.9100  130.4022  153.5251 C   0  0  0  0  0  0  0  0  0  0  0  0
  147.9312  129.0151  153.8450 C   0  0  0  0  0  0  0  0  0  0  0  0
  148.8661  128.4664  154.6610 N   0  0  0  0  0  0  0  0  0  0  0  0
  148.5223  127.1589  155.2042 C   0  0  0  0  0  0  0  0  0  0  0  0
  149.4542  126.8194  156.3753 C   0  0  0  0  0  0  0  0  0  0  0  0
  150.8157  126.9237  155.9627 O   0  0  0  0  0  0  0  0  0  0  0  0
  151.2049  128.2033  155.4497 C   0  0  2  0  0  0  0  0  0  0  0  0
  152.6554  128.0076  154.9657 C   0  0  0  0  0  0  0  0  0  0  0  0
  153.3192  129.3453  154.6192 C   0  0  0  0  0  0  0  0  0  0  0  0
  153.1915  130.3189  155.7981 C   0  0  0  0  0  0  0  0  0  0  0  0
  151.8201  130.4819  156.1358 O   0  0  0  0  0  0  0  0  0  0  0  0
  151.1972  129.2763  156.5708 C   0  0  0  0  0  0  0  0  0  0  0  0
  150.2698  128.5737  154.2722 C   0  0  0  0  0  0  0  0  0  0  0  0
  146.9631  128.2325  153.2969 N   0  0  0  0  0  0  0  0  0  0  0  0
  146.0323  128.7676  152.5016 C   0  0  0  0  0  0  0  0  0  0  0  0
  145.8895  130.0383  152.1218 N   0  0  0  0  0  0  0  0  0  0  0  0
  146.8655  130.8273  152.6557 C   0  0  0  0  0  0  0  0  0  0  0  0
  146.1151  132.9741  150.2026 C   0  0  0  0  0  0  0  0  0  0  0  0
  141.7927  131.9622  149.6121 H   0  0  0  0  0  0  0  0  0  0  0  0
  143.8688  131.4804  149.5451 H   0  0  0  0  0  0  0  0  0  0  0  0
  143.6899  132.8045  148.4145 H   0  0  0  0  0  0  0  0  0  0  0  0
  144.0005  134.9406  148.9027 H   0  0  0  0  0  0  0  0  0  0  0  0
  143.4596  135.2094  150.5440 H   0  0  0  0  0  0  0  0  0  0  0  0
  145.9248  135.7359  149.3874 H   0  0  0  0  0  0  0  0  0  0  0  0
  144.2845  133.7864  152.4671 H   0  0  0  0  0  0  0  0  0  0  0  0
  144.3632  132.0452  152.0499 H   0  0  0  0  0  0  0  0  0  0  0  0
  146.6126  134.0960  151.9927 H   0  0  0  0  0  0  0  0  0  0  0  0
  148.5405  133.5021  153.3466 H   0  0  0  0  0  0  0  0  0  0  0  0
  147.4866  127.1200  155.5396 H   0  0  0  0  0  0  0  0  0  0  0  0
  148.6280  126.4118  154.4165 H   0  0  0  0  0  0  0  0  0  0  0  0
  149.2576  127.4668  157.2299 H   0  0  0  0  0  0  0  0  0  0  0  0
  149.2699  125.7996  156.7130 H   0  0  0  0  0  0  0  0  0  0  0  0
  153.2361  127.5255  155.7536 H   0  0  0  0  0  0  0  0  0  0  0  0
  152.6900  127.3341  154.1087 H   0  0  0  0  0  0  0  0  0  0  0  0
  154.3695  129.1895  154.3726 H   0  0  0  0  0  0  0  0  0  0  0  0
  152.8530  129.7768  153.7331 H   0  0  0  0  0  0  0  0  0  0  0  0
  153.7509  129.9606  156.6636 H   0  0  0  0  0  0  0  0  0  0  0  0
  153.6068  131.2903  155.5293 H   0  0  0  0  0  0  0  0  0  0  0  0
  150.1812  129.5201  156.8805 H   0  0  0  0  0  0  0  0  0  0  0  0
  151.7128  128.9056  157.4581 H   0  0  0  0  0  0  0  0  0  0  0  0
  150.4498  127.9043  153.4296 H   0  0  0  0  0  0  0  0  0  0  0  0
  150.4840  129.5866  153.9283 H   0  0  0  0  0  0  0  0  0  0  0  0
  145.2977  128.0784  152.1119 H   0  0  0  0  0  0  0  0  0  0  0  0
  146.2638  131.9505  149.8568 H   0  0  0  0  0  0  0  0  0  0  0  0
  146.7436  133.6638  149.6386 H   0  0  0  0  0  0  0  0  0  0  0  0
  1  2  1  0  0  0  0
  1 29  1  0  0  0  0
  2  3  1  0  0  0  0
  2 30  1  0  0  0  0
  2 31  1  0  0  0  0
  3 28  1  0  0  0  0
  3  4  1  0  0  0  0
  3  6  1  0  0  0  0
  4  5  1  0  0  0  0
  4 32  1  0  0  0  0
  4 33  1  0  0  0  0
  5 34  1  0  0  0  0
  6  7  1  0  0  0  0
  6 35  1  0  0  0  0
  6 36  1  0  0  0  0
  7  8  1  0  0  0  0
  7 28  1  0  0  0  0
  7 37  1  0  0  0  0
  8 27  1  0  0  0  0
  8  9  1  0  0  0  0
  9 10  2  0  0  0  0
  9 38  1  0  0  0  0
 10 11  1  0  0  0  0
 11 27  2  0  0  0  0
 11 12  1  0  0  0  0
 12 13  1  0  0  0  0
 12 24  2  0  0  0  0
 13 23  1  0  0  0  0
 13 14  1  0  0  0  0
 14 15  1  0  0  0  0
 14 39  1  0  0  0  0
 14 40  1  0  0  0  0
 15 16  1  0  0  0  0
 15 41  1  0  0  0  0
 15 42  1  0  0  0  0
 16 17  1  0  0  0  0
 17 22  1  0  0  0  0
 17 18  1  0  0  0  0
 17 23  1  0  0  0  0
 18 19  1  0  0  0  0
 18 43  1  0  0  0  0
 18 44  1  0  0  0  0
 19 20  1  0  0  0  0
 19 45  1  0  0  0  0
 19 46  1  0  0  0  0
 20 21  1  0  0  0  0
 20 47  1  0  0  0  0
 20 48  1  0  0  0  0
 21 22  1  0  0  0  0
 22 49  1  0  0  0  0
 22 50  1  0  0  0  0
 23 51  1  0  0  0  0
 23 52  1  0  0  0  0
 24 25  1  0  0  0  0
 25 26  2  0  0  0  0
 25 53  1  0  0  0  0
 26 27  1  0  0  0  0
 28 54  1  0  0  0  0
 28 55  1  0  0  0  0
M  END
> <s_m_source_file>
AV-unprocessed.smi

> <i_m_source_file_index>
165

> <i_lp_mmshare_version>
43012

> <i_f3d_flags>
0

> <s_epik_input>
W09IXVtDSDJdQzEoW0NIMl1bT0hdKVtDSDJdW0NIXShbQ0gyXTEpbihbY0hdbjIpYyhjMjMpbltjSF1uYzNOKFtDSDJdNClbQ0gyXVtDSDJdT1tDQEBdNDVbQ0gyXVtDSDJdW0NIMl1PW0NIMl01

> <s_epik_cmdline>
J2VwaWtfcHl0aG9uJywgJy1waCcsICc3LjAnLCAnLXRuJywgJzgnLCAnLW1hJywgJzIwMCcsICctbWV0YWxfYmluZGluZycsICctaW1hZScsICc8aW5maWxlLm1hZT4nLCAnLW9tYWUnLCAnPG91dGZpbGUubWFlPic=

> <r_lp_tautomer_probability>
1

> <r_epik_Ionization_Penalty>
0.00466923

> <r_epik_Ionization_Penalty_Charging>
0

> <r_epik_Ionization_Penalty_Neutral>
0.00466923

> <r_epik_State_Penalty>
0.0032353

> <r_epik_Charging_Adjusted_Penalty>
0.0032353

> <i_epik_Tot_Q>
0

> <i_epik_Tot_abs_Q>
0

> <r_epik_Metal_State_Penalty>
-0

> <b_epik_Metal_Only>
0

> <s_lp_Force_Field>
OPLS_2005

> <r_lp_Energy>
54.9184

> <b_lp_Chiralities_Consistent>
1

> <s_lp_Variant>
AV-unprocessed.smi:165-1

> <Gold.Version>
5.8.1

> <Gold.Id.Protein>
6NUR|6NUR_protein|mol2

> <Gold.PLP.Fitness>
43.1433

> <Gold.PLP.PLP>
-38.8447

> <Gold.PLP.part.hbond>
-2.0342

> <Gold.PLP.part.metal>
0.0000

> <Gold.PLP.part.buried>
-2.3602

> <Gold.PLP.part.nonpolar>
-34.4022

> <Gold.PLP.part.repulsive>
0.3547

> <Gold.PLP.ligand.clash>
0.0000

> <Gold.PLP.ligand.torsion>
0.9229

> <Gold.PLP.Chemscore.Hbond>
1.8160

> <Gold.PLP.Chemscore.CHOScore>
0.0000

> <Gold.PLP.Chemscore.Metal>
0.0000

> <Gold.Chemscore.Hbonds>
donor molecule, donor type, donor heavy atom, donor atom, acceptor molecule, acceptor atom, score
      L1  H     1    29       P1 10952  1.00
      L1  H     5    34       P1  7921  0.85

> <Gold.PLP.Chemscore.Internal.Correction>
0.6965

> <Gold.Rescore>
     Score         DG    S(hbond)    S(metal)    S(lipo)     H(rot)  DE(clash)    DE(int)     intcor
     12.51     -13.88       1.96        0.00      84.43       3.14       0.46       0.90       ----

> <Gold.Chemscore.Fitness>
12.5121

> <Gold.Chemscore.DG>
-13.8790

> <Gold.Chemscore.ZeroCoef>
-5.4800

> <Gold.Chemscore.Hbond>
1.9600

> <Gold.Chemscore.Metal>
0.0000

> <Gold.Chemscore.Lipo>
84.4318

> <Gold.Chemscore.Internal_Hbond>
0.0000

> <Gold.Chemscore.DEClash>
0.4621

> <Gold.Chemscore.DEInternal>
0.9048

> <Gold.Chemscore.Rot>
3.1351

> <Gold.Chemscore.Internal.Correction>
   9.000000E+99

> <Gold.Chemscore.Hbonds>
donor molecule, donor type, donor heavy atom, donor atom, acceptor molecule, acceptor atom, score
      L1  H     1    29       P1 10952  0.99
      L1  H     5    34       P1  7921  0.80

> <Gold.Chemscore.Hbond.Weighted>
-6.5464

> <Gold.Chemscore.Metal.Weighted>
-0.0000

> <Gold.Chemscore.Lipo.Weighted>
-9.8785

> <Gold.Chemscore.Internal_Hbond.Weighted>
0.0000

> <Gold.Chemscore.DEClash.Weighted>
0.4621

> <Gold.Chemscore.DEInternal.Weighted>
0.9048

> <Gold.Chemscore.Rot.Weighted>
8.0260

> <Gold.Chemscore.Internal.Correction.Weighted>
   9.000000E+99

> <Gold.Protein.RotatedTorsions>
[ 6907 6896 6895 6894 ] final   69.68 input  -60.11 | X-H torsion
[ 7974 7965 7964 7962 ] final  -64.50 input  175.53 | X-H torsion
[ 8008 7997 7996 7995 ] final -147.14 input   59.86 | X-H torsion
[ 10167 10162 10161 10158 ] final -106.05 input  -65.29 | X-H torsion
[ 10718 10713 10712 10709 ] final -134.03 input   66.30 | X-H torsion
[ 10763 10752 10751 10750 ] final  -61.97 input  -60.55 | X-H torsion
[ 11005 11000 10999 10996 ] final  160.74 input  -57.11 | X-H torsion

> <Gold.Protein.ActiveResidues>
 VAL166  LYS551  ARG553  GLY616  TRP617  ASP618  TYR619  PRO620  LYS621  CYS622 
 ASP623  PHE694  ASN695  SER759  ASP760  ASP761  ALA762  ILE779  LEU786  VAL792 
 PHE793  MET794  SER795  GLU796  ALA797  LYS798  CYS799  TRP800  GLU811  SER814 

> <Gold.Protein.RotatedAtoms>
  152.4701  134.4980  159.9715 H   0  0  0  0  0  0  0  0  0  0  0  0  # atno 6907 bound_to 6896
  151.5009  133.3499  159.2876 H   0  0  0  0  0  0  0  0  0  0  0  0  # atno 6908 bound_to 6896
  150.8707  134.8108  159.7214 H   0  0  0  0  0  0  0  0  0  0  0  0  # atno 6909 bound_to 6896
  145.7659  140.8837  143.0405 H   0  0  0  0  0  0  0  0  0  0  0  0  # atno 7974 bound_to 7965
  155.5708  140.0634  157.2807 H   0  0  0  0  0  0  0  0  0  0  0  0  # atno 8008 bound_to 7997
  154.4361  140.1869  156.0923 H   0  0  0  0  0  0  0  0  0  0  0  0  # atno 8009 bound_to 7997
  156.0378  140.3299  155.7213 H   0  0  0  0  0  0  0  0  0  0  0  0  # atno 8010 bound_to 7997
  140.1919  143.3885  152.1199 H   0  0  0  0  0  0  0  0  0  0  0  0  # atno 10167 bound_to 10162
  156.2511  130.7153  151.1053 H   0  0  0  0  0  0  0  0  0  0  0  0  # atno 10718 bound_to 10713
  154.2927  135.6250  153.5392 H   0  0  0  0  0  0  0  0  0  0  0  0  # atno 10763 bound_to 10752
  152.9850  135.5659  154.5372 H   0  0  0  0  0  0  0  0  0  0  0  0  # atno 10764 bound_to 10752
  154.4986  135.2871  155.1415 H   0  0  0  0  0  0  0  0  0  0  0  0  # atno 10765 bound_to 10752
  140.2089  134.8282  157.3099 H   0  0  0  0  0  0  0  0  0  0  0  0  # atno 11005 bound_to 11000
  144.6821  139.9788  143.7483 LP  0  0  0  0  0  0  0  0  0  0  0  0  # atno 17320 bound_to 7965
  146.0218  139.3257  143.0808 LP  0  0  0  0  0  0  0  0  0  0  0  0  # atno 17321 bound_to 7965
  139.5252  144.7093  151.5255 LP  0  0  0  0  0  0  0  0  0  0  0  0  # atno 17342 bound_to 10162
  140.6450  143.8813  150.6728 LP  0  0  0  0  0  0  0  0  0  0  0  0  # atno 17343 bound_to 10162
  157.7215  131.0678  150.6117 LP  0  0  0  0  0  0  0  0  0  0  0  0  # atno 17370 bound_to 10713
  156.6197  130.4402  149.5827 LP  0  0  0  0  0  0  0  0  0  0  0  0  # atno 17371 bound_to 10713
  140.1973  134.4298  155.7682 LP  0  0  0  0  0  0  0  0  0  0  0  0  # atno 17394 bound_to 11000
  141.2226  133.7055  156.8125 LP  0  0  0  0  0  0  0  0  0  0  0  0  # atno 17395 bound_to 11000

$$$$
