#       Name:                AV-unprocessed.smi:2557
#       Creating user name   scv26
#       Creation time:       Fri Mar 27 14:07:26 2020


#       File generated by GOLD software.
#

@<TRIPOS>MOLECULE
AV-unprocessed.smi:2557
    42    44     1
SMALL
NO_CHARGES


@<TRIPOS>ATOM
      1 ****        -0.1901  -4.4631   0.3204 O.co2          1 S1                -1.0000
      2 ****         0.4133  -3.3655   0.2709 C.2            1 S1                 0.0000
      3 ****        -0.0311  -2.0409   0.2542 C.2            1 S1                 0.0000
      4 ****        -1.4790  -1.7123   0.3274 C.2            1 S1                 0.0000
      5 ****        -2.3493  -2.5809   0.3769 O.2            1 S1                 0.0000
      6 ****        -1.8557  -0.3607   0.3403 N.2            1 S1                 0.0000
      7 ****        -0.9485   0.5667   0.2810 C.2            1 S1                 0.0000
      8 ****        -1.3165   2.0531   0.2862 C.3            1 S1                 0.0000
      9 ****        -2.7716   2.3317   0.7354 C.3            1 S1                 0.0000
     10 ****        -3.0755   3.8383   0.7644 C.3            1 S1                 0.0000
     11 ****        -2.8023   4.4852  -0.6014 C.3            1 S1                 0.0000
     12 ****        -1.3598   4.2217  -1.0587 C.3            1 S1                 0.0000
     13 ****        -1.0446   2.7165  -1.0835 C.3            1 S1                 0.0000
     14 ****         0.4130   0.3405   0.1914 N.pl3          1 S1                 0.0000
     15 ****         0.8644  -0.9742   0.1836 N.pl3          1 S1                 0.0000
     16 ****         1.8593  -3.6295   0.1591 C.ar           1 S1                 0.0000
     17 ****         2.5436  -3.3958  -1.0559 C.ar           1 S1                 0.0000
     18 ****         3.9230  -3.6727  -1.1395 C.ar           1 S1                 0.0000
     19 ****         4.5771  -4.1603  -0.0628 N.pl3          1 S1                 1.0000
     20 ****         3.9644  -4.4041   1.1161 C.ar           1 S1                 0.0000
     21 ****         2.5860  -4.1464   1.2566 C.ar           1 S1                 0.0000
     22 ****        -0.6643   2.5335   1.0176 H              1 S1                 0.0000
     23 ****        -3.4746   1.8416   0.0599 H              1 S1                 0.0000
     24 ****        -2.9478   1.9106   1.7263 H              1 S1                 0.0000
     25 ****        -4.1144   4.0019   1.0517 H              1 S1                 0.0000
     26 ****        -2.4639   4.3205   1.5279 H              1 S1                 0.0000
     27 ****        -3.4989   4.0875  -1.3404 H              1 S1                 0.0000
     28 ****        -2.9859   5.5585  -0.5484 H              1 S1                 0.0000
     29 ****        -1.2009   4.6504  -2.0485 H              1 S1                 0.0000
     30 ****        -0.6659   4.7290  -0.3873 H              1 S1                 0.0000
     31 ****        -0.0036   2.5778  -1.3782 H              1 S1                 0.0000
     32 ****        -1.6488   2.2334  -1.8530 H              1 S1                 0.0000
     33 ****         1.1081   1.0713   0.1416 H              1 S1                 0.0000
     34 ****         1.8605  -1.1358   0.1558 H              1 S1                 0.0000
     35 ****         2.0110  -3.0101  -1.9131 H              1 S1                 0.0000
     36 ****         4.5169  -3.5227  -2.0291 H              1 S1                 0.0000
     37 ****         4.5890  -4.7973   1.9048 H              1 S1                 0.0000
     38 ****         2.0867  -4.3418   2.1947 H              1 S1                 0.0000
     39 ****         5.5752  -4.3556  -0.1443 H              1 S1                 0.0000
     40 ****        -2.0922  -3.5473   0.3686 LP             1 S1                 0.0000
     41 ****        -3.3135  -2.3204   0.4254 LP             1 S1                 0.0000
     42 ****        -2.8226  -0.1116   0.3951 LP             1 S1                 0.0000
@<TRIPOS>BOND
    1    1    2 ar    
    2    2    3 2     
    3    2   16 1     
    4    3   15 1     
    5    3    4 1     
    6    4    5 2     
    7    4    6 1     
    8    6    7 2     
    9    7    8 1     
   10    7   14 1     
   11    8   13 1     
   12    8    9 1     
   13    8   22 1     
   14    9   10 1     
   15    9   23 1     
   16    9   24 1     
   17   10   11 1     
   18   10   25 1     
   19   10   26 1     
   20   11   12 1     
   21   11   27 1     
   22   11   28 1     
   23   12   13 1     
   24   12   29 1     
   25   12   30 1     
   26   13   31 1     
   27   13   32 1     
   28   14   15 1     
   29   14   33 1     
   30   15   34 1     
   31   16   21 ar    
   32   16   17 ar    
   33   17   18 ar    
   34   17   35 1     
   35   18   19 ar    
   36   18   36 1     
   37   19   20 ar    
   38   19   39 1     
   39   20   21 ar    
   40   20   37 1     
   41   21   38 1     
   42    5   40 1     
   43    5   41 1     
   44    6   42 1     
@<TRIPOS>SUBSTRUCTURE
      1 S1             1
@<TRIPOS>SET
LONE_PAIRS      STATIC     ATOMS    <user>   **** ""
4 1 40 41 42
DONOR_HYDROGENS      STATIC     ATOMS    <user>   **** ""
3 33 34 39
ATOM$BLUE        STATIC     ATOMS    COLORGROUP SYSTEM
4 1 40 41 42
ATOM$RED        STATIC     ATOMS    COLORGROUP SYSTEM
3 33 34 39
