AV-unprocessed.smi:2647|AV-procd|sdf|10284|dock6
  -GOLD-   2272014293D 1   1.00000     0.00000
 Structure written by MMmdl.
 31 32  0  0  0  0  0  0  0  0  2 V2000
  153.1519  138.7961  155.5461 O   0  0  0  0  0  0  0  0  0  0  0  0
  151.9308  138.7195  155.7009 C   0  0  0  0  0  0  0  0  0  0  0  0
  151.3949  138.9339  156.9111 N   0  0  0  0  0  0  0  0  0  0  0  0
  152.1305  139.2568  158.1289 C   0  0  0  0  0  0  0  0  0  0  0  0
  151.7027  140.6162  158.7042 C   0  0  0  0  0  0  0  0  0  0  0  0
  152.8138  141.6742  158.5973 C   0  0  0  0  0  0  0  0  0  0  0  0
  152.4736  142.8868  159.3487 N   0  0  0  0  0  0  0  0  0  0  0  0
  152.7151  143.0515  160.6569 C   0  0  0  0  0  0  0  0  0  0  0  0
  153.2296  142.2280  161.4132 O   0  0  0  0  0  0  0  0  0  0  0  0
  152.2704  144.4302  161.1258 C   0  0  0  0  0  0  0  0  0  0  0  0
  151.7111  145.0661  159.8493 C   0  0  0  0  0  0  0  0  0  0  0  0
  151.9138  143.9769  158.8047 C   0  0  0  0  0  0  0  0  0  0  0  0
  151.5939  144.1223  157.6254 O   0  0  0  0  0  0  0  0  0  0  0  0
  151.0191  138.4252  154.7461 N   0  5  0  0  0  0  0  0  0  0  0  0
  149.9334  139.2011  154.5919 C   0  0  0  0  0  0  0  0  0  0  0  0
  150.0099  140.5403  154.5305 N   0  0  0  0  0  0  0  0  0  0  0  0
  148.7731  141.1515  154.3742 N   0  0  0  0  0  0  0  0  0  0  0  0
  147.7894  140.2532  154.3306 C   0  0  0  0  0  0  0  0  0  0  0  0
  148.2841  138.5802  154.4785 S   0  0  0  0  0  0  0  0  0  0  0  0
  150.3912  138.8623  156.9907 H   0  0  0  0  0  0  0  0  0  0  0  0
  151.9976  138.4666  158.8698 H   0  0  0  0  0  0  0  0  0  0  0  0
  153.1924  139.2759  157.8831 H   0  0  0  0  0  0  0  0  0  0  0  0
  150.8127  140.9663  158.1793 H   0  0  0  0  0  0  0  0  0  0  0  0
  151.4167  140.4969  159.7501 H   0  0  0  0  0  0  0  0  0  0  0  0
  153.7554  141.2592  158.9609 H   0  0  0  0  0  0  0  0  0  0  0  0
  152.9890  141.9246  157.5496 H   0  0  0  0  0  0  0  0  0  0  0  0
  151.5118  144.3443  161.9045 H   0  0  0  0  0  0  0  0  0  0  0  0
  153.1188  144.9903  161.5199 H   0  0  0  0  0  0  0  0  0  0  0  0
  150.6525  145.3095  159.9463 H   0  0  0  0  0  0  0  0  0  0  0  0
  152.2564  145.9688  159.5717 H   0  0  0  0  0  0  0  0  0  0  0  0
  146.7663  140.5775  154.2131 H   0  0  0  0  0  0  0  0  0  0  0  0
  1  2  2  0  0  0  0
  2  3  1  0  0  0  0
  2 14  1  0  0  0  0
  3  4  1  0  0  0  0
  3 20  1  0  0  0  0
  4  5  1  0  0  0  0
  4 21  1  0  0  0  0
  4 22  1  0  0  0  0
  5  6  1  0  0  0  0
  5 23  1  0  0  0  0
  5 24  1  0  0  0  0
  6  7  1  0  0  0  0
  6 25  1  0  0  0  0
  6 26  1  0  0  0  0
  7 12  1  0  0  0  0
  7  8  1  0  0  0  0
  8  9  2  0  0  0  0
  8 10  1  0  0  0  0
 10 11  1  0  0  0  0
 10 27  1  0  0  0  0
 10 28  1  0  0  0  0
 11 12  1  0  0  0  0
 11 29  1  0  0  0  0
 11 30  1  0  0  0  0
 12 13  2  0  0  0  0
 14 15  1  0  0  0  0
 15 19  1  0  0  0  0
 15 16  2  0  0  0  0
 16 17  1  0  0  0  0
 17 18  2  0  0  0  0
 18 19  1  0  0  0  0
 18 31  1  0  0  0  0
M  CHG  1  14  -1
M  END
> <s_m_source_file>
AV-unprocessed.smi

> <i_m_source_file_index>
2647

> <i_lp_mmshare_version>
43012

> <i_f3d_flags>
0

> <s_epik_input>
czFbY0hdbm5jMVtOSF1DKD1PKVtOSF1bQ0gyXVtDSDJdW0NIMl1OMkMoPU8pW0NIMl1bQ0gyXUMyPU8=

> <s_epik_cmdline>
J2VwaWtfcHl0aG9uJywgJy1waCcsICc3LjAnLCAnLXRuJywgJzgnLCAnLW1hJywgJzIwMCcsICctbWV0YWxfYmluZGluZycsICctaW1hZScsICc8aW5maWxlLm1hZT4nLCAnLW9tYWUnLCAnPG91dGZpbGUubWFlPic=

> <r_lp_tautomer_probability>
1

> <r_epik_Ionization_Penalty>
3.50019

> <r_epik_Ionization_Penalty_Charging>
3.45871

> <r_epik_Ionization_Penalty_Neutral>
0.0414811

> <r_epik_State_Penalty>
3.45698

> <r_epik_Charging_Adjusted_Penalty>
6.91569

> <i_epik_Tot_Q>
-1

> <i_epik_Tot_abs_Q>
1

> <r_epik_Metal_State_Penalty>
0.503209

> <b_epik_Metal_Only>
1

> <s_lp_Force_Field>
OPLS_2005

> <r_lp_Energy>
9.35786

> <b_lp_Chiralities_Consistent>
1

> <s_lp_Variant>
AV-unprocessed.smi:2647-2

> <Gold.Version>
5.8.1

> <Gold.Id.Protein>
6NUR|6NUR_protein|mol2

> <Gold.PLP.Fitness>
44.2922

> <Gold.PLP.PLP>
-40.1606

> <Gold.PLP.part.hbond>
-3.4751

> <Gold.PLP.part.metal>
0.0000

> <Gold.PLP.part.buried>
-5.8432

> <Gold.PLP.part.nonpolar>
-30.7302

> <Gold.PLP.part.repulsive>
0.6325

> <Gold.PLP.ligand.clash>
0.0000

> <Gold.PLP.ligand.torsion>
1.5796

> <Gold.PLP.Chemscore.Hbond>
2.3967

> <Gold.PLP.Chemscore.CHOScore>
0.0000

> <Gold.PLP.Chemscore.Metal>
0.0000

> <Gold.Chemscore.Hbonds>
donor molecule, donor type, donor heavy atom, donor atom, acceptor molecule, acceptor atom, score
      P1  H  7989  7998       L1    16  0.85
      P1  H  7997  8009       L1     1  1.00

> <Gold.PLP.Chemscore.Internal.Correction>
0.1005

> <Gold.Rescore>
     Score         DG    S(hbond)    S(metal)    S(lipo)     H(rot)  DE(clash)    DE(int)     intcor
     10.06     -11.70       1.81        0.00      52.23       2.32       0.06       1.58       ----

> <Gold.Chemscore.Fitness>
10.0609

> <Gold.Chemscore.DG>
-11.7011

> <Gold.Chemscore.ZeroCoef>
-5.4800

> <Gold.Chemscore.Hbond>
1.8126

> <Gold.Chemscore.Metal>
0.0000

> <Gold.Chemscore.Lipo>
52.2329

> <Gold.Chemscore.Internal_Hbond>
0.0000

> <Gold.Chemscore.DEClash>
0.0554

> <Gold.Chemscore.DEInternal>
1.5848

> <Gold.Chemscore.Rot>
2.3219

> <Gold.Chemscore.Internal.Correction>
   9.000000E+99

> <Gold.Chemscore.Hbonds>
donor molecule, donor type, donor heavy atom, donor atom, acceptor molecule, acceptor atom, score
      P1  H  7989  7998       L1    16  0.42
      P1  H  7997  8009       L1     1  0.97

> <Gold.Chemscore.Hbond.Weighted>
-6.0540

> <Gold.Chemscore.Metal.Weighted>
-0.0000

> <Gold.Chemscore.Lipo.Weighted>
-6.1113

> <Gold.Chemscore.Internal_Hbond.Weighted>
0.0000

> <Gold.Chemscore.DEClash.Weighted>
0.0554

> <Gold.Chemscore.DEInternal.Weighted>
1.5848

> <Gold.Chemscore.Rot.Weighted>
5.9441

> <Gold.Chemscore.Internal.Correction.Weighted>
   9.000000E+99

> <Gold.Protein.RotatedTorsions>
[ 6907 6896 6895 6894 ] final   13.57 input  -60.11 | X-H torsion
[ 7974 7965 7964 7962 ] final   44.22 input  175.53 | X-H torsion
[ 8008 7997 7996 7995 ] final -153.42 input   59.86 | X-H torsion
[ 10167 10162 10161 10158 ] final  161.20 input  -65.29 | X-H torsion
[ 10718 10713 10712 10709 ] final   91.02 input   66.30 | X-H torsion
[ 10763 10752 10751 10750 ] final  -66.43 input  -60.55 | X-H torsion
[ 11005 11000 10999 10996 ] final -102.29 input  -57.11 | X-H torsion

> <Gold.Protein.ActiveResidues>
 VAL166  LYS551  ARG553  GLY616  TRP617  ASP618  TYR619  PRO620  LYS621  CYS622 
 ASP623  PHE694  ASN695  SER759  ASP760  ASP761  ALA762  ILE779  LEU786  VAL792 
 PHE793  MET794  SER795  GLU796  ALA797  LYS798  CYS799  TRP800  GLU811  SER814 

> <Gold.Protein.RotatedAtoms>
  151.7884  135.0742  160.0383 H   0  0  0  0  0  0  0  0  0  0  0  0  # atno 6907 bound_to 6896
  152.3174  133.5812  159.5729 H   0  0  0  0  0  0  0  0  0  0  0  0  # atno 6908 bound_to 6896
  150.7351  133.9978  159.3670 H   0  0  0  0  0  0  0  0  0  0  0  0  # atno 6909 bound_to 6896
  146.0587  139.5098  142.9672 H   0  0  0  0  0  0  0  0  0  0  0  0  # atno 7974 bound_to 7965
  155.6706  140.0733  157.2521 H   0  0  0  0  0  0  0  0  0  0  0  0  # atno 8008 bound_to 7997
  154.4124  140.1700  156.1926 H   0  0  0  0  0  0  0  0  0  0  0  0  # atno 8009 bound_to 7997
  155.9620  140.3369  155.6502 H   0  0  0  0  0  0  0  0  0  0  0  0  # atno 8010 bound_to 7997
  139.4847  144.4559  151.8768 H   0  0  0  0  0  0  0  0  0  0  0  0  # atno 10167 bound_to 10162
  157.6960  131.0392  150.3666 H   0  0  0  0  0  0  0  0  0  0  0  0  # atno 10718 bound_to 10713
  154.3597  135.6118  153.5684 H   0  0  0  0  0  0  0  0  0  0  0  0  # atno 10763 bound_to 10752
  152.9794  135.5812  154.4647 H   0  0  0  0  0  0  0  0  0  0  0  0  # atno 10764 bound_to 10752
  154.4382  135.2849  155.1843 H   0  0  0  0  0  0  0  0  0  0  0  0  # atno 10765 bound_to 10752
  141.1195  133.8546  157.1341 H   0  0  0  0  0  0  0  0  0  0  0  0  # atno 11005 bound_to 11000
  145.6598  141.0243  143.1715 LP  0  0  0  0  0  0  0  0  0  0  0  0  # atno 17320 bound_to 7965
  144.7162  139.8187  143.7398 LP  0  0  0  0  0  0  0  0  0  0  0  0  # atno 17321 bound_to 7965
  140.4019  144.2482  150.5892 LP  0  0  0  0  0  0  0  0  0  0  0  0  # atno 17342 bound_to 10162
  140.5049  143.2307  151.8623 LP  0  0  0  0  0  0  0  0  0  0  0  0  # atno 17343 bound_to 10162
  156.4096  130.3931  149.6901 LP  0  0  0  0  0  0  0  0  0  0  0  0  # atno 17370 bound_to 10713
  156.4189  130.7759  151.2775 LP  0  0  0  0  0  0  0  0  0  0  0  0  # atno 17371 bound_to 10713
  140.0142  134.9975  157.0458 LP  0  0  0  0  0  0  0  0  0  0  0  0  # atno 17394 bound_to 11000
  140.4548  134.1545  155.7185 LP  0  0  0  0  0  0  0  0  0  0  0  0  # atno 17395 bound_to 11000

$$$$
