AV-unprocessed.smi:967|AV-procd|sdf|4285|dock5
  -GOLD-   22720 2193D 1   1.00000     0.00000
 Structure written by MMmdl.
 43 44  0  0  0  0  0  0  0  0  2 V2000
  151.0647  142.6626  157.3554 C   0  0  0  0  0  0  0  0  0  0  0  0
  151.4408  141.2570  157.3785 N   0  0  0  0  0  0  0  0  0  0  0  0
  151.5575  140.6483  158.6948 C   0  0  0  0  0  0  0  0  0  0  0  0
  150.6980  140.4769  156.4816 C   0  0  0  0  0  0  0  0  0  0  0  0
  151.3133  139.8339  155.3880 C   0  0  0  0  0  0  0  0  0  0  0  0
  150.5278  139.0583  154.5111 C   0  0  0  0  0  0  0  0  0  0  0  0
  149.1413  138.9257  154.7421 C   0  0  0  0  0  0  0  0  0  0  0  0
  148.3904  138.1438  153.8233 N   0  0  0  0  0  0  0  0  0  0  0  0
  147.0700  137.8928  153.8201 C   0  0  0  0  0  0  0  0  0  0  0  0
  146.2678  138.3017  154.6592 O   0  0  0  0  0  0  0  0  0  0  0  0
  146.7321  137.1115  152.7840 N   0  0  0  0  0  0  0  0  0  0  0  0
  145.3916  136.6153  152.4833 C   0  0  2  0  0  0  0  0  0  0  0  0
  144.8696  135.7866  153.6729 C   0  0  0  0  0  0  0  0  0  0  0  0
  143.5010  135.1573  153.3669 C   0  0  0  0  0  0  0  0  0  0  0  0
  143.5554  134.3097  152.0843 C   0  0  1  0  0  0  0  0  0  0  0  0
  142.2692  133.8026  151.7989 O   0  0  0  0  0  0  0  0  0  0  0  0
  144.0568  135.1433  150.8927 C   0  0  0  0  0  0  0  0  0  0  0  0
  145.4273  135.7713  151.1943 C   0  0  0  0  0  0  0  0  0  0  0  0
  148.5756  139.6033  155.8501 C   0  0  0  0  0  0  0  0  0  0  0  0
  149.3635  140.3384  156.6649 N   0  3  0  0  0  0  0  0  0  0  0  0
  151.0248  143.0372  156.3318 H   0  0  0  0  0  0  0  0  0  0  0  0
  151.7963  143.2574  157.9028 H   0  0  0  0  0  0  0  0  0  0  0  0
  150.0881  142.8139  157.8168 H   0  0  0  0  0  0  0  0  0  0  0  0
  151.8445  139.5991  158.6140 H   0  0  0  0  0  0  0  0  0  0  0  0
  150.6134  140.7068  159.2375 H   0  0  0  0  0  0  0  0  0  0  0  0
  152.3207  141.1613  159.2807 H   0  0  0  0  0  0  0  0  0  0  0  0
  152.3760  139.9329  155.2204 H   0  0  0  0  0  0  0  0  0  0  0  0
  150.9924  138.5647  153.6698 H   0  0  0  0  0  0  0  0  0  0  0  0
  148.9305  137.6751  153.1106 H   0  0  0  0  0  0  0  0  0  0  0  0
  147.4659  136.8247  152.1528 H   0  0  0  0  0  0  0  0  0  0  0  0
  144.7038  137.4476  152.3218 H   0  0  0  0  0  0  0  0  0  0  0  0
  145.5820  134.9959  153.9131 H   0  0  0  0  0  0  0  0  0  0  0  0
  144.7942  136.4147  154.5614 H   0  0  0  0  0  0  0  0  0  0  0  0
  143.1819  134.5429  154.2099 H   0  0  0  0  0  0  0  0  0  0  0  0
  142.7563  135.9474  153.2593 H   0  0  0  0  0  0  0  0  0  0  0  0
  144.2234  133.4614  152.2392 H   0  0  0  0  0  0  0  0  0  0  0  0
  142.0854  133.9485  150.8835 H   0  0  0  0  0  0  0  0  0  0  0  0
  144.1254  134.5196  150.0007 H   0  0  0  0  0  0  0  0  0  0  0  0
  143.3399  135.9335  150.6642 H   0  0  0  0  0  0  0  0  0  0  0  0
  145.7411  136.3886  150.3515 H   0  0  0  0  0  0  0  0  0  0  0  0
  146.1715  134.9792  151.2908 H   0  0  0  0  0  0  0  0  0  0  0  0
  147.5288  139.6004  156.1142 H   0  0  0  0  0  0  0  0  0  0  0  0
  148.9295  140.8138  157.4562 H   0  0  0  0  0  0  0  0  0  0  0  0
  1  2  1  0  0  0  0
  1 21  1  0  0  0  0
  1 22  1  0  0  0  0
  1 23  1  0  0  0  0
  2  3  1  0  0  0  0
  2  4  1  0  0  0  0
  3 24  1  0  0  0  0
  3 25  1  0  0  0  0
  3 26  1  0  0  0  0
  4 20  1  0  0  0  0
  4  5  2  0  0  0  0
  5  6  1  0  0  0  0
  5 27  1  0  0  0  0
  6  7  2  0  0  0  0
  6 28  1  0  0  0  0
  7  8  1  0  0  0  0
  7 19  1  0  0  0  0
  8  9  1  0  0  0  0
  8 29  1  0  0  0  0
  9 10  2  0  0  0  0
  9 11  1  0  0  0  0
 11 12  1  0  0  0  0
 11 30  1  0  0  0  0
 12 18  1  0  0  0  0
 12 13  1  0  0  0  0
 12 31  1  0  0  0  0
 13 14  1  0  0  0  0
 13 32  1  0  0  0  0
 13 33  1  0  0  0  0
 14 15  1  0  0  0  0
 14 34  1  0  0  0  0
 14 35  1  0  0  0  0
 15 16  1  0  0  0  0
 15 17  1  0  0  0  0
 15 36  1  0  0  0  0
 16 37  1  0  0  0  0
 17 18  1  0  0  0  0
 17 38  1  0  0  0  0
 17 39  1  0  0  0  0
 18 40  1  0  0  0  0
 18 41  1  0  0  0  0
 19 20  2  0  0  0  0
 19 42  1  0  0  0  0
 20 43  1  0  0  0  0
M  CHG  1  20   1
M  END
> <s_m_source_file>
AV-unprocessed.smi

> <i_m_source_file_index>
967

> <i_lp_mmshare_version>
43012

> <i_f3d_flags>
0

> <s_epik_input>
W0NIM11OKFtDSDNdKWMxW2NIXVtjSF1jKFtjSF1uMSlbTkhdQyg9TylbTkhdW0NAQEhdMltDSDJdW0NIMl1bQ0BASF0oW09IXSlbQ0gyXVtDSDJdMg==

> <s_epik_cmdline>
J2VwaWtfcHl0aG9uJywgJy1waCcsICc3LjAnLCAnLXRuJywgJzgnLCAnLW1hJywgJzIwMCcsICctbWV0YWxfYmluZGluZycsICctaW1hZScsICc8aW5maWxlLm1hZT4nLCAnLW9tYWUnLCAnPG91dGZpbGUubWFlPic=

> <r_lp_tautomer_probability>
0.999994

> <r_epik_Ionization_Penalty>
0.251848

> <r_epik_Ionization_Penalty_Charging>
0.251826

> <r_epik_Ionization_Penalty_Neutral>
2.16844e-05

> <r_epik_State_Penalty>
0.243201

> <r_epik_Charging_Adjusted_Penalty>
0.495027

> <i_epik_Tot_Q>
1

> <i_epik_Tot_abs_Q>
1

> <r_epik_Metal_State_Penalty>
0.534113

> <b_epik_Metal_Only>
0

> <s_lp_Force_Field>
OPLS_2005

> <r_lp_Energy>
22.3095

> <b_lp_Chiralities_Consistent>
1

> <s_lp_Variant>
AV-unprocessed.smi:967-1

> <Gold.Version>
5.8.1

> <Gold.Id.Protein>
6NUR|6NUR_protein|mol2

> <Gold.PLP.Fitness>
36.9737

> <Gold.PLP.PLP>
-28.2584

> <Gold.PLP.part.hbond>
-2.9015

> <Gold.PLP.part.metal>
0.0000

> <Gold.PLP.part.buried>
-2.9220

> <Gold.PLP.part.nonpolar>
-22.8637

> <Gold.PLP.part.repulsive>
0.1667

> <Gold.PLP.ligand.clash>
0.0000

> <Gold.PLP.ligand.torsion>
0.1102

> <Gold.PLP.Chemscore.Hbond>
2.9120

> <Gold.PLP.Chemscore.CHOScore>
0.0000

> <Gold.PLP.Chemscore.Metal>
0.0000

> <Gold.Chemscore.Hbonds>
donor molecule, donor type, donor heavy atom, donor atom, acceptor molecule, acceptor atom, score
      L1  H     8    29       P1  7948  0.93
      L1  H    11    30       P1  7948  1.00
      L1  H    16    37       P1 10186  1.00

> <Gold.PLP.Chemscore.Internal.Correction>
0.1998

> <Gold.Rescore>
     Score         DG    S(hbond)    S(metal)    S(lipo)     H(rot)  DE(clash)    DE(int)     intcor
     15.56     -16.98       2.71        0.00      58.91       1.73       0.02       1.40       ----

> <Gold.Chemscore.Fitness>
15.5623

> <Gold.Chemscore.DG>
-16.9818

> <Gold.Chemscore.ZeroCoef>
-5.4800

> <Gold.Chemscore.Hbond>
2.7059

> <Gold.Chemscore.Metal>
0.0000

> <Gold.Chemscore.Lipo>
58.9115

> <Gold.Chemscore.Internal_Hbond>
0.0000

> <Gold.Chemscore.DEClash>
0.0210

> <Gold.Chemscore.DEInternal>
1.3985

> <Gold.Chemscore.Rot>
1.7299

> <Gold.Chemscore.Internal.Correction>
   9.000000E+99

> <Gold.Chemscore.Hbonds>
donor molecule, donor type, donor heavy atom, donor atom, acceptor molecule, acceptor atom, score
      L1  H     8    29       P1  7948  0.89
      L1  H    11    30       P1  7948  0.96
      L1  H    16    37       P1 10186  0.33

> <Gold.Chemscore.Hbond.Weighted>
-9.0377

> <Gold.Chemscore.Metal.Weighted>
-0.0000

> <Gold.Chemscore.Lipo.Weighted>
-6.8927

> <Gold.Chemscore.Internal_Hbond.Weighted>
0.0000

> <Gold.Chemscore.DEClash.Weighted>
0.0210

> <Gold.Chemscore.DEInternal.Weighted>
1.3985

> <Gold.Chemscore.Rot.Weighted>
4.4285

> <Gold.Chemscore.Internal.Correction.Weighted>
   9.000000E+99

> <Gold.Protein.RotatedTorsions>
[ 6907 6896 6895 6894 ] final  -82.37 input  -60.11 | X-H torsion
[ 7974 7965 7964 7962 ] final -177.80 input  175.53 | X-H torsion
[ 8008 7997 7996 7995 ] final  -95.57 input   59.86 | X-H torsion
[ 10167 10162 10161 10158 ] final   36.22 input  -65.29 | X-H torsion
[ 10718 10713 10712 10709 ] final  177.79 input   66.30 | X-H torsion
[ 10763 10752 10751 10750 ] final -143.31 input  -60.55 | X-H torsion
[ 11005 11000 10999 10996 ] final  -12.10 input  -57.11 | X-H torsion

> <Gold.Protein.ActiveResidues>
 VAL166  LYS551  ARG553  GLY616  TRP617  ASP618  TYR619  PRO620  LYS621  CYS622 
 ASP623  PHE694  ASN695  SER759  ASP760  ASP761  ALA762  ILE779  LEU786  VAL792 
 PHE793  MET794  SER795  GLU796  ALA797  LYS798  CYS799  TRP800  GLU811  SER814 

> <Gold.Protein.RotatedAtoms>
  150.6898  134.3676  159.4977 H   0  0  0  0  0  0  0  0  0  0  0  0  # atno 6907 bound_to 6896
  152.1496  134.8996  160.0558 H   0  0  0  0  0  0  0  0  0  0  0  0  # atno 6908 bound_to 6896
  152.0099  133.3822  159.4252 H   0  0  0  0  0  0  0  0  0  0  0  0  # atno 6909 bound_to 6896
  144.7128  140.0965  143.6418 H   0  0  0  0  0  0  0  0  0  0  0  0  # atno 7974 bound_to 7965
  154.7631  140.0479  157.0990 H   0  0  0  0  0  0  0  0  0  0  0  0  # atno 8008 bound_to 7997
  154.9913  140.3113  155.4886 H   0  0  0  0  0  0  0  0  0  0  0  0  # atno 8009 bound_to 7997
  156.2908  140.2218  156.5018 H   0  0  0  0  0  0  0  0  0  0  0  0  # atno 8010 bound_to 7997
  140.4148  144.1542  150.6142 H   0  0  0  0  0  0  0  0  0  0  0  0  # atno 10167 bound_to 10162
  156.9001  130.9876  151.3037 H   0  0  0  0  0  0  0  0  0  0  0  0  # atno 10718 bound_to 10713
  154.8475  135.3471  154.6167 H   0  0  0  0  0  0  0  0  0  0  0  0  # atno 10763 bound_to 10752
  153.6775  135.6982  153.5132 H   0  0  0  0  0  0  0  0  0  0  0  0  # atno 10764 bound_to 10752
  153.2694  135.4298  155.0929 H   0  0  0  0  0  0  0  0  0  0  0  0  # atno 10765 bound_to 10752
  140.7622  133.8506  155.9134 H   0  0  0  0  0  0  0  0  0  0  0  0  # atno 11005 bound_to 11000
  145.9575  139.2777  143.1175 LP  0  0  0  0  0  0  0  0  0  0  0  0  # atno 17320 bound_to 7965
  145.9256  140.9084  143.0382 LP  0  0  0  0  0  0  0  0  0  0  0  0  # atno 17321 bound_to 7965
  140.4599  143.2453  151.9234 LP  0  0  0  0  0  0  0  0  0  0  0  0  # atno 17342 bound_to 10162
  139.4782  144.5478  151.8431 LP  0  0  0  0  0  0  0  0  0  0  0  0  # atno 17343 bound_to 10162
  157.6031  130.8527  149.8833 LP  0  0  0  0  0  0  0  0  0  0  0  0  # atno 17370 bound_to 10713
  156.0586  130.3704  150.1033 LP  0  0  0  0  0  0  0  0  0  0  0  0  # atno 17371 bound_to 10713
  140.9652  134.1603  157.4621 LP  0  0  0  0  0  0  0  0  0  0  0  0  # atno 17394 bound_to 11000
  139.8769  134.9959  156.5768 LP  0  0  0  0  0  0  0  0  0  0  0  0  # atno 17395 bound_to 11000

$$$$
