#       Name:                AV-unprocessed.smi:2453
#       Creating user name   scv26
#       Creation time:       Fri Mar 27 13:33:11 2020


#       File generated by GOLD software.
#

@<TRIPOS>MOLECULE
AV-unprocessed.smi:2453
    45    46     1
SMALL
NO_CHARGES


@<TRIPOS>ATOM
      1 ****        -3.8534  -0.1816  -0.6850 C.3            1 S1                 0.0000
      2 ****        -3.6481   1.2436  -0.2018 C.ar           1 S1                 0.0000
      3 ****        -4.7423   2.1360  -0.1869 C.ar           1 S1                 0.0000
      4 ****        -4.5777   3.4042   0.2434 N.pl3          1 S1                 1.0000
      5 ****        -3.3921   3.8780   0.6787 C.ar           1 S1                 0.0000
      6 ****        -2.2609   3.0382   0.6905 C.ar           1 S1                 0.0000
      7 ****        -2.3765   1.7004   0.2314 C.ar           1 S1                 0.0000
      8 ****        -1.2872   0.7823   0.2214 N.am           1 S1                 0.0000
      9 ****         0.0327   1.0377   0.2091 C.2            1 S1                 0.0000
     10 ****         0.5419   2.1580   0.2099 O.2            1 S1                 0.0000
     11 ****         0.7442  -0.0982   0.1771 N.am           1 S1                 0.0000
     12 ****         2.2058  -0.1866   0.1659 C.3            1 S1                 0.0000
     13 ****         2.7638   0.0416  -1.2563 C.3            1 S1                 0.0000
     14 ****         2.4355  -1.1242  -2.2036 C.3            1 S1                 0.0000
     15 ****         2.9254  -2.4597  -1.6260 C.3            1 S1                 0.0000
     16 ****         2.3572  -2.7028  -0.2188 C.3            1 S1                 0.0000
     17 ****         2.6930  -1.5428   0.7435 C.3            1 S1                 0.0000
     18 ****         2.1707  -1.8359   2.1664 C.3            1 S1                 0.0000
     19 ****         2.6350  -0.8687   3.0843 O.3            1 S1                 0.0000
     20 ****        -4.8851  -0.3500  -0.9954 H              1 S1                 0.0000
     21 ****        -3.6212  -0.8904   0.1105 H              1 S1                 0.0000
     22 ****        -3.2065  -0.3930  -1.5371 H              1 S1                 0.0000
     23 ****        -5.7418   1.8749  -0.5035 H              1 S1                 0.0000
     24 ****        -3.3841   4.9066   1.0090 H              1 S1                 0.0000
     25 ****        -1.3305   3.4368   1.0639 H              1 S1                 0.0000
     26 ****        -1.5463  -0.1901   0.1429 H              1 S1                 0.0000
     27 ****         0.2422  -0.9738   0.1660 H              1 S1                 0.0000
     28 ****         2.5946   0.6075   0.8060 H              1 S1                 0.0000
     29 ****         2.3874   0.9772  -1.6716 H              1 S1                 0.0000
     30 ****         3.8470   0.1554  -1.1979 H              1 S1                 0.0000
     31 ****         1.3595  -1.1703  -2.3755 H              1 S1                 0.0000
     32 ****         2.8945  -0.9507  -3.1773 H              1 S1                 0.0000
     33 ****         2.6410  -3.2775  -2.2884 H              1 S1                 0.0000
     34 ****         4.0154  -2.4608  -1.5843 H              1 S1                 0.0000
     35 ****         1.2764  -2.8361  -0.2796 H              1 S1                 0.0000
     36 ****         2.7579  -3.6383   0.1730 H              1 S1                 0.0000
     37 ****         3.7815  -1.4934   0.8084 H              1 S1                 0.0000
     38 ****         1.0814  -1.8688   2.1944 H              1 S1                 0.0000
     39 ****         2.5235  -2.8114   2.5023 H              1 S1                 0.0000
     40 ****         2.3303  -1.1022   3.9479 H              1 S1                 0.0000
     41 ****        -5.3846   4.0291   0.2449 H              1 S1                 0.0000
     42 ****        -0.0396   2.9715   0.2203 LP             1 S1                 0.0000
     43 ****         1.5372   2.2549   0.2001 LP             1 S1                 0.0000
     44 ****         2.2796   0.0317   2.8336 LP             1 S1                 0.0000
     45 ****         3.6347  -0.8471   3.0741 LP             1 S1                 0.0000
@<TRIPOS>BOND
    1    1    2 1     
    2    1   20 1     
    3    1   21 1     
    4    1   22 1     
    5    2    7 ar    
    6    2    3 ar    
    7    3    4 ar    
    8    3   23 1     
    9    4    5 ar    
   10    4   41 1     
   11    5    6 ar    
   12    5   24 1     
   13    6    7 ar    
   14    6   25 1     
   15    7    8 1     
   16    8    9 am    
   17    8   26 1     
   18    9   10 2     
   19    9   11 am    
   20   11   12 1     
   21   11   27 1     
   22   12   17 1     
   23   12   13 1     
   24   12   28 1     
   25   13   14 1     
   26   13   29 1     
   27   13   30 1     
   28   14   15 1     
   29   14   31 1     
   30   14   32 1     
   31   15   16 1     
   32   15   33 1     
   33   15   34 1     
   34   16   17 1     
   35   16   35 1     
   36   16   36 1     
   37   17   18 1     
   38   17   37 1     
   39   18   19 1     
   40   18   38 1     
   41   18   39 1     
   42   19   40 1     
   43   10   42 1     
   44   10   43 1     
   45   19   44 1     
   46   19   45 1     
@<TRIPOS>SUBSTRUCTURE
      1 S1             1
@<TRIPOS>SET
LONE_PAIRS      STATIC     ATOMS    <user>   **** ""
4 42 43 44 45
DONOR_HYDROGENS      STATIC     ATOMS    <user>   **** ""
4 41 26 27 40
ATOM$BLUE        STATIC     ATOMS    COLORGROUP SYSTEM
4 42 43 44 45
ATOM$RED        STATIC     ATOMS    COLORGROUP SYSTEM
4 41 26 27 40
