AV-unprocessed.smi:1240|AV-procd|sdf|5200|dock2
  -GOLD-   22720 4283D 1   1.00000     0.00000
 Structure written by MMmdl.
 48 50  0  0  0  0  0  0  0  0  2 V2000
  144.6345  136.8733  151.5406 O   0  0  0  0  0  0  0  0  0  0  0  0
  145.8157  136.5667  151.7020 C   0  0  0  0  0  0  0  0  0  0  0  0
  146.7443  137.4277  152.1422 N   0  0  0  0  0  0  0  0  0  0  0  0
  146.4931  138.8218  152.4894 C   0  0  0  0  0  0  0  0  0  0  0  0
  146.4376  139.0929  154.0211 C   0  0  1  0  0  0  0  0  0  0  0  0
  147.7764  138.8151  154.7630 C   0  0  2  0  0  0  0  0  0  0  0  0
  149.0262  139.4125  154.1310 C   0  0  0  0  0  0  0  0  0  0  0  0
  150.1589  138.5439  154.6779 C   0  0  0  0  0  0  0  0  0  0  0  0
  149.5559  137.3346  155.1234 O   0  0  0  0  0  0  0  0  0  0  0  0
  148.1789  137.3378  154.7814 C   0  0  0  0  0  0  0  0  0  0  0  0
  145.9676  140.4794  154.3203 N   0  3  0  0  0  0  0  0  0  0  0  0
  145.5920  140.7529  155.7309 C   0  0  0  0  0  0  0  0  0  0  0  0
  144.9614  142.1510  155.8424 C   0  0  0  0  0  0  0  0  0  0  0  0
  145.8748  143.1253  155.3515 O   0  0  0  0  0  0  0  0  0  0  0  0
  146.1901  142.9222  153.9789 C   0  0  0  0  0  0  0  0  0  0  0  0
  146.8551  141.5471  153.7973 C   0  0  0  0  0  0  0  0  0  0  0  0
  146.3506  135.3577  151.4595 N   0  0  0  0  0  0  0  0  0  0  0  0
  145.7028  134.1695  151.0252 C   0  0  0  0  0  0  0  0  0  0  0  0
  146.4916  133.0103  150.8748 C   0  0  0  0  0  0  0  0  0  0  0  0
  145.8705  131.8145  150.4625 C   0  0  0  0  0  0  0  0  0  0  0  0
  144.5484  131.7141  150.2114 N   0  0  0  0  0  0  0  0  0  0  0  0
  143.7920  132.8209  150.3699 C   0  0  0  0  0  0  0  0  0  0  0  0
  144.3129  134.0661  150.7762 C   0  0  0  0  0  0  0  0  0  0  0  0
  147.6932  137.0965  152.2398 H   0  0  0  0  0  0  0  0  0  0  0  0
  147.2885  139.4099  152.0315 H   0  0  0  0  0  0  0  0  0  0  0  0
  145.5672  139.1305  152.0031 H   0  0  0  0  0  0  0  0  0  0  0  0
  145.6967  138.4225  154.4593 H   0  0  0  0  0  0  0  0  0  0  0  0
  147.7135  139.1700  155.7924 H   0  0  0  0  0  0  0  0  0  0  0  0
  148.9845  139.3185  153.0448 H   0  0  0  0  0  0  0  0  0  0  0  0
  149.1715  140.4650  154.3744 H   0  0  0  0  0  0  0  0  0  0  0  0
  150.9170  138.3461  153.9194 H   0  0  0  0  0  0  0  0  0  0  0  0
  150.6465  139.0248  155.5266 H   0  0  0  0  0  0  0  0  0  0  0  0
  147.6003  136.7496  155.4943 H   0  0  0  0  0  0  0  0  0  0  0  0
  148.0596  136.8892  153.7938 H   0  0  0  0  0  0  0  0  0  0  0  0
  144.8851  140.0061  156.0914 H   0  0  0  0  0  0  0  0  0  0  0  0
  146.4713  140.7043  156.3743 H   0  0  0  0  0  0  0  0  0  0  0  0
  144.0227  142.2011  155.2881 H   0  0  0  0  0  0  0  0  0  0  0  0
  144.7292  142.3772  156.8832 H   0  0  0  0  0  0  0  0  0  0  0  0
  145.2871  143.0018  153.3711 H   0  0  0  0  0  0  0  0  0  0  0  0
  146.8653  143.7127  153.6506 H   0  0  0  0  0  0  0  0  0  0  0  0
  147.8133  141.5307  154.3173 H   0  0  0  0  0  0  0  0  0  0  0  0
  147.0610  141.3797  152.7395 H   0  0  0  0  0  0  0  0  0  0  0  0
  147.3528  135.2884  151.5568 H   0  0  0  0  0  0  0  0  0  0  0  0
  147.5545  133.0322  151.0656 H   0  0  0  0  0  0  0  0  0  0  0  0
  146.4525  130.9139  150.3334 H   0  0  0  0  0  0  0  0  0  0  0  0
  142.7357  132.7098  150.1737 H   0  0  0  0  0  0  0  0  0  0  0  0
  143.6405  134.9009  150.8988 H   0  0  0  0  0  0  0  0  0  0  0  0
  145.1128  140.5774  153.7909 H   0  0  0  0  0  0  0  0  0  0  0  0
  1  2  2  0  0  0  0
  2  3  1  0  0  0  0
  2 17  1  0  0  0  0
  3  4  1  0  0  0  0
  3 24  1  0  0  0  0
  4  5  1  0  0  0  0
  4 25  1  0  0  0  0
  4 26  1  0  0  0  0
  5  6  1  0  0  0  0
  5 11  1  0  0  0  0
  5 27  1  0  0  0  0
  6 10  1  0  0  0  0
  6  7  1  0  0  0  0
  6 28  1  0  0  0  0
  7  8  1  0  0  0  0
  7 29  1  0  0  0  0
  7 30  1  0  0  0  0
  8  9  1  0  0  0  0
  8 31  1  0  0  0  0
  8 32  1  0  0  0  0
  9 10  1  0  0  0  0
 10 33  1  0  0  0  0
 10 34  1  0  0  0  0
 11 16  1  0  0  0  0
 11 12  1  0  0  0  0
 11 48  1  0  0  0  0
 12 13  1  0  0  0  0
 12 35  1  0  0  0  0
 12 36  1  0  0  0  0
 13 14  1  0  0  0  0
 13 37  1  0  0  0  0
 13 38  1  0  0  0  0
 14 15  1  0  0  0  0
 15 16  1  0  0  0  0
 15 39  1  0  0  0  0
 15 40  1  0  0  0  0
 16 41  1  0  0  0  0
 16 42  1  0  0  0  0
 17 18  1  0  0  0  0
 17 43  1  0  0  0  0
 18 23  1  0  0  0  0
 18 19  2  0  0  0  0
 19 20  1  0  0  0  0
 19 44  1  0  0  0  0
 20 21  2  0  0  0  0
 20 45  1  0  0  0  0
 21 22  1  0  0  0  0
 22 23  2  0  0  0  0
 22 46  1  0  0  0  0
 23 47  1  0  0  0  0
M  CHG  1  11   1
M  END
> <s_m_source_file>
AV-unprocessed.smi

> <i_m_source_file_index>
1240

> <i_lp_mmshare_version>
43012

> <i_f3d_flags>
0

> <s_epik_input>
W2NIXTFbY0hdbltjSF1bY0hdYzFbTkhdQyg9TylbTkhdW0NIMl1bQ0BIXShbQ0BASF0yW0NIMl1bQ0gyXU9bQ0gyXTIpTjNbQ0gyXVtDSDJdT1tDSDJdW0NIMl0z

> <s_epik_cmdline>
J2VwaWtfcHl0aG9uJywgJy1waCcsICc3LjAnLCAnLXRuJywgJzgnLCAnLW1hJywgJzIwMCcsICctbWV0YWxfYmluZGluZycsICctaW1hZScsICc8aW5maWxlLm1hZT4nLCAnLW9tYWUnLCAnPG91dGZpbGUubWFlPic=

> <r_epik_Ionization_Penalty>
1.08433

> <r_epik_Ionization_Penalty_Charging>
0.98326

> <r_epik_Ionization_Penalty_Neutral>
0.10107

> <r_epik_State_Penalty>
1.11265

> <r_epik_Charging_Adjusted_Penalty>
2.09591

> <i_epik_Tot_Q>
1

> <i_epik_Tot_abs_Q>
1

> <r_epik_Metal_State_Penalty>
1.10731

> <b_epik_Metal_Only>
0

> <s_lp_Force_Field>
OPLS_2005

> <r_lp_Energy>
42.8142

> <b_lp_Chiralities_Consistent>
1

> <s_lp_Variant>
AV-unprocessed.smi:1240-6

> <Gold.Version>
5.8.1

> <Gold.Id.Protein>
6NUR|6NUR_protein|mol2

> <Gold.PLP.Fitness>
50.7903

> <Gold.PLP.PLP>
-33.7002

> <Gold.PLP.part.hbond>
-3.2067

> <Gold.PLP.part.metal>
0.0000

> <Gold.PLP.part.buried>
-4.8215

> <Gold.PLP.part.nonpolar>
-30.2458

> <Gold.PLP.part.repulsive>
4.3749

> <Gold.PLP.ligand.clash>
0.0000

> <Gold.PLP.ligand.torsion>
0.3566

> <Gold.PLP.Chemscore.Hbond>
3.9440

> <Gold.PLP.Chemscore.CHOScore>
1.8945

> <Gold.PLP.Chemscore.Metal>
0.0000

> <Gold.Chemscore.Hbonds>
donor molecule, donor type, donor heavy atom, donor atom, acceptor molecule, acceptor atom, score
      L1  H     3    24       P1  7948  1.00
      L1  H    11    48       P1 10175  2.00
      L1  H    17    43       P1  7948  0.93
      L1  C    20    45       P1 10747  0.89
      L1  C    22    46       P1 10186  1.00

> <Gold.PLP.Chemscore.Internal.Correction>
0.2879

> <Gold.Rescore>
     Score         DG    S(hbond)    S(metal)    S(lipo)     H(rot)  DE(clash)    DE(int)     intcor
     17.04     -20.36       2.86        0.00      82.69       1.70       1.55       1.77       ----

> <Gold.Chemscore.Fitness>
17.0446

> <Gold.Chemscore.DG>
-20.3585

> <Gold.Chemscore.ZeroCoef>
-5.4800

> <Gold.Chemscore.Hbond>
2.8626

> <Gold.Chemscore.Metal>
0.0000

> <Gold.Chemscore.Lipo>
82.6904

> <Gold.Chemscore.Internal_Hbond>
0.0000

> <Gold.Chemscore.DEClash>
1.5463

> <Gold.Chemscore.DEInternal>
1.7676

> <Gold.Chemscore.Rot>
1.7021

> <Gold.Chemscore.Internal.Correction>
   9.000000E+99

> <Gold.Chemscore.Hbonds>
donor molecule, donor type, donor heavy atom, donor atom, acceptor molecule, acceptor atom, score
      L1  H     3    24       P1  7948  0.94
      L1  H    11    48       P1 10175  0.98
      L1  H    17    43       P1  7948  0.82

> <Gold.Chemscore.Hbond.Weighted>
-9.5612

> <Gold.Chemscore.Metal.Weighted>
-0.0000

> <Gold.Chemscore.Lipo.Weighted>
-9.6748

> <Gold.Chemscore.Internal_Hbond.Weighted>
0.0000

> <Gold.Chemscore.DEClash.Weighted>
1.5463

> <Gold.Chemscore.DEInternal.Weighted>
1.7676

> <Gold.Chemscore.Rot.Weighted>
4.3575

> <Gold.Chemscore.Internal.Correction.Weighted>
   9.000000E+99

> <Gold.Protein.RotatedTorsions>
[ 6907 6896 6895 6894 ] final -140.17 input  -60.11 | X-H torsion
[ 7974 7965 7964 7962 ] final   66.17 input  175.53 | X-H torsion
[ 8008 7997 7996 7995 ] final   36.59 input   59.86 | X-H torsion
[ 10167 10162 10161 10158 ] final   92.91 input  -65.29 | X-H torsion
[ 10718 10713 10712 10709 ] final   -1.07 input   66.30 | X-H torsion
[ 10763 10752 10751 10750 ] final  -45.50 input  -60.55 | X-H torsion
[ 11005 11000 10999 10996 ] final  -40.11 input  -57.11 | X-H torsion

> <Gold.Protein.ActiveResidues>
 VAL166  LYS551  ARG553  GLY616  TRP617  ASP618  TYR619  PRO620  LYS621  CYS622 
 ASP623  PHE694  ASN695  SER759  ASP760  ASP761  ALA762  ILE779  LEU786  VAL792 
 PHE793  MET794  SER795  GLU796  ALA797  LYS798  CYS799  TRP800  GLU811  SER814 

> <Gold.Protein.RotatedAtoms>
  151.0572  133.5574  159.2637 H   0  0  0  0  0  0  0  0  0  0  0  0  # atno 6907 bound_to 6896
  151.2563  135.0638  159.9091 H   0  0  0  0  0  0  0  0  0  0  0  0  # atno 6908 bound_to 6896
  152.5392  134.0324  159.8084 H   0  0  0  0  0  0  0  0  0  0  0  0  # atno 6909 bound_to 6896
  145.8297  139.3132  143.0994 H   0  0  0  0  0  0  0  0  0  0  0  0  # atno 7974 bound_to 7965
  155.1898  140.3307  155.4360 H   0  0  0  0  0  0  0  0  0  0  0  0  # atno 8008 bound_to 7997
  156.2446  140.1912  156.6942 H   0  0  0  0  0  0  0  0  0  0  0  0  # atno 8009 bound_to 7997
  154.6213  140.0595  156.9604 H   0  0  0  0  0  0  0  0  0  0  0  0  # atno 8010 bound_to 7997
  139.8230  144.6722  150.9494 H   0  0  0  0  0  0  0  0  0  0  0  0  # atno 10167 bound_to 10162
  156.8110  130.5424  149.5709 H   0  0  0  0  0  0  0  0  0  0  0  0  # atno 10718 bound_to 10713
  154.0296  135.6658  153.4779 H   0  0  0  0  0  0  0  0  0  0  0  0  # atno 10763 bound_to 10752
  153.0546  135.5064  154.7945 H   0  0  0  0  0  0  0  0  0  0  0  0  # atno 10764 bound_to 10752
  154.6886  135.3057  154.9476 H   0  0  0  0  0  0  0  0  0  0  0  0  # atno 10765 bound_to 10752
  141.0151  133.6889  156.2277 H   0  0  0  0  0  0  0  0  0  0  0  0  # atno 11005 bound_to 11000
  145.9584  140.8855  143.0223 LP  0  0  0  0  0  0  0  0  0  0  0  0  # atno 17320 bound_to 7965
  144.6740  140.1778  143.7408 LP  0  0  0  0  0  0  0  0  0  0  0  0  # atno 17321 bound_to 7965
  140.7812  143.4073  151.1050 LP  0  0  0  0  0  0  0  0  0  0  0  0  # atno 17342 bound_to 10162
  139.7732  143.8464  152.3124 LP  0  0  0  0  0  0  0  0  0  0  0  0  # atno 17343 bound_to 10162
  156.1044  130.5993  150.9947 LP  0  0  0  0  0  0  0  0  0  0  0  0  # atno 17370 bound_to 10713
  157.6506  131.0897  150.8060 LP  0  0  0  0  0  0  0  0  0  0  0  0  # atno 17371 bound_to 10713
  140.6668  134.4909  157.5586 LP  0  0  0  0  0  0  0  0  0  0  0  0  # atno 17394 bound_to 11000
  139.9112  134.8341  156.1522 LP  0  0  0  0  0  0  0  0  0  0  0  0  # atno 17395 bound_to 11000

$$$$
