#       Name:                AV-unprocessed.smi:1786
#       Creating user name   scv26
#       Creation time:       Fri Mar 27 08:44:42 2020


#       File generated by GOLD software.
#

@<TRIPOS>MOLECULE
AV-unprocessed.smi:1786
    48    49     1
SMALL
NO_CHARGES


@<TRIPOS>ATOM
      1 ****        -1.6977   0.6555   2.2500 C.3            1 S1                 0.0000
      2 ****        -1.7783   1.8574   1.2883 C.3            1 S1                 0.0000
      3 ****        -2.4630   3.0373   2.0127 C.3            1 S1                 0.0000
      4 ****        -2.5662   4.2779   1.1204 C.3            1 S1                 0.0000
      5 ****        -1.1738   4.6576   0.6129 C.3            1 S1                 0.0000
      6 ****        -0.5259   3.4714  -0.1151 C.3            1 S1                 0.0000
      7 ****        -0.4395   2.2647   0.7527 N.4            1 S1                 1.0000
      8 ****         0.3060   1.1680   0.0762 C.3            1 S1                 0.0000
      9 ****         1.4122   0.5874   0.9784 C.3            1 S1                 0.0000
     10 ****         2.1265  -0.4960   0.3140 N.am           1 S1                 0.0000
     11 ****         1.6397  -1.7332   0.1325 C.2            1 S1                 0.0000
     12 ****         0.5382  -2.0906   0.5518 O.2            1 S1                 0.0000
     13 ****         2.5394  -2.7162  -0.6280 C.3            1 S1                 0.0000
     14 ****         1.7776  -3.5916  -1.5339 N.am           1 S1                 0.0000
     15 ****         1.4929  -4.8961  -1.0831 C.2            1 S1                 0.0000
     16 ****         0.7984  -5.7691  -1.8298 C.2            1 S1                 0.0000
     17 ****         0.3404  -5.3424  -3.1309 C.2            1 S1                 0.0000
     18 ****         0.6046  -4.0959  -3.5704 C.2            1 S1                 0.0000
     19 ****         1.3575  -3.1362  -2.7550 C.2            1 S1                 0.0000
     20 ****         1.5939  -1.9916  -3.1440 O.2            1 S1                 0.0000
     21 ****        -2.6803   0.4209   2.6603 H              1 S1                 0.0000
     22 ****        -1.0353   0.8631   3.0910 H              1 S1                 0.0000
     23 ****        -1.3447  -0.2494   1.7559 H              1 S1                 0.0000
     24 ****        -2.4025   1.5703   0.4403 H              1 S1                 0.0000
     25 ****        -3.4617   2.7453   2.3401 H              1 S1                 0.0000
     26 ****        -1.9060   3.2888   2.9164 H              1 S1                 0.0000
     27 ****        -3.2287   4.0765   0.2776 H              1 S1                 0.0000
     28 ****        -3.0062   5.1070   1.6753 H              1 S1                 0.0000
     29 ****        -1.2427   5.5146  -0.0579 H              1 S1                 0.0000
     30 ****        -0.5449   4.9671   1.4489 H              1 S1                 0.0000
     31 ****        -1.0930   3.2309  -1.0161 H              1 S1                 0.0000
     32 ****         0.4749   3.7622  -0.4378 H              1 S1                 0.0000
     33 ****        -0.3848   0.3941  -0.2611 H              1 S1                 0.0000
     34 ****         0.7815   1.5359  -0.8346 H              1 S1                 0.0000
     35 ****         2.1336   1.3667   1.2259 H              1 S1                 0.0000
     36 ****         1.0120   0.2285   1.9266 H              1 S1                 0.0000
     37 ****         3.0452  -0.2869  -0.0502 H              1 S1                 0.0000
     38 ****         3.2995  -2.1697  -1.1901 H              1 S1                 0.0000
     39 ****         3.0932  -3.3050   0.1046 H              1 S1                 0.0000
     40 ****         1.8646  -5.1351  -0.0971 H              1 S1                 0.0000
     41 ****         0.5850  -6.7633  -1.4655 H              1 S1                 0.0000
     42 ****        -0.2168  -6.0256  -3.7550 H              1 S1                 0.0000
     43 ****         0.2543  -3.7944  -4.5468 H              1 S1                 0.0000
     44 ****         0.1196   2.5372   1.5484 H              1 S1                 0.0000
     45 ****        -0.0387  -1.4464   1.0540 LP             1 S1                 0.0000
     46 ****         0.2208  -3.0249   0.3901 LP             1 S1                 0.0000
     47 ****         2.1080  -1.3617  -2.5617 LP             1 S1                 0.0000
     48 ****         1.2718  -1.6922  -4.0421 LP             1 S1                 0.0000
@<TRIPOS>BOND
    1    1    2 1     
    2    1   21 1     
    3    1   22 1     
    4    1   23 1     
    5    2    7 1     
    6    2    3 1     
    7    2   24 1     
    8    3    4 1     
    9    3   25 1     
   10    3   26 1     
   11    4    5 1     
   12    4   27 1     
   13    4   28 1     
   14    5    6 1     
   15    5   29 1     
   16    5   30 1     
   17    6    7 1     
   18    6   31 1     
   19    6   32 1     
   20    7    8 1     
   21    7   44 1     
   22    8    9 1     
   23    8   33 1     
   24    8   34 1     
   25    9   10 1     
   26    9   35 1     
   27    9   36 1     
   28   10   11 am    
   29   10   37 1     
   30   11   12 2     
   31   11   13 1     
   32   13   14 1     
   33   13   38 1     
   34   13   39 1     
   35   14   19 am    
   36   14   15 1     
   37   15   16 2     
   38   15   40 1     
   39   16   17 1     
   40   16   41 1     
   41   17   18 2     
   42   17   42 1     
   43   18   19 1     
   44   18   43 1     
   45   19   20 2     
   46   12   45 1     
   47   12   46 1     
   48   20   47 1     
   49   20   48 1     
@<TRIPOS>SUBSTRUCTURE
      1 S1             1
@<TRIPOS>SET
LONE_PAIRS      STATIC     ATOMS    <user>   **** ""
4 45 46 47 48
DONOR_HYDROGENS      STATIC     ATOMS    <user>   **** ""
2 44 37
ATOM$BLUE        STATIC     ATOMS    COLORGROUP SYSTEM
4 45 46 47 48
ATOM$RED        STATIC     ATOMS    COLORGROUP SYSTEM
2 44 37
