AV-unprocessed.smi:158|AV-procd|sdf|1333|dock8
  -GOLD-   2262019 33D 1   1.00000     0.00000
 Structure written by MMmdl.
 31 33  0  0  0  0  0  0  0  0  1 V2000
  143.9331  141.8872  155.0425 N   0  0  0  0  0  0  0  0  0  0  0  0
  145.1366  141.9748  155.6259 C   0  0  0  0  0  0  0  0  0  0  0  0
  145.2173  142.5427  156.8510 N   0  0  0  0  0  0  0  0  0  0  0  0
  146.3999  142.6503  157.4674 C   0  0  0  0  0  0  0  0  0  0  0  0
  146.3902  143.3897  159.0248 Cl  0  0  0  0  0  0  0  0  0  0  0  0
  147.5904  142.2504  157.0100 N   0  0  0  0  0  0  0  0  0  0  0  0
  147.5188  141.6757  155.7738 C   0  0  0  0  0  0  0  0  0  0  0  0
  146.3261  141.5018  155.0197 C   0  0  0  0  0  0  0  0  0  0  0  0
  146.6130  140.8824  153.8121 N   0  0  0  0  0  0  0  0  0  0  0  0
  147.9052  140.7027  153.8533 C   0  0  0  0  0  0  0  0  0  0  0  0
  148.5362  141.1545  154.9924 N   0  0  0  0  0  0  0  0  0  0  0  0
  150.0090  141.0757  155.2816 C   0  0  2  0  0  0  0  0  0  0  0  0
  150.6136  140.1705  154.4017 O   0  0  0  0  0  0  0  0  0  0  0  0
  150.9799  138.9521  155.0635 C   0  0  1  0  0  0  0  0  0  0  0  0
  152.5216  138.9067  155.1229 C   0  0  0  0  0  0  0  0  0  0  0  0
  152.9498  137.6026  155.4520 O   0  0  0  0  0  0  0  0  0  0  0  0
  150.2708  139.0449  156.4262 C   0  0  1  0  0  0  0  0  0  0  0  0
  150.8569  138.3112  157.4837 O   0  0  0  0  0  0  0  0  0  0  0  0
  150.2306  140.5362  156.6939 C   0  0  1  0  0  0  0  0  0  0  0  0
  151.4040  140.9956  157.1337 F   0  0  0  0  0  0  0  0  0  0  0  0
  150.3677  142.0941  155.1284 H   0  0  0  0  0  0  0  0  0  0  0  0
  150.6063  138.0861  154.5151 H   0  0  0  0  0  0  0  0  0  0  0  0
  149.2470  138.6860  156.3132 H   0  0  0  0  0  0  0  0  0  0  0  0
  149.4535  140.8532  157.3906 H   0  0  0  0  0  0  0  0  0  0  0  0
  143.8475  141.4678  154.1278 H   0  0  0  0  0  0  0  0  0  0  0  0
  143.1148  142.2397  155.5174 H   0  0  0  0  0  0  0  0  0  0  0  0
  148.4425  140.2336  153.0418 H   0  0  0  0  0  0  0  0  0  0  0  0
  152.9736  139.2217  154.1823 H   0  0  0  0  0  0  0  0  0  0  0  0
  152.9040  139.5654  155.9022 H   0  0  0  0  0  0  0  0  0  0  0  0
  153.7079  137.6676  156.0124 H   0  0  0  0  0  0  0  0  0  0  0  0
  150.8121  138.8325  158.2708 H   0  0  0  0  0  0  0  0  0  0  0  0
  1  2  1  0  0  0  0
  1 25  1  0  0  0  0
  1 26  1  0  0  0  0
  2  8  1  0  0  0  0
  2  3  2  0  0  0  0
  3  4  1  0  0  0  0
  4  5  1  0  0  0  0
  4  6  2  0  0  0  0
  6  7  1  0  0  0  0
  7 11  1  0  0  0  0
  7  8  2  0  0  0  0
  8  9  1  0  0  0  0
  9 10  2  0  0  0  0
 10 11  1  0  0  0  0
 10 27  1  0  0  0  0
 11 12  1  0  0  0  0
 12 21  1  0  0  0  0
 12 19  1  0  0  0  0
 12 13  1  0  0  0  0
 13 14  1  0  0  0  0
 14 22  1  0  0  0  0
 14 15  1  0  0  0  0
 14 17  1  0  0  0  0
 15 16  1  0  0  0  0
 15 28  1  0  0  0  0
 15 29  1  0  0  0  0
 16 30  1  0  0  0  0
 17 23  1  0  0  0  0
 17 18  1  0  0  0  0
 17 19  1  0  0  0  0
 18 31  1  0  0  0  0
 19 24  1  0  0  0  0
 19 20  1  0  0  0  0
M  END
> <s_m_source_file>
AV-unprocessed.smi

> <i_m_source_file_index>
158

> <i_lp_mmshare_version>
43012

> <i_f3d_flags>
0

> <s_epik_input>
Q2xjKG4xKW5jKFtOSDJdKWMoYzEyKW5bY0hdbjJbQ0BASF0zT1tDQEhdKFtDSDJdW09IXSlbQ0BASF0oW09IXSlbQ0BASF0zRg==

> <s_epik_cmdline>
J2VwaWtfcHl0aG9uJywgJy1waCcsICc3LjAnLCAnLXRuJywgJzgnLCAnLW1hJywgJzIwMCcsICctbWV0YWxfYmluZGluZycsICctaW1hZScsICc8aW5maWxlLm1hZT4nLCAnLW9tYWUnLCAnPG91dGZpbGUubWFlPic=

> <r_lp_tautomer_probability>
1

> <r_epik_Ionization_Penalty>
6.51543e-05

> <r_epik_Ionization_Penalty_Charging>
0

> <r_epik_Ionization_Penalty_Neutral>
6.51543e-05

> <r_epik_State_Penalty>
-0

> <r_epik_Charging_Adjusted_Penalty>
0

> <i_epik_Tot_Q>
0

> <i_epik_Tot_abs_Q>
0

> <r_epik_Metal_State_Penalty>
-0

> <b_epik_Metal_Only>
0

> <s_epik_Chemistry_Notes>
This compound contains an acetal/aminal-like group ( X-CH(R)-Y where X, Y are N, S, or O) that may be acid/base labile, releasing an aldehyde.

> <s_lp_Force_Field>
OPLS_2005

> <r_lp_Energy>
36.1336

> <b_lp_Chiralities_Consistent>
1

> <s_lp_Variant>
AV-unprocessed.smi:158-11

> <Gold.Version>
5.8.1

> <Gold.Id.Protein>
6NUR|6NUR_protein|mol2

> <Gold.PLP.Fitness>
35.7497

> <Gold.PLP.PLP>
-27.0514

> <Gold.PLP.part.hbond>
-3.3078

> <Gold.PLP.part.metal>
0.0000

> <Gold.PLP.part.buried>
-5.0676

> <Gold.PLP.part.nonpolar>
-20.6532

> <Gold.PLP.part.repulsive>
0.8881

> <Gold.PLP.ligand.clash>
0.0000

> <Gold.PLP.ligand.torsion>
0.4819

> <Gold.PLP.Chemscore.Hbond>
2.2157

> <Gold.PLP.Chemscore.CHOScore>
1.0000

> <Gold.PLP.Chemscore.Metal>
0.0000

> <Gold.Chemscore.Hbonds>
donor molecule, donor type, donor heavy atom, donor atom, acceptor molecule, acceptor atom, score
      L1  H     1    25       P1 10175  0.90
      P1  H  7989  7998       L1    13  0.99
      P1  H 10752 10765       L1    16  0.31
      L1  C    10    27       P1  7957  1.00

> <Gold.PLP.Chemscore.Internal.Correction>
0.0148

> <Gold.Rescore>
     Score         DG    S(hbond)    S(metal)    S(lipo)     H(rot)  DE(clash)    DE(int)     intcor
      7.11      -7.42       2.01        0.00      27.35       3.12       0.00       0.31       ----

> <Gold.Chemscore.Fitness>
7.1051

> <Gold.Chemscore.DG>
-7.4154

> <Gold.Chemscore.ZeroCoef>
-5.4800

> <Gold.Chemscore.Hbond>
2.0150

> <Gold.Chemscore.Metal>
0.0000

> <Gold.Chemscore.Lipo>
27.3532

> <Gold.Chemscore.Internal_Hbond>
0.0000

> <Gold.Chemscore.DEClash>
0.0000

> <Gold.Chemscore.DEInternal>
0.3103

> <Gold.Chemscore.Rot>
3.1230

> <Gold.Chemscore.Internal.Correction>
   9.000000E+99

> <Gold.Chemscore.Hbonds>
donor molecule, donor type, donor heavy atom, donor atom, acceptor molecule, acceptor atom, score
      L1  H     1    25       P1 10175  0.18
      P1  H  7989  7998       L1    13  0.71
      P1  H 10752 10765       L1    16  0.08

> <Gold.Chemscore.Hbond.Weighted>
-6.7300

> <Gold.Chemscore.Metal.Weighted>
-0.0000

> <Gold.Chemscore.Lipo.Weighted>
-3.2003

> <Gold.Chemscore.Internal_Hbond.Weighted>
0.0000

> <Gold.Chemscore.DEClash.Weighted>
0.0000

> <Gold.Chemscore.DEInternal.Weighted>
0.3103

> <Gold.Chemscore.Rot.Weighted>
7.9950

> <Gold.Chemscore.Internal.Correction.Weighted>
   9.000000E+99

> <Gold.Protein.RotatedTorsions>
[ 6907 6896 6895 6894 ] final   90.31 input  -60.11 | X-H torsion
[ 7974 7965 7964 7962 ] final   31.30 input  175.53 | X-H torsion
[ 8008 7997 7996 7995 ] final -166.48 input   59.86 | X-H torsion
[ 10167 10162 10161 10158 ] final   52.96 input  -65.29 | X-H torsion
[ 10718 10713 10712 10709 ] final  -15.43 input   66.30 | X-H torsion
[ 10763 10752 10751 10750 ] final -161.89 input  -60.55 | X-H torsion
[ 11005 11000 10999 10996 ] final  -51.26 input  -57.11 | X-H torsion

> <Gold.Protein.ActiveResidues>
 VAL166  LYS551  ARG553  GLY616  TRP617  ASP618  TYR619  PRO620  LYS621  CYS622 
 ASP623  PHE694  ASN695  SER759  ASP760  ASP761  ALA762  ILE779  LEU786  VAL792 
 PHE793  MET794  SER795  GLU796  ALA797  LYS798  CYS799  TRP800  GLU811  SER814 

> <Gold.Protein.RotatedAtoms>
  152.5443  134.1832  159.8643 H   0  0  0  0  0  0  0  0  0  0  0  0  # atno 6907 bound_to 6896
  151.1833  133.4705  159.2602 H   0  0  0  0  0  0  0  0  0  0  0  0  # atno 6908 bound_to 6896
  151.1156  135.0063  159.8570 H   0  0  0  0  0  0  0  0  0  0  0  0  # atno 6909 bound_to 6896
  146.1559  139.6675  142.9067 H   0  0  0  0  0  0  0  0  0  0  0  0  # atno 7974 bound_to 7965
  155.8644  140.0983  157.1592 H   0  0  0  0  0  0  0  0  0  0  0  0  # atno 8008 bound_to 7997
  154.3992  140.1359  156.4063 H   0  0  0  0  0  0  0  0  0  0  0  0  # atno 8009 bound_to 7997
  155.7820  140.3458  155.5305 H   0  0  0  0  0  0  0  0  0  0  0  0  # atno 8010 bound_to 7997
  140.2459  144.3533  150.6364 H   0  0  0  0  0  0  0  0  0  0  0  0  # atno 10167 bound_to 10162
  156.6019  130.4826  149.6236 H   0  0  0  0  0  0  0  0  0  0  0  0  # atno 10718 bound_to 10713
  154.7264  135.3036  154.8964 H   0  0  0  0  0  0  0  0  0  0  0  0  # atno 10763 bound_to 10752
  153.9821  135.6729  153.4754 H   0  0  0  0  0  0  0  0  0  0  0  0  # atno 10764 bound_to 10752
  153.0878  135.4975  154.8551 H   0  0  0  0  0  0  0  0  0  0  0  0  # atno 10765 bound_to 10752
  141.0861  133.6642  156.3851 H   0  0  0  0  0  0  0  0  0  0  0  0  # atno 11005 bound_to 11000
  145.4710  141.0436  143.2698 LP  0  0  0  0  0  0  0  0  0  0  0  0  # atno 17320 bound_to 7965
  144.7962  139.6229  143.7091 LP  0  0  0  0  0  0  0  0  0  0  0  0  # atno 17321 bound_to 7965
  140.6078  143.2168  151.6946 LP  0  0  0  0  0  0  0  0  0  0  0  0  # atno 17342 bound_to 10162
  139.5062  144.3690  152.0488 LP  0  0  0  0  0  0  0  0  0  0  0  0  # atno 17343 bound_to 10162
  156.2462  130.6880  151.1602 LP  0  0  0  0  0  0  0  0  0  0  0  0  # atno 17370 bound_to 10713
  157.7277  131.0637  150.5852 LP  0  0  0  0  0  0  0  0  0  0  0  0  # atno 17371 bound_to 10713
  140.5359  134.6167  157.5365 LP  0  0  0  0  0  0  0  0  0  0  0  0  # atno 17394 bound_to 11000
  139.9680  134.7341  156.0100 LP  0  0  0  0  0  0  0  0  0  0  0  0  # atno 17395 bound_to 11000

$$$$
