#       Name:                AV-unprocessed.smi:1947
#       Creating user name   scv26
#       Creation time:       Fri Mar 27 10:02:22 2020


#       File generated by GOLD software.
#

@<TRIPOS>MOLECULE
AV-unprocessed.smi:1947
    45    46     1
SMALL
NO_CHARGES


@<TRIPOS>ATOM
      1 ****        -0.9653   2.1466   3.2711 C.3            1 S1                 0.0000
      2 ****        -1.4159   2.3053   1.8107 C.3            1 S1                 0.0000
      3 ****        -2.4551   1.2380   1.4111 C.3            1 S1                 0.0000
      4 ****        -2.9278   1.4243  -0.0396 C.3            1 S1                 0.0000
      5 ****        -1.7423   1.4370  -1.0164 C.3            1 S1                 0.0000
      6 ****        -0.7071   2.5031  -0.6205 C.3            1 S1                 0.0000
      7 ****        -0.2199   2.3117   0.8323 C.3            1 S1                 0.0000
      8 ****         0.4681   1.0728   0.9539 O.3            1 S1                 0.0000
      9 ****         1.8378   1.1135   0.5824 C.3            1 S1                 0.0000
     10 ****         2.3618  -0.3229   0.4982 C.3            1 S1                 0.0000
     11 ****         1.7034  -1.0325  -0.5908 N.am           1 S1                 0.0000
     12 ****         1.9172  -2.3106  -0.9265 C.2            1 S1                 0.0000
     13 ****         2.7355  -2.9829  -0.2950 O.2            1 S1                 0.0000
     14 ****         1.1675  -2.7301  -1.9712 N.pl3          1 S1                -1.0000
     15 ****         1.2782  -3.9924  -2.4163 C.2            1 S1                 0.0000
     16 ****         2.0162  -4.3123  -3.4915 N.2            1 S1                 0.0000
     17 ****         1.9881  -5.6680  -3.7894 N.2            1 S1                 0.0000
     18 ****         1.2202  -6.3381  -2.9307 C.2            1 S1                 0.0000
     19 ****         0.4603  -5.3743  -1.6821 S.3            1 S1                 0.0000
     20 ****        -0.4810   1.1839   3.4376 H              1 S1                 0.0000
     21 ****        -1.8144   2.2119   3.9519 H              1 S1                 0.0000
     22 ****        -0.2579   2.9277   3.5506 H              1 S1                 0.0000
     23 ****        -1.9033   3.2785   1.7349 H              1 S1                 0.0000
     24 ****        -2.0276   0.2411   1.5290 H              1 S1                 0.0000
     25 ****        -3.3139   1.2841   2.0814 H              1 S1                 0.0000
     26 ****        -3.6230   0.6286  -0.3091 H              1 S1                 0.0000
     27 ****        -3.4812   2.3603  -0.1252 H              1 S1                 0.0000
     28 ****        -1.2697   0.4538  -1.0320 H              1 S1                 0.0000
     29 ****        -2.0980   1.6229  -2.0301 H              1 S1                 0.0000
     30 ****         0.1284   2.4827  -1.3194 H              1 S1                 0.0000
     31 ****        -1.1557   3.4921  -0.7205 H              1 S1                 0.0000
     32 ****         0.4474   3.1313   1.1061 H              1 S1                 0.0000
     33 ****         1.9826   1.6150  -0.3747 H              1 S1                 0.0000
     34 ****         2.3970   1.6761   1.3309 H              1 S1                 0.0000
     35 ****         3.4380  -0.3141   0.3206 H              1 S1                 0.0000
     36 ****         2.1917  -0.8443   1.4416 H              1 S1                 0.0000
     37 ****         1.0226  -0.5157  -1.1279 H              1 S1                 0.0000
     38 ****         1.0980  -7.4057  -3.0350 H              1 S1                 0.0000
     39 ****         0.0076   0.4028   0.3716 LP             1 S1                 0.0000
     40 ****         0.4132   0.7788   1.9081 LP             1 S1                 0.0000
     41 ****         3.2380  -2.5731   0.4663 LP             1 S1                 0.0000
     42 ****         2.8966  -3.9378  -0.5442 LP             1 S1                 0.0000
     43 ****         0.5296  -2.0992  -2.4130 LP             1 S1                 0.0000
     44 ****         2.5335  -3.6420  -4.0236 LP             1 S1                 0.0000
     45 ****         2.4812  -6.0881  -4.5512 LP             1 S1                 0.0000
@<TRIPOS>BOND
    1    1    2 1     
    2    1   20 1     
    3    1   21 1     
    4    1   22 1     
    5    2    7 1     
    6    2    3 1     
    7    2   23 1     
    8    3    4 1     
    9    3   24 1     
   10    3   25 1     
   11    4    5 1     
   12    4   26 1     
   13    4   27 1     
   14    5    6 1     
   15    5   28 1     
   16    5   29 1     
   17    6    7 1     
   18    6   30 1     
   19    6   31 1     
   20    7    8 1     
   21    7   32 1     
   22    8    9 1     
   23    9   10 1     
   24    9   33 1     
   25    9   34 1     
   26   10   11 1     
   27   10   35 1     
   28   10   36 1     
   29   11   12 am    
   30   11   37 1     
   31   12   13 2     
   32   12   14 1     
   33   14   15 1     
   34   15   19 1     
   35   15   16 2     
   36   16   17 1     
   37   17   18 2     
   38   18   19 1     
   39   18   38 1     
   40    8   39 1     
   41    8   40 1     
   42   13   41 1     
   43   13   42 1     
   44   14   43 1     
   45   16   44 1     
   46   17   45 1     
@<TRIPOS>SUBSTRUCTURE
      1 S1             1
@<TRIPOS>SET
LONE_PAIRS      STATIC     ATOMS    <user>   **** ""
7 39 40 41 42 43 44 45
DONOR_HYDROGENS      STATIC     ATOMS    <user>   **** ""
1 37
ATOM$BLUE        STATIC     ATOMS    COLORGROUP SYSTEM
7 39 40 41 42 43 44 45
ATOM$RED        STATIC     ATOMS    COLORGROUP SYSTEM
1 37
