AV-unprocessed.smi:283|AV-procd|sdf|2146|dock6
  -GOLD-   2262021483D 1   1.00000     0.00000
 Structure written by MMmdl.
 48 51  0  0  0  0  0  0  0  0  1 V2000
  149.1942  142.1479  156.8211 C   0  0  0  0  0  0  0  0  0  0  0  0
  150.3519  141.2746  157.3227 C   0  0  1  0  0  0  0  0  0  0  0  0
  151.3029  141.0470  156.2367 N   0  0  0  0  0  0  0  0  0  0  0  0
  151.5256  139.8074  155.7462 C   0  0  0  0  0  0  0  0  0  0  0  0
  152.7722  139.5865  155.2652 N   0  0  0  0  0  0  0  0  0  0  0  0
  153.1009  138.3874  154.7771 C   0  0  0  0  0  0  0  0  0  0  0  0
  152.3459  137.2926  154.6770 N   0  0  0  0  0  0  0  0  0  0  0  0
  151.0830  137.5100  155.1458 C   0  0  0  0  0  0  0  0  0  0  0  0
  150.5904  138.7316  155.6882 C   0  0  0  0  0  0  0  0  0  0  0  0
  149.2549  138.5692  156.0398 N   0  0  0  0  0  0  0  0  0  0  0  0
  148.9868  137.3274  155.7423 C   0  0  0  0  0  0  0  0  0  0  0  0
  150.0312  136.6172  155.1969 N   0  0  0  0  0  0  0  0  0  0  0  0
  150.0395  135.1839  154.7645 C   0  0  2  0  0  0  0  0  0  0  0  0
  148.8841  134.9621  154.0148 O   0  0  0  0  0  0  0  0  0  0  0  0
  148.3701  133.6673  154.2937 C   0  0  1  0  0  0  0  0  0  0  0  0
  149.0371  132.6733  153.3165 C   0  0  0  0  0  0  0  0  0  0  0  0
  148.5456  132.8455  152.0040 O   0  0  0  0  0  0  0  0  0  0  0  0
  148.6966  133.4845  155.7850 C   0  0  1  0  0  0  0  0  0  0  0  0
  148.7628  132.1251  156.1712 O   0  0  0  0  0  0  0  0  0  0  0  0
  150.0407  134.1848  155.9458 C   0  0  2  0  0  0  0  0  0  0  0  0
  150.1533  134.7816  157.2260 O   0  0  0  0  0  0  0  0  0  0  0  0
  150.9597  141.8768  158.5933 C   0  0  0  0  0  0  0  0  0  0  0  0
  150.6908  143.2228  158.9358 C   0  0  0  0  0  0  0  0  0  0  0  0
  151.2422  143.7928  160.0985 C   0  0  0  0  0  0  0  0  0  0  0  0
  152.0630  143.0196  160.9386 C   0  0  0  0  0  0  0  0  0  0  0  0
  152.3258  141.6755  160.6164 C   0  0  0  0  0  0  0  0  0  0  0  0
  151.7762  141.0995  159.4535 C   0  0  0  0  0  0  0  0  0  0  0  0
  152.1213  139.4389  159.1169 Cl  0  0  0  0  0  0  0  0  0  0  0  0
  150.9247  135.0900  154.1340 H   0  0  0  0  0  0  0  0  0  0  0  0
  147.2923  133.6760  154.1257 H   0  0  0  0  0  0  0  0  0  0  0  0
  147.9345  133.9922  156.3783 H   0  0  0  0  0  0  0  0  0  0  0  0
  150.8670  133.4893  155.7912 H   0  0  0  0  0  0  0  0  0  0  0  0
  148.4243  142.2556  157.5858 H   0  0  0  0  0  0  0  0  0  0  0  0
  148.7224  141.7088  155.9415 H   0  0  0  0  0  0  0  0  0  0  0  0
  149.5374  143.1475  156.5521 H   0  0  0  0  0  0  0  0  0  0  0  0
  149.9283  140.3001  157.5593 H   0  0  0  0  0  0  0  0  0  0  0  0
  151.9537  141.8032  156.0828 H   0  0  0  0  0  0  0  0  0  0  0  0
  154.1147  138.2901  154.4178 H   0  0  0  0  0  0  0  0  0  0  0  0
  148.0118  136.8950  155.9130 H   0  0  0  0  0  0  0  0  0  0  0  0
  150.1116  132.8559  153.2850 H   0  0  0  0  0  0  0  0  0  0  0  0
  148.8998  131.6389  153.6324 H   0  0  0  0  0  0  0  0  0  0  0  0
  148.8658  132.1349  151.4692 H   0  0  0  0  0  0  0  0  0  0  0  0
  148.9442  132.0864  157.0979 H   0  0  0  0  0  0  0  0  0  0  0  0
  150.1149  135.7200  157.1240 H   0  0  0  0  0  0  0  0  0  0  0  0
  150.0590  143.8306  158.3050 H   0  0  0  0  0  0  0  0  0  0  0  0
  151.0339  144.8232  160.3458 H   0  0  0  0  0  0  0  0  0  0  0  0
  152.4865  143.4550  161.8316 H   0  0  0  0  0  0  0  0  0  0  0  0
  152.9512  141.0826  161.2675 H   0  0  0  0  0  0  0  0  0  0  0  0
  1  2  1  0  0  0  0
  1 33  1  0  0  0  0
  1 34  1  0  0  0  0
  1 35  1  0  0  0  0
  2  3  1  0  0  0  0
  2 22  1  0  0  0  0
  2 36  1  0  0  0  0
  3  4  1  0  0  0  0
  3 37  1  0  0  0  0
  4  9  1  0  0  0  0
  4  5  2  0  0  0  0
  5  6  1  0  0  0  0
  6  7  2  0  0  0  0
  6 38  1  0  0  0  0
  7  8  1  0  0  0  0
  8 12  1  0  0  0  0
  8  9  2  0  0  0  0
  9 10  1  0  0  0  0
 10 11  2  0  0  0  0
 11 12  1  0  0  0  0
 11 39  1  0  0  0  0
 12 13  1  0  0  0  0
 13 29  1  0  0  0  0
 13 20  1  0  0  0  0
 13 14  1  0  0  0  0
 14 15  1  0  0  0  0
 15 30  1  0  0  0  0
 15 16  1  0  0  0  0
 15 18  1  0  0  0  0
 16 17  1  0  0  0  0
 16 40  1  0  0  0  0
 16 41  1  0  0  0  0
 17 42  1  0  0  0  0
 18 31  1  0  0  0  0
 18 19  1  0  0  0  0
 18 20  1  0  0  0  0
 19 43  1  0  0  0  0
 20 32  1  0  0  0  0
 20 21  1  0  0  0  0
 21 44  1  0  0  0  0
 22 27  1  0  0  0  0
 22 23  2  0  0  0  0
 23 24  1  0  0  0  0
 23 45  1  0  0  0  0
 24 25  2  0  0  0  0
 24 46  1  0  0  0  0
 25 26  1  0  0  0  0
 25 47  1  0  0  0  0
 26 27  2  0  0  0  0
 26 48  1  0  0  0  0
 27 28  1  0  0  0  0
M  END
> <s_m_source_file>
AV-unprocessed.smi

> <i_m_source_file_index>
283

> <i_lp_mmshare_version>
43012

> <i_f3d_flags>
0

> <s_epik_input>
Q2xjMVtjSF1bY0hdW2NIXVtjSF1jMVtDQEhdKFtDSDNdKVtOSF1jKG5bY0hdbjIpYyhjMjMpbltjSF1uM1tDQEBIXTRPW0NASF0oW0NIMl1bT0hdKVtDQEBIXShbT0hdKVtDQEhdNFtPSF0=

> <s_epik_cmdline>
J2VwaWtfcHl0aG9uJywgJy1waCcsICc3LjAnLCAnLXRuJywgJzgnLCAnLW1hJywgJzIwMCcsICctbWV0YWxfYmluZGluZycsICctaW1hZScsICc8aW5maWxlLm1hZT4nLCAnLW9tYWUnLCAnPG91dGZpbGUubWFlPic=

> <r_lp_tautomer_probability>
1

> <r_epik_Ionization_Penalty>
0.000266407

> <r_epik_Ionization_Penalty_Charging>
0

> <r_epik_Ionization_Penalty_Neutral>
0.000266407

> <r_epik_State_Penalty>
-0

> <r_epik_Charging_Adjusted_Penalty>
0

> <i_epik_Tot_Q>
0

> <i_epik_Tot_abs_Q>
0

> <r_epik_Metal_State_Penalty>
-0

> <b_epik_Metal_Only>
0

> <s_epik_Chemistry_Notes>
This compound contains an acetal/aminal-like group ( X-CH(R)-Y where X, Y are N, S, or O) that may be acid/base labile, releasing an aldehyde.

> <s_lp_Force_Field>
OPLS_2005

> <r_lp_Energy>
50.6684

> <b_lp_Chiralities_Consistent>
1

> <s_lp_Variant>
AV-unprocessed.smi:283-22

> <Gold.Version>
5.8.1

> <Gold.Id.Protein>
6NUR|6NUR_protein|mol2

> <Gold.PLP.Fitness>
55.1668

> <Gold.PLP.PLP>
-47.6155

> <Gold.PLP.part.hbond>
-5.0000

> <Gold.PLP.part.metal>
0.0000

> <Gold.PLP.part.buried>
-7.4750

> <Gold.PLP.part.nonpolar>
-35.7998

> <Gold.PLP.part.repulsive>
1.3447

> <Gold.PLP.ligand.clash>
0.0000

> <Gold.PLP.ligand.torsion>
0.9433

> <Gold.PLP.Chemscore.Hbond>
3.1105

> <Gold.PLP.Chemscore.CHOScore>
0.0000

> <Gold.PLP.Chemscore.Metal>
0.0000

> <Gold.Chemscore.Hbonds>
donor molecule, donor type, donor heavy atom, donor atom, acceptor molecule, acceptor atom, score
      L1  H    17    42       P1 10747  1.00
      P1  H  6896  6907       L1    21  0.23
      P1  H  7997  8010       L1     5  1.00
      P1  H 10752 10765       L1     7  0.72

> <Gold.PLP.Chemscore.Internal.Correction>
0.1064

> <Gold.Rescore>
     Score         DG    S(hbond)    S(metal)    S(lipo)     H(rot)  DE(clash)    DE(int)     intcor
     12.08     -14.44       2.49        0.00      95.11       4.10       1.48       0.88       ----

> <Gold.Chemscore.Fitness>
12.0794

> <Gold.Chemscore.DG>
-14.4443

> <Gold.Chemscore.ZeroCoef>
-5.4800

> <Gold.Chemscore.Hbond>
2.4922

> <Gold.Chemscore.Metal>
0.0000

> <Gold.Chemscore.Lipo>
95.1135

> <Gold.Chemscore.Internal_Hbond>
0.0000

> <Gold.Chemscore.DEClash>
1.4844

> <Gold.Chemscore.DEInternal>
0.8805

> <Gold.Chemscore.Rot>
4.0968

> <Gold.Chemscore.Internal.Correction>
   9.000000E+99

> <Gold.Chemscore.Hbonds>
donor molecule, donor type, donor heavy atom, donor atom, acceptor molecule, acceptor atom, score
      L1  H    17    42       P1 10747  0.97
      P1  H  6896  6907       L1    21  0.23
      P1  H  7997  8010       L1     5  0.40
      P1  H 10752 10765       L1     7  0.71

> <Gold.Chemscore.Hbond.Weighted>
-8.3239

> <Gold.Chemscore.Metal.Weighted>
-0.0000

> <Gold.Chemscore.Lipo.Weighted>
-11.1283

> <Gold.Chemscore.Internal_Hbond.Weighted>
0.0000

> <Gold.Chemscore.DEClash.Weighted>
1.4844

> <Gold.Chemscore.DEInternal.Weighted>
0.8805

> <Gold.Chemscore.Rot.Weighted>
10.4879

> <Gold.Chemscore.Internal.Correction.Weighted>
   9.000000E+99

> <Gold.Protein.RotatedTorsions>
[ 6907 6896 6895 6894 ] final -111.45 input  -60.11 | X-H torsion
[ 7974 7965 7964 7962 ] final -163.55 input  175.53 | X-H torsion
[ 8008 7997 7996 7995 ] final   94.34 input   59.86 | X-H torsion
[ 10167 10162 10161 10158 ] final -128.98 input  -65.29 | X-H torsion
[ 10718 10713 10712 10709 ] final  120.32 input   66.30 | X-H torsion
[ 10763 10752 10751 10750 ] final  162.47 input  -60.55 | X-H torsion
[ 11005 11000 10999 10996 ] final  -87.92 input  -57.11 | X-H torsion

> <Gold.Protein.ActiveResidues>
 VAL166  LYS551  ARG553  GLY616  TRP617  ASP618  TYR619  PRO620  LYS621  CYS622 
 ASP623  PHE694  ASN695  SER759  ASP760  ASP761  ALA762  ILE779  LEU786  VAL792 
 PHE793  MET794  SER795  GLU796  ALA797  LYS798  CYS799  TRP800  GLU811  SER814 

> <Gold.Protein.RotatedAtoms>
  150.7691  133.9234  159.3404 H   0  0  0  0  0  0  0  0  0  0  0  0  # atno 6907 bound_to 6896
  151.7125  135.0908  160.0279 H   0  0  0  0  0  0  0  0  0  0  0  0  # atno 6908 bound_to 6896
  152.3700  133.6369  159.6116 H   0  0  0  0  0  0  0  0  0  0  0  0  # atno 6909 bound_to 6896
  144.7322  140.3090  143.6191 H   0  0  0  0  0  0  0  0  0  0  0  0  # atno 7974 bound_to 7965
  156.0569  140.3301  155.7415 H   0  0  0  0  0  0  0  0  0  0  0  0  # atno 8008 bound_to 7997
  155.5516  140.0611  157.2866 H   0  0  0  0  0  0  0  0  0  0  0  0  # atno 8009 bound_to 7997
  154.4462  140.1893  156.0680 H   0  0  0  0  0  0  0  0  0  0  0  0  # atno 8010 bound_to 7997
  139.9446  143.6124  152.2493 H   0  0  0  0  0  0  0  0  0  0  0  0  # atno 10167 bound_to 10162
  157.5899  131.1065  150.8019 H   0  0  0  0  0  0  0  0  0  0  0  0  # atno 10718 bound_to 10713
  154.2789  135.2764  155.2705 H   0  0  0  0  0  0  0  0  0  0  0  0  # atno 10763 bound_to 10752
  154.5235  135.5749  153.6704 H   0  0  0  0  0  0  0  0  0  0  0  0  # atno 10764 bound_to 10752
  152.9932  135.6210  154.2948 H   0  0  0  0  0  0  0  0  0  0  0  0  # atno 10765 bound_to 10752
  141.1610  133.7539  156.9377 H   0  0  0  0  0  0  0  0  0  0  0  0  # atno 11005 bound_to 11000
  145.7684  139.1848  143.2226 LP  0  0  0  0  0  0  0  0  0  0  0  0  # atno 17320 bound_to 7965
  146.0930  140.7633  142.9586 LP  0  0  0  0  0  0  0  0  0  0  0  0  # atno 17321 bound_to 7965
  139.6677  144.7662  151.1842 LP  0  0  0  0  0  0  0  0  0  0  0  0  # atno 17342 bound_to 10162
  140.7601  143.5913  150.8793 LP  0  0  0  0  0  0  0  0  0  0  0  0  # atno 17343 bound_to 10162
  156.8444  130.5059  149.5318 LP  0  0  0  0  0  0  0  0  0  0  0  0  # atno 17370 bound_to 10713
  156.0952  130.5927  150.9802 LP  0  0  0  0  0  0  0  0  0  0  0  0  # atno 17371 bound_to 10713
  140.1343  134.9335  157.2380 LP  0  0  0  0  0  0  0  0  0  0  0  0  # atno 17394 bound_to 11000
  140.2914  134.3236  155.7314 LP  0  0  0  0  0  0  0  0  0  0  0  0  # atno 17395 bound_to 11000

$$$$
