AV-unprocessed.smi:2417|AV-procd|sdf|9549|dock6
  -GOLD-   2272013183D 1   1.00000     0.00000
 Structure written by MMmdl.
 38 39  0  0  0  0  0  0  0  0  1 V2000
  151.2707  130.8920  154.7735 C   0  0  0  0  0  0  0  0  0  0  0  0
  151.1081  132.3895  154.9650 C   0  0  0  0  0  0  0  0  0  0  0  0
  150.1112  132.9925  154.1924 N   0  0  0  0  0  0  0  0  0  0  0  0
  149.9031  134.2650  154.2875 C   0  0  0  0  0  0  0  0  0  0  0  0
  150.6525  135.0718  155.1590 N   0  0  0  0  0  0  0  0  0  0  0  0
  150.3173  136.5051  155.1713 C   0  0  0  0  0  0  0  0  0  0  0  0
  151.5642  137.3952  154.9668 C   0  0  1  0  0  0  0  0  0  0  0  0
  151.9506  137.3976  153.6074 O   0  0  0  0  0  0  0  0  0  0  0  0
  151.3389  138.8558  155.3910 C   0  0  0  0  0  0  0  0  0  0  0  0
  151.6391  139.0106  156.7733 O   0  0  0  0  0  0  0  0  0  0  0  0
  151.6696  140.2852  157.2965 C   0  0  0  0  0  0  0  0  0  0  0  0
  150.8315  141.2448  156.6917 C   0  0  0  0  0  0  0  0  0  0  0  0
  150.7963  142.5711  157.1634 C   0  0  0  0  0  0  0  0  0  0  0  0
  151.6048  142.9526  158.2499 C   0  0  0  0  0  0  0  0  0  0  0  0
  151.5728  144.2271  158.7057 F   0  0  0  0  0  0  0  0  0  0  0  0
  152.4472  142.0061  158.8620 C   0  0  0  0  0  0  0  0  0  0  0  0
  152.4817  140.6793  158.3903 C   0  0  0  0  0  0  0  0  0  0  0  0
  151.6499  134.5664  155.9409 C   0  0  0  0  0  0  0  0  0  0  0  0
  152.3131  135.2877  156.6888 O   0  0  0  0  0  0  0  0  0  0  0  0
  151.8745  133.1167  155.8232 C   0  0  0  0  0  0  0  0  0  0  0  0
  152.9775  132.5159  156.6857 C   0  0  0  0  0  0  0  0  0  0  0  0
  151.1013  130.3649  155.7128 H   0  0  0  0  0  0  0  0  0  0  0  0
  152.2754  130.6600  154.4191 H   0  0  0  0  0  0  0  0  0  0  0  0
  150.5614  130.5053  154.0408 H   0  0  0  0  0  0  0  0  0  0  0  0
  149.1435  134.7854  153.7014 H   0  0  0  0  0  0  0  0  0  0  0  0
  149.5448  136.7535  154.4402 H   0  0  0  0  0  0  0  0  0  0  0  0
  149.8585  136.7416  156.1332 H   0  0  0  0  0  0  0  0  0  0  0  0
  152.4055  137.0084  155.5431 H   0  0  0  0  0  0  0  0  0  0  0  0
  151.2105  137.1260  153.0861 H   0  0  0  0  0  0  0  0  0  0  0  0
  152.0066  139.4926  154.8085 H   0  0  0  0  0  0  0  0  0  0  0  0
  150.3144  139.1631  155.1731 H   0  0  0  0  0  0  0  0  0  0  0  0
  150.2077  140.9608  155.8569 H   0  0  0  0  0  0  0  0  0  0  0  0
  150.1484  143.2948  156.6913 H   0  0  0  0  0  0  0  0  0  0  0  0
  153.0686  142.2977  159.6958 H   0  0  0  0  0  0  0  0  0  0  0  0
  153.1406  139.9828  158.8858 H   0  0  0  0  0  0  0  0  0  0  0  0
  153.9372  132.9699  156.4369 H   0  0  0  0  0  0  0  0  0  0  0  0
  153.0823  131.4393  156.5612 H   0  0  0  0  0  0  0  0  0  0  0  0
  152.7765  132.7059  157.7406 H   0  0  0  0  0  0  0  0  0  0  0  0
  1  2  1  0  0  0  0
  1 22  1  0  0  0  0
  1 23  1  0  0  0  0
  1 24  1  0  0  0  0
  2 20  2  0  0  0  0
  2  3  1  0  0  0  0
  3  4  2  0  0  0  0
  4  5  1  0  0  0  0
  4 25  1  0  0  0  0
  5  6  1  0  0  0  0
  5 18  1  0  0  0  0
  6  7  1  0  0  0  0
  6 26  1  0  0  0  0
  6 27  1  0  0  0  0
  7  8  1  0  0  0  0
  7  9  1  0  0  0  0
  7 28  1  0  0  0  0
  8 29  1  0  0  0  0
  9 10  1  0  0  0  0
  9 30  1  0  0  0  0
  9 31  1  0  0  0  0
 10 11  1  0  0  0  0
 11 17  1  0  0  0  0
 11 12  2  0  0  0  0
 12 13  1  0  0  0  0
 12 32  1  0  0  0  0
 13 14  2  0  0  0  0
 13 33  1  0  0  0  0
 14 15  1  0  0  0  0
 14 16  1  0  0  0  0
 16 17  2  0  0  0  0
 16 34  1  0  0  0  0
 17 35  1  0  0  0  0
 18 19  2  0  0  0  0
 18 20  1  0  0  0  0
 20 21  1  0  0  0  0
 21 36  1  0  0  0  0
 21 37  1  0  0  0  0
 21 38  1  0  0  0  0
M  END
> <s_m_source_file>
AV-unprocessed.smi

> <i_m_source_file_index>
2417

> <i_lp_mmshare_version>
43012

> <i_f3d_flags>
0

> <s_epik_input>
W0NIM11jMW5bY0hdbihjKD1PKWMxW0NIM10pW0NIMl1bQ0BIXShbT0hdKVtDSDJdT2MyW2NIXVtjSF1jKEYpW2NIXVtjSF0y

> <s_epik_cmdline>
J2VwaWtfcHl0aG9uJywgJy1waCcsICc3LjAnLCAnLXRuJywgJzgnLCAnLW1hJywgJzIwMCcsICctbWV0YWxfYmluZGluZycsICctaW1hZScsICc8aW5maWxlLm1hZT4nLCAnLW9tYWUnLCAnPG91dGZpbGUubWFlPic=

> <r_lp_tautomer_probability>
1

> <r_epik_Ionization_Penalty>
3.65384e-05

> <r_epik_Ionization_Penalty_Charging>
8.23007e-08

> <r_epik_Ionization_Penalty_Neutral>
3.64561e-05

> <r_epik_State_Penalty>
-0

> <r_epik_Charging_Adjusted_Penalty>
8.23007e-08

> <i_epik_Tot_Q>
0

> <i_epik_Tot_abs_Q>
0

> <r_epik_Metal_State_Penalty>
-0

> <b_epik_Metal_Only>
0

> <s_lp_Force_Field>
OPLS_2005

> <r_lp_Energy>
22.9041

> <b_lp_Chiralities_Consistent>
1

> <s_lp_Variant>
AV-unprocessed.smi:2417-2

> <Gold.Version>
5.8.1

> <Gold.Id.Protein>
6NUR|6NUR_protein|mol2

> <Gold.PLP.Fitness>
45.7159

> <Gold.PLP.PLP>
-39.7619

> <Gold.PLP.part.hbond>
-2.7983

> <Gold.PLP.part.metal>
0.0000

> <Gold.PLP.part.buried>
-5.2406

> <Gold.PLP.part.nonpolar>
-32.6011

> <Gold.PLP.part.repulsive>
0.0960

> <Gold.PLP.ligand.clash>
0.0000

> <Gold.PLP.ligand.torsion>
0.9616

> <Gold.PLP.Chemscore.Hbond>
1.6080

> <Gold.PLP.Chemscore.CHOScore>
1.0000

> <Gold.PLP.Chemscore.Metal>
0.0000

> <Gold.Chemscore.Hbonds>
donor molecule, donor type, donor heavy atom, donor atom, acceptor molecule, acceptor atom, score
      L1  H     8    29       P1  7949  0.59
      P1  H 10752 10763       L1    19  0.35
      P1  H 10752 10765       L1     8  0.54
      L1  C     4    25       P1  7948  0.92

> <Gold.PLP.Chemscore.Internal.Correction>
0.0533

> <Gold.Rescore>
     Score         DG    S(hbond)    S(metal)    S(lipo)     H(rot)  DE(clash)    DE(int)     intcor
      8.86     -11.17       0.98        0.00      76.17       2.54       0.06       2.25       ----

> <Gold.Chemscore.Fitness>
8.8563

> <Gold.Chemscore.DG>
-11.1656

> <Gold.Chemscore.ZeroCoef>
-5.4800

> <Gold.Chemscore.Hbond>
0.9774

> <Gold.Chemscore.Metal>
0.0000

> <Gold.Chemscore.Lipo>
76.1704

> <Gold.Chemscore.Internal_Hbond>
0.0000

> <Gold.Chemscore.DEClash>
0.0586

> <Gold.Chemscore.DEInternal>
2.2507

> <Gold.Chemscore.Rot>
2.5355

> <Gold.Chemscore.Internal.Correction>
   9.000000E+99

> <Gold.Chemscore.Hbonds>
donor molecule, donor type, donor heavy atom, donor atom, acceptor molecule, acceptor atom, score
      L1  H     8    29       P1  7949  0.35
      P1  H 10752 10763       L1    19  0.02
      P1  H 10752 10765       L1     8  0.02

> <Gold.Chemscore.Hbond.Weighted>
-3.2645

> <Gold.Chemscore.Metal.Weighted>
-0.0000

> <Gold.Chemscore.Lipo.Weighted>
-8.9119

> <Gold.Chemscore.Internal_Hbond.Weighted>
0.0000

> <Gold.Chemscore.DEClash.Weighted>
0.0586

> <Gold.Chemscore.DEInternal.Weighted>
2.2507

> <Gold.Chemscore.Rot.Weighted>
6.4908

> <Gold.Chemscore.Internal.Correction.Weighted>
   9.000000E+99

> <Gold.Protein.RotatedTorsions>
[ 6907 6896 6895 6894 ] final -112.82 input  -60.11 | X-H torsion
[ 7974 7965 7964 7962 ] final   24.28 input  175.53 | X-H torsion
[ 8008 7997 7996 7995 ] final -170.50 input   59.86 | X-H torsion
[ 10167 10162 10161 10158 ] final  100.48 input  -65.29 | X-H torsion
[ 10718 10713 10712 10709 ] final -121.11 input   66.30 | X-H torsion
[ 10763 10752 10751 10750 ] final  136.65 input  -60.55 | X-H torsion
[ 11005 11000 10999 10996 ] final  -55.59 input  -57.11 | X-H torsion

> <Gold.Protein.ActiveResidues>
 VAL166  LYS551  ARG553  GLY616  TRP617  ASP618  TYR619  PRO620  LYS621  CYS622 
 ASP623  PHE694  ASN695  SER759  ASP760  ASP761  ALA762  ILE779  LEU786  VAL792 
 PHE793  MET794  SER795  GLU796  ALA797  LYS798  CYS799  TRP800  GLU811  SER814 

> <Gold.Protein.RotatedAtoms>
  150.7785  133.9033  159.3347 H   0  0  0  0  0  0  0  0  0  0  0  0  # atno 6907 bound_to 6896
  151.6902  135.0946  160.0241 H   0  0  0  0  0  0  0  0  0  0  0  0  # atno 6908 bound_to 6896
  152.3829  133.6533  159.6211 H   0  0  0  0  0  0  0  0  0  0  0  0  # atno 6909 bound_to 6896
  146.1945  139.7626  142.8808 H   0  0  0  0  0  0  0  0  0  0  0  0  # atno 7974 bound_to 7965
  155.9191  140.1071  157.1221 H   0  0  0  0  0  0  0  0  0  0  0  0  # atno 8008 bound_to 7997
  154.4051  140.1259  156.4721 H   0  0  0  0  0  0  0  0  0  0  0  0  # atno 8009 bound_to 7997
  155.7217  140.3469  155.5021 H   0  0  0  0  0  0  0  0  0  0  0  0  # atno 8010 bound_to 7997
  139.7524  144.6980  151.0413 H   0  0  0  0  0  0  0  0  0  0  0  0  # atno 10167 bound_to 10162
  156.1311  130.6396  150.9622 H   0  0  0  0  0  0  0  0  0  0  0  0  # atno 10718 bound_to 10713
  153.8601  135.3068  155.3437 H   0  0  0  0  0  0  0  0  0  0  0  0  # atno 10763 bound_to 10752
  154.7853  135.4813  153.9935 H   0  0  0  0  0  0  0  0  0  0  0  0  # atno 10764 bound_to 10752
  153.1467  135.6835  153.9039 H   0  0  0  0  0  0  0  0  0  0  0  0  # atno 10765 bound_to 10752
  141.1081  133.6612  156.4493 H   0  0  0  0  0  0  0  0  0  0  0  0  # atno 11005 bound_to 11000
  145.3689  141.0339  143.3242 LP  0  0  0  0  0  0  0  0  0  0  0  0  # atno 17320 bound_to 7965
  144.8552  139.5261  143.6838 LP  0  0  0  0  0  0  0  0  0  0  0  0  # atno 17321 bound_to 7965
  140.7799  143.4794  151.0039 LP  0  0  0  0  0  0  0  0  0  0  0  0  # atno 17342 bound_to 10162
  139.8481  143.7474  152.3179 LP  0  0  0  0  0  0  0  0  0  0  0  0  # atno 17343 bound_to 10162
  157.6489  131.0900  150.8094 LP  0  0  0  0  0  0  0  0  0  0  0  0  # atno 17370 bound_to 10713
  156.8179  130.4974  149.5347 LP  0  0  0  0  0  0  0  0  0  0  0  0  # atno 17371 bound_to 10713
  140.4848  134.6630  157.5186 LP  0  0  0  0  0  0  0  0  0  0  0  0  # atno 17394 bound_to 11000
  139.9961  134.6909  155.9608 LP  0  0  0  0  0  0  0  0  0  0  0  0  # atno 17395 bound_to 11000

$$$$
