#       Name:                AV-unprocessed.smi:2336
#       Creating user name   scv26
#       Creation time:       Fri Mar 27 12:54:50 2020


#       File generated by GOLD software.
#

@<TRIPOS>MOLECULE
AV-unprocessed.smi:2336
    54    55     1
SMALL
NO_CHARGES


@<TRIPOS>ATOM
      1 ****        -2.5860  -0.3760  -1.5456 C.3            1 S1                 0.0000
      2 ****        -2.1740   0.6847  -0.5101 C.3            1 S1                 0.0000
      3 ****        -2.9793   1.9815  -0.7014 C.3            1 S1                 0.0000
      4 ****        -0.6443   0.9575  -0.3932 C.3            1 S1                 0.0000
      5 ****         0.2049  -0.2599   0.0566 C.3            1 S1                 0.0000
      6 ****        -0.2424  -0.7833   1.3406 N.am           1 S1                 0.0000
      7 ****         0.3147  -1.8306   1.9622 C.2            1 S1                 0.0000
      8 ****         1.2743  -2.4496   1.5042 O.2            1 S1                 0.0000
      9 ****        -0.3081  -2.0899   3.1251 N.am           1 S1                 0.0000
     10 ****        -0.0427  -3.0979   4.0944 C.ar           1 S1                 0.0000
     11 ****         0.8875  -4.1542   3.9305 C.ar           1 S1                 0.0000
     12 ****         1.0417  -5.0870   4.9758 C.ar           1 S1                 0.0000
     13 ****         0.3464  -5.0329   6.1312 N.ar           1 S1                 0.0000
     14 ****        -0.5430  -4.0295   6.2826 C.ar           1 S1                 0.0000
     15 ****        -0.7734  -3.0451   5.3008 C.ar           1 S1                 0.0000
     16 ****        -1.6836  -2.0651   5.5180 F              1 S1                 0.0000
     17 ****        -0.1153   1.6424  -1.5877 N.3            1 S1                 0.0000
     18 ****         0.4008   0.7582  -2.6416 C.3            1 S1                 0.0000
     19 ****         0.7358   1.5852  -3.8981 C.3            1 S1                 0.0000
     20 ****         1.7445   2.6302  -3.6004 N.4            1 S1                 1.0000
     21 ****         3.1260   2.1115  -3.4719 C.3            1 S1                 0.0000
     22 ****         1.3070   3.4603  -2.4528 C.3            1 S1                 0.0000
     23 ****         0.9424   2.5928  -1.2301 C.3            1 S1                 0.0000
     24 ****        -2.4637  -0.0142  -2.5657 H              1 S1                 0.0000
     25 ****        -3.6382  -0.6356  -1.4276 H              1 S1                 0.0000
     26 ****        -2.0152  -1.2973  -1.4349 H              1 S1                 0.0000
     27 ****        -2.4914   0.2912   0.4558 H              1 S1                 0.0000
     28 ****        -2.7755   2.4423  -1.6682 H              1 S1                 0.0000
     29 ****        -2.7418   2.7114   0.0729 H              1 S1                 0.0000
     30 ****        -4.0512   1.7877  -0.6500 H              1 S1                 0.0000
     31 ****        -0.5728   1.6768   0.4242 H              1 S1                 0.0000
     32 ****         0.1626  -1.0651  -0.6778 H              1 S1                 0.0000
     33 ****         1.2532   0.0266   0.1522 H              1 S1                 0.0000
     34 ****        -1.0259  -0.3220   1.7792 H              1 S1                 0.0000
     35 ****        -1.0653  -1.4660   3.3637 H              1 S1                 0.0000
     36 ****         1.4791  -4.2787   3.0380 H              1 S1                 0.0000
     37 ****         1.7432  -5.9023   4.8787 H              1 S1                 0.0000
     38 ****        -1.0887  -4.0102   7.2144 H              1 S1                 0.0000
     39 ****         1.2884   0.2253  -2.3001 H              1 S1                 0.0000
     40 ****        -0.3314  -0.0015  -2.9039 H              1 S1                 0.0000
     41 ****         1.0953   0.9372  -4.6982 H              1 S1                 0.0000
     42 ****        -0.1685   2.0661  -4.2740 H              1 S1                 0.0000
     43 ****         3.2328   1.4403  -2.6200 H              1 S1                 0.0000
     44 ****         3.8311   2.9333  -3.3450 H              1 S1                 0.0000
     45 ****         3.4145   1.5663  -4.3711 H              1 S1                 0.0000
     46 ****         2.0841   4.1802  -2.1936 H              1 S1                 0.0000
     47 ****         0.4372   4.0441  -2.7576 H              1 S1                 0.0000
     48 ****         0.5933   3.2508  -0.4334 H              1 S1                 0.0000
     49 ****         1.8183   2.0690  -0.8459 H              1 S1                 0.0000
     50 ****         1.7643   3.2429  -4.4033 H              1 S1                 0.0000
     51 ****         1.6737  -2.1767   0.6291 LP             1 S1                 0.0000
     52 ****         1.6548  -3.2257   2.0072 LP             1 S1                 0.0000
     53 ****         0.4856  -5.7134   6.8507 LP             1 S1                 0.0000
     54 ****        -0.9148   2.1103  -1.9643 LP             1 S1                 0.0000
@<TRIPOS>BOND
    1    1    2 1     
    2    1   24 1     
    3    1   25 1     
    4    1   26 1     
    5    2    3 1     
    6    2    4 1     
    7    2   27 1     
    8    3   28 1     
    9    3   29 1     
   10    3   30 1     
   11    4    5 1     
   12    4   17 1     
   13    4   31 1     
   14    5    6 1     
   15    5   32 1     
   16    5   33 1     
   17    6    7 am    
   18    6   34 1     
   19    7    8 2     
   20    7    9 am    
   21    9   10 1     
   22    9   35 1     
   23   10   15 ar    
   24   10   11 ar    
   25   11   12 ar    
   26   11   36 1     
   27   12   13 ar    
   28   12   37 1     
   29   13   14 ar    
   30   14   15 ar    
   31   14   38 1     
   32   15   16 1     
   33   17   23 1     
   34   17   18 1     
   35   18   19 1     
   36   18   39 1     
   37   18   40 1     
   38   19   20 1     
   39   19   41 1     
   40   19   42 1     
   41   20   21 1     
   42   20   22 1     
   43   20   50 1     
   44   21   43 1     
   45   21   44 1     
   46   21   45 1     
   47   22   23 1     
   48   22   46 1     
   49   22   47 1     
   50   23   48 1     
   51   23   49 1     
   52    8   51 1     
   53    8   52 1     
   54   13   53 1     
   55   17   54 1     
@<TRIPOS>SUBSTRUCTURE
      1 S1             1
@<TRIPOS>SET
LONE_PAIRS      STATIC     ATOMS    <user>   **** ""
4 51 52 53 54
DONOR_HYDROGENS      STATIC     ATOMS    <user>   **** ""
3 34 35 50
ATOM$BLUE        STATIC     ATOMS    COLORGROUP SYSTEM
4 51 52 53 54
ATOM$RED        STATIC     ATOMS    COLORGROUP SYSTEM
3 34 35 50
