AV-unprocessed.smi:221|AV-procd|sdf|1693|dock1
  -GOLD-   2262020143D 1   1.00000     0.00000
 Structure written by MMmdl.
 50 53  0  0  0  0  0  0  0  0  1 V2000
  144.5874  136.1466  149.6405 N   0  0  0  0  0  0  0  0  0  0  0  0
  144.6060  135.3995  150.7465 C   0  0  0  0  0  0  0  0  0  0  0  0
  145.3047  134.3918  150.8432 O   0  0  0  0  0  0  0  0  0  0  0  0
  143.6936  135.8466  151.8999 C   0  0  1  0  0  0  0  0  0  0  0  0
  142.7278  134.7245  152.3150 C   0  0  0  0  0  0  0  0  0  0  0  0
  142.4445  135.0126  153.7860 C   0  0  2  0  0  0  0  0  0  0  0  0
  141.5043  135.9542  153.8814 F   0  0  0  0  0  0  0  0  0  0  0  0
  143.7739  135.5665  154.2980 C   0  0  0  0  0  0  0  0  0  0  0  0
  144.4376  136.1347  153.1304 N   0  0  0  0  0  0  0  0  0  0  0  0
  145.2117  137.2432  153.2770 C   0  0  0  0  0  0  0  0  0  0  0  0
  145.8092  137.7911  152.1851 N   0  0  0  0  0  0  0  0  0  0  0  0
  146.5749  138.8791  152.3039 C   0  0  0  0  0  0  0  0  0  0  0  0
  146.8781  139.5693  153.4039 N   0  0  0  0  0  0  0  0  0  0  0  0
  146.2910  139.0220  154.5061 C   0  0  0  0  0  0  0  0  0  0  0  0
  145.4499  137.8726  154.5334 C   0  0  0  0  0  0  0  0  0  0  0  0
  145.0537  137.6132  155.8412 N   0  0  0  0  0  0  0  0  0  0  0  0
  145.6271  138.5514  156.5438 C   0  0  0  0  0  0  0  0  0  0  0  0
  146.3931  139.4370  155.8222 N   0  0  0  0  0  0  0  0  0  0  0  0
  147.1450  140.5611  156.3508 C   0  0  0  0  0  0  0  0  0  0  0  0
  148.6842  140.3628  156.3142 C   0  0  1  0  0  0  0  0  0  0  0  0
  149.2009  140.0164  154.8937 C   0  0  0  0  0  0  0  0  0  0  0  0
  149.3076  141.1658  154.0787 O   0  0  0  0  0  0  0  0  0  0  0  0
  149.3980  141.6171  156.8839 C   0  0  2  0  0  0  0  0  0  0  0  0
  150.9165  141.5416  156.9146 C   0  0  0  0  0  0  0  0  0  0  0  0
  151.2802  142.6308  157.9175 C   0  0  0  0  0  0  0  0  0  0  0  0
  150.2055  142.6719  158.8481 O   0  0  0  0  0  0  0  0  0  0  0  0
  149.1144  141.8958  158.3652 C   0  0  0  0  0  0  0  0  0  0  0  0
  143.1170  136.7277  151.6107 H   0  0  0  0  0  0  0  0  0  0  0  0
  142.0967  134.1415  154.3416 H   0  0  0  0  0  0  0  0  0  0  0  0
  145.1743  135.8963  148.8581 H   0  0  0  0  0  0  0  0  0  0  0  0
  143.9927  136.9609  149.5919 H   0  0  0  0  0  0  0  0  0  0  0  0
  141.8210  134.7036  151.7094 H   0  0  0  0  0  0  0  0  0  0  0  0
  143.2054  133.7466  152.2294 H   0  0  0  0  0  0  0  0  0  0  0  0
  143.6188  136.2925  155.0979 H   0  0  0  0  0  0  0  0  0  0  0  0
  144.3962  134.7601  154.6876 H   0  0  0  0  0  0  0  0  0  0  0  0
  147.0075  139.2488  151.3860 H   0  0  0  0  0  0  0  0  0  0  0  0
  145.5136  138.6193  157.6159 H   0  0  0  0  0  0  0  0  0  0  0  0
  146.8698  141.4557  155.7907 H   0  0  0  0  0  0  0  0  0  0  0  0
  146.8021  140.7240  157.3725 H   0  0  0  0  0  0  0  0  0  0  0  0
  148.9319  139.5278  156.9718 H   0  0  0  0  0  0  0  0  0  0  0  0
  150.1655  139.5104  154.9442 H   0  0  0  0  0  0  0  0  0  0  0  0
  148.5229  139.3419  154.3740 H   0  0  0  0  0  0  0  0  0  0  0  0
  148.9829  140.9545  153.2165 H   0  0  0  0  0  0  0  0  0  0  0  0
  149.1075  142.4951  156.3042 H   0  0  0  0  0  0  0  0  0  0  0  0
  151.2429  140.5687  157.2849 H   0  0  0  0  0  0  0  0  0  0  0  0
  151.3827  141.7124  155.9444 H   0  0  0  0  0  0  0  0  0  0  0  0
  152.2319  142.4396  158.4136 H   0  0  0  0  0  0  0  0  0  0  0  0
  151.3454  143.5992  157.4201 H   0  0  0  0  0  0  0  0  0  0  0  0
  148.1703  142.4185  158.5197 H   0  0  0  0  0  0  0  0  0  0  0  0
  149.0818  140.9658  158.9345 H   0  0  0  0  0  0  0  0  0  0  0  0
  1  2  1  0  0  0  0
  1 30  1  0  0  0  0
  1 31  1  0  0  0  0
  2  3  2  0  0  0  0
  2  4  1  0  0  0  0
  4 28  1  0  0  0  0
  4  9  1  0  0  0  0
  4  5  1  0  0  0  0
  5  6  1  0  0  0  0
  5 32  1  0  0  0  0
  5 33  1  0  0  0  0
  6 29  1  0  0  0  0
  6  7  1  0  0  0  0
  6  8  1  0  0  0  0
  8  9  1  0  0  0  0
  8 34  1  0  0  0  0
  8 35  1  0  0  0  0
  9 10  1  0  0  0  0
 10 15  1  0  0  0  0
 10 11  2  0  0  0  0
 11 12  1  0  0  0  0
 12 13  2  0  0  0  0
 12 36  1  0  0  0  0
 13 14  1  0  0  0  0
 14 18  1  0  0  0  0
 14 15  2  0  0  0  0
 15 16  1  0  0  0  0
 16 17  2  0  0  0  0
 17 18  1  0  0  0  0
 17 37  1  0  0  0  0
 18 19  1  0  0  0  0
 19 20  1  0  0  0  0
 19 38  1  0  0  0  0
 19 39  1  0  0  0  0
 20 21  1  0  0  0  0
 20 23  1  0  0  0  0
 20 40  1  0  0  0  0
 21 22  1  0  0  0  0
 21 41  1  0  0  0  0
 21 42  1  0  0  0  0
 22 43  1  0  0  0  0
 23 27  1  0  0  0  0
 23 24  1  0  0  0  0
 23 44  1  0  0  0  0
 24 25  1  0  0  0  0
 24 45  1  0  0  0  0
 24 46  1  0  0  0  0
 25 26  1  0  0  0  0
 25 47  1  0  0  0  0
 25 48  1  0  0  0  0
 26 27  1  0  0  0  0
 27 49  1  0  0  0  0
 27 50  1  0  0  0  0
M  END
> <s_m_source_file>
AV-unprocessed.smi

> <i_m_source_file_index>
221

> <i_lp_mmshare_version>
43012

> <i_f3d_flags>
0

> <s_epik_input>
W05IMl1DKD1PKVtDQEBIXTFbQ0gyXVtDQEBIXShGKVtDSDJdTjFjKG5bY0hdbjIpYyhjMjMpbltjSF1uM1tDSDJdW0NASF0oW0NIMl1bT0hdKVtDQEBIXTRbQ0gyXVtDSDJdT1tDSDJdNA==

> <s_epik_cmdline>
J2VwaWtfcHl0aG9uJywgJy1waCcsICc3LjAnLCAnLXRuJywgJzgnLCAnLW1hJywgJzIwMCcsICctbWV0YWxfYmluZGluZycsICctaW1hZScsICc8aW5maWxlLm1hZT4nLCAnLW9tYWUnLCAnPG91dGZpbGUubWFlPic=

> <r_lp_tautomer_probability>
1

> <r_epik_Ionization_Penalty>
0.000818822

> <r_epik_Ionization_Penalty_Charging>
0

> <r_epik_Ionization_Penalty_Neutral>
0.000818822

> <r_epik_State_Penalty>
0.000440551

> <r_epik_Charging_Adjusted_Penalty>
0.000440551

> <i_epik_Tot_Q>
0

> <i_epik_Tot_abs_Q>
0

> <r_epik_Metal_State_Penalty>
-0

> <b_epik_Metal_Only>
0

> <s_lp_Force_Field>
OPLS_2005

> <r_lp_Energy>
48.2465

> <b_lp_Chiralities_Consistent>
1

> <s_lp_Variant>
AV-unprocessed.smi:221-8

> <Gold.Version>
5.8.1

> <Gold.Id.Protein>
6NUR|6NUR_protein|mol2

> <Gold.PLP.Fitness>
48.2101

> <Gold.PLP.PLP>
-36.5227

> <Gold.PLP.part.hbond>
-5.0000

> <Gold.PLP.part.metal>
0.0000

> <Gold.PLP.part.buried>
-7.4783

> <Gold.PLP.part.nonpolar>
-24.7419

> <Gold.PLP.part.repulsive>
0.9726

> <Gold.PLP.ligand.clash>
0.0000

> <Gold.PLP.ligand.torsion>
0.4912

> <Gold.PLP.Chemscore.Hbond>
3.2359

> <Gold.PLP.Chemscore.CHOScore>
0.8580

> <Gold.PLP.Chemscore.Metal>
0.0000

> <Gold.Chemscore.Hbonds>
donor molecule, donor type, donor heavy atom, donor atom, acceptor molecule, acceptor atom, score
      L1  H     1    30       P1  7921  1.00
      L1  H     1    31       P1 10171  0.96
      L1  H    22    43       P1  7957  0.21
      P1  H  7989  7998       L1    22  0.03
      L1  C    12    36       P1  7957  0.56

> <Gold.PLP.Chemscore.Internal.Correction>
0.3884

> <Gold.Rescore>
     Score         DG    S(hbond)    S(metal)    S(lipo)     H(rot)  DE(clash)    DE(int)     intcor
      9.11     -13.40       2.92        0.00      56.90       3.31       0.26       4.03       ----

> <Gold.Chemscore.Fitness>
9.1099

> <Gold.Chemscore.DG>
-13.4032

> <Gold.Chemscore.ZeroCoef>
-5.4800

> <Gold.Chemscore.Hbond>
2.9151

> <Gold.Chemscore.Metal>
0.0000

> <Gold.Chemscore.Lipo>
56.9036

> <Gold.Chemscore.Internal_Hbond>
0.0000

> <Gold.Chemscore.DEClash>
0.2615

> <Gold.Chemscore.DEInternal>
4.0319

> <Gold.Chemscore.Rot>
3.3089

> <Gold.Chemscore.Internal.Correction>
   9.000000E+99

> <Gold.Chemscore.Hbonds>
donor molecule, donor type, donor heavy atom, donor atom, acceptor molecule, acceptor atom, score
      L1  H     1    30       P1  7921  1.00
      L1  H     1    31       P1 10171  0.90
      L1  H    22    43       P1  7957  0.21

> <Gold.Chemscore.Hbond.Weighted>
-9.7364

> <Gold.Chemscore.Metal.Weighted>
-0.0000

> <Gold.Chemscore.Lipo.Weighted>
-6.6577

> <Gold.Chemscore.Internal_Hbond.Weighted>
0.0000

> <Gold.Chemscore.DEClash.Weighted>
0.2615

> <Gold.Chemscore.DEInternal.Weighted>
4.0319

> <Gold.Chemscore.Rot.Weighted>
8.4709

> <Gold.Chemscore.Internal.Correction.Weighted>
   9.000000E+99

> <Gold.Protein.RotatedTorsions>
[ 6907 6896 6895 6894 ] final  171.09 input  -60.11 | X-H torsion
[ 7974 7965 7964 7962 ] final  158.39 input  175.53 | X-H torsion
[ 8008 7997 7996 7995 ] final  -57.69 input   59.86 | X-H torsion
[ 10167 10162 10161 10158 ] final   42.51 input  -65.29 | X-H torsion
[ 10718 10713 10712 10709 ] final -179.15 input   66.30 | X-H torsion
[ 10763 10752 10751 10750 ] final  -57.95 input  -60.55 | X-H torsion
[ 11005 11000 10999 10996 ] final   59.10 input  -57.11 | X-H torsion

> <Gold.Protein.ActiveResidues>
 VAL166  LYS551  ARG553  GLY616  TRP617  ASP618  TYR619  PRO620  LYS621  CYS622 
 ASP623  PHE694  ASN695  SER759  ASP760  ASP761  ALA762  ILE779  LEU786  VAL792 
 PHE793  MET794  SER795  GLU796  ALA797  LYS798  CYS799  TRP800  GLU811  SER814 

> <Gold.Protein.RotatedAtoms>
  151.8058  133.3375  159.3540 H   0  0  0  0  0  0  0  0  0  0  0  0  # atno 6907 bound_to 6896
  150.7343  134.5711  159.5900 H   0  0  0  0  0  0  0  0  0  0  0  0  # atno 6908 bound_to 6896
  152.3111  134.7498  160.0387 H   0  0  0  0  0  0  0  0  0  0  0  0  # atno 6909 bound_to 6896
  144.7848  139.7472  143.6245 H   0  0  0  0  0  0  0  0  0  0  0  0  # atno 7974 bound_to 7965
  154.4278  140.1101  156.5837 H   0  0  0  0  0  0  0  0  0  0  0  0  # atno 8008 bound_to 7997
  155.6085  140.3494  155.4596 H   0  0  0  0  0  0  0  0  0  0  0  0  # atno 8009 bound_to 7997
  156.0118  140.1221  157.0436 H   0  0  0  0  0  0  0  0  0  0  0  0  # atno 8010 bound_to 7997
  140.3536  144.2318  150.6143 H   0  0  0  0  0  0  0  0  0  0  0  0  # atno 10167 bound_to 10162
  156.8548  130.9731  151.3089 H   0  0  0  0  0  0  0  0  0  0  0  0  # atno 10718 bound_to 10713
  154.2304  135.6361  153.5173 H   0  0  0  0  0  0  0  0  0  0  0  0  # atno 10763 bound_to 10752
  152.9950  135.5518  154.6018 H   0  0  0  0  0  0  0  0  0  0  0  0  # atno 10764 bound_to 10752
  154.5500  135.2901  155.0991 H   0  0  0  0  0  0  0  0  0  0  0  0  # atno 10765 bound_to 10752
  140.0328  134.5986  155.9483 H   0  0  0  0  0  0  0  0  0  0  0  0  # atno 11005 bound_to 11000
  146.2075  139.5409  142.9703 LP  0  0  0  0  0  0  0  0  0  0  0  0  # atno 17320 bound_to 7965
  145.5951  141.0364  143.2049 LP  0  0  0  0  0  0  0  0  0  0  0  0  # atno 17321 bound_to 7965
  140.5195  143.2269  151.8411 LP  0  0  0  0  0  0  0  0  0  0  0  0  # atno 17342 bound_to 10162
  139.4823  144.4854  151.9254 LP  0  0  0  0  0  0  0  0  0  0  0  0  # atno 17343 bound_to 10162
  157.6283  130.8709  149.9228 LP  0  0  0  0  0  0  0  0  0  0  0  0  # atno 17370 bound_to 10713
  156.0808  130.3673  150.0584 LP  0  0  0  0  0  0  0  0  0  0  0  0  # atno 17371 bound_to 10713
  141.1841  133.6552  156.5142 LP  0  0  0  0  0  0  0  0  0  0  0  0  # atno 17394 bound_to 11000
  140.4196  134.7199  157.4882 LP  0  0  0  0  0  0  0  0  0  0  0  0  # atno 17395 bound_to 11000

$$$$
