AV-unprocessed.smi:2183|AV-procd|sdf|8866|dock7
  -GOLD-   2272012 63D 1   1.00000     0.00000
 Structure written by MMmdl.
 40 42  0  0  0  0  0  0  0  0  1 V2000
  150.6041  140.2196  154.2765 O   0  0  0  0  0  0  0  0  0  0  0  0
  151.2885  139.6030  155.3488 C   0  0  0  0  0  0  0  0  0  0  0  0
  151.5380  140.5120  156.5194 C   0  0  0  0  0  0  0  0  0  0  0  0
  151.1222  141.7805  156.5594 N   0  0  0  0  0  0  0  0  0  0  0  0
  151.5562  142.2071  157.7988 C   0  0  0  0  0  0  0  0  0  0  0  0
  151.4233  143.4613  158.4368 C   0  0  0  0  0  0  0  0  0  0  0  0
  151.9540  143.6656  159.7273 C   0  0  0  0  0  0  0  0  0  0  0  0
  152.6249  142.6215  160.3962 C   0  0  0  0  0  0  0  0  0  0  0  0
  152.7690  141.3643  159.7780 C   0  0  0  0  0  0  0  0  0  0  0  0
  152.2361  141.1650  158.4901 C   0  0  0  0  0  0  0  0  0  0  0  0
  152.2032  140.0789  157.6200 N   0  0  0  0  0  0  0  0  0  0  0  0
  152.7678  138.7581  157.8650 C   0  0  0  0  0  0  0  0  0  0  0  0
  152.5026  138.2482  159.2969 C   0  0  1  0  0  0  0  0  0  0  0  0
  151.8102  137.0163  159.2545 O   0  0  0  0  0  0  0  0  0  0  0  0
  153.7969  138.0488  160.0987 C   0  0  0  0  0  0  0  0  0  0  0  0
  153.4781  137.9751  161.4822 O   0  0  0  0  0  0  0  0  0  0  0  0
  153.7511  136.8025  162.1533 C   0  0  0  0  0  0  0  0  0  0  0  0
  153.4239  136.7593  163.5245 C   0  0  0  0  0  0  0  0  0  0  0  0
  153.6654  135.6007  164.2875 C   0  0  0  0  0  0  0  0  0  0  0  0
  154.2391  134.4671  163.6826 C   0  0  0  0  0  0  0  0  0  0  0  0
  154.5331  133.0446  164.6138 Cl  0  0  0  0  0  0  0  0  0  0  0  0
  154.5719  134.4965  162.3155 C   0  0  0  0  0  0  0  0  0  0  0  0
  154.3309  135.6559  161.5529 C   0  0  0  0  0  0  0  0  0  0  0  0
  149.7002  139.9459  154.2996 H   0  0  0  0  0  0  0  0  0  0  0  0
  150.7047  138.7451  155.6829 H   0  0  0  0  0  0  0  0  0  0  0  0
  152.2395  139.2262  154.9740 H   0  0  0  0  0  0  0  0  0  0  0  0
  150.9118  144.2674  157.9321 H   0  0  0  0  0  0  0  0  0  0  0  0
  151.8463  144.6282  160.2058 H   0  0  0  0  0  0  0  0  0  0  0  0
  153.0294  142.7863  161.3841 H   0  0  0  0  0  0  0  0  0  0  0  0
  153.2837  140.5639  160.2877 H   0  0  0  0  0  0  0  0  0  0  0  0
  152.3522  138.0637  157.1341 H   0  0  0  0  0  0  0  0  0  0  0  0
  153.8390  138.7925  157.6655 H   0  0  0  0  0  0  0  0  0  0  0  0
  151.8671  138.9564  159.8286 H   0  0  0  0  0  0  0  0  0  0  0  0
  150.9010  137.1878  159.0630 H   0  0  0  0  0  0  0  0  0  0  0  0
  154.2775  137.1192  159.7881 H   0  0  0  0  0  0  0  0  0  0  0  0
  154.4895  138.8699  159.9049 H   0  0  0  0  0  0  0  0  0  0  0  0
  152.9823  137.6244  163.9973 H   0  0  0  0  0  0  0  0  0  0  0  0
  153.4088  135.5833  165.3365 H   0  0  0  0  0  0  0  0  0  0  0  0
  155.0124  133.6281  161.8479 H   0  0  0  0  0  0  0  0  0  0  0  0
  154.5986  135.6384  160.5075 H   0  0  0  0  0  0  0  0  0  0  0  0
  1  2  1  0  0  0  0
  1 24  1  0  0  0  0
  2  3  1  0  0  0  0
  2 25  1  0  0  0  0
  2 26  1  0  0  0  0
  3 11  1  0  0  0  0
  3  4  2  0  0  0  0
  4  5  1  0  0  0  0
  5 10  2  0  0  0  0
  5  6  1  0  0  0  0
  6  7  2  0  0  0  0
  6 27  1  0  0  0  0
  7  8  1  0  0  0  0
  7 28  1  0  0  0  0
  8  9  2  0  0  0  0
  8 29  1  0  0  0  0
  9 10  1  0  0  0  0
  9 30  1  0  0  0  0
 10 11  1  0  0  0  0
 11 12  1  0  0  0  0
 12 13  1  0  0  0  0
 12 31  1  0  0  0  0
 12 32  1  0  0  0  0
 13 14  1  0  0  0  0
 13 15  1  0  0  0  0
 13 33  1  0  0  0  0
 14 34  1  0  0  0  0
 15 16  1  0  0  0  0
 15 35  1  0  0  0  0
 15 36  1  0  0  0  0
 16 17  1  0  0  0  0
 17 23  1  0  0  0  0
 17 18  2  0  0  0  0
 18 19  1  0  0  0  0
 18 37  1  0  0  0  0
 19 20  2  0  0  0  0
 19 38  1  0  0  0  0
 20 21  1  0  0  0  0
 20 22  1  0  0  0  0
 22 23  2  0  0  0  0
 22 39  1  0  0  0  0
 23 40  1  0  0  0  0
M  END
> <s_m_source_file>
AV-unprocessed.smi

> <i_m_source_file_index>
2183

> <i_lp_mmshare_version>
43012

> <i_f3d_flags>
0

> <s_epik_input>
W2NIXTFbY0hdW2NIXVtjSF1jKGMxMiluKGMobjIpW0NIMl1bT0hdKVtDSDJdW0NASF0oW09IXSlbQ0gyXU9jM1tjSF1bY0hdYyhDbClbY0hdW2NIXTM=

> <s_epik_cmdline>
J2VwaWtfcHl0aG9uJywgJy1waCcsICc3LjAnLCAnLXRuJywgJzgnLCAnLW1hJywgJzIwMCcsICctbWV0YWxfYmluZGluZycsICctaW1hZScsICc8aW5maWxlLm1hZT4nLCAnLW9tYWUnLCAnPG91dGZpbGUubWFlPic=

> <r_lp_tautomer_probability>
1

> <r_epik_Ionization_Penalty>
0.0586933

> <r_epik_Ionization_Penalty_Charging>
0

> <r_epik_Ionization_Penalty_Neutral>
0.0586933

> <r_epik_State_Penalty>
0.0507031

> <r_epik_Charging_Adjusted_Penalty>
0.0507031

> <i_epik_Tot_Q>
0

> <i_epik_Tot_abs_Q>
0

> <r_epik_Metal_State_Penalty>
5.29335e-05

> <b_epik_Metal_Only>
0

> <s_lp_Force_Field>
OPLS_2005

> <r_lp_Energy>
14.4391

> <b_lp_Chiralities_Consistent>
1

> <s_lp_Variant>
AV-unprocessed.smi:2183-2

> <Gold.Version>
5.8.1

> <Gold.Id.Protein>
6NUR|6NUR_protein|mol2

> <Gold.PLP.Fitness>
51.6088

> <Gold.PLP.PLP>
-48.5340

> <Gold.PLP.part.hbond>
-2.0676

> <Gold.PLP.part.metal>
0.0000

> <Gold.PLP.part.buried>
-5.8482

> <Gold.PLP.part.nonpolar>
-40.8572

> <Gold.PLP.part.repulsive>
0.0637

> <Gold.PLP.ligand.clash>
0.0000

> <Gold.PLP.ligand.torsion>
1.4858

> <Gold.PLP.Chemscore.Hbond>
1.9913

> <Gold.PLP.Chemscore.CHOScore>
0.0000

> <Gold.PLP.Chemscore.Metal>
0.0000

> <Gold.Chemscore.Hbonds>
donor molecule, donor type, donor heavy atom, donor atom, acceptor molecule, acceptor atom, score
      P1  H  6896  6909       L1    14  1.00
      P1  H  7989  7998       L1     1  0.78

> <Gold.PLP.Chemscore.Internal.Correction>
0.0726

> <Gold.Rescore>
     Score         DG    S(hbond)    S(metal)    S(lipo)     H(rot)  DE(clash)    DE(int)     intcor
     17.74     -19.36       1.64        0.00     138.33       3.04       0.13       1.49       ----

> <Gold.Chemscore.Fitness>
17.7417

> <Gold.Chemscore.DG>
-19.3633

> <Gold.Chemscore.ZeroCoef>
-5.4800

> <Gold.Chemscore.Hbond>
1.6378

> <Gold.Chemscore.Metal>
0.0000

> <Gold.Chemscore.Lipo>
138.3313

> <Gold.Chemscore.Internal_Hbond>
0.0000

> <Gold.Chemscore.DEClash>
0.1337

> <Gold.Chemscore.DEInternal>
1.4879

> <Gold.Chemscore.Rot>
3.0358

> <Gold.Chemscore.Internal.Correction>
   9.000000E+99

> <Gold.Chemscore.Hbonds>
donor molecule, donor type, donor heavy atom, donor atom, acceptor molecule, acceptor atom, score
      P1  H  6896  6909       L1    14  0.36
      P1  H  7989  7998       L1     1  0.42

> <Gold.Chemscore.Hbond.Weighted>
-5.4701

> <Gold.Chemscore.Metal.Weighted>
-0.0000

> <Gold.Chemscore.Lipo.Weighted>
-16.1848

> <Gold.Chemscore.Internal_Hbond.Weighted>
0.0000

> <Gold.Chemscore.DEClash.Weighted>
0.1337

> <Gold.Chemscore.DEInternal.Weighted>
1.4879

> <Gold.Chemscore.Rot.Weighted>
7.7716

> <Gold.Chemscore.Internal.Correction.Weighted>
   9.000000E+99

> <Gold.Protein.RotatedTorsions>
[ 6907 6896 6895 6894 ] final  131.50 input  -60.11 | X-H torsion
[ 7974 7965 7964 7962 ] final   16.27 input  175.53 | X-H torsion
[ 8008 7997 7996 7995 ] final  -33.23 input   59.86 | X-H torsion
[ 10167 10162 10161 10158 ] final   92.90 input  -65.29 | X-H torsion
[ 10718 10713 10712 10709 ] final  161.11 input   66.30 | X-H torsion
[ 10763 10752 10751 10750 ] final -166.92 input  -60.55 | X-H torsion
[ 11005 11000 10999 10996 ] final   93.48 input  -57.11 | X-H torsion

> <Gold.Protein.ActiveResidues>
 VAL166  LYS551  ARG553  GLY616  TRP617  ASP618  TYR619  PRO620  LYS621  CYS622 
 ASP623  PHE694  ASN695  SER759  ASP760  ASP761  ALA762  ILE779  LEU786  VAL792 
 PHE793  MET794  SER795  GLU796  ALA797  LYS798  CYS799  TRP800  GLU811  SER814 

> <Gold.Protein.RotatedAtoms>
  152.3420  133.6078  159.5882 H   0  0  0  0  0  0  0  0  0  0  0  0  # atno 6907 bound_to 6896
  150.7484  133.9708  159.3554 H   0  0  0  0  0  0  0  0  0  0  0  0  # atno 6908 bound_to 6896
  151.7571  135.0820  160.0391 H   0  0  0  0  0  0  0  0  0  0  0  0  # atno 6909 bound_to 6896
  146.2254  139.8772  142.8577 H   0  0  0  0  0  0  0  0  0  0  0  0  # atno 7974 bound_to 7965
  154.4155  140.1716  156.1855 H   0  0  0  0  0  0  0  0  0  0  0  0  # atno 8008 bound_to 7997
  155.9646  140.3390  155.6497 H   0  0  0  0  0  0  0  0  0  0  0  0  # atno 8009 bound_to 7997
  155.6704  140.0711  157.2513 H   0  0  0  0  0  0  0  0  0  0  0  0  # atno 8010 bound_to 7997
  139.8232  144.6721  150.9492 H   0  0  0  0  0  0  0  0  0  0  0  0  # atno 10167 bound_to 10162
  157.1411  131.0541  151.2326 H   0  0  0  0  0  0  0  0  0  0  0  0  # atno 10718 bound_to 10713
  154.6785  135.2950  154.9646 H   0  0  0  0  0  0  0  0  0  0  0  0  # atno 10763 bound_to 10752
  154.0649  135.6626  153.4820 H   0  0  0  0  0  0  0  0  0  0  0  0  # atno 10764 bound_to 10752
  153.0532  135.5161  154.7816 H   0  0  0  0  0  0  0  0  0  0  0  0  # atno 10765 bound_to 10752
  139.8809  134.8792  156.3724 H   0  0  0  0  0  0  0  0  0  0  0  0  # atno 11005 bound_to 11000
  145.2549  141.0057  143.3860 LP  0  0  0  0  0  0  0  0  0  0  0  0  # atno 17320 bound_to 7965
  144.9345  139.4260  143.6479 LP  0  0  0  0  0  0  0  0  0  0  0  0  # atno 17321 bound_to 7965
  140.7812  143.4071  151.1052 LP  0  0  0  0  0  0  0  0  0  0  0  0  # atno 17342 bound_to 10162
  139.7730  143.8466  152.3124 LP  0  0  0  0  0  0  0  0  0  0  0  0  # atno 17343 bound_to 10162
  157.4306  130.7488  149.6987 LP  0  0  0  0  0  0  0  0  0  0  0  0  # atno 17370 bound_to 10713
  155.9788  130.4047  150.3624 LP  0  0  0  0  0  0  0  0  0  0  0  0  # atno 17371 bound_to 10713
  140.9455  133.7486  156.0202 LP  0  0  0  0  0  0  0  0  0  0  0  0  # atno 17394 bound_to 11000
  140.8168  134.3335  157.5394 LP  0  0  0  0  0  0  0  0  0  0  0  0  # atno 17395 bound_to 11000

$$$$
