AV-unprocessed.smi:713|AV-procd|sdf|3479|dock9
  -GOLD-   22720 0473D 1   1.00000     0.00000
 Structure written by MMmdl.
 41 42  0  0  0  0  0  0  0  0  1 V2000
  153.7598  141.6002  161.0526 C   0  0  0  0  0  0  0  0  0  0  0  0
  153.4988  142.1846  159.6490 C   0  0  1  0  0  0  0  0  0  0  0  0
  152.7921  141.1844  158.7222 C   0  0  0  0  0  0  0  0  0  0  0  0
  153.3063  140.0947  158.4667 O   0  0  0  0  0  0  0  0  0  0  0  0
  151.6028  141.5675  158.2308 N   0  0  0  0  0  0  0  0  0  0  0  0
  150.7575  140.7673  157.3508 C   0  0  2  0  0  0  0  0  0  0  0  0
  151.4433  140.6059  155.9824 C   0  0  0  0  0  0  0  0  0  0  0  0
  150.5595  139.8158  155.0056 C   0  0  0  0  0  0  0  0  0  0  0  0
  149.1779  140.4696  154.8530 C   0  0  0  0  0  0  0  0  0  0  0  0
  148.4773  140.6335  156.2144 C   0  0  2  0  0  0  0  0  0  0  0  0
  146.8425  141.4673  155.9768 S   0  0  0  0  0  0  0  0  0  0  0  0
  146.9042  141.9963  154.2144 C   0  0  0  0  0  0  0  0  0  0  0  0
  145.7780  140.4610  156.1110 O   0  0  0  0  0  0  0  0  0  0  0  0
  146.8125  142.6707  156.8219 O   0  0  0  0  0  0  0  0  0  0  0  0
  149.3687  141.4196  157.1966 C   0  0  0  0  0  0  0  0  0  0  0  0
  152.7544  143.4385  159.6929 N   0  0  0  0  0  0  0  0  0  0  0  0
  152.2640  144.0933  160.8048 C   0  0  0  0  0  0  0  0  0  0  0  0
  151.6763  145.2491  160.3769 C   0  0  0  0  0  0  0  0  0  0  0  0
  151.8715  145.2252  158.9683 C   0  0  0  0  0  0  0  0  0  0  0  0
  152.5252  144.1490  158.5635 N   0  0  0  0  0  0  0  0  0  0  0  0
  154.3669  140.6962  160.9936 H   0  0  0  0  0  0  0  0  0  0  0  0
  152.8356  141.3413  161.5707 H   0  0  0  0  0  0  0  0  0  0  0  0
  154.2985  142.3142  161.6762 H   0  0  0  0  0  0  0  0  0  0  0  0
  154.4733  142.4091  159.2116 H   0  0  0  0  0  0  0  0  0  0  0  0
  151.2529  142.4774  158.4933 H   0  0  0  0  0  0  0  0  0  0  0  0
  150.6337  139.7729  157.7842 H   0  0  0  0  0  0  0  0  0  0  0  0
  151.6621  141.5874  155.5589 H   0  0  0  0  0  0  0  0  0  0  0  0
  152.4020  140.0993  156.1016 H   0  0  0  0  0  0  0  0  0  0  0  0
  151.0482  139.7492  154.0332 H   0  0  0  0  0  0  0  0  0  0  0  0
  150.4422  138.7921  155.3633 H   0  0  0  0  0  0  0  0  0  0  0  0
  149.2880  141.4451  154.3772 H   0  0  0  0  0  0  0  0  0  0  0  0
  148.5606  139.8686  154.1846 H   0  0  0  0  0  0  0  0  0  0  0  0
  148.2731  139.6449  156.6273 H   0  0  0  0  0  0  0  0  0  0  0  0
  146.0219  142.5948  153.9889 H   0  0  0  0  0  0  0  0  0  0  0  0
  146.9148  141.1240  153.5621 H   0  0  0  0  0  0  0  0  0  0  0  0
  147.7981  142.5951  154.0422 H   0  0  0  0  0  0  0  0  0  0  0  0
  148.8863  141.4793  158.1717 H   0  0  0  0  0  0  0  0  0  0  0  0
  149.4846  142.4460  156.8457 H   0  0  0  0  0  0  0  0  0  0  0  0
  152.3733  143.6862  161.7992 H   0  0  0  0  0  0  0  0  0  0  0  0
  151.1867  146.0002  160.9788 H   0  0  0  0  0  0  0  0  0  0  0  0
  151.5653  145.9554  158.2337 H   0  0  0  0  0  0  0  0  0  0  0  0
  1  2  1  0  0  0  0
  1 21  1  0  0  0  0
  1 22  1  0  0  0  0
  1 23  1  0  0  0  0
  2  3  1  0  0  0  0
  2 16  1  0  0  0  0
  2 24  1  0  0  0  0
  3  4  2  0  0  0  0
  3  5  1  0  0  0  0
  5  6  1  0  0  0  0
  5 25  1  0  0  0  0
  6 15  1  0  0  0  0
  6  7  1  0  0  0  0
  6 26  1  0  0  0  0
  7  8  1  0  0  0  0
  7 27  1  0  0  0  0
  7 28  1  0  0  0  0
  8  9  1  0  0  0  0
  8 29  1  0  0  0  0
  8 30  1  0  0  0  0
  9 10  1  0  0  0  0
  9 31  1  0  0  0  0
  9 32  1  0  0  0  0
 10 11  1  0  0  0  0
 10 15  1  0  0  0  0
 10 33  1  0  0  0  0
 11 12  1  0  0  0  0
 11 13  2  0  0  0  0
 11 14  2  0  0  0  0
 12 34  1  0  0  0  0
 12 35  1  0  0  0  0
 12 36  1  0  0  0  0
 15 37  1  0  0  0  0
 15 38  1  0  0  0  0
 16 20  1  0  0  0  0
 16 17  1  0  0  0  0
 17 18  2  0  0  0  0
 17 39  1  0  0  0  0
 18 19  1  0  0  0  0
 18 40  1  0  0  0  0
 19 20  2  0  0  0  0
 19 41  1  0  0  0  0
M  END
> <s_m_source_file>
AV-unprocessed.smi

> <i_m_source_file_index>
713

> <i_lp_mmshare_version>
43012

> <i_f3d_flags>
0

> <s_epik_input>
bjFbY0hdW2NIXVtjSF1uMVtDQEhdKFtDSDNdKUMoPU8pW05IXVtDQEBIXTJbQ0gyXVtDSDJdW0NIMl1bQ0BIXShbQ0gyXTIpUyg9TykoPU8pW0NIM10=

> <s_epik_cmdline>
J2VwaWtfcHl0aG9uJywgJy1waCcsICc3LjAnLCAnLXRuJywgJzgnLCAnLW1hJywgJzIwMCcsICctbWV0YWxfYmluZGluZycsICctaW1hZScsICc8aW5maWxlLm1hZT4nLCAnLW9tYWUnLCAnPG91dGZpbGUubWFlPic=

> <r_lp_tautomer_probability>
1

> <r_epik_Ionization_Penalty>
4.07816e-05

> <r_epik_Ionization_Penalty_Charging>
0

> <r_epik_Ionization_Penalty_Neutral>
4.07816e-05

> <r_epik_State_Penalty>
-0

> <r_epik_Charging_Adjusted_Penalty>
0

> <i_epik_Tot_Q>
0

> <i_epik_Tot_abs_Q>
0

> <r_epik_Metal_State_Penalty>
-0

> <b_epik_Metal_Only>
0

> <s_lp_Force_Field>
OPLS_2005

> <r_lp_Energy>
7.30822

> <b_lp_Chiralities_Consistent>
1

> <s_lp_Variant>
AV-unprocessed.smi:713-6

> <Gold.Version>
5.8.1

> <Gold.Id.Protein>
6NUR|6NUR_protein|mol2

> <Gold.PLP.Fitness>
46.2232

> <Gold.PLP.PLP>
-43.7190

> <Gold.PLP.part.hbond>
-1.0000

> <Gold.PLP.part.metal>
0.0000

> <Gold.PLP.part.buried>
-5.5551

> <Gold.PLP.part.nonpolar>
-37.3194

> <Gold.PLP.part.repulsive>
1.1894

> <Gold.PLP.ligand.clash>
0.0000

> <Gold.PLP.ligand.torsion>
0.3668

> <Gold.PLP.Chemscore.Hbond>
1.0000

> <Gold.PLP.Chemscore.CHOScore>
0.0000

> <Gold.PLP.Chemscore.Metal>
0.0000

> <Gold.Chemscore.Hbonds>
donor molecule, donor type, donor heavy atom, donor atom, acceptor molecule, acceptor atom, score
      P1  H  7997  8009       L1     4  1.00

> <Gold.PLP.Chemscore.Internal.Correction>
0.2379

> <Gold.Rescore>
     Score         DG    S(hbond)    S(metal)    S(lipo)     H(rot)  DE(clash)    DE(int)     intcor
     13.71     -15.69       0.88        0.00      99.96       1.72       0.16       1.82       ----

> <Gold.Chemscore.Fitness>
13.7095

> <Gold.Chemscore.DG>
-15.6916

> <Gold.Chemscore.ZeroCoef>
-5.4800

> <Gold.Chemscore.Hbond>
0.8778

> <Gold.Chemscore.Metal>
0.0000

> <Gold.Chemscore.Lipo>
99.9624

> <Gold.Chemscore.Internal_Hbond>
0.0000

> <Gold.Chemscore.DEClash>
0.1579

> <Gold.Chemscore.DEInternal>
1.8242

> <Gold.Chemscore.Rot>
1.7249

> <Gold.Chemscore.Internal.Correction>
   9.000000E+99

> <Gold.Chemscore.Hbonds>
donor molecule, donor type, donor heavy atom, donor atom, acceptor molecule, acceptor atom, score
      P1  H  7997  8009       L1     4  0.91

> <Gold.Chemscore.Hbond.Weighted>
-2.9317

> <Gold.Chemscore.Metal.Weighted>
-0.0000

> <Gold.Chemscore.Lipo.Weighted>
-11.6956

> <Gold.Chemscore.Internal_Hbond.Weighted>
0.0000

> <Gold.Chemscore.DEClash.Weighted>
0.1579

> <Gold.Chemscore.DEInternal.Weighted>
1.8242

> <Gold.Chemscore.Rot.Weighted>
4.4157

> <Gold.Chemscore.Internal.Correction.Weighted>
   9.000000E+99

> <Gold.Protein.RotatedTorsions>
[ 6907 6896 6895 6894 ] final  -36.72 input  -60.11 | X-H torsion
[ 7974 7965 7964 7962 ] final  154.13 input  175.53 | X-H torsion
[ 8008 7997 7996 7995 ] final  148.20 input   59.86 | X-H torsion
[ 10167 10162 10161 10158 ] final -100.44 input  -65.29 | X-H torsion
[ 10718 10713 10712 10709 ] final  -79.49 input   66.30 | X-H torsion
[ 10763 10752 10751 10750 ] final -173.63 input  -60.55 | X-H torsion
[ 11005 11000 10999 10996 ] final  -46.19 input  -57.11 | X-H torsion

> <Gold.Protein.ActiveResidues>
 VAL166  LYS551  ARG553  GLY616  TRP617  ASP618  TYR619  PRO620  LYS621  CYS622 
 ASP623  PHE694  ASN695  SER759  ASP760  ASP761  ALA762  ILE779  LEU786  VAL792 
 PHE793  MET794  SER795  GLU796  ALA797  LYS798  CYS799  TRP800  GLU811  SER814 

> <Gold.Protein.RotatedAtoms>
  151.0236  134.9487  159.8072 H   0  0  0  0  0  0  0  0  0  0  0  0  # atno 6907 bound_to 6896
  152.5330  134.2872  159.9039 H   0  0  0  0  0  0  0  0  0  0  0  0  # atno 6908 bound_to 6896
  151.2879  133.4137  159.2665 H   0  0  0  0  0  0  0  0  0  0  0  0  # atno 6909 bound_to 6896
  144.8108  139.6893  143.6142 H   0  0  0  0  0  0  0  0  0  0  0  0  # atno 7974 bound_to 7965
  156.2799  140.2135  156.5660 H   0  0  0  0  0  0  0  0  0  0  0  0  # atno 8008 bound_to 7997
  154.7175  140.0506  157.0631 H   0  0  0  0  0  0  0  0  0  0  0  0  # atno 8009 bound_to 7997
  155.0523  140.3157  155.4691 H   0  0  0  0  0  0  0  0  0  0  0  0  # atno 8010 bound_to 7997
  140.2519  143.3467  152.0707 H   0  0  0  0  0  0  0  0  0  0  0  0  # atno 10167 bound_to 10162
  156.0091  130.4547  150.3656 H   0  0  0  0  0  0  0  0  0  0  0  0  # atno 10718 bound_to 10713
  154.6057  135.2859  155.0487 H   0  0  0  0  0  0  0  0  0  0  0  0  # atno 10763 bound_to 10752
  154.1736  135.6468  153.5019 H   0  0  0  0  0  0  0  0  0  0  0  0  # atno 10764 bound_to 10752
  153.0174  135.5407  154.6792 H   0  0  0  0  0  0  0  0  0  0  0  0  # atno 10765 bound_to 10752
  141.0563  133.6724  156.3119 H   0  0  0  0  0  0  0  0  0  0  0  0  # atno 11005 bound_to 11000
  146.2407  139.5995  142.9493 LP  0  0  0  0  0  0  0  0  0  0  0  0  # atno 17320 bound_to 7965
  145.5328  141.0426  143.2374 LP  0  0  0  0  0  0  0  0  0  0  0  0  # atno 17321 bound_to 7965
  139.5043  144.6774  151.6095 LP  0  0  0  0  0  0  0  0  0  0  0  0  # atno 17342 bound_to 10162
  140.6034  143.9569  150.6402 LP  0  0  0  0  0  0  0  0  0  0  0  0  # atno 17343 bound_to 10162
  157.1743  131.0376  151.2780 LP  0  0  0  0  0  0  0  0  0  0  0  0  # atno 17370 bound_to 10713
  157.4201  130.7433  149.6907 LP  0  0  0  0  0  0  0  0  0  0  0  0  # atno 17371 bound_to 10713
  140.5957  134.5605  157.5508 LP  0  0  0  0  0  0  0  0  0  0  0  0  # atno 17394 bound_to 11000
  139.9393  134.7817  156.0720 LP  0  0  0  0  0  0  0  0  0  0  0  0  # atno 17395 bound_to 11000

$$$$
