AV-unprocessed.smi:3275|AV-procd|sdf|12531|dock6
  -GOLD-   2272018443D 1   1.00000     0.00000
 Structure written by MMmdl.
 35 36  0  0  0  0  0  0  0  0  2 V2000
  145.5944  141.7109  154.2775 O   0  0  0  0  0  0  0  0  0  0  0  0
  146.7654  141.4667  153.5289 C   0  0  0  0  0  0  0  0  0  0  0  0
  147.9880  141.9992  154.2832 C   0  0  0  0  0  0  0  0  0  0  0  0
  149.1280  141.2513  153.8863 O   0  0  0  0  0  0  0  0  0  0  0  0
  149.7688  140.5476  154.9423 C   0  0  1  0  0  0  0  0  0  0  0  0
  150.7763  139.5135  154.3967 C   0  0  0  0  0  0  0  0  0  0  0  0
  151.5760  138.8843  155.5493 C   0  0  0  0  0  0  0  0  0  0  0  0
  152.2448  139.9651  156.4148 C   0  0  0  0  0  0  0  0  0  0  0  0
  151.2580  140.9389  156.8741 N   0  0  0  0  0  0  0  0  0  0  0  0
  151.7098  141.7543  157.9273 C   0  0  0  0  0  0  0  0  0  0  0  0
  151.7126  143.1678  157.8188 C   0  0  0  0  0  0  0  0  0  0  0  0
  152.1847  143.9498  158.8920 C   0  0  0  0  0  0  0  0  0  0  0  0
  152.6310  143.3502  160.0153 N   0  3  0  0  0  0  0  0  0  0  0  0
  152.6476  142.0094  160.1685 C   0  0  0  0  0  0  0  0  0  0  0  0
  152.1875  141.1729  159.1309 C   0  0  0  0  0  0  0  0  0  0  0  0
  152.1948  139.4601  159.3719 Cl  0  0  0  0  0  0  0  0  0  0  0  0
  150.4966  141.5900  155.8100 C   0  0  0  0  0  0  0  0  0  0  0  0
  144.8736  141.2623  153.8626 H   0  0  0  0  0  0  0  0  0  0  0  0
  146.8604  140.3948  153.3539 H   0  0  0  0  0  0  0  0  0  0  0  0
  146.6749  141.9510  152.5565 H   0  0  0  0  0  0  0  0  0  0  0  0
  148.1353  143.0556  154.0541 H   0  0  0  0  0  0  0  0  0  0  0  0
  147.8256  141.9127  155.3577 H   0  0  0  0  0  0  0  0  0  0  0  0
  149.0229  140.0464  155.5624 H   0  0  0  0  0  0  0  0  0  0  0  0
  150.2676  138.7279  153.8390 H   0  0  0  0  0  0  0  0  0  0  0  0
  151.4607  139.9994  153.7002 H   0  0  0  0  0  0  0  0  0  0  0  0
  150.9091  138.2836  156.1692 H   0  0  0  0  0  0  0  0  0  0  0  0
  152.3297  138.2027  155.1544 H   0  0  0  0  0  0  0  0  0  0  0  0
  152.7514  139.4979  157.2598 H   0  0  0  0  0  0  0  0  0  0  0  0
  153.0107  140.4838  155.8365 H   0  0  0  0  0  0  0  0  0  0  0  0
  151.3689  143.6613  156.9218 H   0  0  0  0  0  0  0  0  0  0  0  0
  152.2212  145.0295  158.8834 H   0  0  0  0  0  0  0  0  0  0  0  0
  153.0216  141.6463  161.1145 H   0  0  0  0  0  0  0  0  0  0  0  0
  151.1724  142.1740  155.1840 H   0  0  0  0  0  0  0  0  0  0  0  0
  149.7731  142.2830  156.2416 H   0  0  0  0  0  0  0  0  0  0  0  0
  152.9685  143.9343  160.7810 H   0  0  0  0  0  0  0  0  0  0  0  0
  1  2  1  0  0  0  0
  1 18  1  0  0  0  0
  2  3  1  0  0  0  0
  2 19  1  0  0  0  0
  2 20  1  0  0  0  0
  3  4  1  0  0  0  0
  3 21  1  0  0  0  0
  3 22  1  0  0  0  0
  4  5  1  0  0  0  0
  5 17  1  0  0  0  0
  5  6  1  0  0  0  0
  5 23  1  0  0  0  0
  6  7  1  0  0  0  0
  6 24  1  0  0  0  0
  6 25  1  0  0  0  0
  7  8  1  0  0  0  0
  7 26  1  0  0  0  0
  7 27  1  0  0  0  0
  8  9  1  0  0  0  0
  8 28  1  0  0  0  0
  8 29  1  0  0  0  0
  9 10  1  0  0  0  0
  9 17  1  0  0  0  0
 10 15  1  0  0  0  0
 10 11  2  0  0  0  0
 11 12  1  0  0  0  0
 11 30  1  0  0  0  0
 12 13  2  0  0  0  0
 12 31  1  0  0  0  0
 13 14  1  0  0  0  0
 13 35  1  0  0  0  0
 14 15  2  0  0  0  0
 14 32  1  0  0  0  0
 15 16  1  0  0  0  0
 17 33  1  0  0  0  0
 17 34  1  0  0  0  0
M  CHG  1  13   1
M  END
> <s_m_source_file>
AV-unprocessed.smi

> <i_m_source_file_index>
3275

> <i_lp_mmshare_version>
43012

> <i_f3d_flags>
0

> <s_epik_input>
W09IXVtDSDJdW0NIMl1PW0NAQEhdMVtDSDJdW0NIMl1bQ0gyXU4oW0NIMl0xKWMyW2NIXVtjSF1uW2NIXWMyQ2w=

> <s_epik_cmdline>
J2VwaWtfcHl0aG9uJywgJy1waCcsICc3LjAnLCAnLXRuJywgJzgnLCAnLW1hJywgJzIwMCcsICctbWV0YWxfYmluZGluZycsICctaW1hZScsICc8aW5maWxlLm1hZT4nLCAnLW9tYWUnLCAnPG91dGZpbGUubWFlPic=

> <r_lp_tautomer_probability>
1

> <r_epik_Ionization_Penalty>
0.0778579

> <r_epik_Ionization_Penalty_Charging>
0.0778578

> <r_epik_Ionization_Penalty_Neutral>
8.80348e-08

> <r_epik_State_Penalty>
0.0687871

> <r_epik_Charging_Adjusted_Penalty>
0.146645

> <i_epik_Tot_Q>
1

> <i_epik_Tot_abs_Q>
1

> <r_epik_Metal_State_Penalty>
2.85646

> <b_epik_Metal_Only>
0

> <s_lp_Force_Field>
OPLS_2005

> <r_lp_Energy>
26.1135

> <b_lp_Chiralities_Consistent>
1

> <s_lp_Variant>
AV-unprocessed.smi:3275-2

> <Gold.Version>
5.8.1

> <Gold.Id.Protein>
6NUR|6NUR_protein|mol2

> <Gold.PLP.Fitness>
38.7757

> <Gold.PLP.PLP>
-34.6657

> <Gold.PLP.part.hbond>
-2.8306

> <Gold.PLP.part.metal>
0.0000

> <Gold.PLP.part.buried>
-0.8695

> <Gold.PLP.part.nonpolar>
-30.7923

> <Gold.PLP.part.repulsive>
0.9630

> <Gold.PLP.ligand.clash>
0.0000

> <Gold.PLP.ligand.torsion>
0.7999

> <Gold.PLP.Chemscore.Hbond>
1.7977

> <Gold.PLP.Chemscore.CHOScore>
0.0000

> <Gold.PLP.Chemscore.Metal>
0.0000

> <Gold.Chemscore.Hbonds>
donor molecule, donor type, donor heavy atom, donor atom, acceptor molecule, acceptor atom, score
      L1  H     1    18       P1 10175  1.00
      P1  H  8011  8017       L1     4  0.78

> <Gold.PLP.Chemscore.Internal.Correction>
0.3168

> <Gold.Rescore>
     Score         DG    S(hbond)    S(metal)    S(lipo)     H(rot)  DE(clash)    DE(int)     intcor
     13.94     -16.33       1.20        0.00     105.32       2.14       0.38       2.02       ----

> <Gold.Chemscore.Fitness>
13.9402

> <Gold.Chemscore.DG>
-16.3335

> <Gold.Chemscore.ZeroCoef>
-5.4800

> <Gold.Chemscore.Hbond>
1.2003

> <Gold.Chemscore.Metal>
0.0000

> <Gold.Chemscore.Lipo>
105.3240

> <Gold.Chemscore.Internal_Hbond>
0.0000

> <Gold.Chemscore.DEClash>
0.3777

> <Gold.Chemscore.DEInternal>
2.0156

> <Gold.Chemscore.Rot>
2.1400

> <Gold.Chemscore.Internal.Correction>
   9.000000E+99

> <Gold.Chemscore.Hbonds>
donor molecule, donor type, donor heavy atom, donor atom, acceptor molecule, acceptor atom, score
      L1  H     1    18       P1 10175  0.49
      P1  H  8011  8017       L1     4  0.19

> <Gold.Chemscore.Hbond.Weighted>
-4.0089

> <Gold.Chemscore.Metal.Weighted>
-0.0000

> <Gold.Chemscore.Lipo.Weighted>
-12.3229

> <Gold.Chemscore.Internal_Hbond.Weighted>
0.0000

> <Gold.Chemscore.DEClash.Weighted>
0.3777

> <Gold.Chemscore.DEInternal.Weighted>
2.0156

> <Gold.Chemscore.Rot.Weighted>
5.4783

> <Gold.Chemscore.Internal.Correction.Weighted>
   9.000000E+99

> <Gold.Protein.RotatedTorsions>
[ 6907 6896 6895 6894 ] final   -6.43 input  -60.11 | X-H torsion
[ 7974 7965 7964 7962 ] final -127.59 input  175.53 | X-H torsion
[ 8008 7997 7996 7995 ] final   53.72 input   59.86 | X-H torsion
[ 10167 10162 10161 10158 ] final    8.41 input  -65.29 | X-H torsion
[ 10718 10713 10712 10709 ] final  -75.31 input   66.30 | X-H torsion
[ 10763 10752 10751 10750 ] final  177.68 input  -60.55 | X-H torsion
[ 11005 11000 10999 10996 ] final  -48.83 input  -57.11 | X-H torsion

> <Gold.Protein.ActiveResidues>
 VAL166  LYS551  ARG553  GLY616  TRP617  ASP618  TYR619  PRO620  LYS621  CYS622 
 ASP623  PHE694  ASN695  SER759  ASP760  ASP761  ALA762  ILE779  LEU786  VAL792 
 PHE793  MET794  SER795  GLU796  ALA797  LYS798  CYS799  TRP800  GLU811  SER814 

> <Gold.Protein.RotatedAtoms>
  151.4656  135.1042  159.9736 H   0  0  0  0  0  0  0  0  0  0  0  0  # atno 6907 bound_to 6896
  152.4836  133.8312  159.7115 H   0  0  0  0  0  0  0  0  0  0  0  0  # atno 6908 bound_to 6896
  150.8927  133.7161  159.2927 H   0  0  0  0  0  0  0  0  0  0  0  0  # atno 6909 bound_to 6896
  144.9755  140.7588  143.4644 H   0  0  0  0  0  0  0  0  0  0  0  0  # atno 7974 bound_to 7965
  155.4729  140.3466  155.4328 H   0  0  0  0  0  0  0  0  0  0  0  0  # atno 8008 bound_to 7997
  156.1088  140.1455  156.9395 H   0  0  0  0  0  0  0  0  0  0  0  0  # atno 8009 bound_to 7997
  154.4742  140.0890  156.7200 H   0  0  0  0  0  0  0  0  0  0  0  0  # atno 8010 bound_to 7997
  140.6316  143.7981  150.7303 H   0  0  0  0  0  0  0  0  0  0  0  0  # atno 10167 bound_to 10162
  156.0212  130.4438  150.3024 H   0  0  0  0  0  0  0  0  0  0  0  0  # atno 10718 bound_to 10713
  154.4977  135.2782  155.1446 H   0  0  0  0  0  0  0  0  0  0  0  0  # atno 10763 bound_to 10752
  154.3092  135.6232  153.5462 H   0  0  0  0  0  0  0  0  0  0  0  0  # atno 10764 bound_to 10752
  152.9897  135.5715  154.5413 H   0  0  0  0  0  0  0  0  0  0  0  0  # atno 10765 bound_to 10752
  141.0724  133.6675  156.3498 H   0  0  0  0  0  0  0  0  0  0  0  0  # atno 11005 bound_to 11000
  145.2496  139.2037  143.4949 LP  0  0  0  0  0  0  0  0  0  0  0  0  # atno 17320 bound_to 7965
  146.3394  140.2407  142.8595 LP  0  0  0  0  0  0  0  0  0  0  0  0  # atno 17321 bound_to 7965
  140.1594  143.4289  152.2077 LP  0  0  0  0  0  0  0  0  0  0  0  0  # atno 17342 bound_to 10162
  139.5529  144.7351  151.4380 LP  0  0  0  0  0  0  0  0  0  0  0  0  # atno 17343 bound_to 10162
  157.1127  131.0225  151.3041 LP  0  0  0  0  0  0  0  0  0  0  0  0  # atno 17370 bound_to 10713
  157.4692  130.7698  149.7307 LP  0  0  0  0  0  0  0  0  0  0  0  0  # atno 17371 bound_to 10713
  140.5645  134.5901  157.5442 LP  0  0  0  0  0  0  0  0  0  0  0  0  # atno 17394 bound_to 11000
  139.9537  134.7572  156.0390 LP  0  0  0  0  0  0  0  0  0  0  0  0  # atno 17395 bound_to 11000

$$$$
