AV-unprocessed.smi:1213|AV-procd|sdf|5090|dock1
  -GOLD-   22720 4143D 1   1.00000     0.00000
 Structure written by MMmdl.
 36 37  0  0  0  0  0  0  0  0  3 V2000
  144.8669  138.5364  153.4936 N   0  0  0  0  0  0  0  0  0  0  0  0
  146.1241  138.1120  153.3479 C   0  0  0  0  0  0  0  0  0  0  0  0
  146.4976  137.0165  153.7633 O   0  0  0  0  0  0  0  0  0  0  0  0
  147.0890  139.0497  152.6142 C   0  0  0  0  0  0  0  0  0  0  0  0
  148.2777  139.4164  153.4264 N   0  3  2  0  0  0  0  0  0  0  0  0
  148.9623  138.2393  154.0260 C   0  0  0  0  0  0  0  0  0  0  0  0
  150.2584  138.6569  154.7397 C   0  0  0  0  0  0  0  0  0  0  0  0
  149.9799  139.7213  155.8127 C   0  0  1  0  0  0  0  0  0  0  0  0
  151.2355  140.1556  156.4169 N   0  0  0  0  0  0  0  0  0  0  0  0
  151.6065  139.9550  157.6895 C   0  0  0  0  0  0  0  0  0  0  0  0
  150.8549  139.3563  158.4625 O   0  0  0  0  0  0  0  0  0  0  0  0
  152.8230  140.4643  157.9859 N   0  5  0  0  0  0  0  0  0  0  0  0
  153.0228  141.0858  159.1594 C   0  0  0  0  0  0  0  0  0  0  0  0
  153.8807  140.6396  160.0839 N   0  0  0  0  0  0  0  0  0  0  0  0
  153.9359  141.4434  161.2241 C   0  0  0  0  0  0  0  0  0  0  0  0
  153.1064  142.5317  161.1627 C   0  0  0  0  0  0  0  0  0  0  0  0
  152.2262  142.5796  159.6619 S   0  0  0  0  0  0  0  0  0  0  0  0
  149.2378  140.9106  155.1766 C   0  0  0  0  0  0  0  0  0  0  0  0
  147.9658  140.4464  154.4499 C   0  0  0  0  0  0  0  0  0  0  0  0
  144.1932  137.9510  153.9671 H   0  0  0  0  0  0  0  0  0  0  0  0
  144.5873  139.4361  153.1297 H   0  0  0  0  0  0  0  0  0  0  0  0
  147.4084  138.5234  151.7136 H   0  0  0  0  0  0  0  0  0  0  0  0
  146.5700  139.9507  152.2824 H   0  0  0  0  0  0  0  0  0  0  0  0
  148.2909  137.7448  154.7298 H   0  0  0  0  0  0  0  0  0  0  0  0
  149.2012  137.5080  153.2535 H   0  0  0  0  0  0  0  0  0  0  0  0
  150.7278  137.7828  155.1928 H   0  0  0  0  0  0  0  0  0  0  0  0
  150.9674  139.0436  154.0060 H   0  0  0  0  0  0  0  0  0  0  0  0
  149.3483  139.2741  156.5828 H   0  0  0  0  0  0  0  0  0  0  0  0
  151.8845  140.6492  155.8215 H   0  0  0  0  0  0  0  0  0  0  0  0
  154.5963  141.1656  162.0320 H   0  0  0  0  0  0  0  0  0  0  0  0
  152.9606  143.3039  161.9027 H   0  0  0  0  0  0  0  0  0  0  0  0
  148.9750  141.6448  155.9392 H   0  0  0  0  0  0  0  0  0  0  0  0
  149.8938  141.4220  154.4702 H   0  0  0  0  0  0  0  0  0  0  0  0
  147.4935  141.3073  153.9755 H   0  0  0  0  0  0  0  0  0  0  0  0
  147.2476  140.0443  155.1663 H   0  0  0  0  0  0  0  0  0  0  0  0
  148.9341  139.8430  152.7875 H   0  0  0  0  0  0  0  0  0  0  0  0
  1  2  1  0  0  0  0
  1 20  1  0  0  0  0
  1 21  1  0  0  0  0
  2  3  2  0  0  0  0
  2  4  1  0  0  0  0
  4  5  1  0  0  0  0
  4 22  1  0  0  0  0
  4 23  1  0  0  0  0
  5 19  1  0  0  0  0
  5  6  1  0  0  0  0
  5 36  1  0  0  0  0
  6  7  1  0  0  0  0
  6 24  1  0  0  0  0
  6 25  1  0  0  0  0
  7  8  1  0  0  0  0
  7 26  1  0  0  0  0
  7 27  1  0  0  0  0
  8  9  1  0  0  0  0
  8 18  1  0  0  0  0
  8 28  1  0  0  0  0
  9 10  1  0  0  0  0
  9 29  1  0  0  0  0
 10 11  2  0  0  0  0
 10 12  1  0  0  0  0
 12 13  1  0  0  0  0
 13 17  1  0  0  0  0
 13 14  2  0  0  0  0
 14 15  1  0  0  0  0
 15 16  2  0  0  0  0
 15 30  1  0  0  0  0
 16 17  1  0  0  0  0
 16 31  1  0  0  0  0
 18 19  1  0  0  0  0
 18 32  1  0  0  0  0
 18 33  1  0  0  0  0
 19 34  1  0  0  0  0
 19 35  1  0  0  0  0
M  CHG  1   5   1
M  CHG  1  12  -1
M  END
> <s_m_source_file>
AV-unprocessed.smi

> <i_m_source_file_index>
1213

> <i_lp_mmshare_version>
43012

> <i_f3d_flags>
0

> <s_epik_input>
W05IMl1DKD1PKVtDSDJdTjFbQ0gyXVtDSDJdW0NIXShbQ0gyXVtDSDJdMSlbTkhdQyg9TylbTkhdYzJuW2NIXVtjSF1zMg==

> <s_epik_cmdline>
J2VwaWtfcHl0aG9uJywgJy1waCcsICc3LjAnLCAnLXRuJywgJzgnLCAnLW1hJywgJzIwMCcsICctbWV0YWxfYmluZGluZycsICctaW1hZScsICc8aW5maWxlLm1hZT4nLCAnLW9tYWUnLCAnPG91dGZpbGUubWFlPic=

> <r_lp_tautomer_probability>
0.999

> <r_epik_Ionization_Penalty>
7.1168

> <r_epik_Ionization_Penalty_Charging>
6.25003

> <r_epik_Ionization_Penalty_Neutral>
0.866763

> <r_epik_State_Penalty>
6.33484

> <r_epik_Charging_Adjusted_Penalty>
12.5849

> <i_epik_Tot_Q>
0

> <i_epik_Tot_abs_Q>
2

> <r_epik_Metal_State_Penalty>
2.3501

> <b_epik_Metal_Only>
1

> <s_lp_Force_Field>
OPLS_2005

> <r_lp_Energy>
2.02951

> <b_lp_Chiralities_Consistent>
1

> <s_lp_Variant>
AV-unprocessed.smi:1213-7

> <Gold.Version>
5.8.1

> <Gold.Id.Protein>
6NUR|6NUR_protein|mol2

> <Gold.PLP.Fitness>
37.8256

> <Gold.PLP.PLP>
-28.7735

> <Gold.PLP.part.hbond>
-2.8851

> <Gold.PLP.part.metal>
0.0000

> <Gold.PLP.part.buried>
-1.1236

> <Gold.PLP.part.nonpolar>
-25.3342

> <Gold.PLP.part.repulsive>
0.2951

> <Gold.PLP.ligand.clash>
0.0000

> <Gold.PLP.ligand.torsion>
1.0479

> <Gold.PLP.Chemscore.Hbond>
3.6640

> <Gold.PLP.Chemscore.CHOScore>
0.0000

> <Gold.PLP.Chemscore.Metal>
0.0000

> <Gold.Chemscore.Hbonds>
donor molecule, donor type, donor heavy atom, donor atom, acceptor molecule, acceptor atom, score
      L1  H     1    21       P1 10175  0.98
      L1  H     5    36       P1  7957  1.00
      P1  H  7997  8009       L1    12  1.70

> <Gold.PLP.Chemscore.Internal.Correction>
0.1559

> <Gold.Rescore>
     Score         DG    S(hbond)    S(metal)    S(lipo)     H(rot)  DE(clash)    DE(int)     intcor
     14.09     -17.08       2.71        0.00      66.24       2.04       0.66       2.33       ----

> <Gold.Chemscore.Fitness>
14.0868

> <Gold.Chemscore.DG>
-17.0814

> <Gold.Chemscore.ZeroCoef>
-5.4800

> <Gold.Chemscore.Hbond>
2.7147

> <Gold.Chemscore.Metal>
0.0000

> <Gold.Chemscore.Lipo>
66.2366

> <Gold.Chemscore.Internal_Hbond>
0.0000

> <Gold.Chemscore.DEClash>
0.6616

> <Gold.Chemscore.DEInternal>
2.3329

> <Gold.Chemscore.Rot>
2.0373

> <Gold.Chemscore.Internal.Correction>
   9.000000E+99

> <Gold.Chemscore.Hbonds>
donor molecule, donor type, donor heavy atom, donor atom, acceptor molecule, acceptor atom, score
      L1  H     1    21       P1 10175  0.91
      L1  H     5    36       P1  7957  0.95
      P1  H  7997  8009       L1    12  0.68

> <Gold.Chemscore.Hbond.Weighted>
-9.0670

> <Gold.Chemscore.Metal.Weighted>
-0.0000

> <Gold.Chemscore.Lipo.Weighted>
-7.7497

> <Gold.Chemscore.Internal_Hbond.Weighted>
0.0000

> <Gold.Chemscore.DEClash.Weighted>
0.6616

> <Gold.Chemscore.DEInternal.Weighted>
2.3329

> <Gold.Chemscore.Rot.Weighted>
5.2154

> <Gold.Chemscore.Internal.Correction.Weighted>
   9.000000E+99

> <Gold.Protein.RotatedTorsions>
[ 6907 6896 6895 6894 ] final  -54.33 input  -60.11 | X-H torsion
[ 7974 7965 7964 7962 ] final   11.06 input  175.53 | X-H torsion
[ 8008 7997 7996 7995 ] final  160.64 input   59.86 | X-H torsion
[ 10167 10162 10161 10158 ] final   50.29 input  -65.29 | X-H torsion
[ 10718 10713 10712 10709 ] final  -23.77 input   66.30 | X-H torsion
[ 10763 10752 10751 10750 ] final  -35.20 input  -60.55 | X-H torsion
[ 11005 11000 10999 10996 ] final   29.76 input  -57.11 | X-H torsion

> <Gold.Protein.ActiveResidues>
 VAL166  LYS551  ARG553  GLY616  TRP617  ASP618  TYR619  PRO620  LYS621  CYS622 
 ASP623  PHE694  ASN695  SER759  ASP760  ASP761  ALA762  ILE779  LEU786  VAL792 
 PHE793  MET794  SER795  GLU796  ALA797  LYS798  CYS799  TRP800  GLU811  SER814 

> <Gold.Protein.RotatedAtoms>
  150.8347  134.7615  159.6882 H   0  0  0  0  0  0  0  0  0  0  0  0  # atno 6907 bound_to 6896
  152.4446  134.5518  159.9879 H   0  0  0  0  0  0  0  0  0  0  0  0  # atno 6908 bound_to 6896
  151.5671  133.3357  159.3018 H   0  0  0  0  0  0  0  0  0  0  0  0  # atno 6909 bound_to 6896
  146.2378  139.9542  142.8466 H   0  0  0  0  0  0  0  0  0  0  0  0  # atno 7974 bound_to 7965
  156.2158  140.1799  156.7591 H   0  0  0  0  0  0  0  0  0  0  0  0  # atno 8008 bound_to 7997
  154.5790  140.0669  156.9105 H   0  0  0  0  0  0  0  0  0  0  0  0  # atno 8009 bound_to 7997
  155.2537  140.3331  155.4282 H   0  0  0  0  0  0  0  0  0  0  0  0  # atno 8010 bound_to 7997
  140.2740  144.3233  150.6282 H   0  0  0  0  0  0  0  0  0  0  0  0  # atno 10167 bound_to 10162
  156.4866  130.4557  149.6780 H   0  0  0  0  0  0  0  0  0  0  0  0  # atno 10718 bound_to 10713
  153.8592  135.6841  153.4784 H   0  0  0  0  0  0  0  0  0  0  0  0  # atno 10763 bound_to 10752
  153.1351  135.4681  154.9408 H   0  0  0  0  0  0  0  0  0  0  0  0  # atno 10764 bound_to 10752
  154.7766  135.3255  154.8027 H   0  0  0  0  0  0  0  0  0  0  0  0  # atno 10765 bound_to 10752
  140.3015  134.2751  155.7753 H   0  0  0  0  0  0  0  0  0  0  0  0  # atno 11005 bound_to 11000
  145.1833  140.9777  143.4254 LP  0  0  0  0  0  0  0  0  0  0  0  0  # atno 17320 bound_to 7965
  144.9923  139.3678  143.6209 LP  0  0  0  0  0  0  0  0  0  0  0  0  # atno 17321 bound_to 7965
  140.5866  143.2170  151.7330 LP  0  0  0  0  0  0  0  0  0  0  0  0  # atno 17342 bound_to 10162
  139.4981  144.4001  152.0190 LP  0  0  0  0  0  0  0  0  0  0  0  0  # atno 17343 bound_to 10162
  156.3468  130.7411  151.2364 LP  0  0  0  0  0  0  0  0  0  0  0  0  # atno 17370 bound_to 10713
  157.7478  131.0388  150.4521 LP  0  0  0  0  0  0  0  0  0  0  0  0  # atno 17371 bound_to 10713
  141.2127  133.7649  156.9774 LP  0  0  0  0  0  0  0  0  0  0  0  0  # atno 17394 bound_to 11000
  140.1105  134.9480  157.2058 LP  0  0  0  0  0  0  0  0  0  0  0  0  # atno 17395 bound_to 11000

$$$$
