AV-unprocessed.smi:2072|AV-procd|sdf|8446|dock2
  -GOLD-   2272011143D 1   1.00000     0.00000
 Structure written by MMmdl.
 40 42  0  0  0  0  0  0  0  0  2 V2000
  149.9524  134.5961  155.9394 O   0  0  0  0  0  0  0  0  0  0  0  0
  149.6147  134.9533  154.8116 C   0  0  0  0  0  0  0  0  0  0  0  0
  149.9285  136.1257  154.2342 N   0  0  0  0  0  0  0  0  0  0  0  0
  150.6861  137.2077  154.7605 C   0  0  0  0  0  0  0  0  0  0  0  0
  151.5176  137.1283  155.9047 C   0  0  0  0  0  0  0  0  0  0  0  0
  152.2227  138.2765  156.3136 C   0  0  0  0  0  0  0  0  0  0  0  0
  152.0784  139.4587  155.5628 C   0  0  0  0  0  0  0  0  0  0  0  0
  151.2996  139.5463  154.4643 N   0  0  0  0  0  0  0  0  0  0  0  0
  150.6264  138.4417  154.0783 C   0  0  0  0  0  0  0  0  0  0  0  0
  148.8492  134.2060  154.0032 N   0  0  0  0  0  0  0  0  0  0  0  0
  148.3403  132.8721  154.3195 C   0  0  2  0  0  0  0  0  0  0  0  0
  149.4019  131.7683  154.1493 C   0  0  0  0  0  0  0  0  0  0  0  0
  148.6444  130.5957  153.5177 C   0  0  0  0  0  0  0  0  0  0  0  0
  147.6446  131.2659  152.6783 N   0  3  1  0  0  0  0  0  0  0  0  0
  146.5587  130.4559  152.0901 C   0  0  0  0  0  0  0  0  0  0  0  0
  145.7626  131.3451  151.1110 C   0  0  0  0  0  0  0  0  0  0  0  0
  145.2925  132.6629  151.7675 C   0  0  0  0  0  0  0  0  0  0  0  0
  146.4514  133.3971  152.4762 C   0  0  0  0  0  0  0  0  0  0  0  0
  147.1453  132.4212  153.4442 C   0  0  2  0  0  0  0  0  0  0  0  0
  149.5288  136.2889  153.3216 H   0  0  0  0  0  0  0  0  0  0  0  0
  151.6404  136.2181  156.4695 H   0  0  0  0  0  0  0  0  0  0  0  0
  152.8633  138.2501  157.1826 H   0  0  0  0  0  0  0  0  0  0  0  0
  152.6058  140.3565  155.8499 H   0  0  0  0  0  0  0  0  0  0  0  0
  150.0145  138.5495  153.1946 H   0  0  0  0  0  0  0  0  0  0  0  0
  148.6151  134.5802  153.0950 H   0  0  0  0  0  0  0  0  0  0  0  0
  148.0195  132.8630  155.3634 H   0  0  0  0  0  0  0  0  0  0  0  0
  150.1854  132.0982  153.4654 H   0  0  0  0  0  0  0  0  0  0  0  0
  149.8810  131.4961  155.0905 H   0  0  0  0  0  0  0  0  0  0  0  0
  149.2923  129.9388  152.9366 H   0  0  0  0  0  0  0  0  0  0  0  0
  148.1449  130.0021  154.2849 H   0  0  0  0  0  0  0  0  0  0  0  0
  146.9809  129.6000  151.5627 H   0  0  0  0  0  0  0  0  0  0  0  0
  145.9112  130.0659  152.8769 H   0  0  0  0  0  0  0  0  0  0  0  0
  146.3922  131.5822  150.2524 H   0  0  0  0  0  0  0  0  0  0  0  0
  144.9059  130.7959  150.7189 H   0  0  0  0  0  0  0  0  0  0  0  0
  144.8387  133.3137  151.0194 H   0  0  0  0  0  0  0  0  0  0  0  0
  144.5104  132.4407  152.4946 H   0  0  0  0  0  0  0  0  0  0  0  0
  147.1626  133.7742  151.7399 H   0  0  0  0  0  0  0  0  0  0  0  0
  146.0606  134.2609  153.0143 H   0  0  0  0  0  0  0  0  0  0  0  0
  146.3874  132.0491  154.1372 H   0  0  0  0  0  0  0  0  0  0  0  0
  148.1639  131.6519  151.9028 H   0  0  0  0  0  0  0  0  0  0  0  0
  1  2  2  0  0  0  0
  2  3  1  0  0  0  0
  2 10  1  0  0  0  0
  3  4  1  0  0  0  0
  3 20  1  0  0  0  0
  4  9  1  0  0  0  0
  4  5  2  0  0  0  0
  5  6  1  0  0  0  0
  5 21  1  0  0  0  0
  6  7  2  0  0  0  0
  6 22  1  0  0  0  0
  7  8  1  0  0  0  0
  7 23  1  0  0  0  0
  8  9  2  0  0  0  0
  9 24  1  0  0  0  0
 10 11  1  0  0  0  0
 10 25  1  0  0  0  0
 11 19  1  0  0  0  0
 11 12  1  0  0  0  0
 11 26  1  0  0  0  0
 12 13  1  0  0  0  0
 12 27  1  0  0  0  0
 12 28  1  0  0  0  0
 13 14  1  0  0  0  0
 13 29  1  0  0  0  0
 13 30  1  0  0  0  0
 14 19  1  0  0  0  0
 14 15  1  0  0  0  0
 14 40  1  0  0  0  0
 15 16  1  0  0  0  0
 15 31  1  0  0  0  0
 15 32  1  0  0  0  0
 16 17  1  0  0  0  0
 16 33  1  0  0  0  0
 16 34  1  0  0  0  0
 17 18  1  0  0  0  0
 17 35  1  0  0  0  0
 17 36  1  0  0  0  0
 18 19  1  0  0  0  0
 18 37  1  0  0  0  0
 18 38  1  0  0  0  0
 19 39  1  0  0  0  0
M  CHG  1  14   1
M  END
> <s_m_source_file>
AV-unprocessed.smi

> <i_m_source_file_index>
2072

> <i_lp_mmshare_version>
43012

> <i_f3d_flags>
0

> <s_epik_input>
W0NIMl0xW0NIMl1bQ0gyXVtDSDJdW0NASF0oTjEyKVtDQEBIXShbQ0gyXVtDSDJdMilbTkhdQyg9TylbTkhdYzNbY0hdW2NIXVtjSF1uW2NIXTM=

> <s_epik_cmdline>
J2VwaWtfcHl0aG9uJywgJy1waCcsICc3LjAnLCAnLXRuJywgJzgnLCAnLW1hJywgJzIwMCcsICctbWV0YWxfYmluZGluZycsICctaW1hZScsICc8aW5maWxlLm1hZT4nLCAnLW9tYWUnLCAnPG91dGZpbGUubWFlPic=

> <r_lp_tautomer_probability>
1

> <r_epik_Ionization_Penalty>
0.00482425

> <r_epik_Ionization_Penalty_Charging>
0.000974069

> <r_epik_Ionization_Penalty_Neutral>
0.00385018

> <r_epik_State_Penalty>
-0

> <r_epik_Charging_Adjusted_Penalty>
0.000974069

> <i_epik_Tot_Q>
1

> <i_epik_Tot_abs_Q>
1

> <r_epik_Metal_State_Penalty>
-0

> <b_epik_Metal_Only>
0

> <s_lp_Force_Field>
OPLS_2005

> <r_lp_Energy>
44.3747

> <b_lp_Chiralities_Consistent>
1

> <s_lp_Variant>
AV-unprocessed.smi:2072-5

> <Gold.Version>
5.8.1

> <Gold.Id.Protein>
6NUR|6NUR_protein|mol2

> <Gold.PLP.Fitness>
45.1644

> <Gold.PLP.PLP>
-31.6406

> <Gold.PLP.part.hbond>
-4.9864

> <Gold.PLP.part.metal>
0.0000

> <Gold.PLP.part.buried>
-0.9650

> <Gold.PLP.part.nonpolar>
-25.4716

> <Gold.PLP.part.repulsive>
0.1979

> <Gold.PLP.ligand.clash>
0.0000

> <Gold.PLP.ligand.torsion>
0.2976

> <Gold.PLP.Chemscore.Hbond>
3.4988

> <Gold.PLP.Chemscore.CHOScore>
1.2074

> <Gold.PLP.Chemscore.Metal>
0.0000

> <Gold.Chemscore.Hbonds>
donor molecule, donor type, donor heavy atom, donor atom, acceptor molecule, acceptor atom, score
      L1  H     3    20       P1  7948  1.00
      L1  H    10    25       P1  7948  0.81
      L1  H    14    40       P1 10747  0.67
      P1  H  7989  7998       L1     8  1.00
      L1  C     9    24       P1  7948  0.21
      L1  C     9    24       P1  7957  0.98

> <Gold.PLP.Chemscore.Internal.Correction>
0.0005

> <Gold.Rescore>
     Score         DG    S(hbond)    S(metal)    S(lipo)     H(rot)  DE(clash)    DE(int)     intcor
     20.09     -21.50       2.81        0.00      78.53       1.00       0.05       1.36       ----

> <Gold.Chemscore.Fitness>
20.0896

> <Gold.Chemscore.DG>
-21.5040

> <Gold.Chemscore.ZeroCoef>
-5.4800

> <Gold.Chemscore.Hbond>
2.8130

> <Gold.Chemscore.Metal>
0.0000

> <Gold.Chemscore.Lipo>
78.5340

> <Gold.Chemscore.Internal_Hbond>
0.0000

> <Gold.Chemscore.DEClash>
0.0511

> <Gold.Chemscore.DEInternal>
1.3633

> <Gold.Chemscore.Rot>
1.0000

> <Gold.Chemscore.Internal.Correction>
   9.000000E+99

> <Gold.Chemscore.Hbonds>
donor molecule, donor type, donor heavy atom, donor atom, acceptor molecule, acceptor atom, score
      L1  H     3    20       P1  7948  0.42
      L1  H    10    25       P1  7948  0.19
      L1  H    14    40       P1 10747  0.65
      P1  H  7989  7998       L1     8  0.88

> <Gold.Chemscore.Hbond.Weighted>
-9.3956

> <Gold.Chemscore.Metal.Weighted>
-0.0000

> <Gold.Chemscore.Lipo.Weighted>
-9.1885

> <Gold.Chemscore.Internal_Hbond.Weighted>
0.0000

> <Gold.Chemscore.DEClash.Weighted>
0.0511

> <Gold.Chemscore.DEInternal.Weighted>
1.3633

> <Gold.Chemscore.Rot.Weighted>
2.5600

> <Gold.Chemscore.Internal.Correction.Weighted>
   9.000000E+99

> <Gold.Protein.RotatedTorsions>
[ 6907 6896 6895 6894 ] final   56.01 input  -60.11 | X-H torsion
[ 7974 7965 7964 7962 ] final    8.53 input  175.53 | X-H torsion
[ 8008 7997 7996 7995 ] final -177.31 input   59.86 | X-H torsion
[ 10167 10162 10161 10158 ] final   48.64 input  -65.29 | X-H torsion
[ 10718 10713 10712 10709 ] final   86.17 input   66.30 | X-H torsion
[ 10763 10752 10751 10750 ] final  -55.57 input  -60.55 | X-H torsion
[ 11005 11000 10999 10996 ] final  -87.46 input  -57.11 | X-H torsion

> <Gold.Protein.ActiveResidues>
 VAL166  LYS551  ARG553  GLY616  TRP617  ASP618  TYR619  PRO620  LYS621  CYS622 
 ASP623  PHE694  ASN695  SER759  ASP760  ASP761  ALA762  ILE779  LEU786  VAL792 
 PHE793  MET794  SER795  GLU796  ALA797  LYS798  CYS799  TRP800  GLU811  SER814 

> <Gold.Protein.RotatedAtoms>
  152.3595  134.6893  160.0211 H   0  0  0  0  0  0  0  0  0  0  0  0  # atno 6907 bound_to 6896
  151.7221  133.3309  159.3326 H   0  0  0  0  0  0  0  0  0  0  0  0  # atno 6908 bound_to 6896
  150.7594  134.6373  159.6263 H   0  0  0  0  0  0  0  0  0  0  0  0  # atno 6909 bound_to 6896
  146.2415  139.9919  142.8425 H   0  0  0  0  0  0  0  0  0  0  0  0  # atno 7974 bound_to 7965
  156.0053  140.1229  157.0507 H   0  0  0  0  0  0  0  0  0  0  0  0  # atno 8008 bound_to 7997
  154.4256  140.1098  156.5823 H   0  0  0  0  0  0  0  0  0  0  0  0  # atno 8009 bound_to 7997
  155.6155  140.3472  155.4638 H   0  0  0  0  0  0  0  0  0  0  0  0  # atno 8010 bound_to 7997
  140.2911  144.3044  150.6240 H   0  0  0  0  0  0  0  0  0  0  0  0  # atno 10167 bound_to 10162
  157.6925  131.0205  150.2933 H   0  0  0  0  0  0  0  0  0  0  0  0  # atno 10718 bound_to 10713
  154.1929  135.6424  153.5065 H   0  0  0  0  0  0  0  0  0  0  0  0  # atno 10763 bound_to 10752
  153.0030  135.5433  154.6396 H   0  0  0  0  0  0  0  0  0  0  0  0  # atno 10764 bound_to 10752
  154.5789  135.2923  155.0725 H   0  0  0  0  0  0  0  0  0  0  0  0  # atno 10765 bound_to 10752
  141.1616  133.7512  156.9310 H   0  0  0  0  0  0  0  0  0  0  0  0  # atno 11005 bound_to 11000
  145.1495  140.9615  143.4441 LP  0  0  0  0  0  0  0  0  0  0  0  0  # atno 17320 bound_to 7965
  145.0219  139.3417  143.6068 LP  0  0  0  0  0  0  0  0  0  0  0  0  # atno 17321 bound_to 7965
  140.5731  143.2179  151.7563 LP  0  0  0  0  0  0  0  0  0  0  0  0  # atno 17342 bound_to 10162
  139.4938  144.4188  152.0000 LP  0  0  0  0  0  0  0  0  0  0  0  0  # atno 17343 bound_to 10162
  156.3460  130.3823  149.7368 LP  0  0  0  0  0  0  0  0  0  0  0  0  # atno 17370 bound_to 10713
  156.4862  130.8064  151.3076 LP  0  0  0  0  0  0  0  0  0  0  0  0  # atno 17371 bound_to 10713
  140.1386  134.9308  157.2436 LP  0  0  0  0  0  0  0  0  0  0  0  0  # atno 17394 bound_to 11000
  140.2864  134.3291  155.7328 LP  0  0  0  0  0  0  0  0  0  0  0  0  # atno 17395 bound_to 11000

$$$$
