AV-unprocessed.smi:835|AV-procd|sdf|3888|dock3
  -GOLD-   22720 1343D 1   1.00000     0.00000
 Structure written by MMmdl.
 41 43  0  0  0  0  0  0  0  0  2 V2000
  150.3244  139.3302  155.6897 C   0  0  0  0  0  0  0  0  0  0  0  0
  148.9746  139.5173  155.0621 C   0  0  0  0  0  0  0  0  0  0  0  0
  148.1509  138.5325  154.4429 C   0  0  0  0  0  0  0  0  0  0  0  0
  147.0560  139.2559  154.0559 C   0  0  0  0  0  0  0  0  0  0  0  0
  145.9363  138.8339  153.4100 N   0  0  0  0  0  0  0  0  0  0  0  0
  145.5148  137.5753  153.1955 C   0  0  0  0  0  0  0  0  0  0  0  0
  146.0974  136.5533  153.5581 O   0  0  0  0  0  0  0  0  0  0  0  0
  144.3560  137.5590  152.5217 N   0  0  0  0  0  0  0  0  0  0  0  0
  143.6405  136.3472  152.1359 C   0  0  2  0  0  0  0  0  0  0  0  0
  143.5963  135.2662  153.2194 C   0  0  0  0  0  0  0  0  0  0  0  0
  143.5363  133.9409  152.4406 C   0  0  0  0  0  0  0  0  0  0  0  0
  143.7482  134.2727  151.0122 N   0  3  2  0  0  0  0  0  0  0  0  0
  144.5265  133.2656  150.2609 C   0  0  0  0  0  0  0  0  0  0  0  0
  144.2015  131.8420  150.6454 C   0  0  0  0  0  0  0  0  0  0  0  0
  145.4881  132.4814  151.1213 C   0  0  0  0  0  0  0  0  0  0  0  0
  144.3221  135.6290  150.9758 C   0  0  0  0  0  0  0  0  0  0  0  0
  147.2366  140.5696  154.4280 N   0  0  0  0  0  0  0  0  0  0  0  0
  146.3612  141.7096  154.2375 C   0  0  0  0  0  0  0  0  0  0  0  0
  148.4257  140.7267  155.0487 N   0  0  0  0  0  0  0  0  0  0  0  0
  150.5817  138.2733  155.7626 H   0  0  0  0  0  0  0  0  0  0  0  0
  150.3527  139.7475  156.6966 H   0  0  0  0  0  0  0  0  0  0  0  0
  151.1006  139.8210  155.1022 H   0  0  0  0  0  0  0  0  0  0  0  0
  148.3507  137.4794  154.3156 H   0  0  0  0  0  0  0  0  0  0  0  0
  145.3477  139.5696  153.0482 H   0  0  0  0  0  0  0  0  0  0  0  0
  143.9420  138.4422  152.2605 H   0  0  0  0  0  0  0  0  0  0  0  0
  142.6212  136.6014  151.8372 H   0  0  0  0  0  0  0  0  0  0  0  0
  144.5051  135.2930  153.8225 H   0  0  0  0  0  0  0  0  0  0  0  0
  142.7485  135.3929  153.8937 H   0  0  0  0  0  0  0  0  0  0  0  0
  144.3029  133.2562  152.8063 H   0  0  0  0  0  0  0  0  0  0  0  0
  142.5701  133.4492  152.5571 H   0  0  0  0  0  0  0  0  0  0  0  0
  144.7835  133.5165  149.2329 H   0  0  0  0  0  0  0  0  0  0  0  0
  143.4207  131.6728  151.3851 H   0  0  0  0  0  0  0  0  0  0  0  0
  144.2800  131.0822  149.8705 H   0  0  0  0  0  0  0  0  0  0  0  0
  146.4132  132.1419  150.6594 H   0  0  0  0  0  0  0  0  0  0  0  0
  145.5626  132.7378  152.1766 H   0  0  0  0  0  0  0  0  0  0  0  0
  144.1421  136.1151  150.0165 H   0  0  0  0  0  0  0  0  0  0  0  0
  145.4008  135.5774  151.1367 H   0  0  0  0  0  0  0  0  0  0  0  0
  146.2852  141.9381  153.1745 H   0  0  0  0  0  0  0  0  0  0  0  0
  146.7494  142.5839  154.7617 H   0  0  0  0  0  0  0  0  0  0  0  0
  145.3687  141.4794  154.6252 H   0  0  0  0  0  0  0  0  0  0  0  0
  142.8322  134.3358  150.5912 H   0  0  0  0  0  0  0  0  0  0  0  0
  1  2  1  0  0  0  0
  1 20  1  0  0  0  0
  1 21  1  0  0  0  0
  1 22  1  0  0  0  0
  2 19  2  0  0  0  0
  2  3  1  0  0  0  0
  3  4  2  0  0  0  0
  3 23  1  0  0  0  0
  4  5  1  0  0  0  0
  4 17  1  0  0  0  0
  5  6  1  0  0  0  0
  5 24  1  0  0  0  0
  6  7  2  0  0  0  0
  6  8  1  0  0  0  0
  8  9  1  0  0  0  0
  8 25  1  0  0  0  0
  9 16  1  0  0  0  0
  9 10  1  0  0  0  0
  9 26  1  0  0  0  0
 10 11  1  0  0  0  0
 10 27  1  0  0  0  0
 10 28  1  0  0  0  0
 11 12  1  0  0  0  0
 11 29  1  0  0  0  0
 11 30  1  0  0  0  0
 12 13  1  0  0  0  0
 12 16  1  0  0  0  0
 12 41  1  0  0  0  0
 13 15  1  0  0  0  0
 13 14  1  0  0  0  0
 13 31  1  0  0  0  0
 14 15  1  0  0  0  0
 14 32  1  0  0  0  0
 14 33  1  0  0  0  0
 15 34  1  0  0  0  0
 15 35  1  0  0  0  0
 16 36  1  0  0  0  0
 16 37  1  0  0  0  0
 17 18  1  0  0  0  0
 17 19  1  0  0  0  0
 18 38  1  0  0  0  0
 18 39  1  0  0  0  0
 18 40  1  0  0  0  0
M  CHG  1  12   1
M  END
> <s_m_source_file>
AV-unprocessed.smi

> <i_m_source_file_index>
835

> <i_lp_mmshare_version>
43012

> <i_f3d_flags>
0

> <s_epik_input>
W0NIM11jMVtjSF1jKG4objEpW0NIM10pW05IXUMoPU8pW05IXVtDQEBIXTJbQ0gyXVtDSDJdTihbQ0gyXTIpW0NIXTNbQ0gyXVtDSDJdMw==

> <s_epik_cmdline>
J2VwaWtfcHl0aG9uJywgJy1waCcsICc3LjAnLCAnLXRuJywgJzgnLCAnLW1hJywgJzIwMCcsICctbWV0YWxfYmluZGluZycsICctaW1hZScsICc8aW5maWxlLm1hZT4nLCAnLW9tYWUnLCAnPG91dGZpbGUubWFlPic=

> <r_lp_tautomer_probability>
1

> <r_epik_Ionization_Penalty>
0.000700689

> <r_epik_Ionization_Penalty_Charging>
0.000627528

> <r_epik_Ionization_Penalty_Neutral>
7.31611e-05

> <r_epik_State_Penalty>
0.00039643

> <r_epik_Charging_Adjusted_Penalty>
0.00102396

> <i_epik_Tot_Q>
1

> <i_epik_Tot_abs_Q>
1

> <r_epik_Metal_State_Penalty>
-0

> <b_epik_Metal_Only>
0

> <s_lp_Force_Field>
OPLS_2005

> <r_lp_Energy>
38.0167

> <b_lp_Chiralities_Consistent>
1

> <s_lp_Variant>
AV-unprocessed.smi:835-3

> <Gold.Version>
5.8.1

> <Gold.Id.Protein>
6NUR|6NUR_protein|mol2

> <Gold.PLP.Fitness>
45.4471

> <Gold.PLP.PLP>
-33.9439

> <Gold.PLP.part.hbond>
-4.0000

> <Gold.PLP.part.metal>
0.0000

> <Gold.PLP.part.buried>
-2.9264

> <Gold.PLP.part.nonpolar>
-28.0534

> <Gold.PLP.part.repulsive>
0.8903

> <Gold.PLP.ligand.clash>
0.0000

> <Gold.PLP.ligand.torsion>
0.8804

> <Gold.PLP.Chemscore.Hbond>
4.0000

> <Gold.PLP.Chemscore.CHOScore>
0.0000

> <Gold.PLP.Chemscore.Metal>
0.0000

> <Gold.Chemscore.Hbonds>
donor molecule, donor type, donor heavy atom, donor atom, acceptor molecule, acceptor atom, score
      L1  H     5    24       P1 10175  1.00
      L1  H     8    25       P1 10175  1.00
      L1  H    12    41       P1 10186  1.69

> <Gold.PLP.Chemscore.Internal.Correction>
1.2641

> <Gold.Rescore>
     Score         DG    S(hbond)    S(metal)    S(lipo)     H(rot)  DE(clash)    DE(int)     intcor
     16.08     -19.65       2.67        0.00      71.62       1.22       0.65       2.91       ----

> <Gold.Chemscore.Fitness>
16.0784

> <Gold.Chemscore.DG>
-19.6458

> <Gold.Chemscore.ZeroCoef>
-5.4800

> <Gold.Chemscore.Hbond>
2.6671

> <Gold.Chemscore.Metal>
0.0000

> <Gold.Chemscore.Lipo>
71.6238

> <Gold.Chemscore.Internal_Hbond>
0.0000

> <Gold.Chemscore.DEClash>
0.6527

> <Gold.Chemscore.DEInternal>
2.9147

> <Gold.Chemscore.Rot>
1.2196

> <Gold.Chemscore.Internal.Correction>
   9.000000E+99

> <Gold.Chemscore.Hbonds>
donor molecule, donor type, donor heavy atom, donor atom, acceptor molecule, acceptor atom, score
      L1  H     5    24       P1 10175  0.97
      L1  H     8    25       P1 10175  0.92
      L1  H    12    41       P1 10186  0.50

> <Gold.Chemscore.Hbond.Weighted>
-8.9081

> <Gold.Chemscore.Metal.Weighted>
-0.0000

> <Gold.Chemscore.Lipo.Weighted>
-8.3800

> <Gold.Chemscore.Internal_Hbond.Weighted>
0.0000

> <Gold.Chemscore.DEClash.Weighted>
0.6527

> <Gold.Chemscore.DEInternal.Weighted>
2.9147

> <Gold.Chemscore.Rot.Weighted>
3.1223

> <Gold.Chemscore.Internal.Correction.Weighted>
   9.000000E+99

> <Gold.Protein.RotatedTorsions>
[ 6907 6896 6895 6894 ] final -111.12 input  -60.11 | X-H torsion
[ 7974 7965 7964 7962 ] final  -10.81 input  175.53 | X-H torsion
[ 8008 7997 7996 7995 ] final  -23.23 input   59.86 | X-H torsion
[ 10167 10162 10161 10158 ] final -113.37 input  -65.29 | X-H torsion
[ 10718 10713 10712 10709 ] final -120.07 input   66.30 | X-H torsion
[ 10763 10752 10751 10750 ] final   79.34 input  -60.55 | X-H torsion
[ 11005 11000 10999 10996 ] final   80.72 input  -57.11 | X-H torsion

> <Gold.Protein.ActiveResidues>
 VAL166  LYS551  ARG553  GLY616  TRP617  ASP618  TYR619  PRO620  LYS621  CYS622 
 ASP623  PHE694  ASN695  SER759  ASP760  ASP761  ALA762  ILE779  LEU786  VAL792 
 PHE793  MET794  SER795  GLU796  ALA797  LYS798  CYS799  TRP800  GLU811  SER814 

> <Gold.Protein.RotatedAtoms>
  150.7669  133.9282  159.3418 H   0  0  0  0  0  0  0  0  0  0  0  0  # atno 6907 bound_to 6896
  151.7178  135.0898  160.0288 H   0  0  0  0  0  0  0  0  0  0  0  0  # atno 6908 bound_to 6896
  152.3669  133.6330  159.6093 H   0  0  0  0  0  0  0  0  0  0  0  0  # atno 6909 bound_to 6896
  146.2208  140.2819  142.8363 H   0  0  0  0  0  0  0  0  0  0  0  0  # atno 7974 bound_to 7965
  154.4597  140.1986  156.0278 H   0  0  0  0  0  0  0  0  0  0  0  0  # atno 8008 bound_to 7997
  156.0817  140.3270  155.7673 H   0  0  0  0  0  0  0  0  0  0  0  0  # atno 8009 bound_to 7997
  155.5101  140.0561  157.2915 H   0  0  0  0  0  0  0  0  0  0  0  0  # atno 8010 bound_to 7997
  140.1125  143.4514  152.1743 H   0  0  0  0  0  0  0  0  0  0  0  0  # atno 10167 bound_to 10162
  156.1229  130.6337  150.9494 H   0  0  0  0  0  0  0  0  0  0  0  0  # atno 10718 bound_to 10713
  153.0945  135.4843  154.8752 H   0  0  0  0  0  0  0  0  0  0  0  0  # atno 10763 bound_to 10752
  154.7308  135.3059  154.8897 H   0  0  0  0  0  0  0  0  0  0  0  0  # atno 10764 bound_to 10752
  153.9533  135.6821  153.4797 H   0  0  0  0  0  0  0  0  0  0  0  0  # atno 10765 bound_to 10752
  139.9124  134.7942  156.1946 H   0  0  0  0  0  0  0  0  0  0  0  0  # atno 11005 bound_to 11000
  144.9191  140.7846  143.5760 LP  0  0  0  0  0  0  0  0  0  0  0  0  # atno 17320 bound_to 7965
  145.2755  139.1938  143.4819 LP  0  0  0  0  0  0  0  0  0  0  0  0  # atno 17321 bound_to 7965
  139.5611  144.7406  151.4152 LP  0  0  0  0  0  0  0  0  0  0  0  0  # atno 17342 bound_to 10162
  140.6917  143.7845  150.7266 LP  0  0  0  0  0  0  0  0  0  0  0  0  # atno 17343 bound_to 10162
  157.6412  131.0910  150.8247 LP  0  0  0  0  0  0  0  0  0  0  0  0  # atno 17370 bound_to 10713
  156.8341  130.5026  149.5328 LP  0  0  0  0  0  0  0  0  0  0  0  0  # atno 17371 bound_to 10713
  141.0562  133.6864  156.1865 LP  0  0  0  0  0  0  0  0  0  0  0  0  # atno 17394 bound_to 11000
  140.6733  134.4845  157.5587 LP  0  0  0  0  0  0  0  0  0  0  0  0  # atno 17395 bound_to 11000

$$$$
