AV-unprocessed.smi:2734|AV-procd|sdf|10539|dock4
  -GOLD-   2272014583D 1   1.00000     0.00000
 Structure written by MMmdl.
 41 43  0  0  0  0  0  0  0  0  2 V2000
  153.8177  142.6627  160.8720 C   0  0  0  0  0  0  0  0  0  0  0  0
  152.9744  142.2718  159.6702 C   0  0  0  0  0  0  0  0  0  0  0  0
  152.8839  140.9039  159.3268 C   0  0  0  0  0  0  0  0  0  0  0  0
  152.1024  140.5769  158.2251 C   0  0  0  0  0  0  0  0  0  0  0  0
  151.8133  139.3414  157.6412 N   0  3  0  0  0  0  0  0  0  0  0  0
  150.9902  139.5257  156.5718 C   0  0  0  0  0  0  0  0  0  0  0  0
  150.7504  140.8607  156.4651 N   0  0  0  0  0  0  0  0  0  0  0  0
  149.9261  141.5978  155.4986 C   0  0  0  0  0  0  0  0  0  0  0  0
  149.0023  140.6768  154.6779 C   0  0  2  0  0  0  0  0  0  0  0  0
  149.3202  140.7948  153.3041 O   0  0  0  0  0  0  0  0  0  0  0  0
  147.5184  141.0171  154.8872 C   0  0  0  0  0  0  0  0  0  0  0  0
  147.0219  142.5000  153.9575 S   0  0  0  0  0  0  0  0  0  0  0  0
  145.6490  143.0257  154.9369 C   0  0  0  0  0  0  0  0  0  0  0  0
  145.2641  142.5161  156.1015 N   0  0  0  0  0  0  0  0  0  0  0  0
  144.1570  143.2679  156.4465 N   0  0  0  0  0  0  0  0  0  0  0  0
  143.8983  144.1682  155.5432 N   0  0  0  0  0  0  0  0  0  0  0  0
  144.8377  144.0280  154.5765 N   0  0  0  0  0  0  0  0  0  0  0  0
  144.8439  144.8853  153.4080 C   0  0  0  0  0  0  0  0  0  0  0  0
  151.4245  141.5561  157.4737 C   0  0  0  0  0  0  0  0  0  0  0  0
  151.5039  142.9084  157.7963 C   0  0  0  0  0  0  0  0  0  0  0  0
  152.2948  143.2616  158.9132 C   0  0  0  0  0  0  0  0  0  0  0  0
  152.4001  144.7295  159.2905 C   0  0  0  0  0  0  0  0  0  0  0  0
  154.2225  141.7856  161.3779 H   0  0  0  0  0  0  0  0  0  0  0  0
  153.2211  143.2176  161.5963 H   0  0  0  0  0  0  0  0  0  0  0  0
  154.6567  143.2863  160.5628 H   0  0  0  0  0  0  0  0  0  0  0  0
  153.3993  140.1454  159.8977 H   0  0  0  0  0  0  0  0  0  0  0  0
  150.5936  138.7530  155.9289 H   0  0  0  0  0  0  0  0  0  0  0  0
  149.3508  142.3506  156.0389 H   0  0  0  0  0  0  0  0  0  0  0  0
  150.6035  142.1410  154.8379 H   0  0  0  0  0  0  0  0  0  0  0  0
  149.1732  139.6412  154.9742 H   0  0  0  0  0  0  0  0  0  0  0  0
  149.1395  139.9675  152.8835 H   0  0  0  0  0  0  0  0  0  0  0  0
  146.9020  140.1820  154.5526 H   0  0  0  0  0  0  0  0  0  0  0  0
  147.3104  141.1662  155.9477 H   0  0  0  0  0  0  0  0  0  0  0  0
  144.7860  144.2757  152.5061 H   0  0  0  0  0  0  0  0  0  0  0  0
  145.7654  145.4675  153.3867 H   0  0  0  0  0  0  0  0  0  0  0  0
  143.9933  145.5679  153.4286 H   0  0  0  0  0  0  0  0  0  0  0  0
  150.9833  143.6598  157.2213 H   0  0  0  0  0  0  0  0  0  0  0  0
  151.8917  145.3651  158.5648 H   0  0  0  0  0  0  0  0  0  0  0  0
  153.4433  145.0437  159.3317 H   0  0  0  0  0  0  0  0  0  0  0  0
  151.9456  144.9056  160.2658 H   0  0  0  0  0  0  0  0  0  0  0  0
  152.1483  138.4374  157.9489 H   0  0  0  0  0  0  0  0  0  0  0  0
  1  2  1  0  0  0  0
  1 23  1  0  0  0  0
  1 24  1  0  0  0  0
  1 25  1  0  0  0  0
  2 21  1  0  0  0  0
  2  3  2  0  0  0  0
  3  4  1  0  0  0  0
  3 26  1  0  0  0  0
  4 19  2  0  0  0  0
  4  5  1  0  0  0  0
  5  6  2  0  0  0  0
  5 41  1  0  0  0  0
  6  7  1  0  0  0  0
  6 27  1  0  0  0  0
  7  8  1  0  0  0  0
  7 19  1  0  0  0  0
  8  9  1  0  0  0  0
  8 28  1  0  0  0  0
  8 29  1  0  0  0  0
  9 10  1  0  0  0  0
  9 11  1  0  0  0  0
  9 30  1  0  0  0  0
 10 31  1  0  0  0  0
 11 12  1  0  0  0  0
 11 32  1  0  0  0  0
 11 33  1  0  0  0  0
 12 13  1  0  0  0  0
 13 17  1  0  0  0  0
 13 14  2  0  0  0  0
 14 15  1  0  0  0  0
 15 16  2  0  0  0  0
 16 17  1  0  0  0  0
 17 18  1  0  0  0  0
 18 34  1  0  0  0  0
 18 35  1  0  0  0  0
 18 36  1  0  0  0  0
 19 20  1  0  0  0  0
 20 21  2  0  0  0  0
 20 37  1  0  0  0  0
 21 22  1  0  0  0  0
 22 38  1  0  0  0  0
 22 39  1  0  0  0  0
 22 40  1  0  0  0  0
M  CHG  1   5   1
M  END
> <s_m_source_file>
AV-unprocessed.smi

> <i_m_source_file_index>
2734

> <i_lp_mmshare_version>
43012

> <i_f3d_flags>
0

> <s_epik_input>
W0NIM11jKFtjSF0xKWMoW0NIM10pW2NIXWMoYzEyKW4oW2NIXW4yKVtDSDJdW0NASF0oW09IXSlbQ0gyXVNjM25ubm4zW0NIM10=

> <s_epik_cmdline>
J2VwaWtfcHl0aG9uJywgJy1waCcsICc3LjAnLCAnLXRuJywgJzgnLCAnLW1hJywgJzIwMCcsICctbWV0YWxfYmluZGluZycsICctaW1hZScsICc8aW5maWxlLm1hZT4nLCAnLW9tYWUnLCAnPG91dGZpbGUubWFlPic=

> <r_lp_tautomer_probability>
1

> <r_epik_Ionization_Penalty>
1.07429

> <r_epik_Ionization_Penalty_Charging>
1.07429

> <r_epik_Ionization_Penalty_Neutral>
3.30514e-06

> <r_epik_State_Penalty>
1.12915

> <r_epik_Charging_Adjusted_Penalty>
2.20344

> <i_epik_Tot_Q>
1

> <i_epik_Tot_abs_Q>
1

> <r_epik_Metal_State_Penalty>
1.22002

> <b_epik_Metal_Only>
0

> <s_lp_Force_Field>
OPLS_2005

> <r_lp_Energy>
14.6731

> <b_lp_Chiralities_Consistent>
1

> <s_lp_Variant>
AV-unprocessed.smi:2734-3

> <Gold.Version>
5.8.1

> <Gold.Id.Protein>
6NUR|6NUR_protein|mol2

> <Gold.PLP.Fitness>
51.6431

> <Gold.PLP.PLP>
-49.1646

> <Gold.PLP.part.hbond>
-2.1238

> <Gold.PLP.part.metal>
0.0000

> <Gold.PLP.part.buried>
-6.8396

> <Gold.PLP.part.nonpolar>
-40.3063

> <Gold.PLP.part.repulsive>
0.3493

> <Gold.PLP.ligand.clash>
0.0000

> <Gold.PLP.ligand.torsion>
1.2239

> <Gold.PLP.Chemscore.Hbond>
1.6235

> <Gold.PLP.Chemscore.CHOScore>
0.0000

> <Gold.PLP.Chemscore.Metal>
0.0000

> <Gold.Chemscore.Hbonds>
donor molecule, donor type, donor heavy atom, donor atom, acceptor molecule, acceptor atom, score
      L1  H    10    31       P1  7957  0.21
      P1  H  7989  7998       L1    10  0.10
      P1  H  8011  8017       L1    10  1.00

> <Gold.PLP.Chemscore.Internal.Correction>
0.0558

> <Gold.Rescore>
     Score         DG    S(hbond)    S(metal)    S(lipo)     H(rot)  DE(clash)    DE(int)     intcor
     14.97     -15.92       1.42        0.00     112.46       2.92       0.07       0.88       ----

> <Gold.Chemscore.Fitness>
14.9665

> <Gold.Chemscore.DG>
-15.9152

> <Gold.Chemscore.ZeroCoef>
-5.4800

> <Gold.Chemscore.Hbond>
1.4201

> <Gold.Chemscore.Metal>
0.0000

> <Gold.Chemscore.Lipo>
112.4611

> <Gold.Chemscore.Internal_Hbond>
0.0000

> <Gold.Chemscore.DEClash>
0.0727

> <Gold.Chemscore.DEInternal>
0.8759

> <Gold.Chemscore.Rot>
2.9164

> <Gold.Chemscore.Internal.Correction>
   9.000000E+99

> <Gold.Chemscore.Hbonds>
donor molecule, donor type, donor heavy atom, donor atom, acceptor molecule, acceptor atom, score
      L1  H    10    31       P1  7957  0.20
      P1  H  7989  7998       L1    10  0.01
      P1  H  8011  8017       L1    10  0.98

> <Gold.Chemscore.Hbond.Weighted>
-4.7432

> <Gold.Chemscore.Metal.Weighted>
-0.0000

> <Gold.Chemscore.Lipo.Weighted>
-13.1579

> <Gold.Chemscore.Internal_Hbond.Weighted>
0.0000

> <Gold.Chemscore.DEClash.Weighted>
0.0727

> <Gold.Chemscore.DEInternal.Weighted>
0.8759

> <Gold.Chemscore.Rot.Weighted>
7.4660

> <Gold.Chemscore.Internal.Correction.Weighted>
   9.000000E+99

> <Gold.Protein.RotatedTorsions>
[ 6907 6896 6895 6894 ] final   -5.96 input  -60.11 | X-H torsion
[ 7974 7965 7964 7962 ] final  -55.61 input  175.53 | X-H torsion
[ 8008 7997 7996 7995 ] final  111.06 input   59.86 | X-H torsion
[ 10167 10162 10161 10158 ] final   55.86 input  -65.29 | X-H torsion
[ 10718 10713 10712 10709 ] final -152.74 input   66.30 | X-H torsion
[ 10763 10752 10751 10750 ] final -147.08 input  -60.55 | X-H torsion
[ 11005 11000 10999 10996 ] final   37.79 input  -57.11 | X-H torsion

> <Gold.Protein.ActiveResidues>
 VAL166  LYS551  ARG553  GLY616  TRP617  ASP618  TYR619  PRO620  LYS621  CYS622 
 ASP623  PHE694  ASN695  SER759  ASP760  ASP761  ALA762  ILE779  LEU786  VAL792 
 PHE793  MET794  SER795  GLU796  ALA797  LYS798  CYS799  TRP800  GLU811  SER814 

> <Gold.Protein.RotatedAtoms>
  151.4732  135.1047  159.9756 H   0  0  0  0  0  0  0  0  0  0  0  0  # atno 6907 bound_to 6896
  152.4808  133.8246  159.7082 H   0  0  0  0  0  0  0  0  0  0  0  0  # atno 6908 bound_to 6896
  150.8879  133.7222  159.2940 H   0  0  0  0  0  0  0  0  0  0  0  0  # atno 6909 bound_to 6896
  145.8722  140.8207  142.9882 H   0  0  0  0  0  0  0  0  0  0  0  0  # atno 7974 bound_to 7965
  156.2097  140.3026  155.9706 H   0  0  0  0  0  0  0  0  0  0  0  0  # atno 8008 bound_to 7997
  155.2753  140.0435  157.3028 H   0  0  0  0  0  0  0  0  0  0  0  0  # atno 8009 bound_to 7997
  154.5683  140.2340  155.8239 H   0  0  0  0  0  0  0  0  0  0  0  0  # atno 8010 bound_to 7997
  140.2150  144.3849  150.6473 H   0  0  0  0  0  0  0  0  0  0  0  0  # atno 10167 bound_to 10162
  156.4765  130.8283  151.2511 H   0  0  0  0  0  0  0  0  0  0  0  0  # atno 10718 bound_to 10713
  154.8304  135.3369  154.6763 H   0  0  0  0  0  0  0  0  0  0  0  0  # atno 10763 bound_to 10752
  153.7383  135.6947  153.4977 H   0  0  0  0  0  0  0  0  0  0  0  0  # atno 10764 bound_to 10752
  153.2262  135.4432  155.0496 H   0  0  0  0  0  0  0  0  0  0  0  0  # atno 10765 bound_to 10752
  140.2191  134.3663  155.8013 H   0  0  0  0  0  0  0  0  0  0  0  0  # atno 11005 bound_to 11000
  144.6726  140.1256  143.7447 LP  0  0  0  0  0  0  0  0  0  0  0  0  # atno 17320 bound_to 7965
  145.9123  139.2494  143.1430 LP  0  0  0  0  0  0  0  0  0  0  0  0  # atno 17321 bound_to 7965
  140.6296  143.2186  151.6523 LP  0  0  0  0  0  0  0  0  0  0  0  0  # atno 17342 bound_to 10162
  139.5165  144.3343  152.0798 LP  0  0  0  0  0  0  0  0  0  0  0  0  # atno 17343 bound_to 10162
  157.7487  131.0059  150.3131 LP  0  0  0  0  0  0  0  0  0  0  0  0  # atno 17370 bound_to 10713
  156.3565  130.3839  149.7286 LP  0  0  0  0  0  0  0  0  0  0  0  0  # atno 17371 bound_to 10713
  141.2224  133.7183  156.8545 LP  0  0  0  0  0  0  0  0  0  0  0  0  # atno 17394 bound_to 11000
  140.1869  134.8993  157.3015 LP  0  0  0  0  0  0  0  0  0  0  0  0  # atno 17395 bound_to 11000

$$$$
