#       Name:                AV-unprocessed.smi:2294
#       Creating user name   scv26
#       Creation time:       Fri Mar 27 12:43:44 2020


#       File generated by GOLD software.
#

@<TRIPOS>MOLECULE
AV-unprocessed.smi:2294
    39    40     1
SMALL
NO_CHARGES


@<TRIPOS>ATOM
      1 ****        -5.1800   0.1943   0.6967 C.3            1 S1                 0.0000
      2 ****        -3.6619   0.2105   0.6812 C.2            1 S1                 0.0000
      3 ****        -3.0716   1.4776   0.6657 N.2            1 S1                 0.0000
      4 ****        -1.7836   1.5886   0.6451 C.2            1 S1                 0.0000
      5 ****        -0.9460   0.4614   0.6430 N.am           1 S1                 0.0000
      6 ****         0.5027   0.7246   0.6076 C.3            1 S1                 0.0000
      7 ****         1.0897   0.5725  -0.8134 C.3            1 S1                 0.0000
      8 ****         0.7663   1.7291  -1.5614 O.3            1 S1                 0.0000
      9 ****         2.5951   0.3445  -0.7585 C.ar           1 S1                 0.0000
     10 ****         3.4769   1.4295  -0.5510 C.ar           1 S1                 0.0000
     11 ****         4.8678   1.2170  -0.4944 C.ar           1 S1                 0.0000
     12 ****         5.3879  -0.0828  -0.6397 C.ar           1 S1                 0.0000
     13 ****         4.5156  -1.1698  -0.8378 C.ar           1 S1                 0.0000
     14 ****         3.1239  -0.9596  -0.8950 C.ar           1 S1                 0.0000
     15 ****         2.3005  -2.0195  -1.0794 F              1 S1                 0.0000
     16 ****        -1.4392  -0.8109   0.6574 C.2            1 S1                 0.0000
     17 ****        -0.6948  -1.7933   0.6488 O.2            1 S1                 0.0000
     18 ****        -2.9066  -0.9217   0.6777 C.2            1 S1                 0.0000
     19 ****        -3.4934  -2.3279   0.6896 C.3            1 S1                 0.0000
     20 ****        -5.5484  -0.3275   1.5805 H              1 S1                 0.0000
     21 ****        -5.5647  -0.3076  -0.1916 H              1 S1                 0.0000
     22 ****        -5.5883   1.2058   0.7120 H              1 S1                 0.0000
     23 ****        -1.2737   2.5533   0.6237 H              1 S1                 0.0000
     24 ****         0.7610   1.6991   1.0275 H              1 S1                 0.0000
     25 ****         0.9887   0.0093   1.2743 H              1 S1                 0.0000
     26 ****         0.6303  -0.2752  -1.3223 H              1 S1                 0.0000
     27 ****         1.0519   1.5978  -2.4527 H              1 S1                 0.0000
     28 ****         3.0900   2.4310  -0.4322 H              1 S1                 0.0000
     29 ****         5.5356   2.0514  -0.3382 H              1 S1                 0.0000
     30 ****         6.4547  -0.2466  -0.5961 H              1 S1                 0.0000
     31 ****         4.9144  -2.1679  -0.9447 H              1 S1                 0.0000
     32 ****        -3.1674  -2.8778  -0.1940 H              1 S1                 0.0000
     33 ****        -4.5822  -2.3394   0.6984 H              1 S1                 0.0000
     34 ****        -3.1519  -2.8705   1.5718 H              1 S1                 0.0000
     35 ****        -3.6447   2.2971   0.6706 LP             1 S1                 0.0000
     36 ****         1.2310   2.5242  -1.1716 LP             1 S1                 0.0000
     37 ****        -0.2223   1.8782  -1.5421 LP             1 S1                 0.0000
     38 ****         0.2973  -1.6688   0.6309 LP             1 S1                 0.0000
     39 ****        -1.0829  -2.7148   0.6598 LP             1 S1                 0.0000
@<TRIPOS>BOND
    1    1    2 1     
    2    1   20 1     
    3    1   21 1     
    4    1   22 1     
    5    2   18 2     
    6    2    3 1     
    7    3    4 2     
    8    4    5 1     
    9    4   23 1     
   10    5    6 1     
   11    5   16 am    
   12    6    7 1     
   13    6   24 1     
   14    6   25 1     
   15    7    8 1     
   16    7    9 1     
   17    7   26 1     
   18    8   27 1     
   19    9   14 ar    
   20    9   10 ar    
   21   10   11 ar    
   22   10   28 1     
   23   11   12 ar    
   24   11   29 1     
   25   12   13 ar    
   26   12   30 1     
   27   13   14 ar    
   28   13   31 1     
   29   14   15 1     
   30   16   17 2     
   31   16   18 1     
   32   18   19 1     
   33   19   32 1     
   34   19   33 1     
   35   19   34 1     
   36    3   35 1     
   37    8   36 1     
   38    8   37 1     
   39   17   38 1     
   40   17   39 1     
@<TRIPOS>SUBSTRUCTURE
      1 S1             1
@<TRIPOS>SET
LONE_PAIRS      STATIC     ATOMS    <user>   **** ""
5 35 36 37 38 39
DONOR_HYDROGENS      STATIC     ATOMS    <user>   **** ""
1 27
ATOM$BLUE        STATIC     ATOMS    COLORGROUP SYSTEM
5 35 36 37 38 39
ATOM$RED        STATIC     ATOMS    COLORGROUP SYSTEM
1 27
