AV-unprocessed.smi:365|AV-procd|sdf|2427|dock2
  -GOLD-   2262022363D 1   1.00000     0.00000
 Structure written by MMmdl.
 53 54  0  0  0  0  0  0  0  0  1 V2000
  148.8167  135.3209  155.1261 C   0  0  0  0  0  0  0  0  0  0  0  0
  147.3929  135.7758  154.7657 C   0  0  2  0  0  0  0  0  0  0  0  0
  147.0876  135.2923  153.4208 N   0  0  0  0  0  0  0  0  0  0  0  0
  146.0717  134.4719  153.0986 C   0  0  0  0  0  0  0  0  0  0  0  0
  145.3012  134.0202  153.9475 O   0  0  0  0  0  0  0  0  0  0  0  0
  145.8717  134.1021  151.6091 C   0  0  0  0  0  0  0  0  0  0  0  0
  145.6894  135.4045  150.8036 C   0  0  0  0  0  0  0  0  0  0  0  0
  144.5966  133.2438  151.4755 C   0  0  0  0  0  0  0  0  0  0  0  0
  147.0684  133.3117  151.0282 C   0  0  0  0  0  0  0  0  0  0  0  0
  147.3476  137.3115  154.7988 C   0  0  0  0  0  0  0  0  0  0  0  0
  146.7979  137.9028  155.7296 O   0  0  0  0  0  0  0  0  0  0  0  0
  147.9364  137.9430  153.7721 N   0  0  0  0  0  0  0  0  0  0  0  0
  148.0472  139.3915  153.6339 C   0  0  0  0  0  0  0  0  0  0  0  0
  148.8300  140.0817  154.7444 C   0  0  0  0  0  0  0  0  0  0  0  0
  150.1237  139.6338  155.0723 C   0  0  0  0  0  0  0  0  0  0  0  0
  150.8318  140.2708  156.1093 C   0  0  0  0  0  0  0  0  0  0  0  0
  150.2241  141.3476  156.8050 C   0  0  0  0  0  0  0  0  0  0  0  0
  150.8803  142.0345  157.8537 N   0  0  0  0  0  0  0  0  0  0  0  0
  150.4345  143.4024  158.1232 C   0  0  0  0  0  0  0  0  0  0  0  0
  151.4371  144.1333  159.0320 C   0  0  0  0  0  0  0  0  0  0  0  0
  151.6567  143.3748  160.2157 O   0  0  0  0  0  0  0  0  0  0  0  0
  152.2261  142.1046  159.9231 C   0  0  0  0  0  0  0  0  0  0  0  0
  151.2587  141.2867  159.0508 C   0  0  0  0  0  0  0  0  0  0  0  0
  148.9773  141.7724  156.4848 N   0  0  0  0  0  0  0  0  0  0  0  0
  148.3031  141.1583  155.4905 C   0  0  0  0  0  0  0  0  0  0  0  0
  149.1013  135.6629  156.1220 H   0  0  0  0  0  0  0  0  0  0  0  0
  149.5571  135.6994  154.4196 H   0  0  0  0  0  0  0  0  0  0  0  0
  148.8882  134.2328  155.1251 H   0  0  0  0  0  0  0  0  0  0  0  0
  146.6836  135.3570  155.4826 H   0  0  0  0  0  0  0  0  0  0  0  0
  147.6746  135.6313  152.6727 H   0  0  0  0  0  0  0  0  0  0  0  0
  145.5302  135.1946  149.7453 H   0  0  0  0  0  0  0  0  0  0  0  0
  146.5684  136.0465  150.8799 H   0  0  0  0  0  0  0  0  0  0  0  0
  144.8309  135.9812  151.1511 H   0  0  0  0  0  0  0  0  0  0  0  0
  143.7084  133.7776  151.8171 H   0  0  0  0  0  0  0  0  0  0  0  0
  144.6714  132.3236  152.0569 H   0  0  0  0  0  0  0  0  0  0  0  0
  144.4203  132.9594  150.4376 H   0  0  0  0  0  0  0  0  0  0  0  0
  146.8958  133.0533  149.9828 H   0  0  0  0  0  0  0  0  0  0  0  0
  147.2353  132.3769  151.5656 H   0  0  0  0  0  0  0  0  0  0  0  0
  147.9929  133.8900  151.0647 H   0  0  0  0  0  0  0  0  0  0  0  0
  148.3627  137.3806  153.0500 H   0  0  0  0  0  0  0  0  0  0  0  0
  148.5440  139.6020  152.6868 H   0  0  0  0  0  0  0  0  0  0  0  0
  147.0506  139.8307  153.5626 H   0  0  0  0  0  0  0  0  0  0  0  0
  150.5719  138.8094  154.5371 H   0  0  0  0  0  0  0  0  0  0  0  0
  151.8196  139.9102  156.3515 H   0  0  0  0  0  0  0  0  0  0  0  0
  150.3193  143.9783  157.2051 H   0  0  0  0  0  0  0  0  0  0  0  0
  149.4552  143.3640  158.6016 H   0  0  0  0  0  0  0  0  0  0  0  0
  152.3821  144.3007  158.5125 H   0  0  0  0  0  0  0  0  0  0  0  0
  151.0479  145.1139  159.3061 H   0  0  0  0  0  0  0  0  0  0  0  0
  153.1878  142.2313  159.4233 H   0  0  0  0  0  0  0  0  0  0  0  0
  152.4216  141.5794  160.8579 H   0  0  0  0  0  0  0  0  0  0  0  0
  150.3610  141.0371  159.6176 H   0  0  0  0  0  0  0  0  0  0  0  0
  151.7488  140.3524  158.7763 H   0  0  0  0  0  0  0  0  0  0  0  0
  147.3128  141.5429  155.2965 H   0  0  0  0  0  0  0  0  0  0  0  0
  1  2  1  0  0  0  0
  1 26  1  0  0  0  0
  1 27  1  0  0  0  0
  1 28  1  0  0  0  0
  2  3  1  0  0  0  0
  2 10  1  0  0  0  0
  2 29  1  0  0  0  0
  3  4  1  0  0  0  0
  3 30  1  0  0  0  0
  4  5  2  0  0  0  0
  4  6  1  0  0  0  0
  6  7  1  0  0  0  0
  6  8  1  0  0  0  0
  6  9  1  0  0  0  0
  7 31  1  0  0  0  0
  7 32  1  0  0  0  0
  7 33  1  0  0  0  0
  8 34  1  0  0  0  0
  8 35  1  0  0  0  0
  8 36  1  0  0  0  0
  9 37  1  0  0  0  0
  9 38  1  0  0  0  0
  9 39  1  0  0  0  0
 10 11  2  0  0  0  0
 10 12  1  0  0  0  0
 12 13  1  0  0  0  0
 12 40  1  0  0  0  0
 13 14  1  0  0  0  0
 13 41  1  0  0  0  0
 13 42  1  0  0  0  0
 14 25  1  0  0  0  0
 14 15  2  0  0  0  0
 15 16  1  0  0  0  0
 15 43  1  0  0  0  0
 16 17  2  0  0  0  0
 16 44  1  0  0  0  0
 17 18  1  0  0  0  0
 17 24  1  0  0  0  0
 18 23  1  0  0  0  0
 18 19  1  0  0  0  0
 19 20  1  0  0  0  0
 19 45  1  0  0  0  0
 19 46  1  0  0  0  0
 20 21  1  0  0  0  0
 20 47  1  0  0  0  0
 20 48  1  0  0  0  0
 21 22  1  0  0  0  0
 22 23  1  0  0  0  0
 22 49  1  0  0  0  0
 22 50  1  0  0  0  0
 23 51  1  0  0  0  0
 23 52  1  0  0  0  0
 24 25  2  0  0  0  0
 25 53  1  0  0  0  0
M  END
> <s_m_source_file>
AV-unprocessed.smi

> <i_m_source_file_index>
365

> <i_lp_mmshare_version>
43012

> <i_f3d_flags>
0

> <s_epik_input>
W0NIM11DKFtDSDNdKShbQ0gzXSlDKD1PKVtOSF1bQ0BASF0oW0NIM10pQyg9TylbTkhdW0NIMl1jMVtjSF1bY0hdYyhuW2NIXTEpTjJbQ0gyXVtDSDJdT1tDSDJdW0NIMl0y

> <s_epik_cmdline>
J2VwaWtfcHl0aG9uJywgJy1waCcsICc3LjAnLCAnLXRuJywgJzgnLCAnLW1hJywgJzIwMCcsICctbWV0YWxfYmluZGluZycsICctaW1hZScsICc8aW5maWxlLm1hZT4nLCAnLW9tYWUnLCAnPG91dGZpbGUubWFlPic=

> <r_lp_tautomer_probability>
1

> <r_epik_Ionization_Penalty>
0.00484327

> <r_epik_Ionization_Penalty_Charging>
0

> <r_epik_Ionization_Penalty_Neutral>
0.00484327

> <r_epik_State_Penalty>
0.0035131

> <r_epik_Charging_Adjusted_Penalty>
0.0035131

> <i_epik_Tot_Q>
0

> <i_epik_Tot_abs_Q>
0

> <r_epik_Metal_State_Penalty>
-0

> <b_epik_Metal_Only>
0

> <s_lp_Force_Field>
OPLS_2005

> <r_lp_Energy>
21.7768

> <b_lp_Chiralities_Consistent>
1

> <s_lp_Variant>
AV-unprocessed.smi:365-1

> <Gold.Version>
5.8.1

> <Gold.Id.Protein>
6NUR|6NUR_protein|mol2

> <Gold.PLP.Fitness>
45.9384

> <Gold.PLP.PLP>
-41.0074

> <Gold.PLP.part.hbond>
-2.0000

> <Gold.PLP.part.metal>
0.0000

> <Gold.PLP.part.buried>
-1.1560

> <Gold.PLP.part.nonpolar>
-38.5701

> <Gold.PLP.part.repulsive>
0.9664

> <Gold.PLP.ligand.clash>
0.0000

> <Gold.PLP.ligand.torsion>
0.8107

> <Gold.PLP.Chemscore.Hbond>
2.0000

> <Gold.PLP.Chemscore.CHOScore>
0.0000

> <Gold.PLP.Chemscore.Metal>
0.0000

> <Gold.Chemscore.Hbonds>
donor molecule, donor type, donor heavy atom, donor atom, acceptor molecule, acceptor atom, score
      L1  H     3    30       P1  7948  1.00
      L1  H    12    40       P1  7948  1.00

> <Gold.PLP.Chemscore.Internal.Correction>
0.5523

> <Gold.Rescore>
     Score         DG    S(hbond)    S(metal)    S(lipo)     H(rot)  DE(clash)    DE(int)     intcor
     16.85     -18.36       1.99        0.00      97.71       2.04       0.52       0.99       ----

> <Gold.Chemscore.Fitness>
16.8541

> <Gold.Chemscore.DG>
-18.3613

> <Gold.Chemscore.ZeroCoef>
-5.4800

> <Gold.Chemscore.Hbond>
1.9948

> <Gold.Chemscore.Metal>
0.0000

> <Gold.Chemscore.Lipo>
97.7141

> <Gold.Chemscore.Internal_Hbond>
0.0000

> <Gold.Chemscore.DEClash>
0.5159

> <Gold.Chemscore.DEInternal>
0.9913

> <Gold.Chemscore.Rot>
2.0367

> <Gold.Chemscore.Internal.Correction>
   9.000000E+99

> <Gold.Chemscore.Hbonds>
donor molecule, donor type, donor heavy atom, donor atom, acceptor molecule, acceptor atom, score
      L1  H     3    30       P1  7948  0.99
      L1  H    12    40       P1  7948  1.00

> <Gold.Chemscore.Hbond.Weighted>
-6.6627

> <Gold.Chemscore.Metal.Weighted>
-0.0000

> <Gold.Chemscore.Lipo.Weighted>
-11.4326

> <Gold.Chemscore.Internal_Hbond.Weighted>
0.0000

> <Gold.Chemscore.DEClash.Weighted>
0.5159

> <Gold.Chemscore.DEInternal.Weighted>
0.9913

> <Gold.Chemscore.Rot.Weighted>
5.2140

> <Gold.Chemscore.Internal.Correction.Weighted>
   9.000000E+99

> <Gold.Protein.RotatedTorsions>
[ 6907 6896 6895 6894 ] final  -74.02 input  -60.11 | X-H torsion
[ 7974 7965 7964 7962 ] final -147.51 input  175.53 | X-H torsion
[ 8008 7997 7996 7995 ] final -113.14 input   59.86 | X-H torsion
[ 10167 10162 10161 10158 ] final  -90.96 input  -65.29 | X-H torsion
[ 10718 10713 10712 10709 ] final -132.63 input   66.30 | X-H torsion
[ 10763 10752 10751 10750 ] final   24.19 input  -60.55 | X-H torsion
[ 11005 11000 10999 10996 ] final -128.49 input  -57.11 | X-H torsion

> <Gold.Protein.ActiveResidues>
 VAL166  LYS551  ARG553  GLY616  TRP617  ASP618  TYR619  PRO620  LYS621  CYS622 
 ASP623  PHE694  ASN695  SER759  ASP760  ASP761  ALA762  ILE779  LEU786  VAL792 
 PHE793  MET794  SER795  GLU796  ALA797  LYS798  CYS799  TRP800  GLU811  SER814 

> <Gold.Protein.RotatedAtoms>
  150.7108  134.4930  159.5524 H   0  0  0  0  0  0  0  0  0  0  0  0  # atno 6907 bound_to 6896
  152.2544  134.8097  160.0450 H   0  0  0  0  0  0  0  0  0  0  0  0  # atno 6908 bound_to 6896
  151.8833  133.3465  159.3810 H   0  0  0  0  0  0  0  0  0  0  0  0  # atno 6909 bound_to 6896
  144.8088  140.5317  143.5656 H   0  0  0  0  0  0  0  0  0  0  0  0  # atno 7974 bound_to 7965
  155.0160  140.0393  157.2418 H   0  0  0  0  0  0  0  0  0  0  0  0  # atno 8008 bound_to 7997
  154.7419  140.2750  155.6343 H   0  0  0  0  0  0  0  0  0  0  0  0  # atno 8009 bound_to 7997
  156.2866  140.2664  156.2148 H   0  0  0  0  0  0  0  0  0  0  0  0  # atno 8010 bound_to 7997
  140.3497  143.2898  151.9741 H   0  0  0  0  0  0  0  0  0  0  0  0  # atno 10167 bound_to 10162
  156.2365  130.7070  151.0913 H   0  0  0  0  0  0  0  0  0  0  0  0  # atno 10718 bound_to 10713
  153.0782  135.6610  154.0101 H   0  0  0  0  0  0  0  0  0  0  0  0  # atno 10763 bound_to 10752
  153.9729  135.2962  155.3427 H   0  0  0  0  0  0  0  0  0  0  0  0  # atno 10764 bound_to 10752
  154.7175  135.5179  153.8832 H   0  0  0  0  0  0  0  0  0  0  0  0  # atno 10765 bound_to 10752
  140.9512  134.1063  157.4060 H   0  0  0  0  0  0  0  0  0  0  0  0  # atno 11005 bound_to 11000
  145.5372  139.1475  143.3467 LP  0  0  0  0  0  0  0  0  0  0  0  0  # atno 17320 bound_to 7965
  146.2384  140.5512  142.8945 LP  0  0  0  0  0  0  0  0  0  0  0  0  # atno 17321 bound_to 7965
  139.4828  144.6087  151.7474 LP  0  0  0  0  0  0  0  0  0  0  0  0  # atno 17342 bound_to 10162
  140.5231  144.0848  150.6029 LP  0  0  0  0  0  0  0  0  0  0  0  0  # atno 17343 bound_to 10162
  157.7157  131.0711  150.6337 LP  0  0  0  0  0  0  0  0  0  0  0  0  # atno 17370 bound_to 10713
  156.6407  130.4457  149.5753 LP  0  0  0  0  0  0  0  0  0  0  0  0  # atno 17371 bound_to 10713
  139.8848  135.0066  156.6393 LP  0  0  0  0  0  0  0  0  0  0  0  0  # atno 17394 bound_to 11000
  140.7600  133.8825  155.8411 LP  0  0  0  0  0  0  0  0  0  0  0  0  # atno 17395 bound_to 11000

$$$$
