AV-unprocessed.smi:2889|AV-procd|sdf|11111|dock8
  -GOLD-   2272015573D 1   1.00000     0.00000
 Structure written by MMmdl.
 36 37  0  0  0  0  0  0  0  0  1 V2000
  151.8761  145.6338  159.7904 C   0  0  0  0  0  0  0  0  0  0  0  0
  150.9060  144.7129  158.5655 S   0  0  0  0  0  0  0  0  0  0  0  0
  151.9456  143.2370  158.3211 C   0  0  1  0  0  0  0  0  0  0  0  0
  152.5466  142.8041  159.6717 C   0  0  0  0  0  0  0  0  0  0  0  0
  153.4018  141.5349  159.5399 C   0  0  0  0  0  0  0  0  0  0  0  0
  152.5893  140.3862  158.9267 C   0  0  0  0  0  0  0  0  0  0  0  0
  152.0010  140.7937  157.5685 C   0  0  0  0  0  0  0  0  0  0  0  0
  151.1516  142.0747  157.6780 C   0  0  2  0  0  0  0  0  0  0  0  0
  150.6889  142.4514  156.3409 N   0  0  0  0  0  0  0  0  0  0  0  0
  149.8225  141.2910  155.4040 S   0  0  0  0  0  0  0  0  0  0  0  0
  149.1829  142.0030  154.2864 O   0  0  0  0  0  0  0  0  0  0  0  0
  150.7461  140.1763  155.1445 O   0  0  0  0  0  0  0  0  0  0  0  0
  148.5220  140.7280  156.5854 C   0  0  0  0  0  0  0  0  0  0  0  0
  147.1752  141.2399  156.1549 C   0  0  0  0  0  0  0  0  0  0  0  0
  146.5037  141.0338  154.9176 C   0  0  0  0  0  0  0  0  0  0  0  0
  145.3313  141.7151  155.0733 C   0  0  0  0  0  0  0  0  0  0  0  0
  145.2807  142.2997  156.2964 O   0  0  0  0  0  0  0  0  0  0  0  0
  146.4631  141.9921  156.9789 N   0  0  0  0  0  0  0  0  0  0  0  0
  151.3476  146.5436  160.0743 H   0  0  0  0  0  0  0  0  0  0  0  0
  152.8481  145.9169  159.3883 H   0  0  0  0  0  0  0  0  0  0  0  0
  152.0300  145.0324  160.6863 H   0  0  0  0  0  0  0  0  0  0  0  0
  152.7719  143.5131  157.6644 H   0  0  0  0  0  0  0  0  0  0  0  0
  153.1524  143.6110  160.0848 H   0  0  0  0  0  0  0  0  0  0  0  0
  151.7445  142.6239  160.3889 H   0  0  0  0  0  0  0  0  0  0  0  0
  154.2734  141.7422  158.9179 H   0  0  0  0  0  0  0  0  0  0  0  0
  153.7822  141.2401  160.5182 H   0  0  0  0  0  0  0  0  0  0  0  0
  153.2201  139.5045  158.8100 H   0  0  0  0  0  0  0  0  0  0  0  0
  151.7832  140.1032  159.6048 H   0  0  0  0  0  0  0  0  0  0  0  0
  152.8138  140.9503  156.8577 H   0  0  0  0  0  0  0  0  0  0  0  0
  151.3980  139.9767  157.1701 H   0  0  0  0  0  0  0  0  0  0  0  0
  150.2834  141.8674  158.3057 H   0  0  0  0  0  0  0  0  0  0  0  0
  150.1917  143.3411  156.3683 H   0  0  0  0  0  0  0  0  0  0  0  0
  148.5365  139.6377  156.5981 H   0  0  0  0  0  0  0  0  0  0  0  0
  148.7827  141.0707  157.5863 H   0  0  0  0  0  0  0  0  0  0  0  0
  146.8282  140.4698  154.0559 H   0  0  0  0  0  0  0  0  0  0  0  0
  144.4734  141.8723  154.4361 H   0  0  0  0  0  0  0  0  0  0  0  0
  1  2  1  0  0  0  0
  1 19  1  0  0  0  0
  1 20  1  0  0  0  0
  1 21  1  0  0  0  0
  2  3  1  0  0  0  0
  3  8  1  0  0  0  0
  3  4  1  0  0  0  0
  3 22  1  0  0  0  0
  4  5  1  0  0  0  0
  4 23  1  0  0  0  0
  4 24  1  0  0  0  0
  5  6  1  0  0  0  0
  5 25  1  0  0  0  0
  5 26  1  0  0  0  0
  6  7  1  0  0  0  0
  6 27  1  0  0  0  0
  6 28  1  0  0  0  0
  7  8  1  0  0  0  0
  7 29  1  0  0  0  0
  7 30  1  0  0  0  0
  8  9  1  0  0  0  0
  8 31  1  0  0  0  0
  9 10  1  0  0  0  0
  9 32  1  0  0  0  0
 10 11  2  0  0  0  0
 10 12  2  0  0  0  0
 10 13  1  0  0  0  0
 13 14  1  0  0  0  0
 13 33  1  0  0  0  0
 13 34  1  0  0  0  0
 14 18  2  0  0  0  0
 14 15  1  0  0  0  0
 15 16  2  0  0  0  0
 15 35  1  0  0  0  0
 16 17  1  0  0  0  0
 16 36  1  0  0  0  0
 17 18  1  0  0  0  0
M  END
> <s_m_source_file>
AV-unprocessed.smi

> <i_m_source_file_index>
2889

> <i_lp_mmshare_version>
43012

> <i_f3d_flags>
0

> <s_epik_input>
W0NIM11TW0NAQEhdMVtDSDJdW0NIMl1bQ0gyXVtDSDJdW0NASF0xW05IXVMoPU8pKD1PKVtDSDJdYzJbY0hdW2NIXW9uMg==

> <s_epik_cmdline>
J2VwaWtfcHl0aG9uJywgJy1waCcsICc3LjAnLCAnLXRuJywgJzgnLCAnLW1hJywgJzIwMCcsICctbWV0YWxfYmluZGluZycsICctaW1hZScsICc8aW5maWxlLm1hZT4nLCAnLW9tYWUnLCAnPG91dGZpbGUubWFlPic=

> <r_lp_tautomer_probability>
1

> <r_epik_Ionization_Penalty>
0.000229547

> <r_epik_Ionization_Penalty_Charging>
0

> <r_epik_Ionization_Penalty_Neutral>
0.000229547

> <r_epik_State_Penalty>
-0

> <r_epik_Charging_Adjusted_Penalty>
0

> <i_epik_Tot_Q>
0

> <i_epik_Tot_abs_Q>
0

> <r_epik_Metal_State_Penalty>
0.145979

> <b_epik_Metal_Only>
0

> <s_lp_Force_Field>
OPLS_2005

> <r_lp_Energy>
3.91212

> <b_lp_Chiralities_Consistent>
1

> <s_lp_Variant>
AV-unprocessed.smi:2889-4

> <Gold.Version>
5.8.1

> <Gold.Id.Protein>
6NUR|6NUR_protein|mol2

> <Gold.PLP.Fitness>
42.3707

> <Gold.PLP.PLP>
-33.2530

> <Gold.PLP.part.hbond>
-3.4711

> <Gold.PLP.part.metal>
0.0000

> <Gold.PLP.part.buried>
-4.7671

> <Gold.PLP.part.nonpolar>
-25.7330

> <Gold.PLP.part.repulsive>
0.9075

> <Gold.PLP.ligand.clash>
0.0000

> <Gold.PLP.ligand.torsion>
0.5225

> <Gold.PLP.Chemscore.Hbond>
2.3494

> <Gold.PLP.Chemscore.CHOScore>
0.9834

> <Gold.PLP.Chemscore.Metal>
0.0000

> <Gold.Chemscore.Hbonds>
donor molecule, donor type, donor heavy atom, donor atom, acceptor molecule, acceptor atom, score
      L1  H     9    32       P1  8028  1.00
      P1  H  7989  7998       L1    12  0.95
      P1  H  8011  8017       L1    11  0.32
      L1  C    16    36       P1 10175  0.82

> <Gold.PLP.Chemscore.Internal.Correction>
0.1643

> <Gold.Rescore>
     Score         DG    S(hbond)    S(metal)    S(lipo)     H(rot)  DE(clash)    DE(int)     intcor
     14.18     -17.31       1.78        0.00      89.82       1.81       0.21       2.92       ----

> <Gold.Chemscore.Fitness>
14.1833

> <Gold.Chemscore.DG>
-17.3143

> <Gold.Chemscore.ZeroCoef>
-5.4800

> <Gold.Chemscore.Hbond>
1.7809

> <Gold.Chemscore.Metal>
0.0000

> <Gold.Chemscore.Lipo>
89.8198

> <Gold.Chemscore.Internal_Hbond>
0.0000

> <Gold.Chemscore.DEClash>
0.2069

> <Gold.Chemscore.DEInternal>
2.9241

> <Gold.Chemscore.Rot>
1.8058

> <Gold.Chemscore.Internal.Correction>
   9.000000E+99

> <Gold.Chemscore.Hbonds>
donor molecule, donor type, donor heavy atom, donor atom, acceptor molecule, acceptor atom, score
      L1  H     9    32       P1  8028  0.93
      P1  H  7989  7998       L1    12  0.21
      P1  H  8011  8017       L1    11  0.33

> <Gold.Chemscore.Hbond.Weighted>
-5.9483

> <Gold.Chemscore.Metal.Weighted>
-0.0000

> <Gold.Chemscore.Lipo.Weighted>
-10.5089

> <Gold.Chemscore.Internal_Hbond.Weighted>
0.0000

> <Gold.Chemscore.DEClash.Weighted>
0.2069

> <Gold.Chemscore.DEInternal.Weighted>
2.9241

> <Gold.Chemscore.Rot.Weighted>
4.6228

> <Gold.Chemscore.Internal.Correction.Weighted>
   9.000000E+99

> <Gold.Protein.RotatedTorsions>
[ 6907 6896 6895 6894 ] final  -56.16 input  -60.11 | X-H torsion
[ 7974 7965 7964 7962 ] final   82.14 input  175.53 | X-H torsion
[ 8008 7997 7996 7995 ] final  -97.22 input   59.86 | X-H torsion
[ 10167 10162 10161 10158 ] final  -33.07 input  -65.29 | X-H torsion
[ 10718 10713 10712 10709 ] final  -94.30 input   66.30 | X-H torsion
[ 10763 10752 10751 10750 ] final  -38.89 input  -60.55 | X-H torsion
[ 11005 11000 10999 10996 ] final   85.66 input  -57.11 | X-H torsion

> <Gold.Protein.ActiveResidues>
 VAL166  LYS551  ARG553  GLY616  TRP617  ASP618  TYR619  PRO620  LYS621  CYS622 
 ASP623  PHE694  ASN695  SER759  ASP760  ASP761  ALA762  ILE779  LEU786  VAL792 
 PHE793  MET794  SER795  GLU796  ALA797  LYS798  CYS799  TRP800  GLU811  SER814 

> <Gold.Protein.RotatedAtoms>
  150.8191  134.7389  159.6755 H   0  0  0  0  0  0  0  0  0  0  0  0  # atno 6907 bound_to 6896
  152.4308  134.5778  159.9949 H   0  0  0  0  0  0  0  0  0  0  0  0  # atno 6908 bound_to 6896
  151.5967  133.3323  159.3075 H   0  0  0  0  0  0  0  0  0  0  0  0  # atno 6909 bound_to 6896
  145.6290  139.2401  143.2095 H   0  0  0  0  0  0  0  0  0  0  0  0  # atno 7974 bound_to 7965
  154.7848  140.0465  157.1155 H   0  0  0  0  0  0  0  0  0  0  0  0  # atno 8008 bound_to 7997
  154.9661  140.3083  155.4989 H   0  0  0  0  0  0  0  0  0  0  0  0  # atno 8009 bound_to 7997
  156.2941  140.2262  156.4750 H   0  0  0  0  0  0  0  0  0  0  0  0  # atno 8010 bound_to 7997
  140.7211  143.3648  151.1892 H   0  0  0  0  0  0  0  0  0  0  0  0  # atno 10167 bound_to 10162
  156.0025  130.5062  150.5906 H   0  0  0  0  0  0  0  0  0  0  0  0  # atno 10718 bound_to 10713
  153.9203  135.6783  153.4748 H   0  0  0  0  0  0  0  0  0  0  0  0  # atno 10763 bound_to 10752
  153.1032  135.4818  154.8901 H   0  0  0  0  0  0  0  0  0  0  0  0  # atno 10764 bound_to 10752
  154.7481  135.3177  154.8564 H   0  0  0  0  0  0  0  0  0  0  0  0  # atno 10765 bound_to 10752
  139.8965  134.8302  156.2613 H   0  0  0  0  0  0  0  0  0  0  0  0  # atno 11005 bound_to 11000
  146.1372  140.7107  142.9384 LP  0  0  0  0  0  0  0  0  0  0  0  0  # atno 17320 bound_to 7965
  144.7201  140.4344  143.7014 LP  0  0  0  0  0  0  0  0  0  0  0  0  # atno 17321 bound_to 7965
  139.7207  143.9228  152.2984 LP  0  0  0  0  0  0  0  0  0  0  0  0  # atno 17342 bound_to 10162
  139.8984  144.6926  150.8693 LP  0  0  0  0  0  0  0  0  0  0  0  0  # atno 17343 bound_to 10162
  157.3771  131.0775  151.1508 LP  0  0  0  0  0  0  0  0  0  0  0  0  # atno 17370 bound_to 10713
  157.2243  130.6495  149.5823 LP  0  0  0  0  0  0  0  0  0  0  0  0  # atno 17371 bound_to 10713
  141.0161  133.7068  156.1190 LP  0  0  0  0  0  0  0  0  0  0  0  0  # atno 17394 bound_to 11000
  140.7300  134.4265  157.5567 LP  0  0  0  0  0  0  0  0  0  0  0  0  # atno 17395 bound_to 11000

$$$$
