AV-unprocessed.smi:1131|AV-procd|sdf|4850|dock7
  -GOLD-   22720 3423D 1   1.00000     0.00000
 Structure written by MMmdl.
 33 34  0  0  0  0  0  0  0  0  1 V2000
  148.6745  133.5253  155.5199 O   0  0  0  0  0  0  0  0  0  0  0  0
  148.7852  134.0415  154.4068 C   0  0  0  0  0  0  0  0  0  0  0  0
  148.3438  133.2901  153.1423 C   0  0  0  0  0  0  0  0  0  0  0  0
  146.9143  133.4563  152.8412 N   0  0  0  0  0  0  0  0  0  0  0  0
  146.5122  134.2073  151.7456 C   0  0  0  0  0  0  0  0  0  0  0  0
  145.2144  134.4119  151.4173 C   0  0  0  0  0  0  0  0  0  0  0  0
  144.1478  133.8344  152.2279 C   0  0  0  0  0  0  0  0  0  0  0  0
  142.9446  133.9617  152.0119 O   0  0  0  0  0  0  0  0  0  0  0  0
  144.5922  133.0883  153.3228 N   0  0  0  0  0  0  0  0  0  0  0  0
  145.9278  132.8743  153.6672 C   0  0  0  0  0  0  0  0  0  0  0  0
  146.2106  132.2019  154.6581 O   0  0  0  0  0  0  0  0  0  0  0  0
  149.2677  135.2788  154.2179 N   0  0  0  0  0  0  0  0  0  0  0  0
  149.7316  136.1692  155.2766 C   0  0  0  0  0  0  0  0  0  0  0  0
  150.6926  137.2502  154.7459 C   0  0  2  0  0  0  0  0  0  0  0  0
  151.6756  137.7856  155.7685 C   0  0  0  0  0  0  0  0  0  0  0  0
  152.1080  139.1004  155.1277 C   0  0  0  0  0  0  0  0  0  0  0  0
  150.9800  139.5629  154.3903 O   0  0  0  0  0  0  0  0  0  0  0  0
  149.9956  138.5364  154.3042 C   0  0  0  0  0  0  0  0  0  0  0  0
  143.8889  132.6716  153.9152 H   0  0  0  0  0  0  0  0  0  0  0  0
  148.9495  133.6463  152.3074 H   0  0  0  0  0  0  0  0  0  0  0  0
  148.5861  132.2299  153.2414 H   0  0  0  0  0  0  0  0  0  0  0  0
  147.2686  134.6583  151.1191 H   0  0  0  0  0  0  0  0  0  0  0  0
  144.9642  135.0077  150.5513 H   0  0  0  0  0  0  0  0  0  0  0  0
  149.3206  135.6283  153.2721 H   0  0  0  0  0  0  0  0  0  0  0  0
  148.8769  136.6332  155.7722 H   0  0  0  0  0  0  0  0  0  0  0  0
  150.2310  135.5615  156.0317 H   0  0  0  0  0  0  0  0  0  0  0  0
  151.2547  136.8576  153.8968 H   0  0  0  0  0  0  0  0  0  0  0  0
  151.1722  137.9789  156.7167 H   0  0  0  0  0  0  0  0  0  0  0  0
  152.5122  137.1120  155.9557 H   0  0  0  0  0  0  0  0  0  0  0  0
  152.4328  139.8360  155.8638 H   0  0  0  0  0  0  0  0  0  0  0  0
  152.9308  138.9315  154.4321 H   0  0  0  0  0  0  0  0  0  0  0  0
  149.5850  138.4632  153.2969 H   0  0  0  0  0  0  0  0  0  0  0  0
  149.1795  138.7882  154.9829 H   0  0  0  0  0  0  0  0  0  0  0  0
  1  2  2  0  0  0  0
  2  3  1  0  0  0  0
  2 12  1  0  0  0  0
  3  4  1  0  0  0  0
  3 20  1  0  0  0  0
  3 21  1  0  0  0  0
  4 10  1  0  0  0  0
  4  5  1  0  0  0  0
  5  6  2  0  0  0  0
  5 22  1  0  0  0  0
  6  7  1  0  0  0  0
  6 23  1  0  0  0  0
  7  8  2  0  0  0  0
  7  9  1  0  0  0  0
  9 19  1  0  0  0  0
  9 10  1  0  0  0  0
 10 11  2  0  0  0  0
 12 13  1  0  0  0  0
 12 24  1  0  0  0  0
 13 14  1  0  0  0  0
 13 25  1  0  0  0  0
 13 26  1  0  0  0  0
 14 18  1  0  0  0  0
 14 15  1  0  0  0  0
 14 27  1  0  0  0  0
 15 16  1  0  0  0  0
 15 28  1  0  0  0  0
 15 29  1  0  0  0  0
 16 17  1  0  0  0  0
 16 30  1  0  0  0  0
 16 31  1  0  0  0  0
 17 18  1  0  0  0  0
 18 32  1  0  0  0  0
 18 33  1  0  0  0  0
M  END
> <s_m_source_file>
AV-unprocessed.smi

> <i_m_source_file_index>
1131

> <i_lp_mmshare_version>
43012

> <i_f3d_flags>
0

> <s_epik_input>
W0NIMl0xT1tDSDJdW0NIMl1bQ0BIXTFbQ0gyXVtOSF1DKD1PKVtDSDJdbjJbY0hdW2NIXWMoPU8pW25IXWMyPU8=

> <s_epik_cmdline>
J2VwaWtfcHl0aG9uJywgJy1waCcsICc3LjAnLCAnLXRuJywgJzgnLCAnLW1hJywgJzIwMCcsICctbWV0YWxfYmluZGluZycsICctaW1hZScsICc8aW5maWxlLm1hZT4nLCAnLW9tYWUnLCAnPG91dGZpbGUubWFlPic=

> <r_lp_tautomer_probability>
0.999537

> <r_epik_Ionization_Penalty>
0.00329016

> <r_epik_Ionization_Penalty_Charging>
0.00329014

> <r_epik_Ionization_Penalty_Neutral>
1.87063e-08

> <r_epik_State_Penalty>
0.00232461

> <r_epik_Charging_Adjusted_Penalty>
0.00561475

> <i_epik_Tot_Q>
0

> <i_epik_Tot_abs_Q>
0

> <r_epik_Metal_State_Penalty>
0.365289

> <b_epik_Metal_Only>
0

> <s_lp_Force_Field>
OPLS_2005

> <r_lp_Energy>
17.5195

> <b_lp_Chiralities_Consistent>
1

> <s_lp_Variant>
AV-unprocessed.smi:1131-1

> <Gold.Version>
5.8.1

> <Gold.Id.Protein>
6NUR|6NUR_protein|mol2

> <Gold.PLP.Fitness>
36.0775

> <Gold.PLP.PLP>
-26.1244

> <Gold.PLP.part.hbond>
-3.0000

> <Gold.PLP.part.metal>
0.0000

> <Gold.PLP.part.buried>
-2.6174

> <Gold.PLP.part.nonpolar>
-21.4275

> <Gold.PLP.part.repulsive>
0.5222

> <Gold.PLP.ligand.clash>
0.0000

> <Gold.PLP.ligand.torsion>
0.9487

> <Gold.PLP.Chemscore.Hbond>
3.0000

> <Gold.PLP.Chemscore.CHOScore>
0.9470

> <Gold.PLP.Chemscore.Metal>
0.0000

> <Gold.Chemscore.Hbonds>
donor molecule, donor type, donor heavy atom, donor atom, acceptor molecule, acceptor atom, score
      L1  H     9    19       P1 10957  1.00
      L1  H    12    24       P1  7948  1.00
      P1  H  7989  7998       L1    17  1.00
      L1  C     5    22       P1  7948  0.93

> <Gold.PLP.Chemscore.Internal.Correction>
0.0096

> <Gold.Rescore>
     Score         DG    S(hbond)    S(metal)    S(lipo)     H(rot)  DE(clash)    DE(int)     intcor
     12.22     -14.48       2.76        0.00      43.91       2.09       0.06       2.19       ----

> <Gold.Chemscore.Fitness>
12.2250

> <Gold.Chemscore.DG>
-14.4805

> <Gold.Chemscore.ZeroCoef>
-5.4800

> <Gold.Chemscore.Hbond>
2.7601

> <Gold.Chemscore.Metal>
0.0000

> <Gold.Chemscore.Lipo>
43.9067

> <Gold.Chemscore.Internal_Hbond>
0.0000

> <Gold.Chemscore.DEClash>
0.0637

> <Gold.Chemscore.DEInternal>
2.1918

> <Gold.Chemscore.Rot>
2.0919

> <Gold.Chemscore.Internal.Correction>
   9.000000E+99

> <Gold.Chemscore.Hbonds>
donor molecule, donor type, donor heavy atom, donor atom, acceptor molecule, acceptor atom, score
      L1  H     9    19       P1 10957  0.82
      L1  H    12    24       P1  7948  0.28
      P1  H  7989  7998       L1    17  0.35

> <Gold.Chemscore.Hbond.Weighted>
-9.2187

> <Gold.Chemscore.Metal.Weighted>
-0.0000

> <Gold.Chemscore.Lipo.Weighted>
-5.1371

> <Gold.Chemscore.Internal_Hbond.Weighted>
0.0000

> <Gold.Chemscore.DEClash.Weighted>
0.0637

> <Gold.Chemscore.DEInternal.Weighted>
2.1918

> <Gold.Chemscore.Rot.Weighted>
5.3552

> <Gold.Chemscore.Internal.Correction.Weighted>
   9.000000E+99

> <Gold.Protein.RotatedTorsions>
[ 6907 6896 6895 6894 ] final   53.75 input  -60.11 | X-H torsion
[ 7974 7965 7964 7962 ] final   75.02 input  175.53 | X-H torsion
[ 8008 7997 7996 7995 ] final   26.89 input   59.86 | X-H torsion
[ 10167 10162 10161 10158 ] final  -85.45 input  -65.29 | X-H torsion
[ 10718 10713 10712 10709 ] final   63.49 input   66.30 | X-H torsion
[ 10763 10752 10751 10750 ] final   58.71 input  -60.55 | X-H torsion
[ 11005 11000 10999 10996 ] final   24.18 input  -57.11 | X-H torsion

> <Gold.Protein.ActiveResidues>
 VAL166  LYS551  ARG553  GLY616  TRP617  ASP618  TYR619  PRO620  LYS621  CYS622 
 ASP623  PHE694  ASN695  SER759  ASP760  ASP761  ALA762  ILE779  LEU786  VAL792 
 PHE793  MET794  SER795  GLU796  ALA797  LYS798  CYS799  TRP800  GLU811  SER814 

> <Gold.Protein.RotatedAtoms>
  152.3368  134.7187  160.0274 H   0  0  0  0  0  0  0  0  0  0  0  0  # atno 6907 bound_to 6896
  151.7585  133.3326  159.3419 H   0  0  0  0  0  0  0  0  0  0  0  0  # atno 6908 bound_to 6896
  150.7456  134.6060  159.6105 H   0  0  0  0  0  0  0  0  0  0  0  0  # atno 6909 bound_to 6896
  145.7209  139.2648  143.1596 H   0  0  0  0  0  0  0  0  0  0  0  0  # atno 7974 bound_to 7965
  155.0343  140.3162  155.4747 H   0  0  0  0  0  0  0  0  0  0  0  0  # atno 8008 bound_to 7997
  156.2868  140.2174  156.5408 H   0  0  0  0  0  0  0  0  0  0  0  0  # atno 8009 bound_to 7997
  154.7344  140.0479  157.0743 H   0  0  0  0  0  0  0  0  0  0  0  0  # atno 8010 bound_to 7997
  140.4036  143.2652  151.9110 H   0  0  0  0  0  0  0  0  0  0  0  0  # atno 10167 bound_to 10162
  157.5975  130.9108  149.9723 H   0  0  0  0  0  0  0  0  0  0  0  0  # atno 10718 bound_to 10713
  152.9877  135.5597  154.5596 H   0  0  0  0  0  0  0  0  0  0  0  0  # atno 10763 bound_to 10752
  154.5018  135.2797  155.1417 H   0  0  0  0  0  0  0  0  0  0  0  0  # atno 10764 bound_to 10752
  154.2844  135.6338  153.5413 H   0  0  0  0  0  0  0  0  0  0  0  0  # atno 10765 bound_to 10752
  140.3615  134.2120  155.7672 H   0  0  0  0  0  0  0  0  0  0  0  0  # atno 11005 bound_to 11000
  146.0626  140.7954  142.9727 LP  0  0  0  0  0  0  0  0  0  0  0  0  # atno 17320 bound_to 7965
  144.6917  140.3220  143.7230 LP  0  0  0  0  0  0  0  0  0  0  0  0  # atno 17321 bound_to 7965
  139.4784  144.5608  151.8242 LP  0  0  0  0  0  0  0  0  0  0  0  0  # atno 17342 bound_to 10162
  140.4713  144.1582  150.5918 LP  0  0  0  0  0  0  0  0  0  0  0  0  # atno 17343 bound_to 10162
  156.1040  130.3654  150.0166 LP  0  0  0  0  0  0  0  0  0  0  0  0  # atno 17370 bound_to 10713
  156.8277  130.9381  151.3638 LP  0  0  0  0  0  0  0  0  0  0  0  0  # atno 17371 bound_to 10713
  141.1982  133.8040  157.0591 LP  0  0  0  0  0  0  0  0  0  0  0  0  # atno 17394 bound_to 11000
  140.0622  134.9748  157.1325 LP  0  0  0  0  0  0  0  0  0  0  0  0  # atno 17395 bound_to 11000

$$$$
