#       Name:                AV-unprocessed.smi:3335
#       Creating user name   scv26
#       Creation time:       Fri Mar 27 19:23:17 2020


#       File generated by GOLD software.
#

@<TRIPOS>MOLECULE
AV-unprocessed.smi:3335
    50    51     1
SMALL
NO_CHARGES


@<TRIPOS>ATOM
      1 ****        -4.4578  -4.4335  -2.6912 C.3            1 S1                 0.0000
      2 ****        -3.4724  -3.3518  -2.3551 C.2            1 S1                 0.0000
      3 ****        -2.6801  -2.5806  -3.2519 C.2            1 S1                 0.0000
      4 ****        -1.9054  -1.7068  -2.6316 N.2            1 S1                 0.0000
      5 ****        -2.1759  -1.8833  -1.3188 N.pl3          1 S1                 0.0000
      6 ****        -1.4872  -1.0866  -0.3111 C.3            1 S1                 0.0000
      7 ****        -1.7782   0.4114  -0.5282 C.3            1 S1                 0.0000
      8 ****         0.0319  -1.4046  -0.2625 C.3            1 S1                 0.0000
      9 ****         0.3464  -2.9109  -0.1988 C.3            1 S1                 0.0000
     10 ****         0.6092  -0.7966   0.9341 N.3            1 S1                 0.0000
     11 ****         1.5379   0.3115   0.6519 C.3            1 S1                 0.0000
     12 ****         2.8924  -0.2179   0.1426 C.3            1 S1                 0.0000
     13 ****         1.7581   1.1667   1.9158 C.2            1 S1                 0.0000
     14 ****         1.8371   0.6048   3.0103 O.2            1 S1                 0.0000
     15 ****         1.8659   2.5087   1.7991 N.am           1 S1                 0.0000
     16 ****         2.0657   3.3971   2.9437 C.3            1 S1                 0.0000
     17 ****         1.9065   4.8182   2.4034 C.3            1 S1                 0.0000
     18 ****         2.2639   4.6959   0.9296 C.3            1 S1                 0.0000
     19 ****         1.8262   3.2797   0.5561 C.3            1 S1                 0.0000
     20 ****        -3.1188  -2.8715  -1.1261 C.2            1 S1                 0.0000
     21 ****        -4.2994  -4.8279  -3.6951 H              1 S1                 0.0000
     22 ****        -5.4841  -4.0693  -2.6466 H              1 S1                 0.0000
     23 ****        -4.3839  -5.2747  -2.0017 H              1 S1                 0.0000
     24 ****        -2.6442  -2.6316  -4.3301 H              1 S1                 0.0000
     25 ****        -1.9217  -1.3666   0.6502 H              1 S1                 0.0000
     26 ****        -1.4005   1.0144   0.2975 H              1 S1                 0.0000
     27 ****        -2.8506   0.5955  -0.5972 H              1 S1                 0.0000
     28 ****        -1.3169   0.7808  -1.4445 H              1 S1                 0.0000
     29 ****         0.4990  -1.0125  -1.1673 H              1 S1                 0.0000
     30 ****         0.0224  -3.4277  -1.1022 H              1 S1                 0.0000
     31 ****        -0.1471  -3.3853   0.6502 H              1 S1                 0.0000
     32 ****         1.4188  -3.0850  -0.1013 H              1 S1                 0.0000
     33 ****         1.0419  -1.5057   1.5087 H              1 S1                 0.0000
     34 ****         1.0861   0.9325  -0.1208 H              1 S1                 0.0000
     35 ****         3.5937   0.5973  -0.0389 H              1 S1                 0.0000
     36 ****         2.7866  -0.7610  -0.7965 H              1 S1                 0.0000
     37 ****         3.3528  -0.8948   0.8636 H              1 S1                 0.0000
     38 ****         1.3558   3.1976   3.7479 H              1 S1                 0.0000
     39 ****         3.0727   3.2484   3.3363 H              1 S1                 0.0000
     40 ****         0.8668   5.1334   2.5020 H              1 S1                 0.0000
     41 ****         2.5267   5.5435   2.9307 H              1 S1                 0.0000
     42 ****         1.7914   5.4617   0.3137 H              1 S1                 0.0000
     43 ****         3.3440   4.7887   0.8083 H              1 S1                 0.0000
     44 ****         2.4768   2.8615  -0.2131 H              1 S1                 0.0000
     45 ****         0.8041   3.2869   0.1747 H              1 S1                 0.0000
     46 ****        -3.4549  -3.1519  -0.1387 H              1 S1                 0.0000
     47 ****        -1.2628  -1.0597  -3.0420 LP             1 S1                 0.0000
     48 ****        -0.1475  -0.3794   1.4376 LP             1 S1                 0.0000
     49 ****         1.7585  -0.3904   3.0682 LP             1 S1                 0.0000
     50 ****         1.9797   1.1443   3.8401 LP             1 S1                 0.0000
@<TRIPOS>BOND
    1    1    2 1     
    2    1   21 1     
    3    1   22 1     
    4    1   23 1     
    5    2   20 2     
    6    2    3 1     
    7    3    4 2     
    8    3   24 1     
    9    4    5 1     
   10    5    6 1     
   11    5   20 1     
   12    6    7 1     
   13    6    8 1     
   14    6   25 1     
   15    7   26 1     
   16    7   27 1     
   17    7   28 1     
   18    8    9 1     
   19    8   10 1     
   20    8   29 1     
   21    9   30 1     
   22    9   31 1     
   23    9   32 1     
   24   10   11 1     
   25   10   33 1     
   26   11   12 1     
   27   11   13 1     
   28   11   34 1     
   29   12   35 1     
   30   12   36 1     
   31   12   37 1     
   32   13   14 2     
   33   13   15 am    
   34   15   19 1     
   35   15   16 1     
   36   16   17 1     
   37   16   38 1     
   38   16   39 1     
   39   17   18 1     
   40   17   40 1     
   41   17   41 1     
   42   18   19 1     
   43   18   42 1     
   44   18   43 1     
   45   19   44 1     
   46   19   45 1     
   47   20   46 1     
   48    4   47 1     
   49   10   48 1     
   50   14   49 1     
   51   14   50 1     
@<TRIPOS>SUBSTRUCTURE
      1 S1             1
@<TRIPOS>SET
LONE_PAIRS      STATIC     ATOMS    <user>   **** ""
4 47 48 49 50
DONOR_HYDROGENS      STATIC     ATOMS    <user>   **** ""
1 33
ATOM$BLUE        STATIC     ATOMS    COLORGROUP SYSTEM
4 47 48 49 50
ATOM$RED        STATIC     ATOMS    COLORGROUP SYSTEM
1 33
