AV-unprocessed.smi:3232|AV-procd|sdf|12346|dock6
  -GOLD-   2272018213D 1   1.00000     0.00000
 Structure written by MMmdl.
 40 41  0  0  0  0  0  0  0  0  2 V2000
  151.0759  145.4320  159.9626 C   0  0  0  0  0  0  0  0  0  0  0  0
  151.8931  145.2395  158.6781 C   0  0  0  0  0  0  0  0  0  0  0  0
  152.3051  143.8287  158.4830 N   0  3  1  0  0  0  0  0  0  0  0  0
  152.9286  143.1964  159.6652 C   0  0  0  0  0  0  0  0  0  0  0  0
  152.7207  141.7004  159.4690 C   0  0  0  0  0  0  0  0  0  0  0  0
  151.3388  141.6342  158.8308 C   0  0  0  0  0  0  0  0  0  0  0  0
  151.2188  142.9333  158.0092 C   0  0  2  0  0  0  0  0  0  0  0  0
  151.3367  142.7161  156.4860 C   0  0  0  0  0  0  0  0  0  0  0  0
  150.0408  142.5136  155.8474 N   0  0  0  0  0  0  0  0  0  0  0  0
  149.7095  141.4567  155.0898 C   0  0  0  0  0  0  0  0  0  0  0  0
  150.4857  140.5299  154.8541 O   0  0  0  0  0  0  0  0  0  0  0  0
  148.2840  141.4529  154.5183 C   0  0  1  0  0  0  0  0  0  0  0  0
  147.9841  140.1972  153.6791 C   0  0  0  0  0  0  0  0  0  0  0  0
  147.3134  141.6140  155.5912 N   0  0  0  0  0  0  0  0  0  0  0  0
  145.9797  141.6898  155.5629 C   0  0  0  0  0  0  0  0  0  0  0  0
  145.4240  141.8214  156.7590 N   0  0  0  0  0  0  0  0  0  0  0  0
  146.5484  141.8175  157.5345 C   0  0  0  0  0  0  0  0  0  0  0  0
  147.7059  141.6916  156.8853 N   0  0  0  0  0  0  0  0  0  0  0  0
  150.8279  146.4836  160.1071 H   0  0  0  0  0  0  0  0  0  0  0  0
  151.6340  145.1004  160.8385 H   0  0  0  0  0  0  0  0  0  0  0  0
  150.1381  144.8774  159.9310 H   0  0  0  0  0  0  0  0  0  0  0  0
  151.3291  145.5880  157.8117 H   0  0  0  0  0  0  0  0  0  0  0  0
  152.7879  145.8603  158.7391 H   0  0  0  0  0  0  0  0  0  0  0  0
  153.9827  143.4600  159.7573 H   0  0  0  0  0  0  0  0  0  0  0  0
  152.4173  143.5198  160.5735 H   0  0  0  0  0  0  0  0  0  0  0  0
  153.4686  141.3072  158.7788 H   0  0  0  0  0  0  0  0  0  0  0  0
  152.7877  141.1356  160.3994 H   0  0  0  0  0  0  0  0  0  0  0  0
  151.1999  140.7256  158.2442 H   0  0  0  0  0  0  0  0  0  0  0  0
  150.5800  141.6309  159.6147 H   0  0  0  0  0  0  0  0  0  0  0  0
  150.2514  143.3866  158.2338 H   0  0  0  0  0  0  0  0  0  0  0  0
  151.8415  143.5635  156.0187 H   0  0  0  0  0  0  0  0  0  0  0  0
  151.9533  141.8403  156.2805 H   0  0  0  0  0  0  0  0  0  0  0  0
  149.3400  143.2256  155.9973 H   0  0  0  0  0  0  0  0  0  0  0  0
  148.1969  142.3143  153.8528 H   0  0  0  0  0  0  0  0  0  0  0  0
  148.7127  140.0752  152.8767 H   0  0  0  0  0  0  0  0  0  0  0  0
  146.9991  140.2675  153.2169 H   0  0  0  0  0  0  0  0  0  0  0  0
  147.9995  139.2897  154.2841 H   0  0  0  0  0  0  0  0  0  0  0  0
  145.4043  141.6451  154.6496 H   0  0  0  0  0  0  0  0  0  0  0  0
  146.5129  141.9073  158.6101 H   0  0  0  0  0  0  0  0  0  0  0  0
  153.0044  143.8178  157.7543 H   0  0  0  0  0  0  0  0  0  0  0  0
  1  2  1  0  0  0  0
  1 19  1  0  0  0  0
  1 20  1  0  0  0  0
  1 21  1  0  0  0  0
  2  3  1  0  0  0  0
  2 22  1  0  0  0  0
  2 23  1  0  0  0  0
  3  7  1  0  0  0  0
  3  4  1  0  0  0  0
  3 40  1  0  0  0  0
  4  5  1  0  0  0  0
  4 24  1  0  0  0  0
  4 25  1  0  0  0  0
  5  6  1  0  0  0  0
  5 26  1  0  0  0  0
  5 27  1  0  0  0  0
  6  7  1  0  0  0  0
  6 28  1  0  0  0  0
  6 29  1  0  0  0  0
  7  8  1  0  0  0  0
  7 30  1  0  0  0  0
  8  9  1  0  0  0  0
  8 31  1  0  0  0  0
  8 32  1  0  0  0  0
  9 10  1  0  0  0  0
  9 33  1  0  0  0  0
 10 11  2  0  0  0  0
 10 12  1  0  0  0  0
 12 13  1  0  0  0  0
 12 14  1  0  0  0  0
 12 34  1  0  0  0  0
 13 35  1  0  0  0  0
 13 36  1  0  0  0  0
 13 37  1  0  0  0  0
 14 18  1  0  0  0  0
 14 15  1  0  0  0  0
 15 16  2  0  0  0  0
 15 38  1  0  0  0  0
 16 17  1  0  0  0  0
 17 18  2  0  0  0  0
 17 39  1  0  0  0  0
M  CHG  1   3   1
M  END
> <s_m_source_file>
AV-unprocessed.smi

> <i_m_source_file_index>
3232

> <i_lp_mmshare_version>
43012

> <i_f3d_flags>
0

> <s_epik_input>
W0NIM11bQ0gyXU4xW0NIMl1bQ0gyXVtDSDJdW0NASF0xW0NIMl1bTkhdQyg9TylbQ0BIXShbQ0gzXSluMltjSF1uW2NIXW4y

> <s_epik_cmdline>
J2VwaWtfcHl0aG9uJywgJy1waCcsICc3LjAnLCAnLXRuJywgJzgnLCAnLW1hJywgJzIwMCcsICctbWV0YWxfYmluZGluZycsICctaW1hZScsICc8aW5maWxlLm1hZT4nLCAnLW9tYWUnLCAnPG91dGZpbGUubWFlPic=

> <r_lp_tautomer_probability>
1

> <r_epik_Ionization_Penalty>
0.00177695

> <r_epik_Ionization_Penalty_Charging>
0.00176881

> <r_epik_Ionization_Penalty_Neutral>
8.13528e-06

> <r_epik_State_Penalty>
0.00119827

> <r_epik_Charging_Adjusted_Penalty>
0.00296709

> <i_epik_Tot_Q>
1

> <i_epik_Tot_abs_Q>
1

> <r_epik_Metal_State_Penalty>
-0

> <b_epik_Metal_Only>
0

> <s_lp_Force_Field>
OPLS_2005

> <r_lp_Energy>
32.5075

> <b_lp_Chiralities_Consistent>
1

> <s_lp_Variant>
AV-unprocessed.smi:3232-8

> <Gold.Version>
5.8.1

> <Gold.Id.Protein>
6NUR|6NUR_protein|mol2

> <Gold.PLP.Fitness>
40.6614

> <Gold.PLP.PLP>
-35.7042

> <Gold.PLP.part.hbond>
-2.0000

> <Gold.PLP.part.metal>
0.0000

> <Gold.PLP.part.buried>
-6.2866

> <Gold.PLP.part.nonpolar>
-28.0147

> <Gold.PLP.part.repulsive>
0.4228

> <Gold.PLP.ligand.clash>
0.0000

> <Gold.PLP.ligand.torsion>
0.5601

> <Gold.PLP.Chemscore.Hbond>
2.0000

> <Gold.PLP.Chemscore.CHOScore>
0.0000

> <Gold.PLP.Chemscore.Metal>
0.0000

> <Gold.Chemscore.Hbonds>
donor molecule, donor type, donor heavy atom, donor atom, acceptor molecule, acceptor atom, score
      L1  H     9    33       P1  8028  0.91
      P1  H  7989  7998       L1    11  0.99

> <Gold.PLP.Chemscore.Internal.Correction>
0.0775

> <Gold.Rescore>
     Score         DG    S(hbond)    S(metal)    S(lipo)     H(rot)  DE(clash)    DE(int)     intcor
     11.87     -14.98       1.72        0.00      86.51       2.49       1.24       1.86       ----

> <Gold.Chemscore.Fitness>
11.8740

> <Gold.Chemscore.DG>
-14.9782

> <Gold.Chemscore.ZeroCoef>
-5.4800

> <Gold.Chemscore.Hbond>
1.7203

> <Gold.Chemscore.Metal>
0.0000

> <Gold.Chemscore.Lipo>
86.5136

> <Gold.Chemscore.Internal_Hbond>
0.0000

> <Gold.Chemscore.DEClash>
1.2395

> <Gold.Chemscore.DEInternal>
1.8647

> <Gold.Chemscore.Rot>
2.4882

> <Gold.Chemscore.Internal.Correction>
   9.000000E+99

> <Gold.Chemscore.Hbonds>
donor molecule, donor type, donor heavy atom, donor atom, acceptor molecule, acceptor atom, score
      L1  H     9    33       P1  8028  0.88
      P1  H  7989  7998       L1    11  0.81

> <Gold.Chemscore.Hbond.Weighted>
-5.7458

> <Gold.Chemscore.Metal.Weighted>
-0.0000

> <Gold.Chemscore.Lipo.Weighted>
-10.1221

> <Gold.Chemscore.Internal_Hbond.Weighted>
0.0000

> <Gold.Chemscore.DEClash.Weighted>
1.2395

> <Gold.Chemscore.DEInternal.Weighted>
1.8647

> <Gold.Chemscore.Rot.Weighted>
6.3697

> <Gold.Chemscore.Internal.Correction.Weighted>
   9.000000E+99

> <Gold.Protein.RotatedTorsions>
[ 6907 6896 6895 6894 ] final   86.29 input  -60.11 | X-H torsion
[ 7974 7965 7964 7962 ] final  -80.64 input  175.53 | X-H torsion
[ 8008 7997 7996 7995 ] final -122.87 input   59.86 | X-H torsion
[ 10167 10162 10161 10158 ] final   14.62 input  -65.29 | X-H torsion
[ 10718 10713 10712 10709 ] final  108.05 input   66.30 | X-H torsion
[ 10763 10752 10751 10750 ] final   77.27 input  -60.55 | X-H torsion
[ 11005 11000 10999 10996 ] final -164.40 input  -57.11 | X-H torsion

> <Gold.Protein.ActiveResidues>
 VAL166  LYS551  ARG553  GLY616  TRP617  ASP618  TYR619  PRO620  LYS621  CYS622 
 ASP623  PHE694  ASN695  SER759  ASP760  ASP761  ALA762  ILE779  LEU786  VAL792 
 PHE793  MET794  SER795  GLU796  ALA797  LYS798  CYS799  TRP800  GLU811  SER814 

> <Gold.Protein.RotatedAtoms>
  152.5391  134.2454  159.8877 H   0  0  0  0  0  0  0  0  0  0  0  0  # atno 6907 bound_to 6896
  151.2419  133.4388  159.2615 H   0  0  0  0  0  0  0  0  0  0  0  0  # atno 6908 bound_to 6896
  151.0619  134.9756  159.8321 H   0  0  0  0  0  0  0  0  0  0  0  0  # atno 6909 bound_to 6896
  145.5572  140.9488  143.1467 H   0  0  0  0  0  0  0  0  0  0  0  0  # atno 7974 bound_to 7965
  155.1713  140.0408  157.2863 H   0  0  0  0  0  0  0  0  0  0  0  0  # atno 8008 bound_to 7997
  154.6267  140.2514  155.7456 H   0  0  0  0  0  0  0  0  0  0  0  0  # atno 8009 bound_to 7997
  156.2463  140.2883  156.0600 H   0  0  0  0  0  0  0  0  0  0  0  0  # atno 8010 bound_to 7997
  140.5923  143.8770  150.6885 H   0  0  0  0  0  0  0  0  0  0  0  0  # atno 10167 bound_to 10162
  157.6602  131.0886  150.6248 H   0  0  0  0  0  0  0  0  0  0  0  0  # atno 10718 bound_to 10713
  153.0786  135.4920  154.8456 H   0  0  0  0  0  0  0  0  0  0  0  0  # atno 10763 bound_to 10752
  154.7121  135.3022  154.9183 H   0  0  0  0  0  0  0  0  0  0  0  0  # atno 10764 bound_to 10752
  153.9874  135.6782  153.4805 H   0  0  0  0  0  0  0  0  0  0  0  0  # atno 10765 bound_to 10752
  140.5873  134.5080  157.5187 H   0  0  0  0  0  0  0  0  0  0  0  0  # atno 11005 bound_to 11000
  144.7500  139.7218  143.7277 LP  0  0  0  0  0  0  0  0  0  0  0  0  # atno 17320 bound_to 7965
  146.1876  139.5100  142.9826 LP  0  0  0  0  0  0  0  0  0  0  0  0  # atno 17321 bound_to 7965
  140.2296  143.3746  152.1576 LP  0  0  0  0  0  0  0  0  0  0  0  0  # atno 17342 bound_to 10162
  139.5235  144.7073  151.5316 LP  0  0  0  0  0  0  0  0  0  0  0  0  # atno 17343 bound_to 10162
  156.6552  130.4496  149.5706 LP  0  0  0  0  0  0  0  0  0  0  0  0  # atno 17370 bound_to 10713
  156.2108  130.6678  151.1267 LP  0  0  0  0  0  0  0  0  0  0  0  0  # atno 17371 bound_to 10713
  139.9290  134.8000  156.0985 LP  0  0  0  0  0  0  0  0  0  0  0  0  # atno 17394 bound_to 11000
  141.0958  133.6696  156.2641 LP  0  0  0  0  0  0  0  0  0  0  0  0  # atno 17395 bound_to 11000

$$$$
