#       Name:                AV-unprocessed.smi:47
#       Creating user name   scv26
#       Creation time:       Thu Mar 26 16:30:10 2020


#       File generated by GOLD software.
#

@<TRIPOS>MOLECULE
AV-unprocessed.smi:47
    36    38     1
SMALL
NO_CHARGES


@<TRIPOS>ATOM
      1 ****        -4.4523  -0.8537  -1.3372 O.3            1 S1                 0.0000
      2 ****        -3.3031  -0.3873  -0.6630 C.3            1 S1                 0.0000
      3 ****        -3.5622   0.9196   0.0838 C.3            1 S1                 0.0000
      4 ****        -2.5509   0.9586   1.1555 N.4            1 S1                 1.0000
      5 ****        -2.0931  -0.4229   1.4254 C.3            1 S1                 0.0000
      6 ****        -0.6092  -0.5402   1.2535 C.2            1 S1                 0.0000
      7 ****         0.0916  -1.4221   1.9581 N.2            1 S1                 0.0000
      8 ****         1.3370  -1.2374   1.4738 N.pl3          1 S1                 0.0000
      9 ****         1.3313  -0.2972   0.5203 C.2            1 S1                 0.0000
     10 ****         2.5127   0.1473  -0.2224 C.ar           1 S1                 0.0000
     11 ****         3.7829  -0.4114   0.0507 C.ar           1 S1                 0.0000
     12 ****         4.9196   0.0153  -0.6633 C.ar           1 S1                 0.0000
     13 ****         4.7984   1.0042  -1.6573 C.ar           1 S1                 0.0000
     14 ****         3.5391   1.5666  -1.9367 C.ar           1 S1                 0.0000
     15 ****         2.4017   1.1406  -1.2235 C.ar           1 S1                 0.0000
     16 ****         0.1004   0.1807   0.3333 N.2            1 S1                 0.0000
     17 ****        -2.8680  -1.3301   0.4559 C.3            1 S1                 0.0000
     18 ****        -2.4877  -0.2540  -1.3755 H              1 S1                 0.0000
     19 ****        -2.3482  -0.6797   2.4547 H              1 S1                 0.0000
     20 ****         2.1356  -1.7610   1.8035 H              1 S1                 0.0000
     21 ****        -4.2409  -1.6664  -1.7716 H              1 S1                 0.0000
     22 ****        -3.5036   1.7966  -0.5611 H              1 S1                 0.0000
     23 ****        -4.5489   0.9053   0.5494 H              1 S1                 0.0000
     24 ****        -1.7538   1.4873   0.8295 H              1 S1                 0.0000
     25 ****         3.9001  -1.1712   0.8092 H              1 S1                 0.0000
     26 ****         5.8859  -0.4164  -0.4475 H              1 S1                 0.0000
     27 ****         5.6704   1.3313  -2.2045 H              1 S1                 0.0000
     28 ****         3.4449   2.3263  -2.6988 H              1 S1                 0.0000
     29 ****         1.4452   1.5861  -1.4544 H              1 S1                 0.0000
     30 ****        -3.7528  -1.7145   0.9662 H              1 S1                 0.0000
     31 ****        -2.2955  -2.1898   0.1043 H              1 S1                 0.0000
     32 ****        -2.9261   1.3881   1.9889 H              1 S1                 0.0000
     33 ****        -4.7435  -0.1768  -2.0132 LP             1 S1                 0.0000
     34 ****        -5.1897  -1.0060  -0.6791 LP             1 S1                 0.0000
     35 ****        -0.2224  -2.0573   2.6637 LP             1 S1                 0.0000
     36 ****        -0.2182   0.8789  -0.3078 LP             1 S1                 0.0000
@<TRIPOS>BOND
    1    1    2 1     
    2    1   21 1     
    3    2   18 1     
    4    2   17 1     
    5    2    3 1     
    6    3    4 1     
    7    3   22 1     
    8    3   23 1     
    9    4    5 1     
   10    4   24 1     
   11    4   32 1     
   12    5   19 1     
   13    5    6 1     
   14    5   17 1     
   15    6   16 1     
   16    6    7 2     
   17    7    8 1     
   18    8   20 1     
   19    8    9 1     
   20    9   10 1     
   21    9   16 2     
   22   10   15 ar    
   23   10   11 ar    
   24   11   12 ar    
   25   11   25 1     
   26   12   13 ar    
   27   12   26 1     
   28   13   14 ar    
   29   13   27 1     
   30   14   15 ar    
   31   14   28 1     
   32   15   29 1     
   33   17   30 1     
   34   17   31 1     
   35    1   33 1     
   36    1   34 1     
   37    7   35 1     
   38   16   36 1     
@<TRIPOS>SUBSTRUCTURE
      1 S1             1
@<TRIPOS>SET
LONE_PAIRS      STATIC     ATOMS    <user>   **** ""
4 33 34 35 36
DONOR_HYDROGENS      STATIC     ATOMS    <user>   **** ""
4 21 24 32 20
ATOM$BLUE        STATIC     ATOMS    COLORGROUP SYSTEM
4 33 34 35 36
ATOM$RED        STATIC     ATOMS    COLORGROUP SYSTEM
4 21 24 32 20
