AV-unprocessed.smi:2243|AV-procd|sdf|9065|dock9
  -GOLD-   2272012273D 1   1.00000     0.00000
 Structure written by MMmdl.
 35 36  0  0  0  0  0  0  0  0  2 V2000
  147.1096  140.2576  153.2024 C   0  0  0  0  0  0  0  0  0  0  0  0
  147.4112  139.0874  154.1546 C   0  0  1  0  0  0  0  0  0  0  0  0
  147.3282  137.8456  153.3841 N   0  0  0  0  0  0  0  0  0  0  0  0
  146.1997  137.2567  152.9581 C   0  0  0  0  0  0  0  0  0  0  0  0
  145.0701  137.6954  153.1765 O   0  0  0  0  0  0  0  0  0  0  0  0
  146.4592  136.1340  152.2706 N   0  0  0  0  0  0  0  0  0  0  0  0
  145.4926  135.2807  151.6901 C   0  0  0  0  0  0  0  0  0  0  0  0
  145.4800  134.9350  150.4036 N   0  3  0  0  0  0  0  0  0  0  0  0
  144.4117  134.1016  150.1816 C   0  0  0  0  0  0  0  0  0  0  0  0
  143.7853  133.9653  151.3973 C   0  0  0  0  0  0  0  0  0  0  0  0
  144.4533  134.7009  152.3557 O   0  0  0  0  0  0  0  0  0  0  0  0
  148.7919  139.2047  154.8543 C   0  0  0  0  0  0  0  0  0  0  0  0
  149.1499  140.6610  155.2217 C   0  0  0  0  0  0  0  0  0  0  0  0
  150.5547  140.7552  155.8388 C   0  0  0  0  0  0  0  0  0  0  0  0
  151.5170  140.2152  154.9423 O   0  0  0  0  0  0  0  0  0  0  0  0
  151.3036  138.8347  154.6771 C   0  0  0  0  0  0  0  0  0  0  0  0
  149.9397  138.6328  153.9969 C   0  0  0  0  0  0  0  0  0  0  0  0
  147.0234  141.2028  153.7376 H   0  0  0  0  0  0  0  0  0  0  0  0
  146.1634  140.1042  152.6818 H   0  0  0  0  0  0  0  0  0  0  0  0
  147.8888  140.3688  152.4478 H   0  0  0  0  0  0  0  0  0  0  0  0
  146.6420  139.0933  154.9290 H   0  0  0  0  0  0  0  0  0  0  0  0
  148.2076  137.4059  153.1542 H   0  0  0  0  0  0  0  0  0  0  0  0
  146.1288  135.2163  149.6790 H   0  0  0  0  0  0  0  0  0  0  0  0
  144.2074  133.6968  149.2008 H   0  0  0  0  0  0  0  0  0  0  0  0
  142.9142  133.4206  151.7314 H   0  0  0  0  0  0  0  0  0  0  0  0
  148.7507  138.6308  155.7815 H   0  0  0  0  0  0  0  0  0  0  0  0
  149.1044  141.2871  154.3296 H   0  0  0  0  0  0  0  0  0  0  0  0
  148.4284  141.0726  155.9273 H   0  0  0  0  0  0  0  0  0  0  0  0
  150.8066  141.7970  156.0376 H   0  0  0  0  0  0  0  0  0  0  0  0
  150.5960  140.2303  156.7946 H   0  0  0  0  0  0  0  0  0  0  0  0
  152.1014  138.4758  154.0266 H   0  0  0  0  0  0  0  0  0  0  0  0
  151.3660  138.2604  155.6028 H   0  0  0  0  0  0  0  0  0  0  0  0
  149.7954  137.5682  153.8157 H   0  0  0  0  0  0  0  0  0  0  0  0
  149.9492  139.1185  153.0202 H   0  0  0  0  0  0  0  0  0  0  0  0
  147.4257  135.8685  152.1525 H   0  0  0  0  0  0  0  0  0  0  0  0
  1  2  1  0  0  0  0
  1 18  1  0  0  0  0
  1 19  1  0  0  0  0
  1 20  1  0  0  0  0
  2  3  1  0  0  0  0
  2 12  1  0  0  0  0
  2 21  1  0  0  0  0
  3 22  1  0  0  0  0
  3  4  1  0  0  0  0
  4  6  1  0  0  0  0
  4  5  2  0  0  0  0
  6  7  1  0  0  0  0
  6 35  1  0  0  0  0
  7 11  1  0  0  0  0
  7  8  2  0  0  0  0
  8 23  1  0  0  0  0
  8  9  1  0  0  0  0
  9 24  1  0  0  0  0
  9 10  2  0  0  0  0
 10 25  1  0  0  0  0
 10 11  1  0  0  0  0
 12 17  1  0  0  0  0
 12 13  1  0  0  0  0
 12 26  1  0  0  0  0
 13 14  1  0  0  0  0
 13 27  1  0  0  0  0
 13 28  1  0  0  0  0
 14 15  1  0  0  0  0
 14 29  1  0  0  0  0
 14 30  1  0  0  0  0
 15 16  1  0  0  0  0
 16 17  1  0  0  0  0
 16 31  1  0  0  0  0
 16 32  1  0  0  0  0
 17 33  1  0  0  0  0
 17 34  1  0  0  0  0
M  CHG  1   8   1
M  END
> <s_m_source_file>
AV-unprocessed.smi

> <i_m_source_file_index>
2243

> <i_lp_mmshare_version>
43012

> <i_f3d_flags>
0

> <s_epik_input>
W0NIMl0xW0NIMl1PW0NIMl1bQ0gyXVtDSF0xW0NASF0oW0NIM10pW05IXUMoPU8pW05IXWMybltjSF1bY0hdbzI=

> <s_epik_cmdline>
J2VwaWtfcHl0aG9uJywgJy1waCcsICc3LjAnLCAnLXRuJywgJzgnLCAnLW1hJywgJzIwMCcsICctbWV0YWxfYmluZGluZycsICctaW1hZScsICc8aW5maWxlLm1hZT4nLCAnLW9tYWUnLCAnPG91dGZpbGUubWFlPic=

> <r_epik_Ionization_Penalty>
6.61405

> <r_epik_Ionization_Penalty_Charging>
6.55981

> <r_epik_Ionization_Penalty_Neutral>
0.0542461

> <r_epik_State_Penalty>
1.79186

> <r_epik_Charging_Adjusted_Penalty>
8.35167

> <i_epik_Tot_Q>
1

> <i_epik_Tot_abs_Q>
1

> <r_epik_Metal_State_Penalty>
1.80655

> <b_epik_Metal_Only>
0

> <s_lp_Force_Field>
OPLS_2005

> <r_lp_Energy>
19.6033

> <b_lp_Chiralities_Consistent>
1

> <s_lp_Variant>
AV-unprocessed.smi:2243-4

> <Gold.Version>
5.8.1

> <Gold.Id.Protein>
6NUR|6NUR_protein|mol2

> <Gold.PLP.Fitness>
34.4116

> <Gold.PLP.PLP>
-26.6701

> <Gold.PLP.part.hbond>
-3.8679

> <Gold.PLP.part.metal>
0.0000

> <Gold.PLP.part.buried>
-2.4302

> <Gold.PLP.part.nonpolar>
-20.5184

> <Gold.PLP.part.repulsive>
0.4777

> <Gold.PLP.ligand.clash>
0.0000

> <Gold.PLP.ligand.torsion>
1.2246

> <Gold.PLP.Chemscore.Hbond>
3.3916

> <Gold.PLP.Chemscore.CHOScore>
0.0000

> <Gold.PLP.Chemscore.Metal>
0.0000

> <Gold.Chemscore.Hbonds>
donor molecule, donor type, donor heavy atom, donor atom, acceptor molecule, acceptor atom, score
      L1  H     3    22       P1  7948  0.80
      L1  H     6    35       P1  7948  1.00
      L1  H     8    23       P1  7921  0.57
      P1  H  7989  7998       L1    15  1.00

> <Gold.PLP.Chemscore.Internal.Correction>
0.0158

> <Gold.Rescore>
     Score         DG    S(hbond)    S(metal)    S(lipo)     H(rot)  DE(clash)    DE(int)     intcor
     18.32     -19.65       3.32        0.00      55.41       1.33       0.08       1.24       ----

> <Gold.Chemscore.Fitness>
18.3201

> <Gold.Chemscore.DG>
-19.6492

> <Gold.Chemscore.ZeroCoef>
-5.4800

> <Gold.Chemscore.Hbond>
3.3225

> <Gold.Chemscore.Metal>
0.0000

> <Gold.Chemscore.Lipo>
55.4051

> <Gold.Chemscore.Internal_Hbond>
0.0000

> <Gold.Chemscore.DEClash>
0.0849

> <Gold.Chemscore.DEInternal>
1.2443

> <Gold.Chemscore.Rot>
1.3321

> <Gold.Chemscore.Internal.Correction>
   9.000000E+99

> <Gold.Chemscore.Hbonds>
donor molecule, donor type, donor heavy atom, donor atom, acceptor molecule, acceptor atom, score
      L1  H     3    22       P1  7948  0.79
      L1  H     6    35       P1  7948  0.94
      L1  H     8    23       P1  7921  0.44
      P1  H  7989  7998       L1    15  0.40

> <Gold.Chemscore.Hbond.Weighted>
-11.0971

> <Gold.Chemscore.Metal.Weighted>
-0.0000

> <Gold.Chemscore.Lipo.Weighted>
-6.4824

> <Gold.Chemscore.Internal_Hbond.Weighted>
0.0000

> <Gold.Chemscore.DEClash.Weighted>
0.0849

> <Gold.Chemscore.DEInternal.Weighted>
1.2443

> <Gold.Chemscore.Rot.Weighted>
3.4103

> <Gold.Chemscore.Internal.Correction.Weighted>
   9.000000E+99

> <Gold.Protein.RotatedTorsions>
[ 6907 6896 6895 6894 ] final  -43.13 input  -60.11 | X-H torsion
[ 7974 7965 7964 7962 ] final -159.48 input  175.53 | X-H torsion
[ 8008 7997 7996 7995 ] final -164.75 input   59.86 | X-H torsion
[ 10167 10162 10161 10158 ] final   16.03 input  -65.29 | X-H torsion
[ 10718 10713 10712 10709 ] final -114.86 input   66.30 | X-H torsion
[ 10763 10752 10751 10750 ] final  -11.59 input  -60.55 | X-H torsion
[ 11005 11000 10999 10996 ] final  118.98 input  -57.11 | X-H torsion

> <Gold.Protein.ActiveResidues>
 VAL166  LYS551  ARG553  GLY616  TRP617  ASP618  TYR619  PRO620  LYS621  CYS622 
 ASP623  PHE694  ASN695  SER759  ASP760  ASP761  ALA762  ILE779  LEU786  VAL792 
 PHE793  MET794  SER795  GLU796  ALA797  LYS798  CYS799  TRP800  GLU811  SER814 

> <Gold.Protein.RotatedAtoms>
  150.9474  134.8877  159.7650 H   0  0  0  0  0  0  0  0  0  0  0  0  # atno 6907 bound_to 6896
  152.5105  134.3855  159.9376 H   0  0  0  0  0  0  0  0  0  0  0  0  # atno 6908 bound_to 6896
  151.3873  133.3760  159.2751 H   0  0  0  0  0  0  0  0  0  0  0  0  # atno 6909 bound_to 6896
  144.7464  140.3679  143.6082 H   0  0  0  0  0  0  0  0  0  0  0  0  # atno 7974 bound_to 7965
  155.8401  140.0947  157.1740 H   0  0  0  0  0  0  0  0  0  0  0  0  # atno 8008 bound_to 7997
  154.3981  140.1403  156.3779 H   0  0  0  0  0  0  0  0  0  0  0  0  # atno 8009 bound_to 7997
  155.8074  140.3451  155.5440 H   0  0  0  0  0  0  0  0  0  0  0  0  # atno 8010 bound_to 7997
  140.5826  143.8951  150.6803 H   0  0  0  0  0  0  0  0  0  0  0  0  # atno 10167 bound_to 10162
  156.0857  130.6049  150.8830 H   0  0  0  0  0  0  0  0  0  0  0  0  # atno 10718 bound_to 10713
  153.4861  135.7017  153.5911 H   0  0  0  0  0  0  0  0  0  0  0  0  # atno 10763 bound_to 10752
  153.4103  135.3850  155.2046 H   0  0  0  0  0  0  0  0  0  0  0  0  # atno 10764 bound_to 10752
  154.8719  135.3903  154.4316 H   0  0  0  0  0  0  0  0  0  0  0  0  # atno 10765 bound_to 10752
  139.9129  134.9625  156.7585 H   0  0  0  0  0  0  0  0  0  0  0  0  # atno 11005 bound_to 11000
  145.7109  139.1684  143.2539 LP  0  0  0  0  0  0  0  0  0  0  0  0  # atno 17320 bound_to 7965
  146.1348  140.7138  142.9395 LP  0  0  0  0  0  0  0  0  0  0  0  0  # atno 17321 bound_to 7965
  140.2454  143.3632  152.1451 LP  0  0  0  0  0  0  0  0  0  0  0  0  # atno 17342 bound_to 10162
  139.5178  144.6998  151.5527 LP  0  0  0  0  0  0  0  0  0  0  0  0  # atno 17343 bound_to 10162
  157.5991  131.0942  150.8991 LP  0  0  0  0  0  0  0  0  0  0  0  0  # atno 17370 bound_to 10713
  156.9152  130.5295  149.5280 LP  0  0  0  0  0  0  0  0  0  0  0  0  # atno 17371 bound_to 10713
  140.6716  133.9554  155.7860 LP  0  0  0  0  0  0  0  0  0  0  0  0  # atno 17394 bound_to 11000
  141.0573  134.0397  157.3705 LP  0  0  0  0  0  0  0  0  0  0  0  0  # atno 17395 bound_to 11000

$$$$
