#       Name:                AV-unprocessed.smi:2439
#       Creating user name   scv26
#       Creation time:       Fri Mar 27 13:24:39 2020


#       File generated by GOLD software.
#

@<TRIPOS>MOLECULE
AV-unprocessed.smi:2439
    45    47     1
SMALL
NO_CHARGES


@<TRIPOS>ATOM
      1 ****        -2.0676  -5.3324  -1.0754 N.1            1 S1                 0.0000
      2 ****        -2.6185  -4.3154  -1.1060 C.1            1 S1                 0.0000
      3 ****        -3.3127  -3.0339  -1.1450 C.ar           1 S1                 0.0000
      4 ****        -4.7225  -3.0198  -1.0990 C.ar           1 S1                 0.0000
      5 ****        -5.3981  -1.7864  -1.1376 C.ar           1 S1                 0.0000
      6 ****        -4.6316  -0.6098  -1.2213 C.ar           1 S1                 0.0000
      7 ****        -3.2831  -0.6085  -1.2659 N.ar           1 S1                 0.0000
      8 ****        -2.6248  -1.7932  -1.2270 C.ar           1 S1                 0.0000
      9 ****        -1.2199  -1.7584  -1.2739 N.pl3          1 S1                 0.0000
     10 ****        -0.4952  -0.4978  -1.1954 C.3            1 S1                 0.0000
     11 ****         1.0255  -0.7267  -1.1059 C.3            1 S1                 0.0000
     12 ****         1.8345   0.5827  -1.1760 C.3            1 S1                 0.0000
     13 ****         1.7144   1.3862   0.0350 N.3            1 S1                 0.0000
     14 ****         2.5140   2.6066  -0.0625 C.3            1 S1                 0.0000
     15 ****         2.3815   3.4971   1.1828 C.3            1 S1                 0.0000
     16 ****         2.7678   2.7101   2.4429 C.3            1 S1                 0.0000
     17 ****         1.9654   1.4017   2.5136 C.3            1 S1                 0.0000
     18 ****         2.1027   0.5943   1.2055 C.3            1 S1                 0.0000
     19 ****         1.2817  -0.7077   1.2895 C.3            1 S1                 0.0000
     20 ****         1.3910  -1.4451   0.0742 O.3            1 S1                 0.0000
     21 ****        -5.2846  -3.9406  -1.0351 H              1 S1                 0.0000
     22 ****        -6.4766  -1.7437  -1.1045 H              1 S1                 0.0000
     23 ****        -5.1134   0.3562  -1.2539 H              1 S1                 0.0000
     24 ****        -0.6965  -2.6194  -1.2025 H              1 S1                 0.0000
     25 ****        -0.7209   0.0823  -2.0908 H              1 S1                 0.0000
     26 ****        -0.8527   0.0856  -0.3470 H              1 S1                 0.0000
     27 ****         1.3189  -1.3428  -1.9568 H              1 S1                 0.0000
     28 ****         2.8842   0.3366  -1.3436 H              1 S1                 0.0000
     29 ****         1.5147   1.1644  -2.0416 H              1 S1                 0.0000
     30 ****         3.5639   2.3502  -0.2128 H              1 S1                 0.0000
     31 ****         2.2072   3.1760  -0.9405 H              1 S1                 0.0000
     32 ****         3.0127   4.3804   1.0827 H              1 S1                 0.0000
     33 ****         1.3547   3.8545   1.2702 H              1 S1                 0.0000
     34 ****         3.8346   2.4844   2.4208 H              1 S1                 0.0000
     35 ****         2.5923   3.3118   3.3348 H              1 S1                 0.0000
     36 ****         2.3059   0.8070   3.3618 H              1 S1                 0.0000
     37 ****         0.9145   1.6305   2.6970 H              1 S1                 0.0000
     38 ****         3.1518   0.3128   1.0978 H              1 S1                 0.0000
     39 ****         1.6486  -1.3327   2.1039 H              1 S1                 0.0000
     40 ****         0.2346  -0.4972   1.5090 H              1 S1                 0.0000
     41 ****        -1.5914  -6.2114  -1.0490 LP             1 S1                 0.0000
     42 ****        -2.7774   0.2521  -1.3267 LP             1 S1                 0.0000
     43 ****         0.7586   1.6607   0.1402 LP             1 S1                 0.0000
     44 ****         2.3414  -1.7402  -0.0247 LP             1 S1                 0.0000
     45 ****         0.7984  -2.2475   0.1443 LP             1 S1                 0.0000
@<TRIPOS>BOND
    1    1    2 3     
    2    2    3 1     
    3    3    8 ar    
    4    3    4 ar    
    5    4    5 ar    
    6    4   21 1     
    7    5    6 ar    
    8    5   22 1     
    9    6    7 ar    
   10    6   23 1     
   11    7    8 ar    
   12    8    9 1     
   13    9   10 1     
   14    9   24 1     
   15   10   11 1     
   16   10   25 1     
   17   10   26 1     
   18   11   20 1     
   19   11   12 1     
   20   11   27 1     
   21   12   13 1     
   22   12   28 1     
   23   12   29 1     
   24   13   18 1     
   25   13   14 1     
   26   14   15 1     
   27   14   30 1     
   28   14   31 1     
   29   15   16 1     
   30   15   32 1     
   31   15   33 1     
   32   16   17 1     
   33   16   34 1     
   34   16   35 1     
   35   17   18 1     
   36   17   36 1     
   37   17   37 1     
   38   18   19 1     
   39   18   38 1     
   40   19   20 1     
   41   19   39 1     
   42   19   40 1     
   43    1   41 1     
   44    7   42 1     
   45   13   43 1     
   46   20   44 1     
   47   20   45 1     
@<TRIPOS>SUBSTRUCTURE
      1 S1             1
@<TRIPOS>SET
LONE_PAIRS      STATIC     ATOMS    <user>   **** ""
5 41 42 43 44 45
DONOR_HYDROGENS      STATIC     ATOMS    <user>   **** ""
1 24
ATOM$BLUE        STATIC     ATOMS    COLORGROUP SYSTEM
5 41 42 43 44 45
ATOM$RED        STATIC     ATOMS    COLORGROUP SYSTEM
1 24
