AV-unprocessed.smi:2114|AV-procd|sdf|8618|dock7
  -GOLD-   2272011363D 1   1.00000     0.00000
 Structure written by MMmdl.
 47 48  0  0  0  0  0  0  0  0  1 V2000
  147.7761  136.3045  163.1373 C   0  0  0  0  0  0  0  0  0  0  0  0
  147.8770  136.7832  161.8079 O   0  0  0  0  0  0  0  0  0  0  0  0
  147.0648  136.0524  160.9027 C   0  0  0  0  0  0  0  0  0  0  0  0
  147.5113  134.5825  160.8895 C   0  0  1  0  0  0  0  0  0  0  0  0
  146.7425  133.7510  161.9292 C   0  0  0  0  0  0  0  0  0  0  0  0
  147.3156  134.0282  159.5528 N   0  0  0  0  0  0  0  0  0  0  0  0
  148.0976  134.2672  158.4876 C   0  0  0  0  0  0  0  0  0  0  0  0
  149.1164  134.9574  158.5304 O   0  0  0  0  0  0  0  0  0  0  0  0
  147.6908  133.5741  157.2201 C   0  0  0  0  0  0  0  0  0  0  0  0
  148.5952  133.4525  156.1449 C   0  0  0  0  0  0  0  0  0  0  0  0
  148.1736  132.8144  154.9627 C   0  0  0  0  0  0  0  0  0  0  0  0
  146.8509  132.3191  154.8790 C   0  0  0  0  0  0  0  0  0  0  0  0
  146.4097  131.6733  153.7042 N   0  0  0  0  0  0  0  0  0  0  0  0
  146.8676  130.3075  153.4605 C   0  0  0  0  0  0  0  0  0  0  0  0
  146.0673  129.6690  152.3104 C   0  0  2  0  0  0  0  0  0  0  0  0
  146.5964  128.2786  151.9440 C   0  0  0  0  0  0  0  0  0  0  0  0
  146.1604  130.5021  151.1582 O   0  0  0  0  0  0  0  0  0  0  0  0
  145.6088  131.7976  151.3772 C   0  0  2  0  0  0  0  0  0  0  0  0
  145.6709  132.5747  150.0586 C   0  0  0  0  0  0  0  0  0  0  0  0
  146.3947  132.4997  152.5006 C   0  0  0  0  0  0  0  0  0  0  0  0
  145.9767  132.4545  155.9064 N   0  0  0  0  0  0  0  0  0  0  0  0
  146.3858  133.0652  157.0383 C   0  0  0  0  0  0  0  0  0  0  0  0
  148.4147  136.8995  163.7901 H   0  0  0  0  0  0  0  0  0  0  0  0
  148.0983  135.2648  163.2077 H   0  0  0  0  0  0  0  0  0  0  0  0
  146.7528  136.3802  163.5073 H   0  0  0  0  0  0  0  0  0  0  0  0
  146.0218  136.1208  161.2166 H   0  0  0  0  0  0  0  0  0  0  0  0
  147.1327  136.4807  159.9009 H   0  0  0  0  0  0  0  0  0  0  0  0
  148.5737  134.5502  161.1385 H   0  0  0  0  0  0  0  0  0  0  0  0
  146.8853  134.1516  162.9331 H   0  0  0  0  0  0  0  0  0  0  0  0
  147.0838  132.7155  161.9402 H   0  0  0  0  0  0  0  0  0  0  0  0
  145.6719  133.7468  161.7219 H   0  0  0  0  0  0  0  0  0  0  0  0
  146.5122  133.4299  159.4249 H   0  0  0  0  0  0  0  0  0  0  0  0
  149.6017  133.8384  156.2180 H   0  0  0  0  0  0  0  0  0  0  0  0
  148.8599  132.7272  154.1335 H   0  0  0  0  0  0  0  0  0  0  0  0
  147.9309  130.3233  153.2164 H   0  0  0  0  0  0  0  0  0  0  0  0
  146.7479  129.7058  154.3625 H   0  0  0  0  0  0  0  0  0  0  0  0
  145.0190  129.5755  152.5998 H   0  0  0  0  0  0  0  0  0  0  0  0
  146.5368  127.5995  152.7948 H   0  0  0  0  0  0  0  0  0  0  0  0
  147.6377  128.3245  151.6240 H   0  0  0  0  0  0  0  0  0  0  0  0
  146.0164  127.8430  151.1303 H   0  0  0  0  0  0  0  0  0  0  0  0
  144.5619  131.6962  151.6698 H   0  0  0  0  0  0  0  0  0  0  0  0
  145.2447  133.5720  150.1701 H   0  0  0  0  0  0  0  0  0  0  0  0
  145.1118  132.0596  149.2772 H   0  0  0  0  0  0  0  0  0  0  0  0
  146.6994  132.6860  149.7141 H   0  0  0  0  0  0  0  0  0  0  0  0
  145.9515  133.4764  152.6896 H   0  0  0  0  0  0  0  0  0  0  0  0
  147.4240  132.6749  152.1853 H   0  0  0  0  0  0  0  0  0  0  0  0
  145.6396  133.1493  157.8149 H   0  0  0  0  0  0  0  0  0  0  0  0
  1  2  1  0  0  0  0
  1 23  1  0  0  0  0
  1 24  1  0  0  0  0
  1 25  1  0  0  0  0
  2  3  1  0  0  0  0
  3  4  1  0  0  0  0
  3 26  1  0  0  0  0
  3 27  1  0  0  0  0
  4  5  1  0  0  0  0
  4  6  1  0  0  0  0
  4 28  1  0  0  0  0
  5 29  1  0  0  0  0
  5 30  1  0  0  0  0
  5 31  1  0  0  0  0
  6  7  1  0  0  0  0
  6 32  1  0  0  0  0
  7  8  2  0  0  0  0
  7  9  1  0  0  0  0
  9 22  1  0  0  0  0
  9 10  2  0  0  0  0
 10 11  1  0  0  0  0
 10 33  1  0  0  0  0
 11 12  2  0  0  0  0
 11 34  1  0  0  0  0
 12 13  1  0  0  0  0
 12 21  1  0  0  0  0
 13 20  1  0  0  0  0
 13 14  1  0  0  0  0
 14 15  1  0  0  0  0
 14 35  1  0  0  0  0
 14 36  1  0  0  0  0
 15 16  1  0  0  0  0
 15 17  1  0  0  0  0
 15 37  1  0  0  0  0
 16 38  1  0  0  0  0
 16 39  1  0  0  0  0
 16 40  1  0  0  0  0
 17 18  1  0  0  0  0
 18 19  1  0  0  0  0
 18 20  1  0  0  0  0
 18 41  1  0  0  0  0
 19 42  1  0  0  0  0
 19 43  1  0  0  0  0
 19 44  1  0  0  0  0
 20 45  1  0  0  0  0
 20 46  1  0  0  0  0
 21 22  2  0  0  0  0
 22 47  1  0  0  0  0
M  END
> <s_m_source_file>
AV-unprocessed.smi

> <i_m_source_file_index>
2114

> <i_lp_mmshare_version>
43012

> <i_f3d_flags>
0

> <s_epik_input>
W0NIM11PW0NIMl1bQ0BIXShbQ0gzXSlbTkhdQyg9TyljMVtjSF1bY0hdYyhuW2NIXTEpTjJbQ0gyXVtDQEBIXShbQ0gzXSlPW0NAQEhdKFtDSDNdKVtDSDJdMg==

> <s_epik_cmdline>
J2VwaWtfcHl0aG9uJywgJy1waCcsICc3LjAnLCAnLXRuJywgJzgnLCAnLW1hJywgJzIwMCcsICctbWV0YWxfYmluZGluZycsICctaW1hZScsICc8aW5maWxlLm1hZT4nLCAnLW9tYWUnLCAnPG91dGZpbGUubWFlPic=

> <r_lp_tautomer_probability>
1

> <r_epik_Ionization_Penalty>
1.92915e-05

> <r_epik_Ionization_Penalty_Charging>
0

> <r_epik_Ionization_Penalty_Neutral>
1.92915e-05

> <r_epik_State_Penalty>
-0

> <r_epik_Charging_Adjusted_Penalty>
0

> <i_epik_Tot_Q>
0

> <i_epik_Tot_abs_Q>
0

> <r_epik_Metal_State_Penalty>
-0

> <b_epik_Metal_Only>
0

> <s_lp_Force_Field>
OPLS_2005

> <r_lp_Energy>
18.3403

> <b_lp_Chiralities_Consistent>
1

> <s_lp_Variant>
AV-unprocessed.smi:2114-2

> <Gold.Version>
5.8.1

> <Gold.Id.Protein>
6NUR|6NUR_protein|mol2

> <Gold.PLP.Fitness>
35.9049

> <Gold.PLP.PLP>
-30.4360

> <Gold.PLP.part.hbond>
-3.0000

> <Gold.PLP.part.metal>
0.0000

> <Gold.PLP.part.buried>
-5.0112

> <Gold.PLP.part.nonpolar>
-23.8017

> <Gold.PLP.part.repulsive>
1.5431

> <Gold.PLP.ligand.clash>
0.0000

> <Gold.PLP.ligand.torsion>
0.9741

> <Gold.PLP.Chemscore.Hbond>
2.3578

> <Gold.PLP.Chemscore.CHOScore>
0.0000

> <Gold.PLP.Chemscore.Metal>
0.0000

> <Gold.Chemscore.Hbonds>
donor molecule, donor type, donor heavy atom, donor atom, acceptor molecule, acceptor atom, score
      P1  H  6896  6909       L1     8  1.00
      P1  H  6931  6943       L1     2  1.00

> <Gold.PLP.Chemscore.Internal.Correction>
0.3438

> <Gold.Rescore>
     Score         DG    S(hbond)    S(metal)    S(lipo)     H(rot)  DE(clash)    DE(int)     intcor
     16.24     -18.27       1.96        0.00      86.65       1.52       0.14       1.89       ----

> <Gold.Chemscore.Fitness>
16.2398

> <Gold.Chemscore.DG>
-18.2690

> <Gold.Chemscore.ZeroCoef>
-5.4800

> <Gold.Chemscore.Hbond>
1.9609

> <Gold.Chemscore.Metal>
0.0000

> <Gold.Chemscore.Lipo>
86.6474

> <Gold.Chemscore.Internal_Hbond>
0.0000

> <Gold.Chemscore.DEClash>
0.1388

> <Gold.Chemscore.DEInternal>
1.8904

> <Gold.Chemscore.Rot>
1.5226

> <Gold.Chemscore.Internal.Correction>
   9.000000E+99

> <Gold.Chemscore.Hbonds>
donor molecule, donor type, donor heavy atom, donor atom, acceptor molecule, acceptor atom, score
      P1  H  6896  6909       L1     8  0.97
      P1  H  6931  6943       L1     2  0.50

> <Gold.Chemscore.Hbond.Weighted>
-6.5493

> <Gold.Chemscore.Metal.Weighted>
-0.0000

> <Gold.Chemscore.Lipo.Weighted>
-10.1377

> <Gold.Chemscore.Internal_Hbond.Weighted>
0.0000

> <Gold.Chemscore.DEClash.Weighted>
0.1388

> <Gold.Chemscore.DEInternal.Weighted>
1.8904

> <Gold.Chemscore.Rot.Weighted>
3.8980

> <Gold.Chemscore.Internal.Correction.Weighted>
   9.000000E+99

> <Gold.Protein.RotatedTorsions>
[ 6907 6896 6895 6894 ] final   32.27 input  -60.11 | X-H torsion
[ 7974 7965 7964 7962 ] final   96.81 input  175.53 | X-H torsion
[ 8008 7997 7996 7995 ] final  -92.71 input   59.86 | X-H torsion
[ 10167 10162 10161 10158 ] final  172.54 input  -65.29 | X-H torsion
[ 10718 10713 10712 10709 ] final  -71.59 input   66.30 | X-H torsion
[ 10763 10752 10751 10750 ] final -123.70 input  -60.55 | X-H torsion
[ 11005 11000 10999 10996 ] final -142.33 input  -57.11 | X-H torsion

> <Gold.Protein.ActiveResidues>
 VAL166  LYS551  ARG553  GLY616  TRP617  ASP618  TYR619  PRO620  LYS621  CYS622 
 ASP623  PHE694  ASN695  SER759  ASP760  ASP761  ALA762  ILE779  LEU786  VAL792 
 PHE793  MET794  SER795  GLU796  ALA797  LYS798  CYS799  TRP800  GLU811  SER814 

> <Gold.Protein.RotatedAtoms>
  152.0721  134.9527  160.0574 H   0  0  0  0  0  0  0  0  0  0  0  0  # atno 6907 bound_to 6896
  152.0848  133.4166  159.4526 H   0  0  0  0  0  0  0  0  0  0  0  0  # atno 6908 bound_to 6896
  150.6836  134.2859  159.4690 H   0  0  0  0  0  0  0  0  0  0  0  0  # atno 6909 bound_to 6896
  145.4338  139.2308  143.3129 H   0  0  0  0  0  0  0  0  0  0  0  0  # atno 7974 bound_to 7965
  154.7266  140.0506  157.0688 H   0  0  0  0  0  0  0  0  0  0  0  0  # atno 8008 bound_to 7997
  155.0357  140.3163  155.4723 H   0  0  0  0  0  0  0  0  0  0  0  0  # atno 8009 bound_to 7997
  156.2830  140.2142  156.5480 H   0  0  0  0  0  0  0  0  0  0  0  0  # atno 8010 bound_to 7997
  139.5079  144.3363  152.0062 H   0  0  0  0  0  0  0  0  0  0  0  0  # atno 10167 bound_to 10162
  156.0356  130.4354  150.2466 H   0  0  0  0  0  0  0  0  0  0  0  0  # atno 10718 bound_to 10713
  154.8712  135.4089  154.2986 H   0  0  0  0  0  0  0  0  0  0  0  0  # atno 10763 bound_to 10752
  153.3850  135.7013  153.6543 H   0  0  0  0  0  0  0  0  0  0  0  0  # atno 10764 bound_to 10752
  153.5349  135.3660  155.2664 H   0  0  0  0  0  0  0  0  0  0  0  0  # atno 10765 bound_to 10752
  140.8236  134.2601  157.4889 H   0  0  0  0  0  0  0  0  0  0  0  0  # atno 11005 bound_to 11000
  146.2593  140.5078  142.8860 LP  0  0  0  0  0  0  0  0  0  0  0  0  # atno 17320 bound_to 7965
  144.8165  140.6477  143.6381 LP  0  0  0  0  0  0  0  0  0  0  0  0  # atno 17321 bound_to 7965
  140.2801  144.3869  150.6122 LP  0  0  0  0  0  0  0  0  0  0  0  0  # atno 17342 bound_to 10162
  140.6024  143.2167  151.7046 LP  0  0  0  0  0  0  0  0  0  0  0  0  # atno 17343 bound_to 10162
  157.0566  131.0078  151.3236 LP  0  0  0  0  0  0  0  0  0  0  0  0  # atno 17370 bound_to 10713
  157.5101  130.7933  149.7696 LP  0  0  0  0  0  0  0  0  0  0  0  0  # atno 17371 bound_to 10713
  139.8707  134.9548  156.4188 LP  0  0  0  0  0  0  0  0  0  0  0  0  # atno 17394 bound_to 11000
  140.9073  133.7737  155.9750 LP  0  0  0  0  0  0  0  0  0  0  0  0  # atno 17395 bound_to 11000

$$$$
