AV-unprocessed.smi:2456|AV-procd|sdf|9700|dock4
  -GOLD-   2272013343D 1   1.00000     0.00000
 Structure written by MMmdl.
 34 35  0  0  0  0  0  0  0  0  1 V2000
  150.7740  137.1543  155.1865 C   0  0  0  0  0  0  0  0  0  0  0  0
  150.8726  138.0695  156.4188 C   0  0  2  0  0  0  0  0  0  0  0  0
  149.6899  137.8342  157.2472 N   0  0  0  0  0  0  0  0  0  0  0  0
  149.6848  137.1738  158.4151 C   0  0  0  0  0  0  0  0  0  0  0  0
  150.6918  136.6675  158.9115 O   0  0  0  0  0  0  0  0  0  0  0  0
  148.4537  137.1478  158.9547 N   0  0  0  0  0  0  0  0  0  0  0  0
  148.0436  136.5533  160.1766 C   0  0  0  0  0  0  0  0  0  0  0  0
  147.7284  137.2390  161.2818 N   0  0  0  0  0  0  0  0  0  0  0  0
  147.3589  136.3971  162.3338 C   0  0  0  0  0  0  0  0  0  0  0  0
  147.4008  135.0636  162.0103 C   0  0  0  0  0  0  0  0  0  0  0  0
  147.9062  134.8110  160.3609 S   0  0  0  0  0  0  0  0  0  0  0  0
  150.9098  139.5335  155.9259 C   0  0  0  0  0  0  0  0  0  0  0  0
  150.8198  139.7639  154.7180 O   0  0  0  0  0  0  0  0  0  0  0  0
  151.0578  140.5267  156.8290 N   0  0  0  0  0  0  0  0  0  0  0  0
  151.1977  140.2891  158.2648 C   0  0  0  0  0  0  0  0  0  0  0  0
  151.5883  141.6357  158.8738 C   0  0  0  0  0  0  0  0  0  0  0  0
  151.0279  142.6597  157.8975 C   0  0  0  0  0  0  0  0  0  0  0  0
  151.1022  141.9602  156.5403 C   0  0  0  0  0  0  0  0  0  0  0  0
  151.6397  137.2716  154.5336 H   0  0  0  0  0  0  0  0  0  0  0  0
  149.8814  137.3635  154.5948 H   0  0  0  0  0  0  0  0  0  0  0  0
  150.7331  136.1059  155.4832 H   0  0  0  0  0  0  0  0  0  0  0  0
  151.7608  137.8128  156.9969 H   0  0  0  0  0  0  0  0  0  0  0  0
  148.8198  138.2239  156.9158 H   0  0  0  0  0  0  0  0  0  0  0  0
  147.7248  137.6112  158.4323 H   0  0  0  0  0  0  0  0  0  0  0  0
  147.0801  136.8329  163.2817 H   0  0  0  0  0  0  0  0  0  0  0  0
  147.1649  134.2183  162.6395 H   0  0  0  0  0  0  0  0  0  0  0  0
  150.2398  139.9517  158.6635 H   0  0  0  0  0  0  0  0  0  0  0  0
  151.9444  139.5242  158.4838 H   0  0  0  0  0  0  0  0  0  0  0  0
  151.2111  141.7669  159.8883 H   0  0  0  0  0  0  0  0  0  0  0  0
  152.6752  141.7212  158.9070 H   0  0  0  0  0  0  0  0  0  0  0  0
  149.9859  142.8668  158.1452 H   0  0  0  0  0  0  0  0  0  0  0  0
  151.5707  143.6051  157.9171 H   0  0  0  0  0  0  0  0  0  0  0  0
  152.0453  142.1941  156.0444 H   0  0  0  0  0  0  0  0  0  0  0  0
  150.2851  142.2797  155.8924 H   0  0  0  0  0  0  0  0  0  0  0  0
  1  2  1  0  0  0  0
  1 19  1  0  0  0  0
  1 20  1  0  0  0  0
  1 21  1  0  0  0  0
  2  3  1  0  0  0  0
  2 12  1  0  0  0  0
  2 22  1  0  0  0  0
  3  4  1  0  0  0  0
  3 23  1  0  0  0  0
  4  5  2  0  0  0  0
  4  6  1  0  0  0  0
  6  7  1  0  0  0  0
  6 24  1  0  0  0  0
  7 11  1  0  0  0  0
  7  8  2  0  0  0  0
  8  9  1  0  0  0  0
  9 10  2  0  0  0  0
  9 25  1  0  0  0  0
 10 11  1  0  0  0  0
 10 26  1  0  0  0  0
 12 13  2  0  0  0  0
 12 14  1  0  0  0  0
 14 18  1  0  0  0  0
 14 15  1  0  0  0  0
 15 16  1  0  0  0  0
 15 27  1  0  0  0  0
 15 28  1  0  0  0  0
 16 17  1  0  0  0  0
 16 29  1  0  0  0  0
 16 30  1  0  0  0  0
 17 18  1  0  0  0  0
 17 31  1  0  0  0  0
 17 32  1  0  0  0  0
 18 33  1  0  0  0  0
 18 34  1  0  0  0  0
M  END
> <s_m_source_file>
AV-unprocessed.smi

> <i_m_source_file_index>
2456

> <i_lp_mmshare_version>
43012

> <i_f3d_flags>
0

> <s_epik_input>
W0NIMl0xW0NIMl1bQ0gyXVtDSDJdTjFDKD1PKVtDQEhdKFtDSDNdKVtOSF1DKD1PKVtOSF1jMm5bY0hdW2NIXXMy

> <s_epik_cmdline>
J2VwaWtfcHl0aG9uJywgJy1waCcsICc3LjAnLCAnLXRuJywgJzgnLCAnLW1hJywgJzIwMCcsICctbWV0YWxfYmluZGluZycsICctaW1hZScsICc8aW5maWxlLm1hZT4nLCAnLW9tYWUnLCAnPG91dGZpbGUubWFlPic=

> <r_lp_tautomer_probability>
1

> <r_epik_Ionization_Penalty>
0.000150201

> <r_epik_Ionization_Penalty_Charging>
0

> <r_epik_Ionization_Penalty_Neutral>
0.000150201

> <r_epik_State_Penalty>
-0

> <r_epik_Charging_Adjusted_Penalty>
0

> <i_epik_Tot_Q>
0

> <i_epik_Tot_abs_Q>
0

> <r_epik_Metal_State_Penalty>
0.0705602

> <b_epik_Metal_Only>
0

> <s_lp_Force_Field>
OPLS_2005

> <r_lp_Energy>
26.5881

> <b_lp_Chiralities_Consistent>
1

> <s_lp_Variant>
AV-unprocessed.smi:2456-1

> <Gold.Version>
5.8.1

> <Gold.Id.Protein>
6NUR|6NUR_protein|mol2

> <Gold.PLP.Fitness>
41.5642

> <Gold.PLP.PLP>
-31.8978

> <Gold.PLP.part.hbond>
-4.0000

> <Gold.PLP.part.metal>
0.0000

> <Gold.PLP.part.buried>
-5.4355

> <Gold.PLP.part.nonpolar>
-22.7719

> <Gold.PLP.part.repulsive>
0.2426

> <Gold.PLP.ligand.clash>
0.0000

> <Gold.PLP.ligand.torsion>
0.8844

> <Gold.PLP.Chemscore.Hbond>
3.8080

> <Gold.PLP.Chemscore.CHOScore>
0.0000

> <Gold.PLP.Chemscore.Metal>
0.0000

> <Gold.Chemscore.Hbonds>
donor molecule, donor type, donor heavy atom, donor atom, acceptor molecule, acceptor atom, score
      P1  H  6896  6907       L1     5  1.00
      P1  H  6931  6943       L1     8  0.94
      P1  H  6934  6947       L1     8  0.80
      P1  H  7989  7998       L1    13  1.00

> <Gold.PLP.Chemscore.Internal.Correction>
0.0112

> <Gold.Rescore>
     Score         DG    S(hbond)    S(metal)    S(lipo)     H(rot)  DE(clash)    DE(int)     intcor
     19.14     -20.09       3.20        0.00      62.94       1.34       0.02       0.93       ----

> <Gold.Chemscore.Fitness>
19.1367

> <Gold.Chemscore.DG>
-20.0876

> <Gold.Chemscore.ZeroCoef>
-5.4800

> <Gold.Chemscore.Hbond>
3.1996

> <Gold.Chemscore.Metal>
0.0000

> <Gold.Chemscore.Lipo>
62.9383

> <Gold.Chemscore.Internal_Hbond>
0.0000

> <Gold.Chemscore.DEClash>
0.0243

> <Gold.Chemscore.DEInternal>
0.9266

> <Gold.Chemscore.Rot>
1.3448

> <Gold.Chemscore.Internal.Correction>
   9.000000E+99

> <Gold.Chemscore.Hbonds>
donor molecule, donor type, donor heavy atom, donor atom, acceptor molecule, acceptor atom, score
      P1  H  6896  6907       L1     5  0.95
      P1  H  6931  6943       L1     8  0.46
      P1  H  6934  6947       L1     8  0.70
      P1  H  7989  7998       L1    13  1.00

> <Gold.Chemscore.Hbond.Weighted>
-10.6866

> <Gold.Chemscore.Metal.Weighted>
-0.0000

> <Gold.Chemscore.Lipo.Weighted>
-7.3638

> <Gold.Chemscore.Internal_Hbond.Weighted>
0.0000

> <Gold.Chemscore.DEClash.Weighted>
0.0243

> <Gold.Chemscore.DEInternal.Weighted>
0.9266

> <Gold.Chemscore.Rot.Weighted>
3.4427

> <Gold.Chemscore.Internal.Correction.Weighted>
   9.000000E+99

> <Gold.Protein.RotatedTorsions>
[ 6907 6896 6895 6894 ] final  -41.13 input  -60.11 | X-H torsion
[ 7974 7965 7964 7962 ] final  -85.42 input  175.53 | X-H torsion
[ 8008 7997 7996 7995 ] final  -44.47 input   59.86 | X-H torsion
[ 10167 10162 10161 10158 ] final  140.90 input  -65.29 | X-H torsion
[ 10718 10713 10712 10709 ] final -124.45 input   66.30 | X-H torsion
[ 10763 10752 10751 10750 ] final  109.84 input  -60.55 | X-H torsion
[ 11005 11000 10999 10996 ] final  101.13 input  -57.11 | X-H torsion

> <Gold.Protein.ActiveResidues>
 VAL166  LYS551  ARG553  GLY616  TRP617  ASP618  TYR619  PRO620  LYS621  CYS622 
 ASP623  PHE694  ASN695  SER759  ASP760  ASP761  ALA762  ILE779  LEU786  VAL792 
 PHE793  MET794  SER795  GLU796  ALA797  LYS798  CYS799  TRP800  GLU811  SER814 

> <Gold.Protein.RotatedAtoms>
  150.9704  134.9077  159.7783 H   0  0  0  0  0  0  0  0  0  0  0  0  # atno 6907 bound_to 6896
  152.5188  134.3549  159.9274 H   0  0  0  0  0  0  0  0  0  0  0  0  # atno 6908 bound_to 6896
  151.3558  133.3867  159.2719 H   0  0  0  0  0  0  0  0  0  0  0  0  # atno 6909 bound_to 6896
  145.4935  140.9551  143.1799 H   0  0  0  0  0  0  0  0  0  0  0  0  # atno 7974 bound_to 7965
  154.3997  140.1421  156.3688 H   0  0  0  0  0  0  0  0  0  0  0  0  # atno 8008 bound_to 7997
  155.8112  140.3472  155.5438 H   0  0  0  0  0  0  0  0  0  0  0  0  # atno 8009 bound_to 7997
  155.8385  140.0923  157.1740 H   0  0  0  0  0  0  0  0  0  0  0  0  # atno 8010 bound_to 7997
  139.5035  144.6205  151.6062 H   0  0  0  0  0  0  0  0  0  0  0  0  # atno 10167 bound_to 10162
  156.1589  130.6588  151.0021 H   0  0  0  0  0  0  0  0  0  0  0  0  # atno 10718 bound_to 10713
  153.4404  135.3767  155.2224 H   0  0  0  0  0  0  0  0  0  0  0  0  # atno 10763 bound_to 10752
  154.8753  135.3861  154.4160 H   0  0  0  0  0  0  0  0  0  0  0  0  # atno 10764 bound_to 10752
  153.4704  135.7087  153.6060 H   0  0  0  0  0  0  0  0  0  0  0  0  # atno 10765 bound_to 10752
  139.8772  134.9170  156.4861 H   0  0  0  0  0  0  0  0  0  0  0  0  # atno 11005 bound_to 11000
  144.7820  139.6505  143.7150 LP  0  0  0  0  0  0  0  0  0  0  0  0  # atno 17320 bound_to 7965
  146.2270  139.5741  142.9581 LP  0  0  0  0  0  0  0  0  0  0  0  0  # atno 17321 bound_to 7965
  140.5906  143.9787  150.6322 LP  0  0  0  0  0  0  0  0  0  0  0  0  # atno 17342 bound_to 10162
  140.2966  143.3288  152.1012 LP  0  0  0  0  0  0  0  0  0  0  0  0  # atno 17343 bound_to 10162
  157.6717  131.0860  150.7596 LP  0  0  0  0  0  0  0  0  0  0  0  0  # atno 17370 bound_to 10713
  156.7659  130.4813  149.5427 LP  0  0  0  0  0  0  0  0  0  0  0  0  # atno 17371 bound_to 10713
  140.8692  133.8001  155.9347 LP  0  0  0  0  0  0  0  0  0  0  0  0  # atno 17394 bound_to 11000
  140.8970  134.2425  157.5063 LP  0  0  0  0  0  0  0  0  0  0  0  0  # atno 17395 bound_to 11000

$$$$
