AV-unprocessed.smi:2889|AV-procd|sdf|11114|dock7
  -GOLD-   2272015583D 1   1.00000     0.00000
 Structure written by MMmdl.
 35 36  0  0  0  0  0  0  0  0  2 V2000
  150.9686  143.3459  157.2170 C   0  0  0  0  0  0  0  0  0  0  0  0
  151.6641  141.6958  157.5144 S   0  0  0  0  0  0  0  0  0  0  0  0
  151.1680  140.8052  155.9998 C   0  0  2  0  0  0  0  0  0  0  0  0
  149.6215  140.6795  155.9227 C   0  0  0  0  0  0  0  0  0  0  0  0
  149.1396  140.0018  154.6229 C   0  0  0  0  0  0  0  0  0  0  0  0
  149.8453  138.6414  154.4511 C   0  0  0  0  0  0  0  0  0  0  0  0
  151.3901  138.7543  154.5313 C   0  0  0  0  0  0  0  0  0  0  0  0
  151.9083  139.4453  155.8193 C   0  0  2  0  0  0  0  0  0  0  0  0
  151.6907  138.5786  156.9714 N   0  5  0  0  0  0  0  0  0  0  0  0
  152.9370  138.1684  157.9230 S   0  0  0  0  0  0  0  0  0  0  0  0
  153.3760  136.7771  157.7226 O   0  0  0  0  0  0  0  0  0  0  0  0
  153.9826  139.2043  157.9410 O   0  0  0  0  0  0  0  0  0  0  0  0
  152.1347  138.2345  159.5853 C   0  0  0  0  0  0  0  0  0  0  0  0
  153.1327  137.9323  160.6694 C   0  0  0  0  0  0  0  0  0  0  0  0
  153.4726  138.7223  161.8027 C   0  0  0  0  0  0  0  0  0  0  0  0
  154.4211  137.9757  162.4395 C   0  0  0  0  0  0  0  0  0  0  0  0
  154.6439  136.8175  161.7692 O   0  0  0  0  0  0  0  0  0  0  0  0
  153.8126  136.7959  160.6437 N   0  0  0  0  0  0  0  0  0  0  0  0
  151.1488  143.9864  158.0800 H   0  0  0  0  0  0  0  0  0  0  0  0
  149.8929  143.2831  157.0534 H   0  0  0  0  0  0  0  0  0  0  0  0
  151.4289  143.8115  156.3458 H   0  0  0  0  0  0  0  0  0  0  0  0
  151.4627  141.4473  155.1689 H   0  0  0  0  0  0  0  0  0  0  0  0
  149.2419  140.1246  156.7831 H   0  0  0  0  0  0  0  0  0  0  0  0
  149.1738  141.6713  155.9913 H   0  0  0  0  0  0  0  0  0  0  0  0
  148.0575  139.8697  154.6412 H   0  0  0  0  0  0  0  0  0  0  0  0
  149.3648  140.6426  153.7697 H   0  0  0  0  0  0  0  0  0  0  0  0
  149.4797  137.9444  155.2081 H   0  0  0  0  0  0  0  0  0  0  0  0
  149.5641  138.2074  153.4913 H   0  0  0  0  0  0  0  0  0  0  0  0
  151.8374  137.7656  154.4236 H   0  0  0  0  0  0  0  0  0  0  0  0
  151.7364  139.3270  153.6702 H   0  0  0  0  0  0  0  0  0  0  0  0
  152.9700  139.6569  155.6867 H   0  0  0  0  0  0  0  0  0  0  0  0
  151.7333  139.2386  159.7161 H   0  0  0  0  0  0  0  0  0  0  0  0
  151.2925  137.5422  159.5959 H   0  0  0  0  0  0  0  0  0  0  0  0
  153.0872  139.6878  162.0942 H   0  0  0  0  0  0  0  0  0  0  0  0
  155.0018  138.1238  163.3377 H   0  0  0  0  0  0  0  0  0  0  0  0
  1  2  1  0  0  0  0
  1 19  1  0  0  0  0
  1 20  1  0  0  0  0
  1 21  1  0  0  0  0
  2  3  1  0  0  0  0
  3  8  1  0  0  0  0
  3  4  1  0  0  0  0
  3 22  1  0  0  0  0
  4  5  1  0  0  0  0
  4 23  1  0  0  0  0
  4 24  1  0  0  0  0
  5  6  1  0  0  0  0
  5 25  1  0  0  0  0
  5 26  1  0  0  0  0
  6  7  1  0  0  0  0
  6 27  1  0  0  0  0
  6 28  1  0  0  0  0
  7  8  1  0  0  0  0
  7 29  1  0  0  0  0
  7 30  1  0  0  0  0
  8  9  1  0  0  0  0
  8 31  1  0  0  0  0
  9 10  1  0  0  0  0
 10 11  2  0  0  0  0
 10 12  2  0  0  0  0
 10 13  1  0  0  0  0
 13 14  1  0  0  0  0
 13 32  1  0  0  0  0
 13 33  1  0  0  0  0
 14 18  2  0  0  0  0
 14 15  1  0  0  0  0
 15 16  2  0  0  0  0
 15 34  1  0  0  0  0
 16 17  1  0  0  0  0
 16 35  1  0  0  0  0
 17 18  1  0  0  0  0
M  CHG  1   9  -1
M  END
> <s_m_source_file>
AV-unprocessed.smi

> <i_m_source_file_index>
2889

> <i_lp_mmshare_version>
43012

> <i_f3d_flags>
0

> <s_epik_input>
W0NIM11TW0NAQEhdMVtDSDJdW0NIMl1bQ0gyXVtDSDJdW0NASF0xW05IXVMoPU8pKD1PKVtDSDJdYzJbY0hdW2NIXW9uMg==

> <s_epik_cmdline>
J2VwaWtfcHl0aG9uJywgJy1waCcsICc3LjAnLCAnLXRuJywgJzgnLCAnLW1hJywgJzIwMCcsICctbWV0YWxfYmluZGluZycsICctaW1hZScsICc8aW5maWxlLm1hZT4nLCAnLW9tYWUnLCAnPG91dGZpbGUubWFlPic=

> <r_lp_tautomer_probability>
1

> <r_epik_Ionization_Penalty>
4.65467

> <r_epik_Ionization_Penalty_Charging>
4.65467

> <r_epik_Ionization_Penalty_Neutral>
2.71476e-10

> <r_epik_State_Penalty>
4.65444

> <r_epik_Charging_Adjusted_Penalty>
9.30911

> <i_epik_Tot_Q>
-1

> <i_epik_Tot_abs_Q>
1

> <r_epik_Metal_State_Penalty>
0.901484

> <b_epik_Metal_Only>
1

> <s_lp_Force_Field>
OPLS_2005

> <r_lp_Energy>
12.0464

> <b_lp_Chiralities_Consistent>
1

> <s_lp_Variant>
AV-unprocessed.smi:2889-7

> <Gold.Version>
5.8.1

> <Gold.Id.Protein>
6NUR|6NUR_protein|mol2

> <Gold.PLP.Fitness>
38.6401

> <Gold.PLP.PLP>
-30.0210

> <Gold.PLP.part.hbond>
-2.7337

> <Gold.PLP.part.metal>
0.0000

> <Gold.PLP.part.buried>
-3.7350

> <Gold.PLP.part.nonpolar>
-22.3877

> <Gold.PLP.part.repulsive>
0.0000

> <Gold.PLP.ligand.clash>
0.0000

> <Gold.PLP.ligand.torsion>
0.6844

> <Gold.PLP.Chemscore.Hbond>
2.9760

> <Gold.PLP.Chemscore.CHOScore>
0.0000

> <Gold.PLP.Chemscore.Metal>
0.0000

> <Gold.Chemscore.Hbonds>
donor molecule, donor type, donor heavy atom, donor atom, acceptor molecule, acceptor atom, score
      P1  H  7997  8009       L1    12  0.57

> <Gold.PLP.Chemscore.Internal.Correction>
1.0600

> <Gold.Rescore>
     Score         DG    S(hbond)    S(metal)    S(lipo)     H(rot)  DE(clash)    DE(int)     intcor
     18.50     -19.72       2.55        0.00      82.32       1.53       0.28       0.93       ----

> <Gold.Chemscore.Fitness>
18.5037

> <Gold.Chemscore.DG>
-19.7158

> <Gold.Chemscore.ZeroCoef>
-5.4800

> <Gold.Chemscore.Hbond>
2.5525

> <Gold.Chemscore.Metal>
0.0000

> <Gold.Chemscore.Lipo>
82.3164

> <Gold.Chemscore.Internal_Hbond>
0.0000

> <Gold.Chemscore.DEClash>
0.2846

> <Gold.Chemscore.DEInternal>
0.9275

> <Gold.Chemscore.Rot>
1.5314

> <Gold.Chemscore.Internal.Correction>
   9.000000E+99

> <Gold.Chemscore.Hbonds>
donor molecule, donor type, donor heavy atom, donor atom, acceptor molecule, acceptor atom, score
      P1  H  7997  8009       L1    12  0.56

> <Gold.Chemscore.Hbond.Weighted>
-8.5252

> <Gold.Chemscore.Metal.Weighted>
-0.0000

> <Gold.Chemscore.Lipo.Weighted>
-9.6310

> <Gold.Chemscore.Internal_Hbond.Weighted>
0.0000

> <Gold.Chemscore.DEClash.Weighted>
0.2846

> <Gold.Chemscore.DEInternal.Weighted>
0.9275

> <Gold.Chemscore.Rot.Weighted>
3.9205

> <Gold.Chemscore.Internal.Correction.Weighted>
   9.000000E+99

> <Gold.Protein.RotatedTorsions>
[ 6907 6896 6895 6894 ] final  -66.34 input  -60.11 | X-H torsion
[ 7974 7965 7964 7962 ] final   -3.34 input  175.53 | X-H torsion
[ 8008 7997 7996 7995 ] final  149.24 input   59.86 | X-H torsion
[ 10167 10162 10161 10158 ] final  152.05 input  -65.29 | X-H torsion
[ 10718 10713 10712 10709 ] final  147.87 input   66.30 | X-H torsion
[ 10763 10752 10751 10750 ] final    6.15 input  -60.55 | X-H torsion
[ 11005 11000 10999 10996 ] final -122.95 input  -57.11 | X-H torsion

> <Gold.Protein.ActiveResidues>
 VAL166  LYS551  ARG553  GLY616  TRP617  ASP618  TYR619  PRO620  LYS621  CYS622 
 ASP623  PHE694  ASN695  SER759  ASP760  ASP761  ALA762  ILE779  LEU786  VAL792 
 PHE793  MET794  SER795  GLU796  ALA797  LYS798  CYS799  TRP800  GLU811  SER814 

> <Gold.Protein.RotatedAtoms>
  150.7471  134.6034  159.6048 H   0  0  0  0  0  0  0  0  0  0  0  0  # atno 6907 bound_to 6896
  152.3389  134.7158  160.0278 H   0  0  0  0  0  0  0  0  0  0  0  0  # atno 6908 bound_to 6896
  151.7617  133.3298  159.3456 H   0  0  0  0  0  0  0  0  0  0  0  0  # atno 6909 bound_to 6896
  146.2391  140.1707  142.8332 H   0  0  0  0  0  0  0  0  0  0  0  0  # atno 7974 bound_to 7965
  156.2762  140.2107  156.5827 H   0  0  0  0  0  0  0  0  0  0  0  0  # atno 8008 bound_to 7997
  154.7046  140.0518  157.0514 H   0  0  0  0  0  0  0  0  0  0  0  0  # atno 8009 bound_to 7997
  155.0689  140.3174  155.4640 H   0  0  0  0  0  0  0  0  0  0  0  0  # atno 8010 bound_to 7997
  139.4835  144.5390  151.7597 H   0  0  0  0  0  0  0  0  0  0  0  0  # atno 10167 bound_to 10162
  157.3156  131.0895  151.1281 H   0  0  0  0  0  0  0  0  0  0  0  0  # atno 10718 bound_to 10713
  153.2510  135.6913  153.7679 H   0  0  0  0  0  0  0  0  0  0  0  0  # atno 10763 bound_to 10752
  153.6773  135.3334  155.3170 H   0  0  0  0  0  0  0  0  0  0  0  0  # atno 10764 bound_to 10752
  154.8394  135.4514  154.1467 H   0  0  0  0  0  0  0  0  0  0  0  0  # atno 10765 bound_to 10752
  140.9956  134.0476  157.3601 H   0  0  0  0  0  0  0  0  0  0  0  0  # atno 11005 bound_to 11000
  145.0014  140.8635  143.5279 LP  0  0  0  0  0  0  0  0  0  0  0  0  # atno 17320 bound_to 7965
  145.1727  139.2395  143.5334 LP  0  0  0  0  0  0  0  0  0  0  0  0  # atno 17321 bound_to 7965
  140.4926  144.1287  150.5953 LP  0  0  0  0  0  0  0  0  0  0  0  0  # atno 17342 bound_to 10162
  140.4153  143.2637  151.9782 LP  0  0  0  0  0  0  0  0  0  0  0  0  # atno 17343 bound_to 10162
  157.2586  130.6648  149.5964 LP  0  0  0  0  0  0  0  0  0  0  0  0  # atno 17370 bound_to 10713
  155.9681  130.4516  150.5740 LP  0  0  0  0  0  0  0  0  0  0  0  0  # atno 17371 bound_to 10713
  139.9013  135.0165  156.7282 LP  0  0  0  0  0  0  0  0  0  0  0  0  # atno 17394 bound_to 11000
  140.6971  133.9339  155.8001 LP  0  0  0  0  0  0  0  0  0  0  0  0  # atno 17395 bound_to 11000

$$$$
