AV-unprocessed.smi:1423|AV-procd|sdf|5796|dock2
  -GOLD-   22720 5443D 1   1.00000     0.00000
 Structure written by MMmdl.
 44 45  0  0  0  0  0  0  0  0  2 V2000
  151.1718  141.9722  157.9858 C   0  0  0  0  0  0  0  0  0  0  0  0
  151.0802  141.8427  156.5714 O   0  0  0  0  0  0  0  0  0  0  0  0
  150.5124  140.6966  156.0538 C   0  0  0  0  0  0  0  0  0  0  0  0
  149.7582  139.8716  156.9113 C   0  0  0  0  0  0  0  0  0  0  0  0
  149.1775  138.6985  156.3928 C   0  0  0  0  0  0  0  0  0  0  0  0
  149.3775  138.3810  155.0277 C   0  0  0  0  0  0  0  0  0  0  0  0
  148.8394  137.2364  154.3775 N   0  0  0  0  0  0  0  0  0  0  0  0
  148.1988  136.1842  154.9157 C   0  0  0  0  0  0  0  0  0  0  0  0
  147.9679  136.0244  156.1135 O   0  0  0  0  0  0  0  0  0  0  0  0
  147.8463  135.2973  153.9734 N   0  0  0  0  0  0  0  0  0  0  0  0
  147.1227  134.0496  154.2181 C   0  0  2  0  0  0  0  0  0  0  0  0
  147.7886  132.8485  153.5161 C   0  0  0  0  0  0  0  0  0  0  0  0
  147.6078  132.8990  151.9893 C   0  0  0  0  0  0  0  0  0  0  0  0
  146.1686  132.9864  151.6253 N   0  3  2  0  0  0  0  0  0  0  0  0
  145.9288  132.8879  150.1622 C   0  0  0  0  0  0  0  0  0  0  0  0
  144.4419  132.9240  149.7926 C   0  0  0  0  0  0  0  0  0  0  0  0
  143.8922  134.1295  149.6296 N   0  0  0  0  0  0  0  0  0  0  0  0
  143.7933  131.8865  149.6701 O   0  0  0  0  0  0  0  0  0  0  0  0
  145.5268  134.1828  152.2269 C   0  0  0  0  0  0  0  0  0  0  0  0
  145.6587  134.1745  153.7611 C   0  0  0  0  0  0  0  0  0  0  0  0
  150.1376  139.2810  154.2517 C   0  0  0  0  0  0  0  0  0  0  0  0
  150.6964  140.4071  154.7419 N   0  0  0  0  0  0  0  0  0  0  0  0
  151.6301  142.9303  158.2309 H   0  0  0  0  0  0  0  0  0  0  0  0
  151.7943  141.1873  158.4178 H   0  0  0  0  0  0  0  0  0  0  0  0
  150.1873  141.9472  158.4547 H   0  0  0  0  0  0  0  0  0  0  0  0
  149.6244  140.1363  157.9497 H   0  0  0  0  0  0  0  0  0  0  0  0
  148.5865  138.0802  157.0498 H   0  0  0  0  0  0  0  0  0  0  0  0
  149.0061  137.1912  153.3829 H   0  0  0  0  0  0  0  0  0  0  0  0
  148.0766  135.5116  153.0141 H   0  0  0  0  0  0  0  0  0  0  0  0
  147.1239  133.8706  155.2950 H   0  0  0  0  0  0  0  0  0  0  0  0
  148.8489  132.7935  153.7658 H   0  0  0  0  0  0  0  0  0  0  0  0
  147.3453  131.9260  153.8936 H   0  0  0  0  0  0  0  0  0  0  0  0
  148.1447  133.7527  151.5730 H   0  0  0  0  0  0  0  0  0  0  0  0
  148.0535  132.0061  151.5499 H   0  0  0  0  0  0  0  0  0  0  0  0
  146.3948  133.7344  149.6559 H   0  0  0  0  0  0  0  0  0  0  0  0
  146.3998  131.9873  149.7645 H   0  0  0  0  0  0  0  0  0  0  0  0
  142.9170  134.2145  149.3807 H   0  0  0  0  0  0  0  0  0  0  0  0
  144.4570  134.9583  149.7513 H   0  0  0  0  0  0  0  0  0  0  0  0
  145.9745  135.0861  151.8094 H   0  0  0  0  0  0  0  0  0  0  0  0
  144.4687  134.2043  151.9632 H   0  0  0  0  0  0  0  0  0  0  0  0
  145.0892  133.3337  154.1597 H   0  0  0  0  0  0  0  0  0  0  0  0
  145.2053  135.0726  154.1827 H   0  0  0  0  0  0  0  0  0  0  0  0
  150.3082  139.0904  153.2020 H   0  0  0  0  0  0  0  0  0  0  0  0
  145.7123  132.1834  152.0354 H   0  0  0  0  0  0  0  0  0  0  0  0
  1  2  1  0  0  0  0
  1 23  1  0  0  0  0
  1 24  1  0  0  0  0
  1 25  1  0  0  0  0
  2  3  1  0  0  0  0
  3 22  1  0  0  0  0
  3  4  2  0  0  0  0
  4  5  1  0  0  0  0
  4 26  1  0  0  0  0
  5  6  2  0  0  0  0
  5 27  1  0  0  0  0
  6  7  1  0  0  0  0
  6 21  1  0  0  0  0
  7  8  1  0  0  0  0
  7 28  1  0  0  0  0
  8  9  2  0  0  0  0
  8 10  1  0  0  0  0
 10 11  1  0  0  0  0
 10 29  1  0  0  0  0
 11 20  1  0  0  0  0
 11 12  1  0  0  0  0
 11 30  1  0  0  0  0
 12 13  1  0  0  0  0
 12 31  1  0  0  0  0
 12 32  1  0  0  0  0
 13 14  1  0  0  0  0
 13 33  1  0  0  0  0
 13 34  1  0  0  0  0
 14 15  1  0  0  0  0
 14 19  1  0  0  0  0
 14 44  1  0  0  0  0
 15 16  1  0  0  0  0
 15 35  1  0  0  0  0
 15 36  1  0  0  0  0
 16 17  1  0  0  0  0
 16 18  2  0  0  0  0
 17 37  1  0  0  0  0
 17 38  1  0  0  0  0
 19 20  1  0  0  0  0
 19 39  1  0  0  0  0
 19 40  1  0  0  0  0
 20 41  1  0  0  0  0
 20 42  1  0  0  0  0
 21 22  2  0  0  0  0
 21 43  1  0  0  0  0
M  CHG  1  14   1
M  END
> <s_m_source_file>
AV-unprocessed.smi

> <i_m_source_file_index>
1423

> <i_lp_mmshare_version>
43012

> <i_f3d_flags>
0

> <s_epik_input>
W0NIM11PYzFbY0hdW2NIXWMoW2NIXW4xKVtOSF1DKD1PKVtOSF1bQ0hdMltDSDJdW0NIMl1OKFtDSDJdW0NIMl0yKVtDSDJdQyg9TylbTkgyXQ==

> <s_epik_cmdline>
J2VwaWtfcHl0aG9uJywgJy1waCcsICc3LjAnLCAnLXRuJywgJzgnLCAnLW1hJywgJzIwMCcsICctbWV0YWxfYmluZGluZycsICctaW1hZScsICc8aW5maWxlLm1hZT4nLCAnLW9tYWUnLCAnPG91dGZpbGUubWFlPic=

> <r_lp_tautomer_probability>
1

> <r_epik_Ionization_Penalty>
0.838963

> <r_epik_Ionization_Penalty_Charging>
0.838844

> <r_epik_Ionization_Penalty_Neutral>
0.0001192

> <r_epik_State_Penalty>
0.8734

> <r_epik_Charging_Adjusted_Penalty>
1.71224

> <i_epik_Tot_Q>
1

> <i_epik_Tot_abs_Q>
1

> <r_epik_Metal_State_Penalty>
0.890706

> <b_epik_Metal_Only>
0

> <s_lp_Force_Field>
OPLS_2005

> <r_lp_Energy>
16.4792

> <b_lp_Chiralities_Consistent>
1

> <s_lp_Variant>
AV-unprocessed.smi:1423-3

> <Gold.Version>
5.8.1

> <Gold.Id.Protein>
6NUR|6NUR_protein|mol2

> <Gold.PLP.Fitness>
44.9582

> <Gold.PLP.PLP>
-28.9353

> <Gold.PLP.part.hbond>
-5.9541

> <Gold.PLP.part.metal>
0.0000

> <Gold.PLP.part.buried>
-3.4609

> <Gold.PLP.part.nonpolar>
-19.9637

> <Gold.PLP.part.repulsive>
0.4634

> <Gold.PLP.ligand.clash>
0.0000

> <Gold.PLP.ligand.torsion>
0.7374

> <Gold.PLP.Chemscore.Hbond>
4.8247

> <Gold.PLP.Chemscore.CHOScore>
1.0000

> <Gold.PLP.Chemscore.Metal>
0.0000

> <Gold.Chemscore.Hbonds>
donor molecule, donor type, donor heavy atom, donor atom, acceptor molecule, acceptor atom, score
      L1  H     7    28       P1  7948  0.99
      L1  H    10    29       P1  7948  1.00
      L1  H    17    37       P1 10186  1.00
      P1  H  7989  7998       L1    22  1.00
      P1  H 10785 10796       L1    18  0.80
      L1  C    21    43       P1  7957  1.00

> <Gold.PLP.Chemscore.Internal.Correction>
0.0234

> <Gold.Rescore>
     Score         DG    S(hbond)    S(metal)    S(lipo)     H(rot)  DE(clash)    DE(int)     intcor
     18.49     -20.60       4.43        0.00      53.60       2.33       0.20       1.91       ----

> <Gold.Chemscore.Fitness>
18.4867

> <Gold.Chemscore.DG>
-20.5975

> <Gold.Chemscore.ZeroCoef>
-5.4800

> <Gold.Chemscore.Hbond>
4.4321

> <Gold.Chemscore.Metal>
0.0000

> <Gold.Chemscore.Lipo>
53.6036

> <Gold.Chemscore.Internal_Hbond>
0.0000

> <Gold.Chemscore.DEClash>
0.1965

> <Gold.Chemscore.DEInternal>
1.9144

> <Gold.Chemscore.Rot>
2.3271

> <Gold.Chemscore.Internal.Correction>
   9.000000E+99

> <Gold.Chemscore.Hbonds>
donor molecule, donor type, donor heavy atom, donor atom, acceptor molecule, acceptor atom, score
      L1  H     7    28       P1  7948  0.93
      L1  H    10    29       P1  7948  0.96
      L1  H    17    37       P1 10186  0.99
      P1  H  7989  7998       L1    22  0.34
      P1  H 10785 10796       L1    18  0.75

> <Gold.Chemscore.Hbond.Weighted>
-14.8032

> <Gold.Chemscore.Metal.Weighted>
-0.0000

> <Gold.Chemscore.Lipo.Weighted>
-6.2716

> <Gold.Chemscore.Internal_Hbond.Weighted>
0.0000

> <Gold.Chemscore.DEClash.Weighted>
0.1965

> <Gold.Chemscore.DEInternal.Weighted>
1.9144

> <Gold.Chemscore.Rot.Weighted>
5.9573

> <Gold.Chemscore.Internal.Correction.Weighted>
   9.000000E+99

> <Gold.Protein.RotatedTorsions>
[ 6907 6896 6895 6894 ] final -171.75 input  -60.11 | X-H torsion
[ 7974 7965 7964 7962 ] final    2.18 input  175.53 | X-H torsion
[ 8008 7997 7996 7995 ] final  156.49 input   59.86 | X-H torsion
[ 10167 10162 10161 10158 ] final  136.58 input  -65.29 | X-H torsion
[ 10718 10713 10712 10709 ] final -179.55 input   66.30 | X-H torsion
[ 10763 10752 10751 10750 ] final  -94.22 input  -60.55 | X-H torsion
[ 11005 11000 10999 10996 ] final   21.03 input  -57.11 | X-H torsion

> <Gold.Protein.ActiveResidues>
 VAL166  LYS551  ARG553  GLY616  TRP617  ASP618  TYR619  PRO620  LYS621  CYS622 
 ASP623  PHE694  ASN695  SER759  ASP760  ASP761  ALA762  ILE779  LEU786  VAL792 
 PHE793  MET794  SER795  GLU796  ALA797  LYS798  CYS799  TRP800  GLU811  SER814 

> <Gold.Protein.RotatedAtoms>
  151.5288  133.3453  159.2914 H   0  0  0  0  0  0  0  0  0  0  0  0  # atno 6907 bound_to 6896
  150.8606  134.7960  159.7091 H   0  0  0  0  0  0  0  0  0  0  0  0  # atno 6908 bound_to 6896
  152.4627  134.5156  159.9819 H   0  0  0  0  0  0  0  0  0  0  0  0  # atno 6909 bound_to 6896
  146.2443  140.0875  142.8354 H   0  0  0  0  0  0  0  0  0  0  0  0  # atno 7974 bound_to 7965
  156.2419  140.1911  156.6964 H   0  0  0  0  0  0  0  0  0  0  0  0  # atno 8008 bound_to 7997
  154.6214  140.0608  156.9646 H   0  0  0  0  0  0  0  0  0  0  0  0  # atno 8009 bound_to 7997
  155.1856  140.3280  155.4370 H   0  0  0  0  0  0  0  0  0  0  0  0  # atno 8010 bound_to 7997
  139.5175  144.6457  151.5446 H   0  0  0  0  0  0  0  0  0  0  0  0  # atno 10167 bound_to 10162
  156.8608  130.9751  151.3083 H   0  0  0  0  0  0  0  0  0  0  0  0  # atno 10718 bound_to 10713
  154.7034  135.5165  153.8560 H   0  0  0  0  0  0  0  0  0  0  0  0  # atno 10763 bound_to 10752
  153.0722  135.6605  154.0232 H   0  0  0  0  0  0  0  0  0  0  0  0  # atno 10764 bound_to 10752
  154.0087  135.3004  155.3374 H   0  0  0  0  0  0  0  0  0  0  0  0  # atno 10765 bound_to 10752
  140.3960  134.1768  155.7663 H   0  0  0  0  0  0  0  0  0  0  0  0  # atno 11005 bound_to 11000
  145.0679  140.9135  143.4899 LP  0  0  0  0  0  0  0  0  0  0  0  0  # atno 17320 bound_to 7965
  145.1003  139.2827  143.5689 LP  0  0  0  0  0  0  0  0  0  0  0  0  # atno 17321 bound_to 7965
  140.6241  143.9202  150.6550 LP  0  0  0  0  0  0  0  0  0  0  0  0  # atno 17342 bound_to 10162
  140.2485  143.3610  152.1426 LP  0  0  0  0  0  0  0  0  0  0  0  0  # atno 17343 bound_to 10162
  157.6251  130.8685  149.9175 LP  0  0  0  0  0  0  0  0  0  0  0  0  # atno 17370 bound_to 10713
  156.0777  130.3677  150.0643 LP  0  0  0  0  0  0  0  0  0  0  0  0  # atno 17371 bound_to 10713
  141.1874  133.8282  157.1034 LP  0  0  0  0  0  0  0  0  0  0  0  0  # atno 17394 bound_to 11000
  140.0371  134.9873  157.0892 LP  0  0  0  0  0  0  0  0  0  0  0  0  # atno 17395 bound_to 11000

$$$$
