AV-unprocessed.smi:1209|AV-procd|sdf|5074|dock6
  -GOLD-   22720 4123D 1   1.00000     0.00000
 Structure written by MMmdl.
 49 51  0  0  0  0  0  0  0  0  2 V2000
  144.7794  134.6310  150.5321 C   0  0  0  0  0  0  0  0  0  0  0  0
  145.1601  135.8814  151.2480 C   0  0  0  0  0  0  0  0  0  0  0  0
  146.2553  136.6953  151.1854 C   0  0  0  0  0  0  0  0  0  0  0  0
  145.9727  137.7124  152.1381 C   0  0  0  0  0  0  0  0  0  0  0  0
  146.8188  138.8979  152.5127 C   0  0  0  0  0  0  0  0  0  0  0  0
  147.9382  138.5065  153.4081 N   0  3  2  0  0  0  0  0  0  0  0  0
  147.4682  137.9774  154.7105 C   0  0  0  0  0  0  0  0  0  0  0  0
  148.9516  139.5792  153.5781 C   0  0  0  0  0  0  0  0  0  0  0  0
  148.5278  140.6229  154.6302 C   0  0  2  0  0  0  0  0  0  0  0  0
  147.4286  141.3568  154.1262 O   0  0  0  0  0  0  0  0  0  0  0  0
  149.6742  141.5944  154.9695 C   0  0  0  0  0  0  0  0  0  0  0  0
  150.5804  141.0495  155.9642 N   0  0  0  0  0  0  0  0  0  0  0  0
  151.0990  139.8069  156.0039 C   0  0  0  0  0  0  0  0  0  0  0  0
  151.9196  139.5225  157.0111 N   0  0  0  0  0  0  0  0  0  0  0  0
  151.9284  140.7168  157.7112 C   0  0  0  0  0  0  0  0  0  0  0  0
  152.6099  141.0840  158.8920 C   0  0  0  0  0  0  0  0  0  0  0  0
  152.4705  142.3811  159.4356 C   0  0  0  0  0  0  0  0  0  0  0  0
  153.2247  142.7345  160.7052 C   0  0  0  0  0  0  0  0  0  0  0  0
  151.6352  143.3334  158.7978 C   0  0  0  0  0  0  0  0  0  0  0  0
  151.4692  144.7322  159.3642 C   0  0  0  0  0  0  0  0  0  0  0  0
  150.9464  142.9827  157.6181 C   0  0  0  0  0  0  0  0  0  0  0  0
  151.0970  141.6906  157.0847 C   0  0  0  0  0  0  0  0  0  0  0  0
  144.7998  137.5268  152.7212 N   0  0  0  0  0  0  0  0  0  0  0  0
  144.2741  136.3578  152.1600 O   0  0  0  0  0  0  0  0  0  0  0  0
  145.6366  134.2033  150.0118 H   0  0  0  0  0  0  0  0  0  0  0  0
  144.0009  134.8304  149.7955 H   0  0  0  0  0  0  0  0  0  0  0  0
  144.4016  133.8839  151.2302 H   0  0  0  0  0  0  0  0  0  0  0  0
  147.1246  136.5797  150.5551 H   0  0  0  0  0  0  0  0  0  0  0  0
  147.2045  139.3473  151.5986 H   0  0  0  0  0  0  0  0  0  0  0  0
  146.2205  139.6739  152.9940 H   0  0  0  0  0  0  0  0  0  0  0  0
  146.9447  138.7479  155.2782 H   0  0  0  0  0  0  0  0  0  0  0  0
  148.3085  137.6240  155.3090 H   0  0  0  0  0  0  0  0  0  0  0  0
  146.7925  137.1325  154.5777 H   0  0  0  0  0  0  0  0  0  0  0  0
  149.9085  139.1276  153.8448 H   0  0  0  0  0  0  0  0  0  0  0  0
  149.1157  140.0940  152.6297 H   0  0  0  0  0  0  0  0  0  0  0  0
  148.2081  140.1292  155.5473 H   0  0  0  0  0  0  0  0  0  0  0  0
  146.9524  141.7242  154.8560 H   0  0  0  0  0  0  0  0  0  0  0  0
  150.2545  141.8201  154.0740 H   0  0  0  0  0  0  0  0  0  0  0  0
  149.2789  142.5439  155.3338 H   0  0  0  0  0  0  0  0  0  0  0  0
  150.8660  139.0706  155.2482 H   0  0  0  0  0  0  0  0  0  0  0  0
  153.2445  140.3580  159.3787 H   0  0  0  0  0  0  0  0  0  0  0  0
  152.5295  143.0078  161.4992 H   0  0  0  0  0  0  0  0  0  0  0  0
  153.8978  143.5738  160.5289 H   0  0  0  0  0  0  0  0  0  0  0  0
  153.8237  141.8948  161.0593 H   0  0  0  0  0  0  0  0  0  0  0  0
  150.7881  145.3293  158.7571 H   0  0  0  0  0  0  0  0  0  0  0  0
  152.4294  145.2474  159.3948 H   0  0  0  0  0  0  0  0  0  0  0  0
  151.0655  144.6904  160.3760 H   0  0  0  0  0  0  0  0  0  0  0  0
  150.3066  143.6981  157.1232 H   0  0  0  0  0  0  0  0  0  0  0  0
  148.4217  137.7444  152.9537 H   0  0  0  0  0  0  0  0  0  0  0  0
  1  2  1  0  0  0  0
  1 25  1  0  0  0  0
  1 26  1  0  0  0  0
  1 27  1  0  0  0  0
  2 24  1  0  0  0  0
  2  3  2  0  0  0  0
  3  4  1  0  0  0  0
  3 28  1  0  0  0  0
  4  5  1  0  0  0  0
  4 23  2  0  0  0  0
  5  6  1  0  0  0  0
  5 29  1  0  0  0  0
  5 30  1  0  0  0  0
  6  7  1  0  0  0  0
  6  8  1  0  0  0  0
  6 49  1  0  0  0  0
  7 31  1  0  0  0  0
  7 32  1  0  0  0  0
  7 33  1  0  0  0  0
  8  9  1  0  0  0  0
  8 34  1  0  0  0  0
  8 35  1  0  0  0  0
  9 10  1  0  0  0  0
  9 11  1  0  0  0  0
  9 36  1  0  0  0  0
 10 37  1  0  0  0  0
 11 12  1  0  0  0  0
 11 38  1  0  0  0  0
 11 39  1  0  0  0  0
 12 22  1  0  0  0  0
 12 13  1  0  0  0  0
 13 14  2  0  0  0  0
 13 40  1  0  0  0  0
 14 15  1  0  0  0  0
 15 22  2  0  0  0  0
 15 16  1  0  0  0  0
 16 17  2  0  0  0  0
 16 41  1  0  0  0  0
 17 18  1  0  0  0  0
 17 19  1  0  0  0  0
 18 42  1  0  0  0  0
 18 43  1  0  0  0  0
 18 44  1  0  0  0  0
 19 20  1  0  0  0  0
 19 21  2  0  0  0  0
 20 45  1  0  0  0  0
 20 46  1  0  0  0  0
 20 47  1  0  0  0  0
 21 22  1  0  0  0  0
 21 48  1  0  0  0  0
 23 24  1  0  0  0  0
M  CHG  1   6   1
M  END
> <s_m_source_file>
AV-unprocessed.smi

> <i_m_source_file_index>
1209

> <i_lp_mmshare_version>
43012

> <i_f3d_flags>
0

> <s_epik_input>
W0NIM11jMVtjSF1jKG5vMSlbQ0gyXU4oW0NIM10pW0NIMl1bQ0BIXShbT0hdKVtDSDJdbihbY0hdbjIpYyhjMjMpW2NIXWMoW0NIM10pYyhbY0hdMylbQ0gzXQ==

> <s_epik_cmdline>
J2VwaWtfcHl0aG9uJywgJy1waCcsICc3LjAnLCAnLXRuJywgJzgnLCAnLW1hJywgJzIwMCcsICctbWV0YWxfYmluZGluZycsICctaW1hZScsICc8aW5maWxlLm1hZT4nLCAnLW9tYWUnLCAnPG91dGZpbGUubWFlPic=

> <r_epik_Ionization_Penalty>
2.05249

> <r_epik_Ionization_Penalty_Charging>
1.96618

> <r_epik_Ionization_Penalty_Neutral>
0.0863156

> <r_epik_State_Penalty>
2.19215

> <r_epik_Charging_Adjusted_Penalty>
4.15833

> <i_epik_Tot_Q>
1

> <i_epik_Tot_abs_Q>
1

> <r_epik_Metal_State_Penalty>
2.17654

> <b_epik_Metal_Only>
0

> <s_lp_Force_Field>
OPLS_2005

> <r_lp_Energy>
8.61119

> <b_lp_Chiralities_Consistent>
1

> <s_lp_Variant>
AV-unprocessed.smi:1209-6

> <Gold.Version>
5.8.1

> <Gold.Id.Protein>
6NUR|6NUR_protein|mol2

> <Gold.PLP.Fitness>
50.2283

> <Gold.PLP.PLP>
-45.6414

> <Gold.PLP.part.hbond>
-1.5018

> <Gold.PLP.part.metal>
0.0000

> <Gold.PLP.part.buried>
1.4503

> <Gold.PLP.part.nonpolar>
-47.1045

> <Gold.PLP.part.repulsive>
0.4136

> <Gold.PLP.ligand.clash>
0.0000

> <Gold.PLP.ligand.torsion>
0.8904

> <Gold.PLP.Chemscore.Hbond>
2.0000

> <Gold.PLP.Chemscore.CHOScore>
0.0000

> <Gold.PLP.Chemscore.Metal>
0.0000

> <Gold.Chemscore.Hbonds>
donor molecule, donor type, donor heavy atom, donor atom, acceptor molecule, acceptor atom, score
      L1  H     6    49       P1  7948  2.00

> <Gold.PLP.Chemscore.Internal.Correction>
0.3678

> <Gold.Rescore>
     Score         DG    S(hbond)    S(metal)    S(lipo)     H(rot)  DE(clash)    DE(int)     intcor
     13.73     -18.48       1.00        0.00     137.98       2.53       2.98       1.78       ----

> <Gold.Chemscore.Fitness>
13.7256

> <Gold.Chemscore.DG>
-18.4764

> <Gold.Chemscore.ZeroCoef>
-5.4800

> <Gold.Chemscore.Hbond>
0.9992

> <Gold.Chemscore.Metal>
0.0000

> <Gold.Chemscore.Lipo>
137.9838

> <Gold.Chemscore.Internal_Hbond>
0.0000

> <Gold.Chemscore.DEClash>
2.9754

> <Gold.Chemscore.DEInternal>
1.7753

> <Gold.Chemscore.Rot>
2.5332

> <Gold.Chemscore.Internal.Correction>
   9.000000E+99

> <Gold.Chemscore.Hbonds>
donor molecule, donor type, donor heavy atom, donor atom, acceptor molecule, acceptor atom, score
      L1  H     6    49       P1  7948  1.00

> <Gold.Chemscore.Hbond.Weighted>
-3.3374

> <Gold.Chemscore.Metal.Weighted>
-0.0000

> <Gold.Chemscore.Lipo.Weighted>
-16.1441

> <Gold.Chemscore.Internal_Hbond.Weighted>
0.0000

> <Gold.Chemscore.DEClash.Weighted>
2.9754

> <Gold.Chemscore.DEInternal.Weighted>
1.7753

> <Gold.Chemscore.Rot.Weighted>
6.4851

> <Gold.Chemscore.Internal.Correction.Weighted>
   9.000000E+99

> <Gold.Protein.RotatedTorsions>
[ 6907 6896 6895 6894 ] final  -86.22 input  -60.11 | X-H torsion
[ 7974 7965 7964 7962 ] final -139.49 input  175.53 | X-H torsion
[ 8008 7997 7996 7995 ] final  -12.89 input   59.86 | X-H torsion
[ 10167 10162 10161 10158 ] final  -37.55 input  -65.29 | X-H torsion
[ 10718 10713 10712 10709 ] final  161.16 input   66.30 | X-H torsion
[ 10763 10752 10751 10750 ] final  -78.47 input  -60.55 | X-H torsion
[ 11005 11000 10999 10996 ] final  -49.89 input  -57.11 | X-H torsion

> <Gold.Protein.ActiveResidues>
 VAL166  LYS551  ARG553  GLY616  TRP617  ASP618  TYR619  PRO620  LYS621  CYS622 
 ASP623  PHE694  ASN695  SER759  ASP760  ASP761  ALA762  ILE779  LEU786  VAL792 
 PHE793  MET794  SER795  GLU796  ALA797  LYS798  CYS799  TRP800  GLU811  SER814 

> <Gold.Protein.RotatedAtoms>
  150.6867  134.3083  159.4735 H   0  0  0  0  0  0  0  0  0  0  0  0  # atno 6907 bound_to 6896
  152.0972  134.9364  160.0579 H   0  0  0  0  0  0  0  0  0  0  0  0  # atno 6908 bound_to 6896
  152.0657  133.4048  159.4474 H   0  0  0  0  0  0  0  0  0  0  0  0  # atno 6909 bound_to 6896
  144.8673  140.6313  143.5290 H   0  0  0  0  0  0  0  0  0  0  0  0  # atno 7974 bound_to 7965
  154.5339  140.2264  155.8757 H   0  0  0  0  0  0  0  0  0  0  0  0  # atno 8008 bound_to 7997
  156.1791  140.3104  155.9079 H   0  0  0  0  0  0  0  0  0  0  0  0  # atno 8009 bound_to 7997
  155.3395  140.0449  157.3035 H   0  0  0  0  0  0  0  0  0  0  0  0  # atno 8010 bound_to 7997
  140.7115  143.3335  151.2516 H   0  0  0  0  0  0  0  0  0  0  0  0  # atno 10167 bound_to 10162
  157.1404  131.0539  151.2329 H   0  0  0  0  0  0  0  0  0  0  0  0  # atno 10718 bound_to 10713
  154.5262  135.5729  153.6721 H   0  0  0  0  0  0  0  0  0  0  0  0  # atno 10763 bound_to 10752
  152.9928  135.6194  154.2689 H   0  0  0  0  0  0  0  0  0  0  0  0  # atno 10764 bound_to 10752
  154.2612  135.2856  155.2757 H   0  0  0  0  0  0  0  0  0  0  0  0  # atno 10765 bound_to 10752
  141.0785  133.6659  156.3652 H   0  0  0  0  0  0  0  0  0  0  0  0  # atno 11005 bound_to 11000
  145.4197  139.1566  143.4080 LP  0  0  0  0  0  0  0  0  0  0  0  0  # atno 17320 bound_to 7965
  146.2905  140.4307  142.8741 LP  0  0  0  0  0  0  0  0  0  0  0  0  # atno 17321 bound_to 7965
  139.6823  143.9833  152.2815 LP  0  0  0  0  0  0  0  0  0  0  0  0  # atno 17342 bound_to 10162
  139.9467  144.6647  150.8212 LP  0  0  0  0  0  0  0  0  0  0  0  0  # atno 17343 bound_to 10162
  157.4312  130.7491  149.6991 LP  0  0  0  0  0  0  0  0  0  0  0  0  # atno 17370 bound_to 10713
  155.9790  130.4045  150.3616 LP  0  0  0  0  0  0  0  0  0  0  0  0  # atno 17371 bound_to 10713
  140.5520  134.6018  157.5410 LP  0  0  0  0  0  0  0  0  0  0  0  0  # atno 17394 bound_to 11000
  139.9598  134.7472  156.0262 LP  0  0  0  0  0  0  0  0  0  0  0  0  # atno 17395 bound_to 11000

$$$$
