AV-unprocessed.smi:1295|AV-procd|sdf|5408|dock5
  -GOLD-   22720 4563D 1   1.00000     0.00000
 Structure written by MMmdl.
 43 44  0  0  0  0  0  0  0  0  1 V2000
  146.1146  138.3040  152.3441 C   0  0  0  0  0  0  0  0  0  0  0  0
  146.8940  139.3342  153.1327 C   0  0  0  0  0  0  0  0  0  0  0  0
  146.1224  140.3950  153.5777 N   0  0  0  0  0  0  0  0  0  0  0  0
  146.7490  141.3897  154.3074 C   0  0  0  0  0  0  0  0  0  0  0  0
  145.8336  142.5167  154.7541 C   0  0  0  0  0  0  0  0  0  0  0  0
  148.0777  141.3312  154.5784 C   0  0  0  0  0  0  0  0  0  0  0  0
  148.8057  142.4134  155.3737 C   0  0  0  0  0  0  0  0  0  0  0  0
  149.5193  141.9326  156.6392 C   0  0  0  0  0  0  0  0  0  0  0  0
  149.5533  140.7329  156.9125 O   0  0  0  0  0  0  0  0  0  0  0  0
  150.0874  142.8834  157.3972 N   0  0  0  0  0  0  0  0  0  0  0  0
  150.8556  142.6609  158.6213 C   0  0  1  0  0  0  0  0  0  0  0  0
  151.8593  141.5190  158.3686 C   0  0  0  0  0  0  0  0  0  0  0  0
  152.7506  141.2635  159.5922 C   0  0  0  0  0  0  0  0  0  0  0  0
  153.4817  142.5444  160.0149 C   0  0  0  0  0  0  0  0  0  0  0  0
  152.4858  143.6820  160.2856 C   0  0  0  0  0  0  0  0  0  0  0  0
  151.5777  143.9580  159.0695 C   0  0  2  0  0  0  0  0  0  0  0  0
  150.5998  145.1056  159.3794 C   0  0  0  0  0  0  0  0  0  0  0  0
  148.8516  140.1731  154.0720 C   0  0  0  0  0  0  0  0  0  0  0  0
  150.0602  140.0671  154.2751 O   0  0  0  0  0  0  0  0  0  0  0  0
  148.1673  139.1889  153.3404 N   0  0  0  0  0  0  0  0  0  0  0  0
  145.1329  140.4793  153.3954 H   0  0  0  0  0  0  0  0  0  0  0  0
  146.7216  137.4180  152.1542 H   0  0  0  0  0  0  0  0  0  0  0  0
  145.8047  138.7179  151.3842 H   0  0  0  0  0  0  0  0  0  0  0  0
  145.2244  137.9942  152.8924 H   0  0  0  0  0  0  0  0  0  0  0  0
  145.8080  142.5787  155.8422 H   0  0  0  0  0  0  0  0  0  0  0  0
  144.8112  142.3670  154.4045 H   0  0  0  0  0  0  0  0  0  0  0  0
  146.1836  143.4718  154.3620 H   0  0  0  0  0  0  0  0  0  0  0  0
  148.1232  143.2166  155.6523 H   0  0  0  0  0  0  0  0  0  0  0  0
  149.5349  142.8863  154.7148 H   0  0  0  0  0  0  0  0  0  0  0  0
  149.9973  143.8413  157.0909 H   0  0  0  0  0  0  0  0  0  0  0  0
  150.1920  142.3429  159.4276 H   0  0  0  0  0  0  0  0  0  0  0  0
  151.3250  140.6041  158.1093 H   0  0  0  0  0  0  0  0  0  0  0  0
  152.4881  141.7622  157.5106 H   0  0  0  0  0  0  0  0  0  0  0  0
  152.1407  140.8990  160.4198 H   0  0  0  0  0  0  0  0  0  0  0  0
  153.4728  140.4778  159.3695 H   0  0  0  0  0  0  0  0  0  0  0  0
  154.0787  142.3532  160.9069 H   0  0  0  0  0  0  0  0  0  0  0  0
  154.1802  142.8450  159.2331 H   0  0  0  0  0  0  0  0  0  0  0  0
  151.8729  143.4265  161.1511 H   0  0  0  0  0  0  0  0  0  0  0  0
  153.0341  144.5858  160.5541 H   0  0  0  0  0  0  0  0  0  0  0  0
  152.2189  144.2881  158.2508 H   0  0  0  0  0  0  0  0  0  0  0  0
  149.8939  144.8226  160.1608 H   0  0  0  0  0  0  0  0  0  0  0  0
  150.0245  145.3938  158.4996 H   0  0  0  0  0  0  0  0  0  0  0  0
  151.1329  145.9938  159.7191 H   0  0  0  0  0  0  0  0  0  0  0  0
  1 22  1  0  0  0  0
  1 23  1  0  0  0  0
  1 24  1  0  0  0  0
  1  2  1  0  0  0  0
  2  3  1  0  0  0  0
  2 20  2  0  0  0  0
  3  4  1  0  0  0  0
  3 21  1  0  0  0  0
  4  6  2  0  0  0  0
  4  5  1  0  0  0  0
  5 25  1  0  0  0  0
  5 26  1  0  0  0  0
  5 27  1  0  0  0  0
  6 18  1  0  0  0  0
  6  7  1  0  0  0  0
  7  8  1  0  0  0  0
  7 28  1  0  0  0  0
  7 29  1  0  0  0  0
  8  9  2  0  0  0  0
  8 10  1  0  0  0  0
 10 11  1  0  0  0  0
 10 30  1  0  0  0  0
 11 16  1  0  0  0  0
 11 12  1  0  0  0  0
 11 31  1  0  0  0  0
 12 13  1  0  0  0  0
 12 32  1  0  0  0  0
 12 33  1  0  0  0  0
 13 14  1  0  0  0  0
 13 34  1  0  0  0  0
 13 35  1  0  0  0  0
 14 15  1  0  0  0  0
 14 36  1  0  0  0  0
 14 37  1  0  0  0  0
 15 16  1  0  0  0  0
 15 38  1  0  0  0  0
 15 39  1  0  0  0  0
 16 17  1  0  0  0  0
 16 40  1  0  0  0  0
 17 41  1  0  0  0  0
 17 42  1  0  0  0  0
 17 43  1  0  0  0  0
 18 19  2  0  0  0  0
 18 20  1  0  0  0  0
M  END
> <s_m_source_file>
AV-unprocessed.smi

> <i_m_source_file_index>
1295

> <i_lp_mmshare_version>
43012

> <i_f3d_flags>
0

> <s_epik_input>
W0NIM11jMW5jKFtDSDNdKWMoYyg9TylbbkhdMSlbQ0gyXUMoPU8pW05IXVtDQEBIXTJbQ0gyXVtDSDJdW0NIMl1bQ0gyXVtDQEhdMltDSDNd

> <s_epik_cmdline>
J2VwaWtfcHl0aG9uJywgJy1waCcsICc3LjAnLCAnLXRuJywgJzgnLCAnLW1hJywgJzIwMCcsICctbWV0YWxfYmluZGluZycsICctaW1hZScsICc8aW5maWxlLm1hZT4nLCAnLW9tYWUnLCAnPG91dGZpbGUubWFlPic=

> <r_lp_tautomer_probability>
0.156392

> <r_epik_Ionization_Penalty>
0.0136057

> <r_epik_Ionization_Penalty_Charging>
0.0134742

> <r_epik_Ionization_Penalty_Neutral>
0.000131572

> <r_epik_State_Penalty>
1.15342

> <r_epik_Charging_Adjusted_Penalty>
1.16689

> <i_epik_Tot_Q>
0

> <i_epik_Tot_abs_Q>
0

> <r_epik_Metal_State_Penalty>
1.31351

> <b_epik_Metal_Only>
0

> <s_lp_Force_Field>
OPLS_2005

> <r_lp_Energy>
15.3725

> <b_lp_Chiralities_Consistent>
1

> <s_lp_Variant>
AV-unprocessed.smi:1295-8

> <Gold.Version>
5.8.1

> <Gold.Id.Protein>
6NUR|6NUR_protein|mol2

> <Gold.PLP.Fitness>
48.1545

> <Gold.PLP.PLP>
-41.8574

> <Gold.PLP.part.hbond>
-3.0000

> <Gold.PLP.part.metal>
0.0000

> <Gold.PLP.part.buried>
0.8333

> <Gold.PLP.part.nonpolar>
-42.4029

> <Gold.PLP.part.repulsive>
2.9927

> <Gold.PLP.ligand.clash>
0.0000

> <Gold.PLP.ligand.torsion>
0.1576

> <Gold.PLP.Chemscore.Hbond>
2.2024

> <Gold.PLP.Chemscore.CHOScore>
0.0000

> <Gold.PLP.Chemscore.Metal>
0.0000

> <Gold.Chemscore.Hbonds>
donor molecule, donor type, donor heavy atom, donor atom, acceptor molecule, acceptor atom, score
      L1  H     3    21       P1 10175  1.00
      L1  H    10    30       P1  8028  0.67
      P1  H  7989  7998       L1    19  1.00

> <Gold.PLP.Chemscore.Internal.Correction>
0.0052

> <Gold.Rescore>
     Score         DG    S(hbond)    S(metal)    S(lipo)     H(rot)  DE(clash)    DE(int)     intcor
     18.21     -22.29       2.57        0.00     102.79       1.48       2.02       2.05       ----

> <Gold.Chemscore.Fitness>
18.2144

> <Gold.Chemscore.DG>
-22.2866

> <Gold.Chemscore.ZeroCoef>
-5.4800

> <Gold.Chemscore.Hbond>
2.5657

> <Gold.Chemscore.Metal>
0.0000

> <Gold.Chemscore.Lipo>
102.7877

> <Gold.Chemscore.Internal_Hbond>
0.0000

> <Gold.Chemscore.DEClash>
2.0209

> <Gold.Chemscore.DEInternal>
2.0514

> <Gold.Chemscore.Rot>
1.4801

> <Gold.Chemscore.Internal.Correction>
   9.000000E+99

> <Gold.Chemscore.Hbonds>
donor molecule, donor type, donor heavy atom, donor atom, acceptor molecule, acceptor atom, score
      L1  H     3    21       P1 10175  0.98
      L1  H    10    30       P1  8028  0.62
      P1  H  7989  7998       L1    19  0.94

> <Gold.Chemscore.Hbond.Weighted>
-8.5696

> <Gold.Chemscore.Metal.Weighted>
-0.0000

> <Gold.Chemscore.Lipo.Weighted>
-12.0262

> <Gold.Chemscore.Internal_Hbond.Weighted>
0.0000

> <Gold.Chemscore.DEClash.Weighted>
2.0209

> <Gold.Chemscore.DEInternal.Weighted>
2.0514

> <Gold.Chemscore.Rot.Weighted>
3.7891

> <Gold.Chemscore.Internal.Correction.Weighted>
   9.000000E+99

> <Gold.Protein.RotatedTorsions>
[ 6907 6896 6895 6894 ] final  -18.23 input  -60.11 | X-H torsion
[ 7974 7965 7964 7962 ] final  -21.82 input  175.53 | X-H torsion
[ 8008 7997 7996 7995 ] final  -61.62 input   59.86 | X-H torsion
[ 10167 10162 10161 10158 ] final   94.90 input  -65.29 | X-H torsion
[ 10718 10713 10712 10709 ] final -166.39 input   66.30 | X-H torsion
[ 10763 10752 10751 10750 ] final   78.25 input  -60.55 | X-H torsion
[ 11005 11000 10999 10996 ] final   75.71 input  -57.11 | X-H torsion

> <Gold.Protein.ActiveResidues>
 VAL166  LYS551  ARG553  GLY616  TRP617  ASP618  TYR619  PRO620  LYS621  CYS622 
 ASP623  PHE694  ASN695  SER759  ASP760  ASP761  ALA762  ILE779  LEU786  VAL792 
 PHE793  MET794  SER795  GLU796  ALA797  LYS798  CYS799  TRP800  GLU811  SER814 

> <Gold.Protein.RotatedAtoms>
  151.2813  135.0714  159.9170 H   0  0  0  0  0  0  0  0  0  0  0  0  # atno 6907 bound_to 6896
  152.5333  134.0027  159.7912 H   0  0  0  0  0  0  0  0  0  0  0  0  # atno 6908 bound_to 6896
  151.0282  133.5764  159.2694 H   0  0  0  0  0  0  0  0  0  0  0  0  # atno 6909 bound_to 6896
  146.1711  140.4393  142.8532 H   0  0  0  0  0  0  0  0  0  0  0  0  # atno 7974 bound_to 7965
  154.4457  140.1014  156.6459 H   0  0  0  0  0  0  0  0  0  0  0  0  # atno 8008 bound_to 7997
  155.5450  140.3484  155.4437 H   0  0  0  0  0  0  0  0  0  0  0  0  # atno 8009 bound_to 7997
  156.0570  140.1317  156.9974 H   0  0  0  0  0  0  0  0  0  0  0  0  # atno 8010 bound_to 7997
  139.8039  144.6802  150.9728 H   0  0  0  0  0  0  0  0  0  0  0  0  # atno 10167 bound_to 10162
  156.6672  130.9069  151.3038 H   0  0  0  0  0  0  0  0  0  0  0  0  # atno 10718 bound_to 10713
  153.0860  135.4884  154.8597 H   0  0  0  0  0  0  0  0  0  0  0  0  # atno 10763 bound_to 10752
  154.7211  135.3039  154.9049 H   0  0  0  0  0  0  0  0  0  0  0  0  # atno 10764 bound_to 10752
  153.9713  135.6801  153.4800 H   0  0  0  0  0  0  0  0  0  0  0  0  # atno 10765 bound_to 10752
  139.9331  134.7540  156.1305 H   0  0  0  0  0  0  0  0  0  0  0  0  # atno 11005 bound_to 11000
  144.8165  140.6477  143.6381 LP  0  0  0  0  0  0  0  0  0  0  0  0  # atno 17320 bound_to 7965
  145.4337  139.1545  143.4008 LP  0  0  0  0  0  0  0  0  0  0  0  0  # atno 17321 bound_to 7965
  140.7819  143.4253  151.0778 LP  0  0  0  0  0  0  0  0  0  0  0  0  # atno 17342 bound_to 10162
  139.7923  143.8200  152.3153 LP  0  0  0  0  0  0  0  0  0  0  0  0  # atno 17343 bound_to 10162
  157.7089  130.9417  150.1024 LP  0  0  0  0  0  0  0  0  0  0  0  0  # atno 17370 bound_to 10713
  156.1966  130.3657  149.8841 LP  0  0  0  0  0  0  0  0  0  0  0  0  # atno 17371 bound_to 10713
  141.0931  133.6706  156.2584 LP  0  0  0  0  0  0  0  0  0  0  0  0  # atno 17394 bound_to 11000
  140.6148  134.5422  157.5539 LP  0  0  0  0  0  0  0  0  0  0  0  0  # atno 17395 bound_to 11000

$$$$
