AV-unprocessed.smi:753|AV-procd|sdf|3603|dock1
  -GOLD-   22720 0593D 1   1.00000     0.00000
 Structure written by MMmdl.
 44 46  0  0  0  0  0  0  0  0  2 V2000
  151.0611  142.0448  156.5881 C   0  0  0  0  0  0  0  0  0  0  0  0
  150.0673  141.4257  155.6284 C   0  0  0  0  0  0  0  0  0  0  0  0
  150.1779  140.0906  155.1835 C   0  0  0  0  0  0  0  0  0  0  0  0
  149.2165  139.5826  154.2848 C   0  0  0  0  0  0  0  0  0  0  0  0
  148.1643  140.4185  153.8509 C   0  0  0  0  0  0  0  0  0  0  0  0
  147.1217  139.9043  152.8780 C   0  0  0  0  0  0  0  0  0  0  0  0
  146.3976  138.6591  153.4147 C   0  0  0  0  0  0  0  0  0  0  0  0
  146.6331  137.4985  152.5655 N   0  0  0  0  0  0  0  0  0  0  0  0
  145.6886  136.6259  152.1751 C   0  0  0  0  0  0  0  0  0  0  0  0
  144.5074  136.7151  152.5052 O   0  0  0  0  0  0  0  0  0  0  0  0
  146.1328  135.6358  151.3813 N   0  0  0  0  0  0  0  0  0  0  0  0
  145.3602  134.5386  150.7945 C   0  0  2  0  0  0  0  0  0  0  0  0
  144.2851  133.9731  151.7531 C   0  0  0  0  0  0  0  0  0  0  0  0
  144.6701  132.4861  151.8618 C   0  0  1  0  0  0  0  0  0  0  0  0
  144.3969  131.7823  150.5181 C   0  0  0  0  0  0  0  0  0  0  0  0
  145.5134  132.3341  149.6097 C   0  0  0  0  0  0  0  0  0  0  0  0
  146.2568  133.3064  150.5447 C   0  0  2  0  0  0  0  0  0  0  0  0
  146.1906  132.5612  151.8748 C   0  0  0  0  0  0  0  0  0  0  0  0
  148.1041  141.7444  154.3302 C   0  0  0  0  0  0  0  0  0  0  0  0
  149.0451  142.1938  155.1891 N   0  3  0  0  0  0  0  0  0  0  0  0
  151.8028  141.3140  156.9123 H   0  0  0  0  0  0  0  0  0  0  0  0
  150.5501  142.4262  157.4726 H   0  0  0  0  0  0  0  0  0  0  0  0
  151.5850  142.8726  156.1094 H   0  0  0  0  0  0  0  0  0  0  0  0
  150.9881  139.4618  155.5229 H   0  0  0  0  0  0  0  0  0  0  0  0
  149.2894  138.5640  153.9318 H   0  0  0  0  0  0  0  0  0  0  0  0
  146.4049  140.7009  152.6732 H   0  0  0  0  0  0  0  0  0  0  0  0
  147.6056  139.6753  151.9274 H   0  0  0  0  0  0  0  0  0  0  0  0
  146.7538  138.4231  154.4177 H   0  0  0  0  0  0  0  0  0  0  0  0
  145.3256  138.8460  153.5015 H   0  0  0  0  0  0  0  0  0  0  0  0
  147.5792  137.3477  152.2460 H   0  0  0  0  0  0  0  0  0  0  0  0
  147.1187  135.6423  151.1624 H   0  0  0  0  0  0  0  0  0  0  0  0
  144.9180  134.8748  149.8547 H   0  0  0  0  0  0  0  0  0  0  0  0
  144.3314  134.4483  152.7344 H   0  0  0  0  0  0  0  0  0  0  0  0
  143.2743  134.1110  151.3676 H   0  0  0  0  0  0  0  0  0  0  0  0
  144.2260  131.9810  152.7199 H   0  0  0  0  0  0  0  0  0  0  0  0
  144.4853  130.6998  150.6198 H   0  0  0  0  0  0  0  0  0  0  0  0
  143.4003  132.0022  150.1334 H   0  0  0  0  0  0  0  0  0  0  0  0
  146.1739  131.5293  149.2836 H   0  0  0  0  0  0  0  0  0  0  0  0
  145.1227  132.8258  148.7181 H   0  0  0  0  0  0  0  0  0  0  0  0
  147.2628  133.5500  150.2004 H   0  0  0  0  0  0  0  0  0  0  0  0
  146.5889  133.1330  152.7147 H   0  0  0  0  0  0  0  0  0  0  0  0
  146.6733  131.5826  151.8477 H   0  0  0  0  0  0  0  0  0  0  0  0
  147.3399  142.4555  154.0518 H   0  0  0  0  0  0  0  0  0  0  0  0
  148.9822  143.1568  155.5202 H   0  0  0  0  0  0  0  0  0  0  0  0
  1  2  1  0  0  0  0
  1 21  1  0  0  0  0
  1 22  1  0  0  0  0
  1 23  1  0  0  0  0
  2 20  1  0  0  0  0
  2  3  2  0  0  0  0
  3  4  1  0  0  0  0
  3 24  1  0  0  0  0
  4  5  2  0  0  0  0
  4 25  1  0  0  0  0
  5  6  1  0  0  0  0
  5 19  1  0  0  0  0
  6  7  1  0  0  0  0
  6 26  1  0  0  0  0
  6 27  1  0  0  0  0
  7  8  1  0  0  0  0
  7 28  1  0  0  0  0
  7 29  1  0  0  0  0
  8  9  1  0  0  0  0
  8 30  1  0  0  0  0
  9 10  2  0  0  0  0
  9 11  1  0  0  0  0
 11 12  1  0  0  0  0
 11 31  1  0  0  0  0
 12 17  1  0  0  0  0
 12 13  1  0  0  0  0
 12 32  1  0  0  0  0
 13 14  1  0  0  0  0
 13 33  1  0  0  0  0
 13 34  1  0  0  0  0
 14 18  1  0  0  0  0
 14 15  1  0  0  0  0
 14 35  1  0  0  0  0
 15 16  1  0  0  0  0
 15 36  1  0  0  0  0
 15 37  1  0  0  0  0
 16 17  1  0  0  0  0
 16 38  1  0  0  0  0
 16 39  1  0  0  0  0
 17 18  1  0  0  0  0
 17 40  1  0  0  0  0
 18 41  1  0  0  0  0
 18 42  1  0  0  0  0
 19 20  2  0  0  0  0
 19 43  1  0  0  0  0
 20 44  1  0  0  0  0
M  CHG  1  20   1
M  END
> <s_m_source_file>
AV-unprocessed.smi

> <i_m_source_file_index>
753

> <i_lp_mmshare_version>
43012

> <i_f3d_flags>
0

> <s_epik_input>
W0NIM11jMVtjSF1bY0hdYyhbY0hdbjEpW0NIMl1bQ0gyXVtOSF1DKD1PKVtOSF1bQ0BIXShbQ0gyXVtDQEBIXTIzKVtDQEBIXShbQ0gyXTMpW0NIMl1bQ0gyXTI=

> <s_epik_cmdline>
J2VwaWtfcHl0aG9uJywgJy1waCcsICc3LjAnLCAnLXRuJywgJzgnLCAnLW1hJywgJzIwMCcsICctbWV0YWxfYmluZGluZycsICctaW1hZScsICc8aW5maWxlLm1hZT4nLCAnLW9tYWUnLCAnPG91dGZpbGUubWFlPic=

> <r_epik_Ionization_Penalty>
1.41708

> <r_epik_Ionization_Penalty_Charging>
1.41702

> <r_epik_Ionization_Penalty_Neutral>
5.73163e-05

> <r_epik_State_Penalty>
1.50048

> <r_epik_Charging_Adjusted_Penalty>
2.9175

> <i_epik_Tot_Q>
1

> <i_epik_Tot_abs_Q>
1

> <r_epik_Metal_State_Penalty>
1.55295

> <b_epik_Metal_Only>
0

> <s_lp_Force_Field>
OPLS_2005

> <r_lp_Energy>
57.028

> <b_lp_Chiralities_Consistent>
1

> <s_lp_Variant>
AV-unprocessed.smi:753-5

> <Gold.Version>
5.8.1

> <Gold.Id.Protein>
6NUR|6NUR_protein|mol2

> <Gold.PLP.Fitness>
51.7627

> <Gold.PLP.PLP>
-41.6220

> <Gold.PLP.part.hbond>
-3.0000

> <Gold.PLP.part.metal>
0.0000

> <Gold.PLP.part.buried>
-2.6436

> <Gold.PLP.part.nonpolar>
-35.7863

> <Gold.PLP.part.repulsive>
0.4965

> <Gold.PLP.ligand.clash>
0.0000

> <Gold.PLP.ligand.torsion>
0.8137

> <Gold.PLP.Chemscore.Hbond>
3.9120

> <Gold.PLP.Chemscore.CHOScore>
0.0000

> <Gold.PLP.Chemscore.Metal>
0.0000

> <Gold.Chemscore.Hbonds>
donor molecule, donor type, donor heavy atom, donor atom, acceptor molecule, acceptor atom, score
      L1  H     8    30       P1  7948  1.00
      L1  H    11    31       P1  7948  0.90
      L1  H    20    44       P1  8028  2.00

> <Gold.PLP.Chemscore.Internal.Correction>
0.0322

> <Gold.Rescore>
     Score         DG    S(hbond)    S(metal)    S(lipo)     H(rot)  DE(clash)    DE(int)     intcor
     20.92     -23.13       2.74        0.00     105.62       1.50       0.01       2.20       ----

> <Gold.Chemscore.Fitness>
20.9241

> <Gold.Chemscore.DG>
-23.1318

> <Gold.Chemscore.ZeroCoef>
-5.4800

> <Gold.Chemscore.Hbond>
2.7368

> <Gold.Chemscore.Metal>
0.0000

> <Gold.Chemscore.Lipo>
105.6212

> <Gold.Chemscore.Internal_Hbond>
0.0000

> <Gold.Chemscore.DEClash>
0.0126

> <Gold.Chemscore.DEInternal>
2.1951

> <Gold.Chemscore.Rot>
1.5027

> <Gold.Chemscore.Internal.Correction>
   9.000000E+99

> <Gold.Chemscore.Hbonds>
donor molecule, donor type, donor heavy atom, donor atom, acceptor molecule, acceptor atom, score
      L1  H     8    30       P1  7948  0.95
      L1  H    11    31       P1  7948  0.78
      L1  H    20    44       P1  8028  0.97

> <Gold.Chemscore.Hbond.Weighted>
-9.1410

> <Gold.Chemscore.Metal.Weighted>
-0.0000

> <Gold.Chemscore.Lipo.Weighted>
-12.3577

> <Gold.Chemscore.Internal_Hbond.Weighted>
0.0000

> <Gold.Chemscore.DEClash.Weighted>
0.0126

> <Gold.Chemscore.DEInternal.Weighted>
2.1951

> <Gold.Chemscore.Rot.Weighted>
3.8468

> <Gold.Chemscore.Internal.Correction.Weighted>
   9.000000E+99

> <Gold.Protein.RotatedTorsions>
[ 6907 6896 6895 6894 ] final -168.58 input  -60.11 | X-H torsion
[ 7974 7965 7964 7962 ] final -176.96 input  175.53 | X-H torsion
[ 8008 7997 7996 7995 ] final   74.85 input   59.86 | X-H torsion
[ 10167 10162 10161 10158 ] final  144.95 input  -65.29 | X-H torsion
[ 10718 10713 10712 10709 ] final    1.34 input   66.30 | X-H torsion
[ 10763 10752 10751 10750 ] final  -13.49 input  -60.55 | X-H torsion
[ 11005 11000 10999 10996 ] final -137.46 input  -57.11 | X-H torsion

> <Gold.Protein.ActiveResidues>
 VAL166  LYS551  ARG553  GLY616  TRP617  ASP618  TYR619  PRO620  LYS621  CYS622 
 ASP623  PHE694  ASN695  SER759  ASP760  ASP761  ALA762  ILE779  LEU786  VAL792 
 PHE793  MET794  SER795  GLU796  ALA797  LYS798  CYS799  TRP800  GLU811  SER814 

> <Gold.Protein.RotatedAtoms>
  151.4778  133.3553  159.2833 H   0  0  0  0  0  0  0  0  0  0  0  0  # atno 6907 bound_to 6896
  150.8917  134.8323  159.7309 H   0  0  0  0  0  0  0  0  0  0  0  0  # atno 6908 bound_to 6896
  152.4827  134.4689  159.9681 H   0  0  0  0  0  0  0  0  0  0  0  0  # atno 6909 bound_to 6896
  144.7127  140.1092  143.6412 H   0  0  0  0  0  0  0  0  0  0  0  0  # atno 7974 bound_to 7965
  155.8043  140.3475  155.5421 H   0  0  0  0  0  0  0  0  0  0  0  0  # atno 8008 bound_to 7997
  155.8506  140.0955  157.1697 H   0  0  0  0  0  0  0  0  0  0  0  0  # atno 8009 bound_to 7997
  154.4007  140.1377  156.3826 H   0  0  0  0  0  0  0  0  0  0  0  0  # atno 8010 bound_to 7997
  139.4936  144.5936  151.6630 H   0  0  0  0  0  0  0  0  0  0  0  0  # atno 10167 bound_to 10162
  156.8467  130.5540  149.5673 H   0  0  0  0  0  0  0  0  0  0  0  0  # atno 10718 bound_to 10713
  153.5141  135.7016  153.5765 H   0  0  0  0  0  0  0  0  0  0  0  0  # atno 10763 bound_to 10752
  153.3843  135.3912  155.1879 H   0  0  0  0  0  0  0  0  0  0  0  0  # atno 10764 bound_to 10752
  154.8700  135.3843  154.4623 H   0  0  0  0  0  0  0  0  0  0  0  0  # atno 10765 bound_to 10752
  140.8709  134.2052  157.4651 H   0  0  0  0  0  0  0  0  0  0  0  0  # atno 11005 bound_to 11000
  145.9470  139.2707  143.1235 LP  0  0  0  0  0  0  0  0  0  0  0  0  # atno 17320 bound_to 7965
  145.9364  140.9012  143.0330 LP  0  0  0  0  0  0  0  0  0  0  0  0  # atno 17321 bound_to 7965
  140.5568  144.0334  150.6151 LP  0  0  0  0  0  0  0  0  0  0  0  0  # atno 17342 bound_to 10162
  140.3407  143.3021  152.0591 LP  0  0  0  0  0  0  0  0  0  0  0  0  # atno 17343 bound_to 10162
  156.0850  130.5851  150.9632 LP  0  0  0  0  0  0  0  0  0  0  0  0  # atno 17370 bound_to 10713
  157.6326  131.0919  150.8412 LP  0  0  0  0  0  0  0  0  0  0  0  0  # atno 17371 bound_to 10713
  139.8712  134.9773  156.4956 LP  0  0  0  0  0  0  0  0  0  0  0  0  # atno 17394 bound_to 11000
  140.8574  133.8085  155.9230 LP  0  0  0  0  0  0  0  0  0  0  0  0  # atno 17395 bound_to 11000

$$$$
