#       Name:                AV-unprocessed.smi:315
#       Creating user name   scv26
#       Creation time:       Thu Mar 26 22:22:35 2020


#       File generated by GOLD software.
#

@<TRIPOS>MOLECULE
AV-unprocessed.smi:315
    52    54     1
SMALL
NO_CHARGES


@<TRIPOS>ATOM
      1 ****        -1.6199   3.6719  -0.0052 C.3            1 S1                 0.0000
      2 ****        -0.1290   4.0173  -0.0326 C.3            1 S1                 0.0000
      3 ****         0.6157   2.8039  -0.0397 O.3            1 S1                 0.0000
      4 ****         1.9963   2.8701  -0.0490 C.ar           1 S1                 0.0000
      5 ****         2.5870   4.0908  -0.0804 N.ar           1 S1                 0.0000
      6 ****         3.9346   4.1513  -0.0899 C.ar           1 S1                 0.0000
      7 ****         4.7577   3.0099  -0.0769 C.ar           1 S1                 0.0000
      8 ****         4.1469   1.7426  -0.0452 C.ar           1 S1                 0.0000
      9 ****         2.7338   1.6644  -0.0194 C.ar           1 S1                 0.0000
     10 ****         2.0105   0.4420  -0.0050 N.am           1 S1                 0.0000
     11 ****         2.4014  -0.7660   0.4438 C.2            1 S1                 0.0000
     12 ****         3.5098  -1.0165   0.9110 O.2            1 S1                 0.0000
     13 ****         1.4500  -1.7130   0.3610 N.am           1 S1                 0.0000
     14 ****         1.5475  -3.1184   0.7597 C.3            1 S1                 0.0000
     15 ****         1.4623  -3.3450   2.2783 C.3            1 S1                 0.0000
     16 ****         0.6076  -4.6151   2.4571 C.3            1 S1                 0.0000
     17 ****         0.3354  -5.1378   1.0988 N.4            1 S1                 1.0000
     18 ****         1.2833  -6.2203   0.7160 C.3            1 S1                 0.0000
     19 ****         1.1585  -6.5994  -0.7652 C.3            1 S1                 0.0000
     20 ****         1.4021  -5.3718  -1.6464 C.3            1 S1                 0.0000
     21 ****         0.3939  -4.2750  -1.2855 C.3            1 S1                 0.0000
     22 ****         0.3721  -3.9414   0.2233 C.3            1 S1                 0.0000
     23 ****        -2.2289   4.5760   0.0002 H              1 S1                 0.0000
     24 ****        -1.8717   3.0938   0.8843 H              1 S1                 0.0000
     25 ****        -1.9013   3.0839  -0.8791 H              1 S1                 0.0000
     26 ****         0.0948   4.6078  -0.9225 H              1 S1                 0.0000
     27 ****         0.1246   4.6150   0.8444 H              1 S1                 0.0000
     28 ****         4.3703   5.1393  -0.1145 H              1 S1                 0.0000
     29 ****         5.8333   3.1045  -0.0948 H              1 S1                 0.0000
     30 ****         4.7695   0.8613  -0.0548 H              1 S1                 0.0000
     31 ****         1.0447   0.5144  -0.2891 H              1 S1                 0.0000
     32 ****         0.5584  -1.4208  -0.0129 H              1 S1                 0.0000
     33 ****         2.4781  -3.5466   0.3832 H              1 S1                 0.0000
     34 ****         2.4572  -3.4657   2.7083 H              1 S1                 0.0000
     35 ****         0.9876  -2.5033   2.7850 H              1 S1                 0.0000
     36 ****         1.0852  -5.3529   3.1035 H              1 S1                 0.0000
     37 ****        -0.3450  -4.3511   2.9182 H              1 S1                 0.0000
     38 ****         2.3084  -5.9086   0.9231 H              1 S1                 0.0000
     39 ****         1.0930  -7.0951   1.3387 H              1 S1                 0.0000
     40 ****         1.8770  -7.3823  -1.0106 H              1 S1                 0.0000
     41 ****         0.1682  -7.0119  -0.9631 H              1 S1                 0.0000
     42 ****         2.4217  -5.0092  -1.5115 H              1 S1                 0.0000
     43 ****         1.3038  -5.6383  -2.6991 H              1 S1                 0.0000
     44 ****         0.5928  -3.3753  -1.8686 H              1 S1                 0.0000
     45 ****        -0.6009  -4.6101  -1.5822 H              1 S1                 0.0000
     46 ****        -0.5449  -3.3827   0.4228 H              1 S1                 0.0000
     47 ****        -0.5947  -5.5310   1.0712 H              1 S1                 0.0000
     48 ****         0.3403   2.2948  -0.8552 LP             1 S1                 0.0000
     49 ****         0.3514   2.2921   0.7778 LP             1 S1                 0.0000
     50 ****         2.0368   4.9257  -0.0961 LP             1 S1                 0.0000
     51 ****         4.1986  -0.2948   0.9788 LP             1 S1                 0.0000
     52 ****         3.7231  -1.9422   1.2235 LP             1 S1                 0.0000
@<TRIPOS>BOND
    1    1    2 1     
    2    1   23 1     
    3    1   24 1     
    4    1   25 1     
    5    2    3 1     
    6    2   26 1     
    7    2   27 1     
    8    3    4 1     
    9    4    9 ar    
   10    4    5 ar    
   11    5    6 ar    
   12    6    7 ar    
   13    6   28 1     
   14    7    8 ar    
   15    7   29 1     
   16    8    9 ar    
   17    8   30 1     
   18    9   10 1     
   19   10   11 am    
   20   10   31 1     
   21   11   12 2     
   22   11   13 am    
   23   13   14 1     
   24   13   32 1     
   25   14   22 1     
   26   14   15 1     
   27   14   33 1     
   28   15   16 1     
   29   15   34 1     
   30   15   35 1     
   31   16   17 1     
   32   16   36 1     
   33   16   37 1     
   34   17   22 1     
   35   17   18 1     
   36   17   47 1     
   37   18   19 1     
   38   18   38 1     
   39   18   39 1     
   40   19   20 1     
   41   19   40 1     
   42   19   41 1     
   43   20   21 1     
   44   20   42 1     
   45   20   43 1     
   46   21   22 1     
   47   21   44 1     
   48   21   45 1     
   49   22   46 1     
   50    3   48 1     
   51    3   49 1     
   52    5   50 1     
   53   12   51 1     
   54   12   52 1     
@<TRIPOS>SUBSTRUCTURE
      1 S1             1
@<TRIPOS>SET
LONE_PAIRS      STATIC     ATOMS    <user>   **** ""
5 48 49 50 51 52
DONOR_HYDROGENS      STATIC     ATOMS    <user>   **** ""
3 31 32 47
ATOM$BLUE        STATIC     ATOMS    COLORGROUP SYSTEM
5 48 49 50 51 52
ATOM$RED        STATIC     ATOMS    COLORGROUP SYSTEM
3 31 32 47
