AV-unprocessed.smi:114|AV-procd|sdf|1113|dock8
  -GOLD-   2262018233D 1   1.00000     0.00000
 Structure written by MMmdl.
 32 34  0  0  0  0  0  0  0  0  1 V2000
  144.3725  133.6956  153.5048 N   0  0  0  0  0  0  0  0  0  0  0  0
  145.1449  134.4923  154.2567 C   0  0  0  0  0  0  0  0  0  0  0  0
  145.6928  133.9815  155.3835 N   0  0  0  0  0  0  0  0  0  0  0  0
  146.4676  134.7448  156.1639 C   0  0  0  0  0  0  0  0  0  0  0  0
  146.9720  134.1533  157.2721 F   0  0  0  0  0  0  0  0  0  0  0  0
  146.7973  136.0265  155.9724 N   0  0  0  0  0  0  0  0  0  0  0  0
  146.2480  136.5471  154.8369 C   0  0  0  0  0  0  0  0  0  0  0  0
  145.4117  135.8440  153.9285 C   0  0  0  0  0  0  0  0  0  0  0  0
  145.0319  136.6802  152.8880 N   0  0  0  0  0  0  0  0  0  0  0  0
  145.6119  137.8152  153.1714 C   0  0  0  0  0  0  0  0  0  0  0  0
  146.3589  137.8278  154.3291 N   0  0  0  0  0  0  0  0  0  0  0  0
  147.1207  138.9873  154.8998 C   0  0  2  0  0  0  0  0  0  0  0  0
  146.3732  140.1585  154.7476 O   0  0  0  0  0  0  0  0  0  0  0  0
  147.0870  141.1139  153.9626 C   0  0  1  0  0  0  0  0  0  0  0  0
  146.7400  142.5354  154.4316 C   0  0  0  0  0  0  0  0  0  0  0  0
  146.9427  142.6508  155.8237 O   0  0  0  0  0  0  0  0  0  0  0  0
  148.5489  140.7316  154.2026 C   0  0  2  0  0  0  0  0  0  0  0  0
  149.4282  141.2388  153.2161 O   0  0  0  0  0  0  0  0  0  0  0  0
  148.4898  139.2108  154.2287 C   0  0  2  0  0  0  0  0  0  0  0  0
  148.5951  138.6328  152.9366 O   0  0  0  0  0  0  0  0  0  0  0  0
  147.2056  138.7640  155.9640 H   0  0  0  0  0  0  0  0  0  0  0  0
  146.8458  140.9786  152.9070 H   0  0  0  0  0  0  0  0  0  0  0  0
  148.8674  141.0928  155.1818 H   0  0  0  0  0  0  0  0  0  0  0  0
  149.2757  138.7877  154.8550 H   0  0  0  0  0  0  0  0  0  0  0  0
  143.9509  134.0555  152.6606 H   0  0  0  0  0  0  0  0  0  0  0  0
  144.2127  132.7387  153.7845 H   0  0  0  0  0  0  0  0  0  0  0  0
  145.5054  138.6853  152.5399 H   0  0  0  0  0  0  0  0  0  0  0  0
  147.3259  143.2847  153.8984 H   0  0  0  0  0  0  0  0  0  0  0  0
  145.6884  142.7481  154.2372 H   0  0  0  0  0  0  0  0  0  0  0  0
  147.7437  143.1293  155.9729 H   0  0  0  0  0  0  0  0  0  0  0  0
  149.6372  140.5423  152.6129 H   0  0  0  0  0  0  0  0  0  0  0  0
  149.1902  139.1558  152.4217 H   0  0  0  0  0  0  0  0  0  0  0  0
  1  2  1  0  0  0  0
  1 25  1  0  0  0  0
  1 26  1  0  0  0  0
  2  8  1  0  0  0  0
  2  3  2  0  0  0  0
  3  4  1  0  0  0  0
  4  5  1  0  0  0  0
  4  6  2  0  0  0  0
  6  7  1  0  0  0  0
  7 11  1  0  0  0  0
  7  8  2  0  0  0  0
  8  9  1  0  0  0  0
  9 10  2  0  0  0  0
 10 11  1  0  0  0  0
 10 27  1  0  0  0  0
 11 12  1  0  0  0  0
 12 21  1  0  0  0  0
 12 19  1  0  0  0  0
 12 13  1  0  0  0  0
 13 14  1  0  0  0  0
 14 22  1  0  0  0  0
 14 15  1  0  0  0  0
 14 17  1  0  0  0  0
 15 16  1  0  0  0  0
 15 28  1  0  0  0  0
 15 29  1  0  0  0  0
 16 30  1  0  0  0  0
 17 23  1  0  0  0  0
 17 18  1  0  0  0  0
 17 19  1  0  0  0  0
 18 31  1  0  0  0  0
 19 24  1  0  0  0  0
 19 20  1  0  0  0  0
 20 32  1  0  0  0  0
M  END
> <s_m_source_file>
AV-unprocessed.smi

> <i_m_source_file_index>
114

> <i_lp_mmshare_version>
43012

> <i_f3d_flags>
0

> <s_epik_input>
RmMobjEpbmMoW05IMl0pYyhjMTIpbltjSF1uMltDQEBIXTNPW0NASF0oW0NIMl1bT0hdKVtDQEBIXShbT0hdKVtDQEBIXTNbT0hd

> <s_epik_cmdline>
J2VwaWtfcHl0aG9uJywgJy1waCcsICc3LjAnLCAnLXRuJywgJzgnLCAnLW1hJywgJzIwMCcsICctbWV0YWxfYmluZGluZycsICctaW1hZScsICc8aW5maWxlLm1hZT4nLCAnLW9tYWUnLCAnPG91dGZpbGUubWFlPic=

> <r_lp_tautomer_probability>
1

> <r_epik_Ionization_Penalty>
1.13199e-05

> <r_epik_Ionization_Penalty_Charging>
0

> <r_epik_Ionization_Penalty_Neutral>
1.13199e-05

> <r_epik_State_Penalty>
-0

> <r_epik_Charging_Adjusted_Penalty>
0

> <i_epik_Tot_Q>
0

> <i_epik_Tot_abs_Q>
0

> <r_epik_Metal_State_Penalty>
-0

> <b_epik_Metal_Only>
0

> <s_epik_Chemistry_Notes>
This compound contains an acetal/aminal-like group ( X-CH(R)-Y where X, Y are N, S, or O) that may be acid/base labile, releasing an aldehyde.

> <s_lp_Force_Field>
OPLS_2005

> <r_lp_Energy>
45.5286

> <b_lp_Chiralities_Consistent>
1

> <s_lp_Variant>
AV-unprocessed.smi:114-7

> <Gold.Version>
5.8.1

> <Gold.Id.Protein>
6NUR|6NUR_protein|mol2

> <Gold.PLP.Fitness>
34.8660

> <Gold.PLP.PLP>
-19.4745

> <Gold.PLP.part.hbond>
-6.1154

> <Gold.PLP.part.metal>
0.0000

> <Gold.PLP.part.buried>
-1.8539

> <Gold.PLP.part.nonpolar>
-11.1526

> <Gold.PLP.part.repulsive>
0.3233

> <Gold.PLP.ligand.clash>
0.0000

> <Gold.PLP.ligand.torsion>
0.5778

> <Gold.PLP.Chemscore.Hbond>
4.5241

> <Gold.PLP.Chemscore.CHOScore>
0.9889

> <Gold.PLP.Chemscore.Metal>
0.0000

> <Gold.Chemscore.Hbonds>
donor molecule, donor type, donor heavy atom, donor atom, acceptor molecule, acceptor atom, score
      L1  H     1    26       P1 10957  0.63
      L1  H    16    30       P1  8028  0.98
      L1  H    18    31       P1  7957  0.93
      L1  H    20    32       P1  7957  1.00
      P1  H  8011  8017       L1    18  0.86
      L1  C    10    27       P1 10175  0.96

> <Gold.PLP.Chemscore.Internal.Correction>
0.0080

> <Gold.Rescore>
     Score         DG    S(hbond)    S(metal)    S(lipo)     H(rot)  DE(clash)    DE(int)     intcor
     10.65     -11.50       3.90        0.00      28.07       4.03       0.27       0.57       ----

> <Gold.Chemscore.Fitness>
10.6547

> <Gold.Chemscore.DG>
-11.4956

> <Gold.Chemscore.ZeroCoef>
-5.4800

> <Gold.Chemscore.Hbond>
3.9050

> <Gold.Chemscore.Metal>
0.0000

> <Gold.Chemscore.Lipo>
28.0689

> <Gold.Chemscore.Internal_Hbond>
0.0000

> <Gold.Chemscore.DEClash>
0.2686

> <Gold.Chemscore.DEInternal>
0.5723

> <Gold.Chemscore.Rot>
4.0277

> <Gold.Chemscore.Internal.Correction>
   9.000000E+99

> <Gold.Chemscore.Hbonds>
donor molecule, donor type, donor heavy atom, donor atom, acceptor molecule, acceptor atom, score
      L1  H     1    26       P1 10957  0.45
      L1  H    16    30       P1  8028  0.24
      L1  H    18    31       P1  7957  0.85
      L1  H    20    32       P1  7957  0.95
      P1  H  8011  8017       L1    18  0.16

> <Gold.Chemscore.Hbond.Weighted>
-13.0425

> <Gold.Chemscore.Metal.Weighted>
-0.0000

> <Gold.Chemscore.Lipo.Weighted>
-3.2841

> <Gold.Chemscore.Internal_Hbond.Weighted>
0.0000

> <Gold.Chemscore.DEClash.Weighted>
0.2686

> <Gold.Chemscore.DEInternal.Weighted>
0.5723

> <Gold.Chemscore.Rot.Weighted>
10.3110

> <Gold.Chemscore.Internal.Correction.Weighted>
   9.000000E+99

> <Gold.Protein.RotatedTorsions>
[ 6907 6896 6895 6894 ] final   37.56 input  -60.11 | X-H torsion
[ 7974 7965 7964 7962 ] final  -69.50 input  175.53 | X-H torsion
[ 8008 7997 7996 7995 ] final -140.39 input   59.86 | X-H torsion
[ 10167 10162 10161 10158 ] final -178.46 input  -65.29 | X-H torsion
[ 10718 10713 10712 10709 ] final  134.64 input   66.30 | X-H torsion
[ 10763 10752 10751 10750 ] final -147.20 input  -60.55 | X-H torsion
[ 11005 11000 10999 10996 ] final  136.24 input  -57.11 | X-H torsion

> <Gold.Protein.ActiveResidues>
 VAL166  LYS551  ARG553  GLY616  TRP617  ASP618  TYR619  PRO620  LYS621  CYS622 
 ASP623  PHE694  ASN695  SER759  ASP760  ASP761  ALA762  ILE779  LEU786  VAL792 
 PHE793  MET794  SER795  GLU796  ALA797  LYS798  CYS799  TRP800  GLU811  SER814 

> <Gold.Protein.RotatedAtoms>
  152.1448  134.9034  160.0551 H   0  0  0  0  0  0  0  0  0  0  0  0  # atno 6907 bound_to 6896
  152.0088  133.3848  159.4219 H   0  0  0  0  0  0  0  0  0  0  0  0  # atno 6908 bound_to 6896
  150.6869  134.3675  159.5021 H   0  0  0  0  0  0  0  0  0  0  0  0  # atno 6909 bound_to 6896
  145.7029  140.9109  143.0721 H   0  0  0  0  0  0  0  0  0  0  0  0  # atno 7974 bound_to 7965
  155.4606  140.0545  157.2991 H   0  0  0  0  0  0  0  0  0  0  0  0  # atno 8008 bound_to 7997
  154.4739  140.2052  155.9881 H   0  0  0  0  0  0  0  0  0  0  0  0  # atno 8009 bound_to 7997
  156.1100  140.3205  155.8064 H   0  0  0  0  0  0  0  0  0  0  0  0  # atno 8010 bound_to 7997
  139.5431  144.2308  152.0935 H   0  0  0  0  0  0  0  0  0  0  0  0  # atno 10167 bound_to 10162
  157.4651  131.1076  150.9872 H   0  0  0  0  0  0  0  0  0  0  0  0  # atno 10718 bound_to 10713
  154.8298  135.3366  154.6780 H   0  0  0  0  0  0  0  0  0  0  0  0  # atno 10763 bound_to 10752
  153.7401  135.6946  153.4973 H   0  0  0  0  0  0  0  0  0  0  0  0  # atno 10764 bound_to 10752
  153.2250  135.4436  155.0483 H   0  0  0  0  0  0  0  0  0  0  0  0  # atno 10765 bound_to 10752
  140.0033  134.9469  157.0119 H   0  0  0  0  0  0  0  0  0  0  0  0  # atno 11005 bound_to 11000
  144.6963  139.8972  143.7456 LP  0  0  0  0  0  0  0  0  0  0  0  0  # atno 17320 bound_to 7965
  146.0781  139.3769  143.0481 LP  0  0  0  0  0  0  0  0  0  0  0  0  # atno 17321 bound_to 7965
  140.1790  144.4863  150.6538 LP  0  0  0  0  0  0  0  0  0  0  0  0  # atno 17342 bound_to 10162
  140.6669  143.2271  151.5720 LP  0  0  0  0  0  0  0  0  0  0  0  0  # atno 17343 bound_to 10162
  157.0655  130.5843  149.5393 LP  0  0  0  0  0  0  0  0  0  0  0  0  # atno 17370 bound_to 10713
  156.0047  130.5131  150.7787 LP  0  0  0  0  0  0  0  0  0  0  0  0  # atno 17371 bound_to 10713
  140.4688  134.1408  155.7200 LP  0  0  0  0  0  0  0  0  0  0  0  0  # atno 17394 bound_to 11000
  141.1658  133.8706  157.1718 LP  0  0  0  0  0  0  0  0  0  0  0  0  # atno 17395 bound_to 11000

$$$$
