AV-unprocessed.smi:1956|AV-procd|sdf|7900|dock4
  -GOLD-   2272010 53D 1   1.00000     0.00000
 Structure written by MMmdl.
 46 47  0  0  0  0  0  0  0  0  2 V2000
  152.2277  140.6874  158.9657 C   0  0  0  0  0  0  0  0  0  0  0  0
  152.7779  140.0556  157.8152 O   0  0  0  0  0  0  0  0  0  0  0  0
  151.9119  139.5751  156.8547 C   0  0  0  0  0  0  0  0  0  0  0  0
  152.4518  138.9609  155.7077 C   0  0  0  0  0  0  0  0  0  0  0  0
  151.5764  138.4697  154.7207 C   0  0  0  0  0  0  0  0  0  0  0  0
  150.1803  138.6019  154.9160 C   0  0  0  0  0  0  0  0  0  0  0  0
  149.1901  138.1680  153.9920 N   0  0  0  0  0  0  0  0  0  0  0  0
  147.9386  138.6261  153.8178 C   0  0  0  0  0  0  0  0  0  0  0  0
  147.4337  139.5745  154.4166 O   0  0  0  0  0  0  0  0  0  0  0  0
  147.2868  137.9147  152.8870 N   0  0  0  0  0  0  0  0  0  0  0  0
  145.9109  138.1549  152.4569 C   0  0  0  0  0  0  0  0  0  0  0  0
  145.3316  137.0074  151.6001 C   0  0  0  0  0  0  0  0  0  0  0  0
  146.0116  135.7064  151.8287 N   0  3  1  0  0  0  0  0  0  0  0  0
  145.9279  135.2642  153.2437 C   0  0  0  0  0  0  0  0  0  0  0  0
  146.7668  133.9977  153.4745 C   0  0  0  0  0  0  0  0  0  0  0  0
  146.3336  132.8735  152.5254 C   0  0  0  0  0  0  0  0  0  0  0  0
  146.3929  133.3533  151.0650 C   0  0  1  0  0  0  0  0  0  0  0  0
  145.9305  132.2556  150.0965 C   0  0  0  0  0  0  0  0  0  0  0  0
  145.5650  134.6425  150.8911 C   0  0  0  0  0  0  0  0  0  0  0  0
  149.7429  139.2403  156.0952 C   0  0  0  0  0  0  0  0  0  0  0  0
  150.5766  139.7145  157.0444 N   0  0  0  0  0  0  0  0  0  0  0  0
  153.0362  141.0037  159.6246 H   0  0  0  0  0  0  0  0  0  0  0  0
  151.5896  140.0056  159.5296 H   0  0  0  0  0  0  0  0  0  0  0  0
  151.6536  141.5753  158.6966 H   0  0  0  0  0  0  0  0  0  0  0  0
  153.5213  138.8729  155.5844 H   0  0  0  0  0  0  0  0  0  0  0  0
  151.9975  138.0181  153.8368 H   0  0  0  0  0  0  0  0  0  0  0  0
  149.4828  137.4307  153.3674 H   0  0  0  0  0  0  0  0  0  0  0  0
  147.7823  137.1619  152.4311 H   0  0  0  0  0  0  0  0  0  0  0  0
  145.2774  138.3276  153.3283 H   0  0  0  0  0  0  0  0  0  0  0  0
  145.8998  139.0858  151.8904 H   0  0  0  0  0  0  0  0  0  0  0  0
  144.2755  136.9021  151.8515 H   0  0  0  0  0  0  0  0  0  0  0  0
  145.3614  137.2665  150.5409 H   0  0  0  0  0  0  0  0  0  0  0  0
  146.2908  136.0559  153.9003 H   0  0  0  0  0  0  0  0  0  0  0  0
  144.8853  135.0822  153.5095 H   0  0  0  0  0  0  0  0  0  0  0  0
  147.8226  134.2239  153.3194 H   0  0  0  0  0  0  0  0  0  0  0  0
  146.6695  133.6692  154.5096 H   0  0  0  0  0  0  0  0  0  0  0  0
  146.9753  132.0026  152.6646 H   0  0  0  0  0  0  0  0  0  0  0  0
  145.3194  132.5562  152.7729 H   0  0  0  0  0  0  0  0  0  0  0  0
  147.4321  133.5858  150.8273 H   0  0  0  0  0  0  0  0  0  0  0  0
  144.8943  131.9722  150.2841 H   0  0  0  0  0  0  0  0  0  0  0  0
  146.5436  131.3595  150.1967 H   0  0  0  0  0  0  0  0  0  0  0  0
  146.0017  132.5888  149.0607 H   0  0  0  0  0  0  0  0  0  0  0  0
  144.5056  134.4365  151.0538 H   0  0  0  0  0  0  0  0  0  0  0  0
  145.6637  134.9920  149.8635 H   0  0  0  0  0  0  0  0  0  0  0  0
  148.6882  139.3751  156.2863 H   0  0  0  0  0  0  0  0  0  0  0  0
  146.9920  135.8668  151.6463 H   0  0  0  0  0  0  0  0  0  0  0  0
  1  2  1  0  0  0  0
  1 22  1  0  0  0  0
  1 23  1  0  0  0  0
  1 24  1  0  0  0  0
  2  3  1  0  0  0  0
  3 21  1  0  0  0  0
  3  4  2  0  0  0  0
  4  5  1  0  0  0  0
  4 25  1  0  0  0  0
  5  6  2  0  0  0  0
  5 26  1  0  0  0  0
  6  7  1  0  0  0  0
  6 20  1  0  0  0  0
  7  8  1  0  0  0  0
  7 27  1  0  0  0  0
  8  9  2  0  0  0  0
  8 10  1  0  0  0  0
 10 11  1  0  0  0  0
 10 28  1  0  0  0  0
 11 12  1  0  0  0  0
 11 29  1  0  0  0  0
 11 30  1  0  0  0  0
 12 13  1  0  0  0  0
 12 31  1  0  0  0  0
 12 32  1  0  0  0  0
 13 19  1  0  0  0  0
 13 14  1  0  0  0  0
 13 46  1  0  0  0  0
 14 15  1  0  0  0  0
 14 33  1  0  0  0  0
 14 34  1  0  0  0  0
 15 16  1  0  0  0  0
 15 35  1  0  0  0  0
 15 36  1  0  0  0  0
 16 17  1  0  0  0  0
 16 37  1  0  0  0  0
 16 38  1  0  0  0  0
 17 18  1  0  0  0  0
 17 19  1  0  0  0  0
 17 39  1  0  0  0  0
 18 40  1  0  0  0  0
 18 41  1  0  0  0  0
 18 42  1  0  0  0  0
 19 43  1  0  0  0  0
 19 44  1  0  0  0  0
 20 21  2  0  0  0  0
 20 45  1  0  0  0  0
M  CHG  1  13   1
M  END
> <s_m_source_file>
AV-unprocessed.smi

> <i_m_source_file_index>
1956

> <i_lp_mmshare_version>
43012

> <i_f3d_flags>
0

> <s_epik_input>
W0NIM11PYzFbY0hdW2NIXWMoW2NIXW4xKVtOSF1DKD1PKVtOSF1bQ0gyXVtDSDJdTjJbQ0gyXVtDSDJdW0NIMl1bQ0BASF0oW0NIM10pW0NIMl0y

> <s_epik_cmdline>
J2VwaWtfcHl0aG9uJywgJy1waCcsICc3LjAnLCAnLXRuJywgJzgnLCAnLW1hJywgJzIwMCcsICctbWV0YWxfYmluZGluZycsICctaW1hZScsICc8aW5maWxlLm1hZT4nLCAnLW9tYWUnLCAnPG91dGZpbGUubWFlPic=

> <r_lp_tautomer_probability>
1

> <r_epik_Ionization_Penalty>
0.00179545

> <r_epik_Ionization_Penalty_Charging>
0.00171832

> <r_epik_Ionization_Penalty_Neutral>
7.7124e-05

> <r_epik_State_Penalty>
0.0011618

> <r_epik_Charging_Adjusted_Penalty>
0.00288012

> <i_epik_Tot_Q>
1

> <i_epik_Tot_abs_Q>
1

> <r_epik_Metal_State_Penalty>
-0

> <b_epik_Metal_Only>
0

> <s_lp_Force_Field>
OPLS_2005

> <r_lp_Energy>
26.1696

> <b_lp_Chiralities_Consistent>
1

> <s_lp_Variant>
AV-unprocessed.smi:1956-1

> <Gold.Version>
5.8.1

> <Gold.Id.Protein>
6NUR|6NUR_protein|mol2

> <Gold.PLP.Fitness>
45.2386

> <Gold.PLP.PLP>
-31.2787

> <Gold.PLP.part.hbond>
-4.2639

> <Gold.PLP.part.metal>
0.0000

> <Gold.PLP.part.buried>
1.2756

> <Gold.PLP.part.nonpolar>
-29.4317

> <Gold.PLP.part.repulsive>
0.2711

> <Gold.PLP.ligand.clash>
0.0053

> <Gold.PLP.ligand.torsion>
0.4675

> <Gold.PLP.Chemscore.Hbond>
4.9440

> <Gold.PLP.Chemscore.CHOScore>
0.0000

> <Gold.PLP.Chemscore.Metal>
0.0000

> <Gold.Chemscore.Hbonds>
donor molecule, donor type, donor heavy atom, donor atom, acceptor molecule, acceptor atom, score
      L1  H     7    27       P1  7948  0.94
      L1  H    10    28       P1  7948  1.00
      L1  H    13    46       P1  7948  2.00
      P1  H  7997  8008       L1     2  0.90

> <Gold.PLP.Chemscore.Internal.Correction>
0.0682

> <Gold.Rescore>
     Score         DG    S(hbond)    S(metal)    S(lipo)     H(rot)  DE(clash)    DE(int)     intcor
     18.98     -22.31       3.43        0.00      83.50       1.71       1.58       1.74       ----

> <Gold.Chemscore.Fitness>
18.9831

> <Gold.Chemscore.DG>
-22.3108

> <Gold.Chemscore.ZeroCoef>
-5.4800

> <Gold.Chemscore.Hbond>
3.4253

> <Gold.Chemscore.Metal>
0.0000

> <Gold.Chemscore.Lipo>
83.5016

> <Gold.Chemscore.Internal_Hbond>
0.0000

> <Gold.Chemscore.DEClash>
1.5831

> <Gold.Chemscore.DEInternal>
1.7447

> <Gold.Chemscore.Rot>
1.7107

> <Gold.Chemscore.Internal.Correction>
   9.000000E+99

> <Gold.Chemscore.Hbonds>
donor molecule, donor type, donor heavy atom, donor atom, acceptor molecule, acceptor atom, score
      L1  H     7    27       P1  7948  0.81
      L1  H    10    28       P1  7948  0.98
      L1  H    13    46       P1  7948  0.98
      P1  H  7997  8008       L1     2  0.17

> <Gold.Chemscore.Hbond.Weighted>
-11.4406

> <Gold.Chemscore.Metal.Weighted>
-0.0000

> <Gold.Chemscore.Lipo.Weighted>
-9.7697

> <Gold.Chemscore.Internal_Hbond.Weighted>
0.0000

> <Gold.Chemscore.DEClash.Weighted>
1.5831

> <Gold.Chemscore.DEInternal.Weighted>
1.7447

> <Gold.Chemscore.Rot.Weighted>
4.3794

> <Gold.Chemscore.Internal.Correction.Weighted>
   9.000000E+99

> <Gold.Protein.RotatedTorsions>
[ 6907 6896 6895 6894 ] final   13.30 input  -60.11 | X-H torsion
[ 7974 7965 7964 7962 ] final  -54.90 input  175.53 | X-H torsion
[ 8008 7997 7996 7995 ] final  -65.11 input   59.86 | X-H torsion
[ 10167 10162 10161 10158 ] final   41.16 input  -65.29 | X-H torsion
[ 10718 10713 10712 10709 ] final  -57.46 input   66.30 | X-H torsion
[ 10763 10752 10751 10750 ] final  -90.19 input  -60.55 | X-H torsion
[ 11005 11000 10999 10996 ] final   29.79 input  -57.11 | X-H torsion

> <Gold.Protein.ActiveResidues>
 VAL166  LYS551  ARG553  GLY616  TRP617  ASP618  TYR619  PRO620  LYS621  CYS622 
 ASP623  PHE694  ASN695  SER759  ASP760  ASP761  ALA762  ILE779  LEU786  VAL792 
 PHE793  MET794  SER795  GLU796  ALA797  LYS798  CYS799  TRP800  GLU811  SER814 

> <Gold.Protein.RotatedAtoms>
  151.7841  135.0753  160.0377 H   0  0  0  0  0  0  0  0  0  0  0  0  # atno 6907 bound_to 6896
  152.3202  133.5841  159.5748 H   0  0  0  0  0  0  0  0  0  0  0  0  # atno 6908 bound_to 6896
  150.7365  133.9938  159.3658 H   0  0  0  0  0  0  0  0  0  0  0  0  # atno 6909 bound_to 6896
  145.8804  140.8149  142.9843 H   0  0  0  0  0  0  0  0  0  0  0  0  # atno 7974 bound_to 7965
  154.4652  140.0940  156.7001 H   0  0  0  0  0  0  0  0  0  0  0  0  # atno 8008 bound_to 7997
  155.4879  140.3470  155.4332 H   0  0  0  0  0  0  0  0  0  0  0  0  # atno 8009 bound_to 7997
  156.0943  140.1405  156.9540 H   0  0  0  0  0  0  0  0  0  0  0  0  # atno 8010 bound_to 7997
  140.3671  144.2154  150.6135 H   0  0  0  0  0  0  0  0  0  0  0  0  # atno 10167 bound_to 10162
  156.1209  130.4166  150.0443 H   0  0  0  0  0  0  0  0  0  0  0  0  # atno 10718 bound_to 10713
  154.6632  135.5313  153.8044 H   0  0  0  0  0  0  0  0  0  0  0  0  # atno 10763 bound_to 10752
  153.0454  135.6511  154.0840 H   0  0  0  0  0  0  0  0  0  0  0  0  # atno 10764 bound_to 10752
  154.0747  135.2951  155.3281 H   0  0  0  0  0  0  0  0  0  0  0  0  # atno 10765 bound_to 10752
  140.3013  134.2754  155.7753 H   0  0  0  0  0  0  0  0  0  0  0  0  # atno 11005 bound_to 11000
  144.6727  140.1374  143.7439 LP  0  0  0  0  0  0  0  0  0  0  0  0  # atno 17320 bound_to 7965
  145.9031  139.2442  143.1482 LP  0  0  0  0  0  0  0  0  0  0  0  0  # atno 17321 bound_to 7965
  140.5070  143.2301  151.8593 LP  0  0  0  0  0  0  0  0  0  0  0  0  # atno 17342 bound_to 10162
  139.4807  144.4994  151.9081 LP  0  0  0  0  0  0  0  0  0  0  0  0  # atno 17343 bound_to 10162
  156.8382  130.9416  151.3633 LP  0  0  0  0  0  0  0  0  0  0  0  0  # atno 17370 bound_to 10713
  157.6392  130.8792  149.9417 LP  0  0  0  0  0  0  0  0  0  0  0  0  # atno 17371 bound_to 10713
  141.2127  133.7648  156.9770 LP  0  0  0  0  0  0  0  0  0  0  0  0  # atno 17394 bound_to 11000
  140.1107  134.9478  157.2061 LP  0  0  0  0  0  0  0  0  0  0  0  0  # atno 17395 bound_to 11000

$$$$
