AV-unprocessed.smi:2451|AV-procd|sdf|9670|dock8
  -GOLD-   2272013313D 1   1.00000     0.00000
 Structure written by MMmdl.
 38 39  0  0  0  0  0  0  0  0  1 V2000
  152.1839  145.0404  158.9225 C   0  0  0  0  0  0  0  0  0  0  0  0
  152.6602  143.5784  158.9265 C   0  0  1  0  0  0  0  0  0  0  0  0
  152.9325  143.0684  160.3580 C   0  0  0  0  0  0  0  0  0  0  0  0
  153.5036  141.6402  160.3547 C   0  0  0  0  0  0  0  0  0  0  0  0
  152.6077  140.6703  159.5686 C   0  0  0  0  0  0  0  0  0  0  0  0
  152.3475  141.1989  158.1468 C   0  0  1  0  0  0  0  0  0  0  0  0
  151.5236  140.2526  157.3896 N   0  0  0  0  0  0  0  0  0  0  0  0
  152.3081  139.0795  156.3999 S   0  0  0  0  0  0  0  0  0  0  0  0
  153.7512  139.1606  156.6742 O   0  0  0  0  0  0  0  0  0  0  0  0
  151.5975  137.8044  156.5814 O   0  0  0  0  0  0  0  0  0  0  0  0
  151.9943  139.7146  154.6998 C   0  0  0  0  0  0  0  0  0  0  0  0
  150.5143  139.8283  154.4697 C   0  0  0  0  0  0  0  0  0  0  0  0
  149.5689  138.7867  154.2578 C   0  0  0  0  0  0  0  0  0  0  0  0
  148.3875  139.4542  154.1081 C   0  0  0  0  0  0  0  0  0  0  0  0
  148.5818  140.7930  154.2127 O   0  0  0  0  0  0  0  0  0  0  0  0
  149.9431  141.0221  154.4419 N   0  0  0  0  0  0  0  0  0  0  0  0
  151.7232  142.6168  158.1471 C   0  0  1  0  0  0  0  0  0  0  0  0
  150.2640  142.6377  158.6600 C   0  0  0  0  0  0  0  0  0  0  0  0
  151.2762  145.1743  159.5108 H   0  0  0  0  0  0  0  0  0  0  0  0
  151.9835  145.3868  157.9084 H   0  0  0  0  0  0  0  0  0  0  0  0
  152.9446  145.6958  159.3478 H   0  0  0  0  0  0  0  0  0  0  0  0
  153.6175  143.5756  158.4027 H   0  0  0  0  0  0  0  0  0  0  0  0
  153.6352  143.7340  160.8603 H   0  0  0  0  0  0  0  0  0  0  0  0
  152.0163  143.0963  160.9488 H   0  0  0  0  0  0  0  0  0  0  0  0
  154.4997  141.6508  159.9106 H   0  0  0  0  0  0  0  0  0  0  0  0
  153.6268  141.2864  161.3785 H   0  0  0  0  0  0  0  0  0  0  0  0
  153.0859  139.6913  159.5209 H   0  0  0  0  0  0  0  0  0  0  0  0
  151.6661  140.5255  160.0987 H   0  0  0  0  0  0  0  0  0  0  0  0
  153.3160  141.2668  157.6482 H   0  0  0  0  0  0  0  0  0  0  0  0
  150.8134  139.8237  157.9826 H   0  0  0  0  0  0  0  0  0  0  0  0
  152.4884  140.6813  154.5984 H   0  0  0  0  0  0  0  0  0  0  0  0
  152.4520  139.0302  153.9859 H   0  0  0  0  0  0  0  0  0  0  0  0
  149.7319  137.7197  154.2265 H   0  0  0  0  0  0  0  0  0  0  0  0
  147.3714  139.1343  153.9302 H   0  0  0  0  0  0  0  0  0  0  0  0
  151.6949  142.9574  157.1108 H   0  0  0  0  0  0  0  0  0  0  0  0
  150.1876  142.3305  159.7024 H   0  0  0  0  0  0  0  0  0  0  0  0
  149.6262  141.9738  158.0766 H   0  0  0  0  0  0  0  0  0  0  0  0
  149.8263  143.6319  158.5767 H   0  0  0  0  0  0  0  0  0  0  0  0
  1  2  1  0  0  0  0
  1 19  1  0  0  0  0
  1 20  1  0  0  0  0
  1 21  1  0  0  0  0
  2 17  1  0  0  0  0
  2  3  1  0  0  0  0
  2 22  1  0  0  0  0
  3  4  1  0  0  0  0
  3 23  1  0  0  0  0
  3 24  1  0  0  0  0
  4  5  1  0  0  0  0
  4 25  1  0  0  0  0
  4 26  1  0  0  0  0
  5  6  1  0  0  0  0
  5 27  1  0  0  0  0
  5 28  1  0  0  0  0
  6  7  1  0  0  0  0
  6 17  1  0  0  0  0
  6 29  1  0  0  0  0
  7  8  1  0  0  0  0
  7 30  1  0  0  0  0
  8  9  2  0  0  0  0
  8 10  2  0  0  0  0
  8 11  1  0  0  0  0
 11 12  1  0  0  0  0
 11 31  1  0  0  0  0
 11 32  1  0  0  0  0
 12 16  2  0  0  0  0
 12 13  1  0  0  0  0
 13 14  2  0  0  0  0
 13 33  1  0  0  0  0
 14 15  1  0  0  0  0
 14 34  1  0  0  0  0
 15 16  1  0  0  0  0
 17 18  1  0  0  0  0
 17 35  1  0  0  0  0
 18 36  1  0  0  0  0
 18 37  1  0  0  0  0
 18 38  1  0  0  0  0
M  END
> <s_m_source_file>
AV-unprocessed.smi

> <i_m_source_file_index>
2451

> <i_lp_mmshare_version>
43012

> <i_f3d_flags>
0

> <s_epik_input>
W0NIM11bQ0BASF0xW0NIMl1bQ0gyXVtDSDJdW0NASF0oW0NASF0xW0NIM10pW05IXVMoPU8pKD1PKVtDSDJdYzJbY0hdW2NIXW9uMg==

> <s_epik_cmdline>
J2VwaWtfcHl0aG9uJywgJy1waCcsICc3LjAnLCAnLXRuJywgJzgnLCAnLW1hJywgJzIwMCcsICctbWV0YWxfYmluZGluZycsICctaW1hZScsICc8aW5maWxlLm1hZT4nLCAnLW9tYWUnLCAnPG91dGZpbGUubWFlPic=

> <r_lp_tautomer_probability>
1

> <r_epik_Ionization_Penalty>
8.73668e-05

> <r_epik_Ionization_Penalty_Charging>
0

> <r_epik_Ionization_Penalty_Neutral>
8.73668e-05

> <r_epik_State_Penalty>
-0

> <r_epik_Charging_Adjusted_Penalty>
0

> <i_epik_Tot_Q>
0

> <i_epik_Tot_abs_Q>
0

> <r_epik_Metal_State_Penalty>
0.0716439

> <b_epik_Metal_Only>
0

> <s_lp_Force_Field>
OPLS_2005

> <r_lp_Energy>
8.89421

> <b_lp_Chiralities_Consistent>
1

> <s_lp_Variant>
AV-unprocessed.smi:2451-2

> <Gold.Version>
5.8.1

> <Gold.Id.Protein>
6NUR|6NUR_protein|mol2

> <Gold.PLP.Fitness>
42.3391

> <Gold.PLP.PLP>
-38.0735

> <Gold.PLP.part.hbond>
-1.7382

> <Gold.PLP.part.metal>
0.0000

> <Gold.PLP.part.buried>
-5.3971

> <Gold.PLP.part.nonpolar>
-31.6647

> <Gold.PLP.part.repulsive>
1.2423

> <Gold.PLP.ligand.clash>
0.0000

> <Gold.PLP.ligand.torsion>
0.9269

> <Gold.PLP.Chemscore.Hbond>
1.9920

> <Gold.PLP.Chemscore.CHOScore>
0.0000

> <Gold.PLP.Chemscore.Metal>
0.0000

> <Gold.Chemscore.Hbonds>
donor molecule, donor type, donor heavy atom, donor atom, acceptor molecule, acceptor atom, score
      P1  H  7997  8010       L1     9  0.12

> <Gold.PLP.Chemscore.Internal.Correction>
0.1434

> <Gold.Rescore>
     Score         DG    S(hbond)    S(metal)    S(lipo)     H(rot)  DE(clash)    DE(int)     intcor
     17.78     -19.12       1.81        0.00     101.27       1.66       0.03       1.31       ----

> <Gold.Chemscore.Fitness>
17.7827

> <Gold.Chemscore.DG>
-19.1238

> <Gold.Chemscore.ZeroCoef>
-5.4800

> <Gold.Chemscore.Hbond>
1.8091

> <Gold.Chemscore.Metal>
0.0000

> <Gold.Chemscore.Lipo>
101.2663

> <Gold.Chemscore.Internal_Hbond>
0.0000

> <Gold.Chemscore.DEClash>
0.0324

> <Gold.Chemscore.DEInternal>
1.3087

> <Gold.Chemscore.Rot>
1.6588

> <Gold.Chemscore.Internal.Correction>
   9.000000E+99

> <Gold.Chemscore.Hbonds>
donor molecule, donor type, donor heavy atom, donor atom, acceptor molecule, acceptor atom, score
      P1  H  7997  8010       L1     9  0.13

> <Gold.Chemscore.Hbond.Weighted>
-6.0423

> <Gold.Chemscore.Metal.Weighted>
-0.0000

> <Gold.Chemscore.Lipo.Weighted>
-11.8482

> <Gold.Chemscore.Internal_Hbond.Weighted>
0.0000

> <Gold.Chemscore.DEClash.Weighted>
0.0324

> <Gold.Chemscore.DEInternal.Weighted>
1.3087

> <Gold.Chemscore.Rot.Weighted>
4.2466

> <Gold.Chemscore.Internal.Correction.Weighted>
   9.000000E+99

> <Gold.Protein.RotatedTorsions>
[ 6907 6896 6895 6894 ] final   87.31 input  -60.11 | X-H torsion
[ 7974 7965 7964 7962 ] final  132.83 input  175.53 | X-H torsion
[ 8008 7997 7996 7995 ] final   37.63 input   59.86 | X-H torsion
[ 10167 10162 10161 10158 ] final  -65.06 input  -65.29 | X-H torsion
[ 10718 10713 10712 10709 ] final  171.58 input   66.30 | X-H torsion
[ 10763 10752 10751 10750 ] final -118.45 input  -60.55 | X-H torsion
[ 11005 11000 10999 10996 ] final  -48.83 input  -57.11 | X-H torsion

> <Gold.Protein.ActiveResidues>
 VAL166  LYS551  ARG553  GLY616  TRP617  ASP618  TYR619  PRO620  LYS621  CYS622 
 ASP623  PHE694  ASN695  SER759  ASP760  ASP761  ALA762  ILE779  LEU786  VAL792 
 PHE793  MET794  SER795  GLU796  ALA797  LYS798  CYS799  TRP800  GLU811  SER814 

> <Gold.Protein.RotatedAtoms>
  152.5409  134.2296  159.8819 H   0  0  0  0  0  0  0  0  0  0  0  0  # atno 6907 bound_to 6896
  151.2268  133.4465  159.2610 H   0  0  0  0  0  0  0  0  0  0  0  0  # atno 6908 bound_to 6896
  151.0753  134.9837  159.8385 H   0  0  0  0  0  0  0  0  0  0  0  0  # atno 6909 bound_to 6896
  144.9928  139.4389  143.5331 H   0  0  0  0  0  0  0  0  0  0  0  0  # atno 7974 bound_to 7965
  155.2069  140.3320  155.4334 H   0  0  0  0  0  0  0  0  0  0  0  0  # atno 8008 bound_to 7997
  156.2385  140.1884  156.7102 H   0  0  0  0  0  0  0  0  0  0  0  0  # atno 8009 bound_to 7997
  154.6103  140.0610  156.9471 H   0  0  0  0  0  0  0  0  0  0  0  0  # atno 8010 bound_to 7997
  140.5757  143.2321  151.6448 H   0  0  0  0  0  0  0  0  0  0  0  0  # atno 10167 bound_to 10162
  156.9915  131.0149  151.2855 H   0  0  0  0  0  0  0  0  0  0  0  0  # atno 10718 bound_to 10713
  154.8588  135.4273  154.2142 H   0  0  0  0  0  0  0  0  0  0  0  0  # atno 10763 bound_to 10752
  153.3161  135.6979  153.7078 H   0  0  0  0  0  0  0  0  0  0  0  0  # atno 10764 bound_to 10752
  153.6152  135.3512  155.2966 H   0  0  0  0  0  0  0  0  0  0  0  0  # atno 10765 bound_to 10752
  141.0724  133.6675  156.3498 H   0  0  0  0  0  0  0  0  0  0  0  0  # atno 11005 bound_to 11000
  146.3435  139.9270  142.8759 LP  0  0  0  0  0  0  0  0  0  0  0  0  # atno 17320 bound_to 7965
  145.2261  140.9955  143.4017 LP  0  0  0  0  0  0  0  0  0  0  0  0  # atno 17321 bound_to 7965
  139.5141  144.3421  152.0731 LP  0  0  0  0  0  0  0  0  0  0  0  0  # atno 17342 bound_to 10162
  140.2564  144.4114  150.6202 LP  0  0  0  0  0  0  0  0  0  0  0  0  # atno 17343 bound_to 10162
  157.5455  130.8148  149.8081 LP  0  0  0  0  0  0  0  0  0  0  0  0  # atno 17370 bound_to 10713
  156.0205  130.3797  150.1976 LP  0  0  0  0  0  0  0  0  0  0  0  0  # atno 17371 bound_to 10713
  140.5646  134.5901  157.5442 LP  0  0  0  0  0  0  0  0  0  0  0  0  # atno 17394 bound_to 11000
  139.9537  134.7573  156.0391 LP  0  0  0  0  0  0  0  0  0  0  0  0  # atno 17395 bound_to 11000

$$$$
