AV-unprocessed.smi:3162|AV-procd|sdf|12064|dock8
  -GOLD-   2272017493D 1   1.00000     0.00000
 Structure written by MMmdl.
 37 37  0  0  0  0  0  0  0  0  2 V2000
  145.5271  136.7287  152.0776 C   0  0  0  0  0  0  0  0  0  0  0  0
  146.1555  138.1279  151.9810 C   0  0  0  0  0  0  0  0  0  0  0  0
  146.5226  138.7636  153.3398 C   0  0  1  0  0  0  0  0  0  0  0  0
  146.5346  140.2397  153.1978 N   0  3  0  0  0  0  0  0  0  0  0  0
  147.2202  140.9973  154.2716 C   0  0  2  0  0  0  0  0  0  0  0  0
  146.3769  142.2294  154.6391 C   0  0  0  0  0  0  0  0  0  0  0  0
  148.6580  141.3750  153.8469 C   0  0  0  0  0  0  0  0  0  0  0  0
  149.6413  141.1022  154.8789 N   0  0  0  0  0  0  0  0  0  0  0  0
  149.8119  141.7328  156.0933 C   0  0  0  0  0  0  0  0  0  0  0  0
  150.8686  141.1360  156.7207 C   0  0  0  0  0  0  0  0  0  0  0  0
  151.4578  141.4452  158.0666 C   0  0  0  0  0  0  0  0  0  0  0  0
  151.2864  140.1411  155.7917 C   0  0  0  0  0  0  0  0  0  0  0  0
  150.5534  140.1257  154.6902 N   0  0  0  0  0  0  0  0  0  0  0  0
  145.5426  138.3309  154.4427 C   0  0  0  0  0  0  0  0  0  0  0  0
  144.2563  138.6516  154.2800 N   0  0  0  0  0  0  0  0  0  0  0  0
  145.9443  137.7200  155.4316 O   0  0  0  0  0  0  0  0  0  0  0  0
  145.3648  136.3106  151.0838 H   0  0  0  0  0  0  0  0  0  0  0  0
  144.5605  136.7526  152.5814 H   0  0  0  0  0  0  0  0  0  0  0  0
  146.1752  136.0422  152.6234 H   0  0  0  0  0  0  0  0  0  0  0  0
  147.0587  138.0473  151.3746 H   0  0  0  0  0  0  0  0  0  0  0  0
  145.4842  138.7871  151.4281 H   0  0  0  0  0  0  0  0  0  0  0  0
  147.5264  138.4301  153.6052 H   0  0  0  0  0  0  0  0  0  0  0  0
  146.9730  140.4795  152.3205 H   0  0  0  0  0  0  0  0  0  0  0  0
  147.2689  140.3680  155.1613 H   0  0  0  0  0  0  0  0  0  0  0  0
  146.7990  142.7657  155.4892 H   0  0  0  0  0  0  0  0  0  0  0  0
  145.3622  141.9404  154.9143 H   0  0  0  0  0  0  0  0  0  0  0  0
  146.3093  142.9283  153.8047 H   0  0  0  0  0  0  0  0  0  0  0  0
  148.9598  140.8321  152.9511 H   0  0  0  0  0  0  0  0  0  0  0  0
  148.7089  142.4357  153.5965 H   0  0  0  0  0  0  0  0  0  0  0  0
  149.1727  142.5443  156.4094 H   0  0  0  0  0  0  0  0  0  0  0  0
  152.5080  141.1584  158.1240 H   0  0  0  0  0  0  0  0  0  0  0  0
  150.9359  140.9159  158.8639 H   0  0  0  0  0  0  0  0  0  0  0  0
  151.4036  142.5094  158.2970 H   0  0  0  0  0  0  0  0  0  0  0  0
  152.0978  139.4342  155.8847 H   0  0  0  0  0  0  0  0  0  0  0  0
  143.5735  138.3863  154.9753 H   0  0  0  0  0  0  0  0  0  0  0  0
  143.9678  139.1585  153.4551 H   0  0  0  0  0  0  0  0  0  0  0  0
  145.5702  140.5391  153.1647 H   0  0  0  0  0  0  0  0  0  0  0  0
  1  2  1  0  0  0  0
  1 17  1  0  0  0  0
  1 18  1  0  0  0  0
  1 19  1  0  0  0  0
  2  3  1  0  0  0  0
  2 20  1  0  0  0  0
  2 21  1  0  0  0  0
  3  4  1  0  0  0  0
  3 14  1  0  0  0  0
  3 22  1  0  0  0  0
  4  5  1  0  0  0  0
  4 23  1  0  0  0  0
  4 37  1  0  0  0  0
  5  6  1  0  0  0  0
  5  7  1  0  0  0  0
  5 24  1  0  0  0  0
  6 25  1  0  0  0  0
  6 26  1  0  0  0  0
  6 27  1  0  0  0  0
  7  8  1  0  0  0  0
  7 28  1  0  0  0  0
  7 29  1  0  0  0  0
  8 13  1  0  0  0  0
  8  9  1  0  0  0  0
  9 10  2  0  0  0  0
  9 30  1  0  0  0  0
 10 11  1  0  0  0  0
 10 12  1  0  0  0  0
 11 31  1  0  0  0  0
 11 32  1  0  0  0  0
 11 33  1  0  0  0  0
 12 13  2  0  0  0  0
 12 34  1  0  0  0  0
 14 15  1  0  0  0  0
 14 16  2  0  0  0  0
 15 35  1  0  0  0  0
 15 36  1  0  0  0  0
M  CHG  1   4   1
M  END
> <s_m_source_file>
AV-unprocessed.smi

> <i_m_source_file_index>
3162

> <i_lp_mmshare_version>
43012

> <i_f3d_flags>
0

> <s_epik_input>
W0NIM11bQ0gyXVtDQEBIXShDKD1PKVtOSDJdKVtOSF1bQ0BIXShbQ0gzXSlbQ0gyXW4xW2NIXWMoW0NIM10pW2NIXW4x

> <s_epik_cmdline>
J2VwaWtfcHl0aG9uJywgJy1waCcsICc3LjAnLCAnLXRuJywgJzgnLCAnLW1hJywgJzIwMCcsICctbWV0YWxfYmluZGluZycsICctaW1hZScsICc8aW5maWxlLm1hZT4nLCAnLW9tYWUnLCAnPG91dGZpbGUubWFlPic=

> <r_lp_tautomer_probability>
1

> <r_epik_Ionization_Penalty>
0.112112

> <r_epik_Ionization_Penalty_Charging>
0.112102

> <r_epik_Ionization_Penalty_Neutral>
9.73799e-06

> <r_epik_State_Penalty>
0.101811

> <r_epik_Charging_Adjusted_Penalty>
0.213914

> <i_epik_Tot_Q>
1

> <i_epik_Tot_abs_Q>
1

> <r_epik_Metal_State_Penalty>
0.101821

> <b_epik_Metal_Only>
0

> <s_lp_Force_Field>
OPLS_2005

> <r_lp_Energy>
4.43066

> <b_lp_Chiralities_Consistent>
1

> <s_lp_Variant>
AV-unprocessed.smi:3162-2

> <Gold.Version>
5.8.1

> <Gold.Id.Protein>
6NUR|6NUR_protein|mol2

> <Gold.PLP.Fitness>
40.7424

> <Gold.PLP.PLP>
-28.9973

> <Gold.PLP.part.hbond>
-3.0000

> <Gold.PLP.part.metal>
0.0000

> <Gold.PLP.part.buried>
0.2314

> <Gold.PLP.part.nonpolar>
-26.5218

> <Gold.PLP.part.repulsive>
0.1078

> <Gold.PLP.ligand.clash>
0.0000

> <Gold.PLP.ligand.torsion>
1.6944

> <Gold.PLP.Chemscore.Hbond>
4.0000

> <Gold.PLP.Chemscore.CHOScore>
1.0000

> <Gold.PLP.Chemscore.Metal>
0.0000

> <Gold.Chemscore.Hbonds>
donor molecule, donor type, donor heavy atom, donor atom, acceptor molecule, acceptor atom, score
      L1  H     4    37       P1 10175  2.00
      L1  H    15    36       P1 10175  1.00
      P1  H  7989  7998       L1    13  1.00
      L1  C     9    30       P1  8028  1.00

> <Gold.PLP.Chemscore.Internal.Correction>
0.1338

> <Gold.Rescore>
     Score         DG    S(hbond)    S(metal)    S(lipo)     H(rot)  DE(clash)    DE(int)     intcor
     13.77     -15.40       2.73        0.00      61.69       2.51       0.26       1.37       ----

> <Gold.Chemscore.Fitness>
13.7702

> <Gold.Chemscore.DG>
-15.4048

> <Gold.Chemscore.ZeroCoef>
-5.4800

> <Gold.Chemscore.Hbond>
2.7314

> <Gold.Chemscore.Metal>
0.0000

> <Gold.Chemscore.Lipo>
61.6915

> <Gold.Chemscore.Internal_Hbond>
0.0000

> <Gold.Chemscore.DEClash>
0.2645

> <Gold.Chemscore.DEInternal>
1.3701

> <Gold.Chemscore.Rot>
2.5062

> <Gold.Chemscore.Internal.Correction>
   9.000000E+99

> <Gold.Chemscore.Hbonds>
donor molecule, donor type, donor heavy atom, donor atom, acceptor molecule, acceptor atom, score
      L1  H     4    37       P1 10175  0.82
      L1  H    15    36       P1 10175  0.99
      P1  H  7989  7998       L1    13  0.12

> <Gold.Chemscore.Hbond.Weighted>
-9.1228

> <Gold.Chemscore.Metal.Weighted>
-0.0000

> <Gold.Chemscore.Lipo.Weighted>
-7.2179

> <Gold.Chemscore.Internal_Hbond.Weighted>
0.0000

> <Gold.Chemscore.DEClash.Weighted>
0.2645

> <Gold.Chemscore.DEInternal.Weighted>
1.3701

> <Gold.Chemscore.Rot.Weighted>
6.4159

> <Gold.Chemscore.Internal.Correction.Weighted>
   9.000000E+99

> <Gold.Protein.RotatedTorsions>
[ 6907 6896 6895 6894 ] final   -9.56 input  -60.11 | X-H torsion
[ 7974 7965 7964 7962 ] final  152.42 input  175.53 | X-H torsion
[ 8008 7997 7996 7995 ] final  173.53 input   59.86 | X-H torsion
[ 10167 10162 10161 10158 ] final  161.80 input  -65.29 | X-H torsion
[ 10718 10713 10712 10709 ] final  -54.34 input   66.30 | X-H torsion
[ 10763 10752 10751 10750 ] final   91.18 input  -60.55 | X-H torsion
[ 11005 11000 10999 10996 ] final -164.40 input  -57.11 | X-H torsion

> <Gold.Protein.ActiveResidues>
 VAL166  LYS551  ARG553  GLY616  TRP617  ASP618  TYR619  PRO620  LYS621  CYS622 
 ASP623  PHE694  ASN695  SER759  ASP760  ASP761  ALA762  ILE779  LEU786  VAL792 
 PHE793  MET794  SER795  GLU796  ALA797  LYS798  CYS799  TRP800  GLU811  SER814 

> <Gold.Protein.RotatedAtoms>
  151.4159  135.0991  159.9598 H   0  0  0  0  0  0  0  0  0  0  0  0  # atno 6907 bound_to 6896
  152.5004  133.8753  159.7329 H   0  0  0  0  0  0  0  0  0  0  0  0  # atno 6908 bound_to 6896
  150.9258  133.6768  159.2850 H   0  0  0  0  0  0  0  0  0  0  0  0  # atno 6909 bound_to 6896
  144.8223  139.6666  143.6095 H   0  0  0  0  0  0  0  0  0  0  0  0  # atno 7974 bound_to 7965
  156.1066  140.1458  156.9396 H   0  0  0  0  0  0  0  0  0  0  0  0  # atno 8008 bound_to 7997
  154.4738  140.0901  156.7255 H   0  0  0  0  0  0  0  0  0  0  0  0  # atno 8009 bound_to 7997
  155.4669  140.3440  155.4322 H   0  0  0  0  0  0  0  0  0  0  0  0  # atno 8010 bound_to 7997
  139.4853  144.4500  151.8842 H   0  0  0  0  0  0  0  0  0  0  0  0  # atno 10167 bound_to 10162
  156.1459  130.4153  150.0025 H   0  0  0  0  0  0  0  0  0  0  0  0  # atno 10718 bound_to 10713
  153.2055  135.4407  155.0318 H   0  0  0  0  0  0  0  0  0  0  0  0  # atno 10763 bound_to 10752
  154.8171  135.3320  154.7147 H   0  0  0  0  0  0  0  0  0  0  0  0  # atno 10764 bound_to 10752
  153.7589  135.6993  153.4985 H   0  0  0  0  0  0  0  0  0  0  0  0  # atno 10765 bound_to 10752
  140.5873  134.5080  157.5187 H   0  0  0  0  0  0  0  0  0  0  0  0  # atno 11005 bound_to 11000
  146.2529  139.6238  142.9415 LP  0  0  0  0  0  0  0  0  0  0  0  0  # atno 17320 bound_to 7965
  145.5076  141.0436  143.2505 LP  0  0  0  0  0  0  0  0  0  0  0  0  # atno 17321 bound_to 7965
  140.3957  144.2558  150.5896 LP  0  0  0  0  0  0  0  0  0  0  0  0  # atno 17342 bound_to 10162
  140.5105  143.2292  151.8543 LP  0  0  0  0  0  0  0  0  0  0  0  0  # atno 17343 bound_to 10162
  156.7897  130.9251  151.3646 LP  0  0  0  0  0  0  0  0  0  0  0  0  # atno 17370 bound_to 10713
  157.6616  130.8971  149.9842 LP  0  0  0  0  0  0  0  0  0  0  0  0  # atno 17371 bound_to 10713
  139.9290  134.8001  156.0986 LP  0  0  0  0  0  0  0  0  0  0  0  0  # atno 17394 bound_to 11000
  141.0957  133.6696  156.2641 LP  0  0  0  0  0  0  0  0  0  0  0  0  # atno 17395 bound_to 11000

$$$$
