AV-unprocessed.smi:959|AV-procd|sdf|4269|dock10
  -GOLD-   22720 2173D 1   1.00000     0.00000
 Structure written by MMmdl.
 33 34  0  0  0  0  0  0  0  0  2 V2000
  152.5049  144.3614  159.4095 C   0  0  0  0  0  0  0  0  0  0  0  0
  152.1858  143.1479  160.2953 C   0  0  0  0  0  0  0  0  0  0  0  0
  152.4177  143.4603  161.7839 C   0  0  0  0  0  0  0  0  0  0  0  0
  152.9379  141.9774  159.8504 N   0  0  0  0  0  0  0  0  0  0  0  0
  154.1395  141.5403  160.2679 C   0  0  0  0  0  0  0  0  0  0  0  0
  154.5891  140.4442  159.6612 N   0  0  0  0  0  0  0  0  0  0  0  0
  153.6101  140.1317  158.7443 N   0  0  0  0  0  0  0  0  0  0  0  0
  152.6711  141.0786  158.8735 C   0  0  0  0  0  0  0  0  0  0  0  0
  151.4246  141.1056  158.0313 C   0  0  2  0  0  0  0  0  0  0  0  0
  151.4866  140.0791  156.8847 C   0  0  0  0  0  0  0  0  0  0  0  0
  150.2084  140.1417  156.0347 C   0  0  0  0  0  0  0  0  0  0  0  0
  149.9507  141.5723  155.5333 C   0  0  0  0  0  0  0  0  0  0  0  0
  149.8920  142.5207  156.6669 N   0  3  0  0  0  0  0  0  0  0  0  0
  151.1241  142.5183  157.4865 C   0  0  0  0  0  0  0  0  0  0  0  0
  151.9170  145.2299  159.7081 H   0  0  0  0  0  0  0  0  0  0  0  0
  152.2822  144.1581  158.3619 H   0  0  0  0  0  0  0  0  0  0  0  0
  153.5586  144.6342  159.4779 H   0  0  0  0  0  0  0  0  0  0  0  0
  151.1259  142.9150  160.1961 H   0  0  0  0  0  0  0  0  0  0  0  0
  151.7655  144.2686  162.1162 H   0  0  0  0  0  0  0  0  0  0  0  0
  153.4444  143.7723  161.9780 H   0  0  0  0  0  0  0  0  0  0  0  0
  152.2048  142.5919  162.4084 H   0  0  0  0  0  0  0  0  0  0  0  0
  154.7080  142.0325  161.0430 H   0  0  0  0  0  0  0  0  0  0  0  0
  150.5764  140.8374  158.6592 H   0  0  0  0  0  0  0  0  0  0  0  0
  152.3534  140.2773  156.2524 H   0  0  0  0  0  0  0  0  0  0  0  0
  151.6176  139.0733  157.2860 H   0  0  0  0  0  0  0  0  0  0  0  0
  150.2900  139.4585  155.1888 H   0  0  0  0  0  0  0  0  0  0  0  0
  149.3576  139.8014  156.6265 H   0  0  0  0  0  0  0  0  0  0  0  0
  150.7389  141.8821  154.8456 H   0  0  0  0  0  0  0  0  0  0  0  0
  149.0109  141.6175  154.9825 H   0  0  0  0  0  0  0  0  0  0  0  0
  149.7393  143.4522  156.3072 H   0  0  0  0  0  0  0  0  0  0  0  0
  151.0002  143.2241  158.3087 H   0  0  0  0  0  0  0  0  0  0  0  0
  151.9518  142.8823  156.8756 H   0  0  0  0  0  0  0  0  0  0  0  0
  149.1123  142.2674  157.2570 H   0  0  0  0  0  0  0  0  0  0  0  0
  1  2  1  0  0  0  0
  1 15  1  0  0  0  0
  1 16  1  0  0  0  0
  1 17  1  0  0  0  0
  2  3  1  0  0  0  0
  2  4  1  0  0  0  0
  2 18  1  0  0  0  0
  3 19  1  0  0  0  0
  3 20  1  0  0  0  0
  3 21  1  0  0  0  0
  4  8  1  0  0  0  0
  4  5  1  0  0  0  0
  5  6  2  0  0  0  0
  5 22  1  0  0  0  0
  6  7  1  0  0  0  0
  7  8  2  0  0  0  0
  8  9  1  0  0  0  0
  9 14  1  0  0  0  0
  9 10  1  0  0  0  0
  9 23  1  0  0  0  0
 10 11  1  0  0  0  0
 10 24  1  0  0  0  0
 10 25  1  0  0  0  0
 11 12  1  0  0  0  0
 11 26  1  0  0  0  0
 11 27  1  0  0  0  0
 12 13  1  0  0  0  0
 12 28  1  0  0  0  0
 12 29  1  0  0  0  0
 13 14  1  0  0  0  0
 13 30  1  0  0  0  0
 13 33  1  0  0  0  0
 14 31  1  0  0  0  0
 14 32  1  0  0  0  0
M  CHG  1  13   1
M  END
> <s_m_source_file>
AV-unprocessed.smi

> <i_m_source_file_index>
959

> <i_lp_mmshare_version>
43012

> <i_f3d_flags>
0

> <s_epik_input>
W0NIM11bQ0hdKFtDSDNdKW4xW2NIXW5uYzFbQ0BASF0yW0NIMl1bQ0gyXVtDSDJdW05IXVtDSDJdMg==

> <s_epik_cmdline>
J2VwaWtfcHl0aG9uJywgJy1waCcsICc3LjAnLCAnLXRuJywgJzgnLCAnLW1hJywgJzIwMCcsICctbWV0YWxfYmluZGluZycsICctaW1hZScsICc8aW5maWxlLm1hZT4nLCAnLW9tYWUnLCAnPG91dGZpbGUubWFlPic=

> <r_lp_tautomer_probability>
1

> <r_epik_Ionization_Penalty>
0.000442722

> <r_epik_Ionization_Penalty_Charging>
0.000426856

> <r_epik_Ionization_Penalty_Neutral>
1.58656e-05

> <r_epik_State_Penalty>
-0

> <r_epik_Charging_Adjusted_Penalty>
0.000426856

> <i_epik_Tot_Q>
1

> <i_epik_Tot_abs_Q>
1

> <r_epik_Metal_State_Penalty>
-0

> <b_epik_Metal_Only>
0

> <s_lp_Force_Field>
OPLS_2005

> <r_lp_Energy>
20.311

> <b_lp_Chiralities_Consistent>
1

> <s_lp_Variant>
AV-unprocessed.smi:959-1

> <Gold.Version>
5.8.1

> <Gold.Id.Protein>
6NUR|6NUR_protein|mol2

> <Gold.PLP.Fitness>
41.5545

> <Gold.PLP.PLP>
-34.4639

> <Gold.PLP.part.hbond>
-2.0836

> <Gold.PLP.part.metal>
0.0000

> <Gold.PLP.part.buried>
-3.3905

> <Gold.PLP.part.nonpolar>
-28.8155

> <Gold.PLP.part.repulsive>
0.0501

> <Gold.PLP.ligand.clash>
0.0000

> <Gold.PLP.ligand.torsion>
0.9548

> <Gold.PLP.Chemscore.Hbond>
2.9760

> <Gold.PLP.Chemscore.CHOScore>
0.0000

> <Gold.PLP.Chemscore.Metal>
0.0000

> <Gold.Chemscore.Hbonds>
donor molecule, donor type, donor heavy atom, donor atom, acceptor molecule, acceptor atom, score
      L1  H    13    30       P1  8028  2.00
      P1  H  7997  8010       L1     7  0.78

> <Gold.PLP.Chemscore.Internal.Correction>
0.0722

> <Gold.Rescore>
     Score         DG    S(hbond)    S(metal)    S(lipo)     H(rot)  DE(clash)    DE(int)     intcor
     14.69     -15.66       1.60        0.00      68.40       1.24       0.27       0.70       ----

> <Gold.Chemscore.Fitness>
14.6917

> <Gold.Chemscore.DG>
-15.6611

> <Gold.Chemscore.ZeroCoef>
-5.4800

> <Gold.Chemscore.Hbond>
1.5994

> <Gold.Chemscore.Metal>
0.0000

> <Gold.Chemscore.Lipo>
68.3971

> <Gold.Chemscore.Internal_Hbond>
0.0000

> <Gold.Chemscore.DEClash>
0.2653

> <Gold.Chemscore.DEInternal>
0.7041

> <Gold.Chemscore.Rot>
1.2357

> <Gold.Chemscore.Internal.Correction>
   9.000000E+99

> <Gold.Chemscore.Hbonds>
donor molecule, donor type, donor heavy atom, donor atom, acceptor molecule, acceptor atom, score
      L1  H    13    30       P1  8028  0.99
      P1  H  7997  8010       L1     7  0.11

> <Gold.Chemscore.Hbond.Weighted>
-5.3421

> <Gold.Chemscore.Metal.Weighted>
-0.0000

> <Gold.Chemscore.Lipo.Weighted>
-8.0025

> <Gold.Chemscore.Internal_Hbond.Weighted>
0.0000

> <Gold.Chemscore.DEClash.Weighted>
0.2653

> <Gold.Chemscore.DEInternal.Weighted>
0.7041

> <Gold.Chemscore.Rot.Weighted>
3.1634

> <Gold.Chemscore.Internal.Correction.Weighted>
   9.000000E+99

> <Gold.Protein.RotatedTorsions>
[ 6907 6896 6895 6894 ] final -126.12 input  -60.11 | X-H torsion
[ 7974 7965 7964 7962 ] final  -38.04 input  175.53 | X-H torsion
[ 8008 7997 7996 7995 ] final   20.25 input   59.86 | X-H torsion
[ 10167 10162 10161 10158 ] final  135.27 input  -65.29 | X-H torsion
[ 10718 10713 10712 10709 ] final  135.95 input   66.30 | X-H torsion
[ 10763 10752 10751 10750 ] final    6.48 input  -60.55 | X-H torsion
[ 11005 11000 10999 10996 ] final   52.88 input  -57.11 | X-H torsion

> <Gold.Protein.ActiveResidues>
 VAL166  LYS551  ARG553  GLY616  TRP617  ASP618  TYR619  PRO620  LYS621  CYS622 
 ASP623  PHE694  ASN695  SER759  ASP760  ASP761  ALA762  ILE779  LEU786  VAL792 
 PHE793  MET794  SER795  GLU796  ALA797  LYS798  CYS799  TRP800  GLU811  SER814 

> <Gold.Protein.RotatedAtoms>
  150.8936  133.7210  159.2897 H   0  0  0  0  0  0  0  0  0  0  0  0  # atno 6907 bound_to 6896
  151.4752  135.1047  159.9772 H   0  0  0  0  0  0  0  0  0  0  0  0  # atno 6908 bound_to 6896
  152.4835  133.8267  159.7137 H   0  0  0  0  0  0  0  0  0  0  0  0  # atno 6909 bound_to 6896
  146.0521  140.6466  142.9037 H   0  0  0  0  0  0  0  0  0  0  0  0  # atno 7974 bound_to 7965
  154.9327  140.3042  155.5159 H   0  0  0  0  0  0  0  0  0  0  0  0  # atno 8008 bound_to 7997
  156.3002  140.2351  156.4326 H   0  0  0  0  0  0  0  0  0  0  0  0  # atno 8009 bound_to 7997
  154.8221  140.0423  157.1407 H   0  0  0  0  0  0  0  0  0  0  0  0  # atno 8010 bound_to 7997
  139.5224  144.6525  151.5259 H   0  0  0  0  0  0  0  0  0  0  0  0  # atno 10167 bound_to 10162
  157.4518  131.1066  151.0024 H   0  0  0  0  0  0  0  0  0  0  0  0  # atno 10718 bound_to 10713
  153.2473  135.6910  153.7717 H   0  0  0  0  0  0  0  0  0  0  0  0  # atno 10763 bound_to 10752
  153.6825  135.3326  155.3183 H   0  0  0  0  0  0  0  0  0  0  0  0  # atno 10764 bound_to 10752
  154.8380  135.4526  154.1417 H   0  0  0  0  0  0  0  0  0  0  0  0  # atno 10765 bound_to 10752
  140.0813  134.5335  155.8944 H   0  0  0  0  0  0  0  0  0  0  0  0  # atno 11005 bound_to 11000
  144.7128  140.4102  143.7067 LP  0  0  0  0  0  0  0  0  0  0  0  0  # atno 17320 bound_to 7965
  145.6706  139.1598  143.2757 LP  0  0  0  0  0  0  0  0  0  0  0  0  # atno 17321 bound_to 7965
  140.6337  143.9026  150.6628 LP  0  0  0  0  0  0  0  0  0  0  0  0  # atno 17342 bound_to 10162
  140.2339  143.3715  152.1543 LP  0  0  0  0  0  0  0  0  0  0  0  0  # atno 17343 bound_to 10162
  157.0852  130.5919  149.5428 LP  0  0  0  0  0  0  0  0  0  0  0  0  # atno 17370 bound_to 10713
  155.9990  130.5065  150.7592 LP  0  0  0  0  0  0  0  0  0  0  0  0  # atno 17371 bound_to 10713
  141.2047  133.6641  156.6139 LP  0  0  0  0  0  0  0  0  0  0  0  0  # atno 17394 bound_to 11000
  140.3484  134.7790  157.4449 LP  0  0  0  0  0  0  0  0  0  0  0  0  # atno 17395 bound_to 11000

$$$$
