AV-unprocessed.smi:261|AV-procd|sdf|1997|dock6
  -GOLD-   2262021193D 1   1.00000     0.00000
 Structure written by MMmdl.
 51 54  0  0  0  0  0  0  0  0  1 V2000
  152.7562  144.7459  158.1915 C   0  0  0  0  0  0  0  0  0  0  0  0
  152.1886  143.8383  159.1220 O   0  0  0  0  0  0  0  0  0  0  0  0
  152.6787  142.5115  158.9924 C   0  0  1  0  0  0  0  0  0  0  0  0
  152.4328  141.6462  160.2320 C   0  0  0  0  0  0  0  0  0  0  0  0
  152.4200  140.2040  159.6963 C   0  0  2  0  0  0  0  0  0  0  0  0
  153.8267  139.5786  159.7227 C   0  0  0  0  0  0  0  0  0  0  0  0
  153.9627  138.4377  160.4026 N   0  0  0  0  0  0  0  0  0  0  0  0
  154.7757  140.1149  159.1525 O   0  0  0  0  0  0  0  0  0  0  0  0
  151.9115  140.3597  158.3332 N   0  0  0  0  0  0  0  0  0  0  0  0
  151.3575  139.3683  157.5810 C   0  0  0  0  0  0  0  0  0  0  0  0
  151.5334  139.4240  156.2338 N   0  0  0  0  0  0  0  0  0  0  0  0
  151.0205  138.4849  155.4356 C   0  0  0  0  0  0  0  0  0  0  0  0
  150.3054  137.4106  155.7675 N   0  0  0  0  0  0  0  0  0  0  0  0
  150.1193  137.3404  157.1159 C   0  0  0  0  0  0  0  0  0  0  0  0
  150.6011  138.2665  158.0879 C   0  0  0  0  0  0  0  0  0  0  0  0
  150.1958  137.8530  159.3532 N   0  0  0  0  0  0  0  0  0  0  0  0
  149.5238  136.7557  159.1432 C   0  0  0  0  0  0  0  0  0  0  0  0
  149.4442  136.3635  157.8277 N   0  0  0  0  0  0  0  0  0  0  0  0
  148.7562  135.1923  157.3107 C   0  0  0  0  0  0  0  0  0  0  0  0
  149.6989  134.1487  156.6677 C   0  0  1  0  0  0  0  0  0  0  0  0
  150.1139  133.3047  157.7227 O   0  0  0  0  0  0  0  0  0  0  0  0
  149.0548  133.2464  155.5896 C   0  0  1  0  0  0  0  0  0  0  0  0
  148.7961  133.8969  154.2286 C   0  0  0  0  0  0  0  0  0  0  0  0
  148.7789  132.7234  153.2641 C   0  0  0  0  0  0  0  0  0  0  0  0
  149.4973  131.6113  154.0295 C   0  0  0  0  0  0  0  0  0  0  0  0
  149.9727  132.2277  155.2182 O   0  0  0  0  0  0  0  0  0  0  0  0
  151.9136  141.7553  157.9057 C   0  0  0  0  0  0  0  0  0  0  0  0
  153.7413  142.5142  158.7422 H   0  0  0  0  0  0  0  0  0  0  0  0
  151.7351  139.6112  160.3031 H   0  0  0  0  0  0  0  0  0  0  0  0
  152.3047  145.7292  158.3214 H   0  0  0  0  0  0  0  0  0  0  0  0
  152.5732  144.4264  157.1648 H   0  0  0  0  0  0  0  0  0  0  0  0
  153.8313  144.8522  158.3393 H   0  0  0  0  0  0  0  0  0  0  0  0
  153.1745  141.8130  161.0146 H   0  0  0  0  0  0  0  0  0  0  0  0
  151.4554  141.8822  160.6556 H   0  0  0  0  0  0  0  0  0  0  0  0
  154.8656  137.9895  160.4601 H   0  0  0  0  0  0  0  0  0  0  0  0
  153.1621  138.0321  160.8651 H   0  0  0  0  0  0  0  0  0  0  0  0
  151.2122  138.6121  154.3804 H   0  0  0  0  0  0  0  0  0  0  0  0
  149.0710  136.1963  159.9489 H   0  0  0  0  0  0  0  0  0  0  0  0
  148.2237  134.7441  158.1510 H   0  0  0  0  0  0  0  0  0  0  0  0
  147.9943  135.5056  156.5959 H   0  0  0  0  0  0  0  0  0  0  0  0
  150.5825  134.6437  156.2635 H   0  0  0  0  0  0  0  0  0  0  0  0
  150.0820  132.4095  157.4217 H   0  0  0  0  0  0  0  0  0  0  0  0
  148.1327  132.7935  155.9599 H   0  0  0  0  0  0  0  0  0  0  0  0
  147.8674  134.4660  154.2005 H   0  0  0  0  0  0  0  0  0  0  0  0
  149.6163  134.5668  153.9675 H   0  0  0  0  0  0  0  0  0  0  0  0
  147.7577  132.4229  153.0270 H   0  0  0  0  0  0  0  0  0  0  0  0
  149.2832  132.9717  152.3299 H   0  0  0  0  0  0  0  0  0  0  0  0
  148.8026  130.8117  154.2893 H   0  0  0  0  0  0  0  0  0  0  0  0
  150.3207  131.1774  153.4620 H   0  0  0  0  0  0  0  0  0  0  0  0
  150.8823  142.1059  157.8434 H   0  0  0  0  0  0  0  0  0  0  0  0
  152.3818  141.8892  156.9298 H   0  0  0  0  0  0  0  0  0  0  0  0
  1  2  1  0  0  0  0
  1 30  1  0  0  0  0
  1 31  1  0  0  0  0
  1 32  1  0  0  0  0
  2  3  1  0  0  0  0
  3 28  1  0  0  0  0
  3 27  1  0  0  0  0
  3  4  1  0  0  0  0
  4  5  1  0  0  0  0
  4 33  1  0  0  0  0
  4 34  1  0  0  0  0
  5 29  1  0  0  0  0
  5  6  1  0  0  0  0
  5  9  1  0  0  0  0
  6  7  1  0  0  0  0
  6  8  2  0  0  0  0
  7 35  1  0  0  0  0
  7 36  1  0  0  0  0
  9 10  1  0  0  0  0
  9 27  1  0  0  0  0
 10 15  1  0  0  0  0
 10 11  2  0  0  0  0
 11 12  1  0  0  0  0
 12 13  2  0  0  0  0
 12 37  1  0  0  0  0
 13 14  1  0  0  0  0
 14 18  1  0  0  0  0
 14 15  2  0  0  0  0
 15 16  1  0  0  0  0
 16 17  2  0  0  0  0
 17 18  1  0  0  0  0
 17 38  1  0  0  0  0
 18 19  1  0  0  0  0
 19 20  1  0  0  0  0
 19 39  1  0  0  0  0
 19 40  1  0  0  0  0
 20 21  1  0  0  0  0
 20 22  1  0  0  0  0
 20 41  1  0  0  0  0
 21 42  1  0  0  0  0
 22 26  1  0  0  0  0
 22 23  1  0  0  0  0
 22 43  1  0  0  0  0
 23 24  1  0  0  0  0
 23 44  1  0  0  0  0
 23 45  1  0  0  0  0
 24 25  1  0  0  0  0
 24 46  1  0  0  0  0
 24 47  1  0  0  0  0
 25 26  1  0  0  0  0
 25 48  1  0  0  0  0
 25 49  1  0  0  0  0
 27 50  1  0  0  0  0
 27 51  1  0  0  0  0
M  END
> <s_m_source_file>
AV-unprocessed.smi

> <i_m_source_file_index>
261

> <i_lp_mmshare_version>
43012

> <i_f3d_flags>
0

> <s_epik_input>
W0NIM11PW0NASF0xW0NIMl1bQ0BASF0oQyg9TylbTkgyXSlOKFtDSDJdMSljKG5bY0hdbjIpYyhjMjMpbltjSF1uM1tDSDJdW0NASF0oW09IXSlbQ0BASF00W0NIMl1bQ0gyXVtDSDJdTzQ=

> <s_epik_cmdline>
J2VwaWtfcHl0aG9uJywgJy1waCcsICc3LjAnLCAnLXRuJywgJzgnLCAnLW1hJywgJzIwMCcsICctbWV0YWxfYmluZGluZycsICctaW1hZScsICc8aW5maWxlLm1hZT4nLCAnLW9tYWUnLCAnPG91dGZpbGUubWFlPic=

> <r_lp_tautomer_probability>
1

> <r_epik_Ionization_Penalty>
0.000713824

> <r_epik_Ionization_Penalty_Charging>
0

> <r_epik_Ionization_Penalty_Neutral>
0.000713824

> <r_epik_State_Penalty>
0.000402132

> <r_epik_Charging_Adjusted_Penalty>
0.000402132

> <i_epik_Tot_Q>
0

> <i_epik_Tot_abs_Q>
0

> <r_epik_Metal_State_Penalty>
-0

> <b_epik_Metal_Only>
0

> <s_lp_Force_Field>
OPLS_2005

> <r_lp_Energy>
45.931

> <b_lp_Chiralities_Consistent>
1

> <s_lp_Variant>
AV-unprocessed.smi:261-15

> <Gold.Version>
5.8.1

> <Gold.Id.Protein>
6NUR|6NUR_protein|mol2

> <Gold.PLP.Fitness>
42.1649

> <Gold.PLP.PLP>
-38.5125

> <Gold.PLP.part.hbond>
-3.0000

> <Gold.PLP.part.metal>
0.0000

> <Gold.PLP.part.buried>
-6.6687

> <Gold.PLP.part.nonpolar>
-29.4586

> <Gold.PLP.part.repulsive>
0.0834

> <Gold.PLP.ligand.clash>
0.0000

> <Gold.PLP.ligand.torsion>
1.1982

> <Gold.PLP.Chemscore.Hbond>
1.9600

> <Gold.PLP.Chemscore.CHOScore>
0.0000

> <Gold.PLP.Chemscore.Metal>
0.0000

> <Gold.Chemscore.Hbonds>
donor molecule, donor type, donor heavy atom, donor atom, acceptor molecule, acceptor atom, score
      P1  H  6896  6909       L1    21  1.00
      P1  H  7997  8009       L1     8  0.94

> <Gold.PLP.Chemscore.Internal.Correction>
0.1687

> <Gold.Rescore>
     Score         DG    S(hbond)    S(metal)    S(lipo)     H(rot)  DE(clash)    DE(int)     intcor
     12.13     -13.22       1.98        0.00      79.42       3.18       0.01       1.08       ----

> <Gold.Chemscore.Fitness>
12.1326

> <Gold.Chemscore.DG>
-13.2239

> <Gold.Chemscore.ZeroCoef>
-5.4800

> <Gold.Chemscore.Hbond>
1.9762

> <Gold.Chemscore.Metal>
0.0000

> <Gold.Chemscore.Lipo>
79.4191

> <Gold.Chemscore.Internal_Hbond>
0.0000

> <Gold.Chemscore.DEClash>
0.0098

> <Gold.Chemscore.DEInternal>
1.0815

> <Gold.Chemscore.Rot>
3.1831

> <Gold.Chemscore.Internal.Correction>
   9.000000E+99

> <Gold.Chemscore.Hbonds>
donor molecule, donor type, donor heavy atom, donor atom, acceptor molecule, acceptor atom, score
      P1  H  6896  6909       L1    21  0.86
      P1  H  7997  8009       L1     8  0.92

> <Gold.Chemscore.Hbond.Weighted>
-6.6005

> <Gold.Chemscore.Metal.Weighted>
-0.0000

> <Gold.Chemscore.Lipo.Weighted>
-9.2920

> <Gold.Chemscore.Internal_Hbond.Weighted>
0.0000

> <Gold.Chemscore.DEClash.Weighted>
0.0098

> <Gold.Chemscore.DEInternal.Weighted>
1.0815

> <Gold.Chemscore.Rot.Weighted>
8.1486

> <Gold.Chemscore.Internal.Correction.Weighted>
   9.000000E+99

> <Gold.Protein.RotatedTorsions>
[ 6907 6896 6895 6894 ] final  -21.00 input  -60.11 | X-H torsion
[ 7974 7965 7964 7962 ] final  102.79 input  175.53 | X-H torsion
[ 8008 7997 7996 7995 ] final  111.24 input   59.86 | X-H torsion
[ 10167 10162 10161 10158 ] final  -77.72 input  -65.29 | X-H torsion
[ 10718 10713 10712 10709 ] final   74.35 input   66.30 | X-H torsion
[ 10763 10752 10751 10750 ] final  125.39 input  -60.55 | X-H torsion
[ 11005 11000 10999 10996 ] final  -97.74 input  -57.11 | X-H torsion

> <Gold.Protein.ActiveResidues>
 VAL166  LYS551  ARG553  GLY616  TRP617  ASP618  TYR619  PRO620  LYS621  CYS622 
 ASP623  PHE694  ASN695  SER759  ASP760  ASP761  ALA762  ILE779  LEU786  VAL792 
 PHE793  MET794  SER795  GLU796  ALA797  LYS798  CYS799  TRP800  GLU811  SER814 

> <Gold.Protein.RotatedAtoms>
  151.2398  135.0585  159.9020 H   0  0  0  0  0  0  0  0  0  0  0  0  # atno 6907 bound_to 6896
  152.5394  134.0446  159.8093 H   0  0  0  0  0  0  0  0  0  0  0  0  # atno 6908 bound_to 6896
  151.0638  133.5473  159.2663 H   0  0  0  0  0  0  0  0  0  0  0  0  # atno 6909 bound_to 6896
  145.3544  139.2432  143.3540 H   0  0  0  0  0  0  0  0  0  0  0  0  # atno 7974 bound_to 7965
  156.2110  140.3023  155.9732 H   0  0  0  0  0  0  0  0  0  0  0  0  # atno 8008 bound_to 7997
  155.2724  140.0434  157.3025 H   0  0  0  0  0  0  0  0  0  0  0  0  # atno 8009 bound_to 7997
  154.5699  140.2345  155.8215 H   0  0  0  0  0  0  0  0  0  0  0  0  # atno 8010 bound_to 7997
  140.4745  143.2418  151.8153 H   0  0  0  0  0  0  0  0  0  0  0  0  # atno 10167 bound_to 10162
  157.6588  130.9673  150.1198 H   0  0  0  0  0  0  0  0  0  0  0  0  # atno 10718 bound_to 10713
  153.6766  135.3321  155.3167 H   0  0  0  0  0  0  0  0  0  0  0  0  # atno 10763 bound_to 10752
  154.8477  135.4399  154.1649 H   0  0  0  0  0  0  0  0  0  0  0  0  # atno 10764 bound_to 10752
  153.2655  135.6995  153.7611 H   0  0  0  0  0  0  0  0  0  0  0  0  # atno 10765 bound_to 10752
  141.1368  133.8193  157.0747 H   0  0  0  0  0  0  0  0  0  0  0  0  # atno 11005 bound_to 11000
  146.2954  140.4167  142.8724 LP  0  0  0  0  0  0  0  0  0  0  0  0  # atno 17320 bound_to 7965
  144.8693  140.7250  143.6057 LP  0  0  0  0  0  0  0  0  0  0  0  0  # atno 17321 bound_to 7965
  139.4823  144.4850  151.9258 LP  0  0  0  0  0  0  0  0  0  0  0  0  # atno 17342 bound_to 10162
  140.3935  144.2585  150.5898 LP  0  0  0  0  0  0  0  0  0  0  0  0  # atno 17343 bound_to 10162
  156.2072  130.3664  149.8714 LP  0  0  0  0  0  0  0  0  0  0  0  0  # atno 17370 bound_to 10713
  156.6603  130.8779  151.3546 LP  0  0  0  0  0  0  0  0  0  0  0  0  # atno 17371 bound_to 10713
  140.0489  134.9816  157.1100 LP  0  0  0  0  0  0  0  0  0  0  0  0  # atno 17394 bound_to 11000
  140.4020  134.2072  155.7163 LP  0  0  0  0  0  0  0  0  0  0  0  0  # atno 17395 bound_to 11000

$$$$
