AV-unprocessed.smi:3345|AV-procd|sdf|12900|dock10
  -GOLD-   2272019313D 1   1.00000     0.00000
 Structure written by MMmdl.
 40 41  0  0  0  0  0  0  0  0  1 V2000
  151.8451  144.1838  159.3519 C   0  0  0  0  0  0  0  0  0  0  0  0
  150.4640  143.5170  159.2576 C   0  0  1  0  0  0  0  0  0  0  0  0
  149.3307  144.5111  159.5932 C   0  0  0  0  0  0  0  0  0  0  0  0
  148.0899  143.9022  160.0736 N   0  0  0  0  0  0  0  0  0  0  0  0
  147.2510  143.3980  158.9885 C   0  0  0  0  0  0  0  0  0  0  0  0
  145.9382  142.7883  159.5106 C   0  0  0  0  0  0  0  0  0  0  0  0
  145.2388  143.7513  160.2918 O   0  0  0  0  0  0  0  0  0  0  0  0
  146.0077  144.2277  161.3912 C   0  0  0  0  0  0  0  0  0  0  0  0
  147.3163  144.8477  160.8716 C   0  0  0  0  0  0  0  0  0  0  0  0
  150.2872  143.0004  157.9022 N   0  0  0  0  0  0  0  0  0  0  0  0
  150.7675  141.8343  157.4417 C   0  0  0  0  0  0  0  0  0  0  0  0
  151.4136  141.0482  158.1353 O   0  0  0  0  0  0  0  0  0  0  0  0
  150.4812  141.5151  155.9677 C   0  0  2  0  0  0  0  0  0  0  0  0
  148.9942  141.7188  155.6137 C   0  0  0  0  0  0  0  0  0  0  0  0
  150.9581  140.1741  155.6492 N   0  0  0  0  0  0  0  0  0  0  0  0
  150.3497  139.1846  154.9911 C   0  0  0  0  0  0  0  0  0  0  0  0
  151.0991  138.1032  154.8288 N   0  0  0  0  0  0  0  0  0  0  0  0
  152.2449  138.5268  155.4396 C   0  0  0  0  0  0  0  0  0  0  0  0
  152.2185  139.7626  155.9375 N   0  0  0  0  0  0  0  0  0  0  0  0
  152.0297  144.5633  160.3573 H   0  0  0  0  0  0  0  0  0  0  0  0
  151.9310  145.0214  158.6586 H   0  0  0  0  0  0  0  0  0  0  0  0
  152.6414  143.4756  159.1197 H   0  0  0  0  0  0  0  0  0  0  0  0
  150.4426  142.7032  159.9850 H   0  0  0  0  0  0  0  0  0  0  0  0
  149.6967  145.1721  160.3800 H   0  0  0  0  0  0  0  0  0  0  0  0
  149.1292  145.1640  158.7422 H   0  0  0  0  0  0  0  0  0  0  0  0
  147.0226  144.2055  158.2913 H   0  0  0  0  0  0  0  0  0  0  0  0
  147.7849  142.6358  158.4220 H   0  0  0  0  0  0  0  0  0  0  0  0
  145.3072  142.4771  158.6782 H   0  0  0  0  0  0  0  0  0  0  0  0
  146.1381  141.8993  160.1109 H   0  0  0  0  0  0  0  0  0  0  0  0
  145.4269  144.9700  161.9388 H   0  0  0  0  0  0  0  0  0  0  0  0
  146.2150  143.4088  162.0821 H   0  0  0  0  0  0  0  0  0  0  0  0
  147.9111  145.1910  161.7188 H   0  0  0  0  0  0  0  0  0  0  0  0
  147.0838  145.7316  160.2754 H   0  0  0  0  0  0  0  0  0  0  0  0
  149.7645  143.5804  157.2621 H   0  0  0  0  0  0  0  0  0  0  0  0
  151.0565  142.2090  155.3521 H   0  0  0  0  0  0  0  0  0  0  0  0
  148.6843  142.7465  155.8062 H   0  0  0  0  0  0  0  0  0  0  0  0
  148.3387  141.0651  156.1908 H   0  0  0  0  0  0  0  0  0  0  0  0
  148.8156  141.5170  154.5571 H   0  0  0  0  0  0  0  0  0  0  0  0
  149.3388  139.2590  154.6180 H   0  0  0  0  0  0  0  0  0  0  0  0
  153.1273  137.9081  155.5139 H   0  0  0  0  0  0  0  0  0  0  0  0
  1  2  1  0  0  0  0
  1 20  1  0  0  0  0
  1 21  1  0  0  0  0
  1 22  1  0  0  0  0
  2  3  1  0  0  0  0
  2 10  1  0  0  0  0
  2 23  1  0  0  0  0
  3  4  1  0  0  0  0
  3 24  1  0  0  0  0
  3 25  1  0  0  0  0
  4  9  1  0  0  0  0
  4  5  1  0  0  0  0
  5  6  1  0  0  0  0
  5 26  1  0  0  0  0
  5 27  1  0  0  0  0
  6  7  1  0  0  0  0
  6 28  1  0  0  0  0
  6 29  1  0  0  0  0
  7  8  1  0  0  0  0
  8  9  1  0  0  0  0
  8 30  1  0  0  0  0
  8 31  1  0  0  0  0
  9 32  1  0  0  0  0
  9 33  1  0  0  0  0
 10 11  1  0  0  0  0
 10 34  1  0  0  0  0
 11 12  2  0  0  0  0
 11 13  1  0  0  0  0
 13 14  1  0  0  0  0
 13 15  1  0  0  0  0
 13 35  1  0  0  0  0
 14 36  1  0  0  0  0
 14 37  1  0  0  0  0
 14 38  1  0  0  0  0
 15 19  1  0  0  0  0
 15 16  1  0  0  0  0
 16 17  2  0  0  0  0
 16 39  1  0  0  0  0
 17 18  1  0  0  0  0
 18 19  2  0  0  0  0
 18 40  1  0  0  0  0
M  END
> <s_m_source_file>
AV-unprocessed.smi

> <i_m_source_file_index>
3345

> <i_lp_mmshare_version>
43012

> <i_f3d_flags>
0

> <s_epik_input>
W0NIMl0xW0NIMl1PW0NIMl1bQ0gyXU4xW0NIMl1bQ0BASF0oW0NIM10pW05IXUMoPU8pW0NASF0oW0NIM10pbjJbY0hdbltjSF1uMg==

> <s_epik_cmdline>
J2VwaWtfcHl0aG9uJywgJy1waCcsICc3LjAnLCAnLXRuJywgJzgnLCAnLW1hJywgJzIwMCcsICctbWV0YWxfYmluZGluZycsICctaW1hZScsICc8aW5maWxlLm1hZT4nLCAnLW9tYWUnLCAnPG91dGZpbGUubWFlPic=

> <r_lp_tautomer_probability>
1

> <r_epik_Ionization_Penalty>
0.211373

> <r_epik_Ionization_Penalty_Charging>
0

> <r_epik_Ionization_Penalty_Neutral>
0.211373

> <r_epik_State_Penalty>
0.201459

> <r_epik_Charging_Adjusted_Penalty>
0.201459

> <i_epik_Tot_Q>
0

> <i_epik_Tot_abs_Q>
0

> <r_epik_Metal_State_Penalty>
0.201458

> <b_epik_Metal_Only>
0

> <s_lp_Force_Field>
OPLS_2005

> <r_lp_Energy>
31.9378

> <b_lp_Chiralities_Consistent>
1

> <s_lp_Variant>
AV-unprocessed.smi:3345-2

> <Gold.Version>
5.8.1

> <Gold.Id.Protein>
6NUR|6NUR_protein|mol2

> <Gold.PLP.Fitness>
39.6986

> <Gold.PLP.PLP>
-33.9111

> <Gold.PLP.part.hbond>
-2.6947

> <Gold.PLP.part.metal>
0.0000

> <Gold.PLP.part.buried>
-2.0022

> <Gold.PLP.part.nonpolar>
-29.2701

> <Gold.PLP.part.repulsive>
0.3475

> <Gold.PLP.ligand.clash>
0.0000

> <Gold.PLP.ligand.torsion>
1.1081

> <Gold.PLP.Chemscore.Hbond>
2.6247

> <Gold.PLP.Chemscore.CHOScore>
0.0000

> <Gold.PLP.Chemscore.Metal>
0.0000

> <Gold.Chemscore.Hbonds>
donor molecule, donor type, donor heavy atom, donor atom, acceptor molecule, acceptor atom, score
      L1  H    10    34       P1  8028  0.73
      P1  H  6933  6944       L1     4  0.83
      P1  H  7997  8010       L1    19  0.63

> <Gold.PLP.Chemscore.Internal.Correction>
0.1294

> <Gold.Rescore>
     Score         DG    S(hbond)    S(metal)    S(lipo)     H(rot)  DE(clash)    DE(int)     intcor
      8.50     -11.52       1.59        0.00      61.68       2.54       0.42       2.60       ----

> <Gold.Chemscore.Fitness>
8.5014

> <Gold.Chemscore.DG>
-11.5225

> <Gold.Chemscore.ZeroCoef>
-5.4800

> <Gold.Chemscore.Hbond>
1.5919

> <Gold.Chemscore.Metal>
0.0000

> <Gold.Chemscore.Lipo>
61.6759

> <Gold.Chemscore.Internal_Hbond>
0.0000

> <Gold.Chemscore.DEClash>
0.4204

> <Gold.Chemscore.DEInternal>
2.6007

> <Gold.Chemscore.Rot>
2.5353

> <Gold.Chemscore.Internal.Correction>
   9.000000E+99

> <Gold.Chemscore.Hbonds>
donor molecule, donor type, donor heavy atom, donor atom, acceptor molecule, acceptor atom, score
      L1  H    10    34       P1  8028  0.66
      P1  H  6933  6944       L1     4  0.17
      P1  H  7997  8010       L1    19  0.19

> <Gold.Chemscore.Hbond.Weighted>
-5.3169

> <Gold.Chemscore.Metal.Weighted>
-0.0000

> <Gold.Chemscore.Lipo.Weighted>
-7.2161

> <Gold.Chemscore.Internal_Hbond.Weighted>
0.0000

> <Gold.Chemscore.DEClash.Weighted>
0.4204

> <Gold.Chemscore.DEInternal.Weighted>
2.6007

> <Gold.Chemscore.Rot.Weighted>
6.4905

> <Gold.Chemscore.Internal.Correction.Weighted>
   9.000000E+99

> <Gold.Protein.RotatedTorsions>
[ 6907 6896 6895 6894 ] final  113.39 input  -60.11 | X-H torsion
[ 7974 7965 7964 7962 ] final  -78.67 input  175.53 | X-H torsion
[ 8008 7997 7996 7995 ] final   82.57 input   59.86 | X-H torsion
[ 10167 10162 10161 10158 ] final  -18.61 input  -65.29 | X-H torsion
[ 10718 10713 10712 10709 ] final  118.69 input   66.30 | X-H torsion
[ 10763 10752 10751 10750 ] final  121.81 input  -60.55 | X-H torsion
[ 11005 11000 10999 10996 ] final  -87.56 input  -57.11 | X-H torsion

> <Gold.Protein.ActiveResidues>
 VAL166  LYS551  ARG553  GLY616  TRP617  ASP618  TYR619  PRO620  LYS621  CYS622 
 ASP623  PHE694  ASN695  SER759  ASP760  ASP761  ALA762  ILE779  LEU786  VAL792 
 PHE793  MET794  SER795  GLU796  ALA797  LYS798  CYS799  TRP800  GLU811  SER814 

> <Gold.Protein.RotatedAtoms>
  152.4863  133.8383  159.7138 H   0  0  0  0  0  0  0  0  0  0  0  0  # atno 6907 bound_to 6896
  150.8953  133.7179  159.2900 H   0  0  0  0  0  0  0  0  0  0  0  0  # atno 6908 bound_to 6896
  151.4638  135.1044  159.9784 H   0  0  0  0  0  0  0  0  0  0  0  0  # atno 6909 bound_to 6896
  145.5834  140.9444  143.1332 H   0  0  0  0  0  0  0  0  0  0  0  0  # atno 7974 bound_to 7965
  155.9123  140.3426  155.6108 H   0  0  0  0  0  0  0  0  0  0  0  0  # atno 8008 bound_to 7997
  155.7372  140.0803  157.2281 H   0  0  0  0  0  0  0  0  0  0  0  0  # atno 8009 bound_to 7997
  154.4057  140.1577  156.2563 H   0  0  0  0  0  0  0  0  0  0  0  0  # atno 8010 bound_to 7997
  140.7260  143.4900  151.0005 H   0  0  0  0  0  0  0  0  0  0  0  0  # atno 10167 bound_to 10162
  157.6013  131.1050  150.7792 H   0  0  0  0  0  0  0  0  0  0  0  0  # atno 10718 bound_to 10713
  153.6200  135.3415  155.3007 H   0  0  0  0  0  0  0  0  0  0  0  0  # atno 10763 bound_to 10752
  154.8602  135.4270  154.2218 H   0  0  0  0  0  0  0  0  0  0  0  0  # atno 10764 bound_to 10752
  153.3088  135.7030  153.7207 H   0  0  0  0  0  0  0  0  0  0  0  0  # atno 10765 bound_to 10752
  141.1615  133.7518  156.9324 H   0  0  0  0  0  0  0  0  0  0  0  0  # atno 11005 bound_to 11000
  144.7384  139.7520  143.7320 LP  0  0  0  0  0  0  0  0  0  0  0  0  # atno 17320 bound_to 7965
  146.1700  139.4846  142.9934 LP  0  0  0  0  0  0  0  0  0  0  0  0  # atno 17321 bound_to 7965
  139.8603  143.7323  152.3173 LP  0  0  0  0  0  0  0  0  0  0  0  0  # atno 17342 bound_to 10162
  139.7536  144.7527  151.0469 LP  0  0  0  0  0  0  0  0  0  0  0  0  # atno 17343 bound_to 10162
  156.8190  130.4978  149.5345 LP  0  0  0  0  0  0  0  0  0  0  0  0  # atno 17370 bound_to 10713
  156.1087  130.6024  151.0012 LP  0  0  0  0  0  0  0  0  0  0  0  0  # atno 17371 bound_to 10713
  140.1377  134.9314  157.2425 LP  0  0  0  0  0  0  0  0  0  0  0  0  # atno 17394 bound_to 11000
  140.2874  134.3279  155.7325 LP  0  0  0  0  0  0  0  0  0  0  0  0  # atno 17395 bound_to 11000

$$$$
