AV-unprocessed.smi:512|AV-procd|sdf|2768|dock8
  -GOLD-   2262023233D 1   1.00000     0.00000
 Structure written by MMmdl.
 49 51  0  0  0  0  0  0  0  0  2 V2000
  146.7815  141.6084  153.8579 C   0  0  0  0  0  0  0  0  0  0  0  0
  147.0783  140.3123  153.1004 C   0  0  0  0  0  0  0  0  0  0  0  0
  146.2835  139.2779  153.6508 O   0  0  0  0  0  0  0  0  0  0  0  0
  146.4879  138.0229  153.0221 C   0  0  0  0  0  0  0  0  0  0  0  0
  145.7719  136.9339  153.8327 C   0  0  0  0  0  0  0  0  0  0  0  0
  146.3882  135.6237  153.6343 N   0  0  0  0  0  0  0  0  0  0  0  0
  145.9395  134.5759  152.8921 C   0  0  0  0  0  0  0  0  0  0  0  0
  144.7680  134.6541  152.1406 N   0  0  0  0  0  0  0  0  0  0  0  0
  144.5515  135.5594  151.0147 C   0  0  0  0  0  0  0  0  0  0  0  0
  144.6225  134.8105  149.6708 C   0  0  0  0  0  0  0  0  0  0  0  0
  143.6584  133.6847  149.6369 N   0  3  0  0  0  0  0  0  0  0  0  0
  143.6880  132.9473  148.3561 C   0  0  0  0  0  0  0  0  0  0  0  0
  143.8102  132.7945  150.8119 C   0  0  0  0  0  0  0  0  0  0  0  0
  143.7522  133.6066  152.1167 C   0  0  0  0  0  0  0  0  0  0  0  0
  146.6859  133.4713  152.9742 N   0  0  0  0  0  0  0  0  0  0  0  0
  147.7126  133.8524  153.8254 C   0  0  0  0  0  0  0  0  0  0  0  0
  147.5490  135.1360  154.2353 C   0  0  0  0  0  0  0  0  0  0  0  0
  148.4739  135.7885  155.1711 C   0  0  0  0  0  0  0  0  0  0  0  0
  148.3310  136.9415  155.5720 O   0  0  0  0  0  0  0  0  0  0  0  0
  149.4994  134.9875  155.5495 N   0  0  0  0  0  0  0  0  0  0  0  0
  149.7292  133.6941  155.1675 C   0  0  0  0  0  0  0  0  0  0  0  0
  150.7156  133.0931  155.5926 O   0  0  0  0  0  0  0  0  0  0  0  0
  148.8301  133.1138  154.3091 N   0  0  0  0  0  0  0  0  0  0  0  0
  149.0225  131.7301  153.8717 C   0  0  0  0  0  0  0  0  0  0  0  0
  150.1697  135.3904  156.1880 H   0  0  0  0  0  0  0  0  0  0  0  0
  147.3755  142.4344  153.4663 H   0  0  0  0  0  0  0  0  0  0  0  0
  147.0122  141.5028  154.9181 H   0  0  0  0  0  0  0  0  0  0  0  0
  145.7295  141.8805  153.7696 H   0  0  0  0  0  0  0  0  0  0  0  0
  146.8536  140.4374  152.0403 H   0  0  0  0  0  0  0  0  0  0  0  0
  148.1366  140.0626  153.1891 H   0  0  0  0  0  0  0  0  0  0  0  0
  146.0988  138.0463  152.0033 H   0  0  0  0  0  0  0  0  0  0  0  0
  147.5548  137.8030  152.9607 H   0  0  0  0  0  0  0  0  0  0  0  0
  145.7867  137.2006  154.8864 H   0  0  0  0  0  0  0  0  0  0  0  0
  144.7182  136.8821  153.5627 H   0  0  0  0  0  0  0  0  0  0  0  0
  143.5853  136.0529  151.1285 H   0  0  0  0  0  0  0  0  0  0  0  0
  145.3091  136.3428  151.0173 H   0  0  0  0  0  0  0  0  0  0  0  0
  144.4128  135.4987  148.8511 H   0  0  0  0  0  0  0  0  0  0  0  0
  145.6326  134.4273  149.5153 H   0  0  0  0  0  0  0  0  0  0  0  0
  144.6565  132.4701  148.2011 H   0  0  0  0  0  0  0  0  0  0  0  0
  143.5006  133.6221  147.5203 H   0  0  0  0  0  0  0  0  0  0  0  0
  142.9189  132.1744  148.3394 H   0  0  0  0  0  0  0  0  0  0  0  0
  143.0200  132.0429  150.8077 H   0  0  0  0  0  0  0  0  0  0  0  0
  144.7602  132.2611  150.7472 H   0  0  0  0  0  0  0  0  0  0  0  0
  143.8908  132.9460  152.9735 H   0  0  0  0  0  0  0  0  0  0  0  0
  142.7685  134.0625  152.2368 H   0  0  0  0  0  0  0  0  0  0  0  0
  149.9083  131.6530  153.2401 H   0  0  0  0  0  0  0  0  0  0  0  0
  148.1760  131.3500  153.3001 H   0  0  0  0  0  0  0  0  0  0  0  0
  149.1552  131.0669  154.7277 H   0  0  0  0  0  0  0  0  0  0  0  0
  142.7392  134.0968  149.7122 H   0  0  0  0  0  0  0  0  0  0  0  0
  1  2  1  0  0  0  0
  1 26  1  0  0  0  0
  1 27  1  0  0  0  0
  1 28  1  0  0  0  0
  2  3  1  0  0  0  0
  2 29  1  0  0  0  0
  2 30  1  0  0  0  0
  3  4  1  0  0  0  0
  4  5  1  0  0  0  0
  4 31  1  0  0  0  0
  4 32  1  0  0  0  0
  5  6  1  0  0  0  0
  5 33  1  0  0  0  0
  5 34  1  0  0  0  0
  6 17  1  0  0  0  0
  6  7  1  0  0  0  0
  7  8  1  0  0  0  0
  7 15  2  0  0  0  0
  8 14  1  0  0  0  0
  8  9  1  0  0  0  0
  9 10  1  0  0  0  0
  9 35  1  0  0  0  0
  9 36  1  0  0  0  0
 10 11  1  0  0  0  0
 10 37  1  0  0  0  0
 10 38  1  0  0  0  0
 11 12  1  0  0  0  0
 11 13  1  0  0  0  0
 11 49  1  0  0  0  0
 12 39  1  0  0  0  0
 12 40  1  0  0  0  0
 12 41  1  0  0  0  0
 13 14  1  0  0  0  0
 13 42  1  0  0  0  0
 13 43  1  0  0  0  0
 14 44  1  0  0  0  0
 14 45  1  0  0  0  0
 15 16  1  0  0  0  0
 16 23  1  0  0  0  0
 16 17  2  0  0  0  0
 17 18  1  0  0  0  0
 18 19  2  0  0  0  0
 18 20  1  0  0  0  0
 20 25  1  0  0  0  0
 20 21  1  0  0  0  0
 21 22  2  0  0  0  0
 21 23  1  0  0  0  0
 23 24  1  0  0  0  0
 24 46  1  0  0  0  0
 24 47  1  0  0  0  0
 24 48  1  0  0  0  0
M  CHG  1  11   1
M  END
> <s_m_source_file>
AV-unprocessed.smi

> <i_m_source_file_index>
512

> <i_lp_mmshare_version>
43012

> <i_f3d_flags>
0

> <s_epik_input>
W0NIM11uMWMoPU8pW25IXWMoPU8pYyhjMTIpbihbQ0gyXVtDSDJdT1tDSDJdW0NIM10pYyhuMilOM1tDSDJdW0NIMl1OKFtDSDNdKVtDSDJdW0NIMl0z

> <s_epik_cmdline>
J2VwaWtfcHl0aG9uJywgJy1waCcsICc3LjAnLCAnLXRuJywgJzgnLCAnLW1hJywgJzIwMCcsICctbWV0YWxfYmluZGluZycsICctaW1hZScsICc8aW5maWxlLm1hZT4nLCAnLW9tYWUnLCAnPG91dGZpbGUubWFlPic=

> <r_epik_Ionization_Penalty>
0.06478

> <r_epik_Ionization_Penalty_Charging>
0.0647782

> <r_epik_Ionization_Penalty_Neutral>
1.82007e-06

> <r_epik_State_Penalty>
0.0564218

> <r_epik_Charging_Adjusted_Penalty>
0.1212

> <i_epik_Tot_Q>
1

> <i_epik_Tot_abs_Q>
1

> <r_epik_Metal_State_Penalty>
0.0827594

> <b_epik_Metal_Only>
0

> <s_lp_Force_Field>
OPLS_2005

> <r_lp_Energy>
46.3907

> <b_lp_Chiralities_Consistent>
1

> <s_lp_Variant>
AV-unprocessed.smi:512-1

> <Gold.Version>
5.8.1

> <Gold.Id.Protein>
6NUR|6NUR_protein|mol2

> <Gold.PLP.Fitness>
35.1344

> <Gold.PLP.PLP>
-31.1797

> <Gold.PLP.part.hbond>
-1.0000

> <Gold.PLP.part.metal>
0.0000

> <Gold.PLP.part.buried>
2.7117

> <Gold.PLP.part.nonpolar>
-33.1878

> <Gold.PLP.part.repulsive>
0.4544

> <Gold.PLP.ligand.clash>
0.0000

> <Gold.PLP.ligand.torsion>
1.3520

> <Gold.PLP.Chemscore.Hbond>
2.0000

> <Gold.PLP.Chemscore.CHOScore>
0.0000

> <Gold.PLP.Chemscore.Metal>
0.0000

> <Gold.Chemscore.Hbonds>
donor molecule, donor type, donor heavy atom, donor atom, acceptor molecule, acceptor atom, score
      L1  H    11    49       P1 10186  2.00

> <Gold.PLP.Chemscore.Internal.Correction>
0.6587

> <Gold.Rescore>
     Score         DG    S(hbond)    S(metal)    S(lipo)     H(rot)  DE(clash)    DE(int)     intcor
     10.21     -13.11       1.00        0.00      72.96       1.66       1.59       1.30       ----

> <Gold.Chemscore.Fitness>
10.2131

> <Gold.Chemscore.DG>
-13.1061

> <Gold.Chemscore.ZeroCoef>
-5.4800

> <Gold.Chemscore.Hbond>
0.9982

> <Gold.Chemscore.Metal>
0.0000

> <Gold.Chemscore.Lipo>
72.9586

> <Gold.Chemscore.Internal_Hbond>
0.0000

> <Gold.Chemscore.DEClash>
1.5943

> <Gold.Chemscore.DEInternal>
1.2988

> <Gold.Chemscore.Rot>
1.6579

> <Gold.Chemscore.Internal.Correction>
   9.000000E+99

> <Gold.Chemscore.Hbonds>
donor molecule, donor type, donor heavy atom, donor atom, acceptor molecule, acceptor atom, score
      L1  H    11    49       P1 10186  1.00

> <Gold.Chemscore.Hbond.Weighted>
-3.3341

> <Gold.Chemscore.Metal.Weighted>
-0.0000

> <Gold.Chemscore.Lipo.Weighted>
-8.5362

> <Gold.Chemscore.Internal_Hbond.Weighted>
0.0000

> <Gold.Chemscore.DEClash.Weighted>
1.5943

> <Gold.Chemscore.DEInternal.Weighted>
1.2988

> <Gold.Chemscore.Rot.Weighted>
4.2442

> <Gold.Chemscore.Internal.Correction.Weighted>
   9.000000E+99

> <Gold.Protein.RotatedTorsions>
[ 6907 6896 6895 6894 ] final   92.73 input  -60.11 | X-H torsion
[ 7974 7965 7964 7962 ] final  174.85 input  175.53 | X-H torsion
[ 8008 7997 7996 7995 ] final   98.00 input   59.86 | X-H torsion
[ 10167 10162 10161 10158 ] final   22.61 input  -65.29 | X-H torsion
[ 10718 10713 10712 10709 ] final   22.82 input   66.30 | X-H torsion
[ 10763 10752 10751 10750 ] final   84.44 input  -60.55 | X-H torsion
[ 11005 11000 10999 10996 ] final  163.31 input  -57.11 | X-H torsion

> <Gold.Protein.ActiveResidues>
 VAL166  LYS551  ARG553  GLY616  TRP617  ASP618  TYR619  PRO620  LYS621  CYS622 
 ASP623  PHE694  ASN695  SER759  ASP760  ASP761  ALA762  ILE779  LEU786  VAL792 
 PHE793  MET794  SER795  GLU796  ALA797  LYS798  CYS799  TRP800  GLU811  SER814 

> <Gold.Protein.RotatedAtoms>
  152.5453  134.1457  159.8497 H   0  0  0  0  0  0  0  0  0  0  0  0  # atno 6907 bound_to 6896
  151.1488  133.4914  159.2603 H   0  0  0  0  0  0  0  0  0  0  0  0  # atno 6908 bound_to 6896
  151.1494  135.0230  159.8716 H   0  0  0  0  0  0  0  0  0  0  0  0  # atno 6909 bound_to 6896
  144.7213  139.9858  143.6439 H   0  0  0  0  0  0  0  0  0  0  0  0  # atno 7974 bound_to 7965
  156.0960  140.3250  155.7878 H   0  0  0  0  0  0  0  0  0  0  0  0  # atno 8008 bound_to 7997
  155.4917  140.0562  157.2970 H   0  0  0  0  0  0  0  0  0  0  0  0  # atno 8009 bound_to 7997
  154.4666  140.1992  156.0117 H   0  0  0  0  0  0  0  0  0  0  0  0  # atno 8010 bound_to 7997
  140.5334  143.9801  150.6478 H   0  0  0  0  0  0  0  0  0  0  0  0  # atno 10167 bound_to 10162
  157.1576  130.6702  149.6033 H   0  0  0  0  0  0  0  0  0  0  0  0  # atno 10718 bound_to 10713
  153.1382  135.4654  154.9454 H   0  0  0  0  0  0  0  0  0  0  0  0  # atno 10763 bound_to 10752
  154.7724  135.3163  154.8165 H   0  0  0  0  0  0  0  0  0  0  0  0  # atno 10764 bound_to 10752
  153.8693  135.6905  153.4830 H   0  0  0  0  0  0  0  0  0  0  0  0  # atno 10765 bound_to 10752
  140.2345  134.8099  157.3350 H   0  0  0  0  0  0  0  0  0  0  0  0  # atno 11005 bound_to 11000
  146.0451  139.3458  143.0673 LP  0  0  0  0  0  0  0  0  0  0  0  0  # atno 17320 bound_to 7965
  145.8286  140.9642  143.0861 LP  0  0  0  0  0  0  0  0  0  0  0  0  # atno 17321 bound_to 7965
  140.3183  143.3154  152.0810 LP  0  0  0  0  0  0  0  0  0  0  0  0  # atno 17342 bound_to 10162
  139.4962  144.6591  151.6506 LP  0  0  0  0  0  0  0  0  0  0  0  0  # atno 17343 bound_to 10162
  155.9759  130.4723  150.6494 LP  0  0  0  0  0  0  0  0  0  0  0  0  # atno 17370 bound_to 10713
  157.4163  131.0830  151.1174 LP  0  0  0  0  0  0  0  0  0  0  0  0  # atno 17371 bound_to 10713
  140.1717  134.4601  155.7828 LP  0  0  0  0  0  0  0  0  0  0  0  0  # atno 17394 bound_to 11000
  141.2215  133.6944  156.7718 LP  0  0  0  0  0  0  0  0  0  0  0  0  # atno 17395 bound_to 11000

$$$$
