#       Name:                AV-unprocessed.smi:775
#       Creating user name   scv26
#       Creation time:       Fri Mar 27 01:11:38 2020


#       File generated by GOLD software.
#

@<TRIPOS>MOLECULE
AV-unprocessed.smi:775
    44    45     1
SMALL
NO_CHARGES


@<TRIPOS>ATOM
      1 ****        -2.6469  -0.9100  -0.6714 C.3            1 S1                 0.0000
      2 ****        -2.1801  -0.6690   0.7769 C.3            1 S1                 0.0000
      3 ****        -2.5447  -1.8328   1.7249 C.3            1 S1                 0.0000
      4 ****        -1.9620  -3.1076   1.3364 N.pl3          1 S1                 0.0000
      5 ****        -0.7461  -3.6424   1.7095 C.2            1 S1                 0.0000
      6 ****        -0.6295  -4.8562   1.0959 C.2            1 S1                 0.0000
      7 ****        -1.8438  -4.9835   0.3653 C.2            1 S1                 0.0000
      8 ****        -2.6394  -3.9364   0.5130 N.2            1 S1                 0.0000
      9 ****        -0.7250  -0.4025   0.8401 N.4            1 S1                 1.0000
     10 ****        -0.2806   0.8911   0.2760 C.3            1 S1                 0.0000
     11 ****         1.2264   1.1229   0.4701 C.2            1 S1                 0.0000
     12 ****         1.8737   0.2847   1.1008 O.2            1 S1                 0.0000
     13 ****         1.7975   2.2361  -0.0543 N.am           1 S1                 0.0000
     14 ****         1.0829   3.2497  -0.8371 C.3            1 S1                 0.0000
     15 ****         1.5696   3.1689  -2.2945 C.3            1 S1                 0.0000
     16 ****         3.0287   3.0915  -2.3863 N.am           1 S1                 0.0000
     17 ****         3.8566   2.7833  -1.3709 C.2            1 S1                 0.0000
     18 ****         5.0753   2.7455  -1.5211 O.2            1 S1                 0.0000
     19 ****         3.2496   2.4691   0.0104 C.3            1 S1                 0.0000
     20 ****        -3.6986  -1.1966  -0.6972 H              1 S1                 0.0000
     21 ****        -2.0750  -1.7032  -1.1536 H              1 S1                 0.0000
     22 ****        -2.5470  -0.0129  -1.2819 H              1 S1                 0.0000
     23 ****        -2.6924   0.2168   1.1553 H              1 S1                 0.0000
     24 ****        -2.2218  -1.6052   2.7418 H              1 S1                 0.0000
     25 ****        -3.6289  -1.9485   1.7712 H              1 S1                 0.0000
     26 ****        -0.0709  -3.1203   2.3717 H              1 S1                 0.0000
     27 ****         0.1957  -5.5498   1.1619 H              1 S1                 0.0000
     28 ****        -2.1686  -5.8000  -0.2627 H              1 S1                 0.0000
     29 ****        -0.4518  -0.4111   1.8125 H              1 S1                 0.0000
     30 ****        -0.5061   0.9143  -0.7902 H              1 S1                 0.0000
     31 ****        -0.8323   1.6977   0.7600 H              1 S1                 0.0000
     32 ****        -0.0027   3.1791  -0.7964 H              1 S1                 0.0000
     33 ****         1.3242   4.2311  -0.4253 H              1 S1                 0.0000
     34 ****         1.1523   2.2847  -2.7777 H              1 S1                 0.0000
     35 ****         1.2197   4.0333  -2.8593 H              1 S1                 0.0000
     36 ****         3.4419   3.2933  -3.2856 H              1 S1                 0.0000
     37 ****         3.4368   3.3165   0.6708 H              1 S1                 0.0000
     38 ****         3.8003   1.6268   0.4317 H              1 S1                 0.0000
     39 ****        -0.2355  -1.1500   0.3689 H              1 S1                 0.0000
     40 ****        -3.5411  -3.7912   0.1057 LP             1 S1                 0.0000
     41 ****         1.4170  -0.5234   1.4727 LP             1 S1                 0.0000
     42 ****         2.8555   0.4129   1.2406 LP             1 S1                 0.0000
     43 ****         5.4753   2.9467  -2.4152 LP             1 S1                 0.0000
     44 ****         5.6672   2.5136  -0.7492 LP             1 S1                 0.0000
@<TRIPOS>BOND
    1    1    2 1     
    2    1   20 1     
    3    1   21 1     
    4    1   22 1     
    5    2    3 1     
    6    2    9 1     
    7    2   23 1     
    8    3    4 1     
    9    3   24 1     
   10    3   25 1     
   11    4    8 1     
   12    4    5 1     
   13    5    6 2     
   14    5   26 1     
   15    6    7 1     
   16    6   27 1     
   17    7    8 2     
   18    7   28 1     
   19    9   10 1     
   20    9   29 1     
   21    9   39 1     
   22   10   11 1     
   23   10   30 1     
   24   10   31 1     
   25   11   12 2     
   26   11   13 am    
   27   13   19 1     
   28   13   14 1     
   29   14   15 1     
   30   14   32 1     
   31   14   33 1     
   32   15   16 1     
   33   15   34 1     
   34   15   35 1     
   35   16   17 am    
   36   16   36 1     
   37   17   18 2     
   38   17   19 1     
   39   19   37 1     
   40   19   38 1     
   41    8   40 1     
   42   12   41 1     
   43   12   42 1     
   44   18   43 1     
   45   18   44 1     
@<TRIPOS>SUBSTRUCTURE
      1 S1             1
@<TRIPOS>SET
LONE_PAIRS      STATIC     ATOMS    <user>   **** ""
5 40 41 42 43 44
DONOR_HYDROGENS      STATIC     ATOMS    <user>   **** ""
3 29 39 36
ATOM$BLUE        STATIC     ATOMS    COLORGROUP SYSTEM
5 40 41 42 43 44
ATOM$RED        STATIC     ATOMS    COLORGROUP SYSTEM
3 29 39 36
