AV-unprocessed.smi:1007|AV-procd|sdf|4405|dock10
  -GOLD-   22720 2343D 1   1.00000     0.00000
 Structure written by MMmdl.
 57 59  0  0  0  0  0  0  0  0  3 V2000
  143.1374  136.1387  157.4383 C   0  0  0  0  0  0  0  0  0  0  0  0
  142.9494  136.8812  156.2461 O   0  0  0  0  0  0  0  0  0  0  0  0
  144.1444  137.0171  155.4947 C   0  0  0  0  0  0  0  0  0  0  0  0
  143.8652  137.9104  154.2767 C   0  0  0  0  0  0  0  0  0  0  0  0
  145.0184  138.7810  153.9356 N   0  3  0  0  0  0  0  0  0  0  0  0
  146.2099  138.0043  153.5117 C   0  0  0  0  0  0  0  0  0  0  0  0
  147.3373  138.9608  153.0776 C   0  0  0  0  0  0  0  0  0  0  0  0
  147.7449  139.8907  154.1316 N   0  0  0  0  0  0  0  0  0  0  0  0
  148.4818  139.2273  155.2179 C   0  0  0  0  0  0  0  0  0  0  0  0
  149.9902  138.9908  154.9831 C   0  0  1  0  0  0  0  0  0  0  0  0
  150.3877  139.6598  153.8030 O   0  0  0  0  0  0  0  0  0  0  0  0
  150.9337  139.3477  156.1484 C   0  0  0  0  0  0  0  0  0  0  0  0
  150.7842  140.7438  156.5791 N   0  0  0  0  0  0  0  0  0  0  0  0
  150.1420  141.7810  155.9761 C   0  0  0  0  0  0  0  0  0  0  0  0
  150.3015  142.8781  156.7670 N   0  3  0  0  0  0  0  0  0  0  0  0
  151.0571  142.5366  157.8907 C   0  0  0  0  0  0  0  0  0  0  0  0
  151.4827  143.3024  158.9696 C   0  0  0  0  0  0  0  0  0  0  0  0
  152.2516  142.6502  159.9600 C   0  0  0  0  0  0  0  0  0  0  0  0
  152.7375  143.4596  161.1503 C   0  0  0  0  0  0  0  0  0  0  0  0
  152.5673  141.2710  159.8488 C   0  0  0  0  0  0  0  0  0  0  0  0
  153.3951  140.5804  160.9194 C   0  0  0  0  0  0  0  0  0  0  0  0
  152.1232  140.5088  158.7445 C   0  0  0  0  0  0  0  0  0  0  0  0
  151.3690  141.1679  157.7770 C   0  0  0  0  0  0  0  0  0  0  0  0
  146.5563  140.6392  154.5593 C   0  0  0  0  0  0  0  0  0  0  0  0
  145.3813  139.7435  155.0092 C   0  0  0  0  0  0  0  0  0  0  0  0
  142.1931  136.0665  157.9778 H   0  0  0  0  0  0  0  0  0  0  0  0
  143.8629  136.6222  158.0938 H   0  0  0  0  0  0  0  0  0  0  0  0
  143.4803  135.1260  157.2225 H   0  0  0  0  0  0  0  0  0  0  0  0
  144.9461  137.4213  156.1131 H   0  0  0  0  0  0  0  0  0  0  0  0
  144.4713  136.0339  155.1527 H   0  0  0  0  0  0  0  0  0  0  0  0
  143.5947  137.3033  153.4114 H   0  0  0  0  0  0  0  0  0  0  0  0
  142.9944  138.5276  154.5027 H   0  0  0  0  0  0  0  0  0  0  0  0
  146.5405  137.3539  154.3231 H   0  0  0  0  0  0  0  0  0  0  0  0
  145.9461  137.3575  152.6740 H   0  0  0  0  0  0  0  0  0  0  0  0
  148.1990  138.3870  152.7344 H   0  0  0  0  0  0  0  0  0  0  0  0
  147.0017  139.5311  152.2102 H   0  0  0  0  0  0  0  0  0  0  0  0
  148.3398  139.7598  156.1575 H   0  0  0  0  0  0  0  0  0  0  0  0
  148.0451  138.2420  155.3884 H   0  0  0  0  0  0  0  0  0  0  0  0
  150.1061  137.9261  154.7779 H   0  0  0  0  0  0  0  0  0  0  0  0
  149.7811  139.4348  153.1139 H   0  0  0  0  0  0  0  0  0  0  0  0
  150.7192  138.7286  157.0193 H   0  0  0  0  0  0  0  0  0  0  0  0
  151.9770  139.1776  155.8806 H   0  0  0  0  0  0  0  0  0  0  0  0
  149.6086  141.7423  155.0372 H   0  0  0  0  0  0  0  0  0  0  0  0
  151.2392  144.3520  159.0468 H   0  0  0  0  0  0  0  0  0  0  0  0
  152.3584  143.0381  162.0815 H   0  0  0  0  0  0  0  0  0  0  0  0
  152.4020  144.4955  161.0926 H   0  0  0  0  0  0  0  0  0  0  0  0
  153.8272  143.4648  161.1898 H   0  0  0  0  0  0  0  0  0  0  0  0
  153.5621  139.5297  160.6798 H   0  0  0  0  0  0  0  0  0  0  0  0
  152.8879  140.6254  161.8834 H   0  0  0  0  0  0  0  0  0  0  0  0
  154.3702  141.0579  161.0176 H   0  0  0  0  0  0  0  0  0  0  0  0
  152.3651  139.4599  158.6583 H   0  0  0  0  0  0  0  0  0  0  0  0
  146.7982  141.3347  155.3579 H   0  0  0  0  0  0  0  0  0  0  0  0
  146.2184  141.2608  153.7289 H   0  0  0  0  0  0  0  0  0  0  0  0
  144.5286  140.3788  155.2451 H   0  0  0  0  0  0  0  0  0  0  0  0
  145.6279  139.2054  155.9248 H   0  0  0  0  0  0  0  0  0  0  0  0
  144.7387  139.3251  153.1314 H   0  0  0  0  0  0  0  0  0  0  0  0
  149.9251  143.7923  156.5505 H   0  0  0  0  0  0  0  0  0  0  0  0
  1  2  1  0  0  0  0
  1 26  1  0  0  0  0
  1 27  1  0  0  0  0
  1 28  1  0  0  0  0
  2  3  1  0  0  0  0
  3  4  1  0  0  0  0
  3 29  1  0  0  0  0
  3 30  1  0  0  0  0
  4  5  1  0  0  0  0
  4 31  1  0  0  0  0
  4 32  1  0  0  0  0
  5 25  1  0  0  0  0
  5  6  1  0  0  0  0
  5 56  1  0  0  0  0
  6  7  1  0  0  0  0
  6 33  1  0  0  0  0
  6 34  1  0  0  0  0
  7  8  1  0  0  0  0
  7 35  1  0  0  0  0
  7 36  1  0  0  0  0
  8  9  1  0  0  0  0
  8 24  1  0  0  0  0
  9 10  1  0  0  0  0
  9 37  1  0  0  0  0
  9 38  1  0  0  0  0
 10 11  1  0  0  0  0
 10 12  1  0  0  0  0
 10 39  1  0  0  0  0
 11 40  1  0  0  0  0
 12 13  1  0  0  0  0
 12 41  1  0  0  0  0
 12 42  1  0  0  0  0
 13 23  1  0  0  0  0
 13 14  1  0  0  0  0
 14 15  2  0  0  0  0
 14 43  1  0  0  0  0
 15 16  1  0  0  0  0
 15 57  1  0  0  0  0
 16 23  2  0  0  0  0
 16 17  1  0  0  0  0
 17 18  2  0  0  0  0
 17 44  1  0  0  0  0
 18 19  1  0  0  0  0
 18 20  1  0  0  0  0
 19 45  1  0  0  0  0
 19 46  1  0  0  0  0
 19 47  1  0  0  0  0
 20 21  1  0  0  0  0
 20 22  2  0  0  0  0
 21 48  1  0  0  0  0
 21 49  1  0  0  0  0
 21 50  1  0  0  0  0
 22 23  1  0  0  0  0
 22 51  1  0  0  0  0
 24 25  1  0  0  0  0
 24 52  1  0  0  0  0
 24 53  1  0  0  0  0
 25 54  1  0  0  0  0
 25 55  1  0  0  0  0
M  CHG  1   5   1
M  CHG  1  15   1
M  END
> <s_m_source_file>
AV-unprocessed.smi

> <i_m_source_file_index>
1007

> <i_lp_mmshare_version>
43012

> <i_f3d_flags>
0

> <s_epik_input>
W0NIM11PW0NIMl1bQ0gyXU4xW0NIMl1bQ0gyXU4oW0NIMl1bQ0gyXTEpW0NIMl1bQ0BIXShbT0hdKVtDSDJdbihbY0hdbjIpYyhjMjMpW2NIXWMoW0NIM10pYyhbY0hdMylbQ0gzXQ==

> <s_epik_cmdline>
J2VwaWtfcHl0aG9uJywgJy1waCcsICc3LjAnLCAnLXRuJywgJzgnLCAnLW1hJywgJzIwMCcsICctbWV0YWxfYmluZGluZycsICctaW1hZScsICc8aW5maWxlLm1hZT4nLCAnLW9tYWUnLCAnPG91dGZpbGUubWFlPic=

> <r_epik_Ionization_Penalty>
1.34507

> <r_epik_Ionization_Penalty_Charging>
1.29906

> <r_epik_Ionization_Penalty_Neutral>
0.0460038

> <r_epik_State_Penalty>
2.55679

> <r_epik_Charging_Adjusted_Penalty>
3.85586

> <i_epik_Tot_Q>
2

> <i_epik_Tot_abs_Q>
2

> <r_epik_Metal_State_Penalty>
6.56928

> <b_epik_Metal_Only>
0

> <s_lp_Force_Field>
OPLS_2005

> <r_lp_Energy>
47.3521

> <b_lp_Chiralities_Consistent>
1

> <s_lp_Variant>
AV-unprocessed.smi:1007-8

> <Gold.Version>
5.8.1

> <Gold.Id.Protein>
6NUR|6NUR_protein|mol2

> <Gold.PLP.Fitness>
51.1221

> <Gold.PLP.PLP>
-36.9345

> <Gold.PLP.part.hbond>
-3.9949

> <Gold.PLP.part.metal>
0.0000

> <Gold.PLP.part.buried>
-2.2241

> <Gold.PLP.part.nonpolar>
-30.6376

> <Gold.PLP.part.repulsive>
0.1731

> <Gold.PLP.ligand.clash>
0.0000

> <Gold.PLP.ligand.torsion>
1.3714

> <Gold.PLP.Chemscore.Hbond>
5.5840

> <Gold.PLP.Chemscore.CHOScore>
0.0000

> <Gold.PLP.Chemscore.Metal>
0.0000

> <Gold.Chemscore.Hbonds>
donor molecule, donor type, donor heavy atom, donor atom, acceptor molecule, acceptor atom, score
      L1  H     5    56       P1 10175  1.92
      L1  H    11    40       P1  7957  0.63
      L1  H    15    57       P1  8028  2.00
      P1  H  7989  7998       L1    11  0.99

> <Gold.PLP.Chemscore.Internal.Correction>
0.1785

> <Gold.Rescore>
     Score         DG    S(hbond)    S(metal)    S(lipo)     H(rot)  DE(clash)    DE(int)     intcor
     19.89     -22.53       3.43        0.00     105.60       2.64       0.54       2.09       ----

> <Gold.Chemscore.Fitness>
19.8949

> <Gold.Chemscore.DG>
-22.5302

> <Gold.Chemscore.ZeroCoef>
-5.4800

> <Gold.Chemscore.Hbond>
3.4316

> <Gold.Chemscore.Metal>
0.0000

> <Gold.Chemscore.Lipo>
105.6005

> <Gold.Chemscore.Internal_Hbond>
0.0000

> <Gold.Chemscore.DEClash>
0.5444

> <Gold.Chemscore.DEInternal>
2.0909

> <Gold.Chemscore.Rot>
2.6432

> <Gold.Chemscore.Internal.Correction>
   9.000000E+99

> <Gold.Chemscore.Hbonds>
donor molecule, donor type, donor heavy atom, donor atom, acceptor molecule, acceptor atom, score
      L1  H     5    56       P1 10175  0.92
      L1  H    11    40       P1  7957  0.60
      L1  H    15    57       P1  8028  0.94
      P1  H  7989  7998       L1    11  0.89

> <Gold.Chemscore.Hbond.Weighted>
-11.4615

> <Gold.Chemscore.Metal.Weighted>
-0.0000

> <Gold.Chemscore.Lipo.Weighted>
-12.3553

> <Gold.Chemscore.Internal_Hbond.Weighted>
0.0000

> <Gold.Chemscore.DEClash.Weighted>
0.5444

> <Gold.Chemscore.DEInternal.Weighted>
2.0909

> <Gold.Chemscore.Rot.Weighted>
6.7665

> <Gold.Chemscore.Internal.Correction.Weighted>
   9.000000E+99

> <Gold.Protein.RotatedTorsions>
[ 6907 6896 6895 6894 ] final  -39.20 input  -60.11 | X-H torsion
[ 7974 7965 7964 7962 ] final -147.38 input  175.53 | X-H torsion
[ 8008 7997 7996 7995 ] final   92.59 input   59.86 | X-H torsion
[ 10167 10162 10161 10158 ] final   12.02 input  -65.29 | X-H torsion
[ 10718 10713 10712 10709 ] final  -97.84 input   66.30 | X-H torsion
[ 10763 10752 10751 10750 ] final -148.83 input  -60.55 | X-H torsion
[ 11005 11000 10999 10996 ] final  156.01 input  -57.11 | X-H torsion

> <Gold.Protein.ActiveResidues>
 VAL166  LYS551  ARG553  GLY616  TRP617  ASP618  TYR619  PRO620  LYS621  CYS622 
 ASP623  PHE694  ASN695  SER759  ASP760  ASP761  ALA762  ILE779  LEU786  VAL792 
 PHE793  MET794  SER795  GLU796  ALA797  LYS798  CYS799  TRP800  GLU811  SER814 

> <Gold.Protein.RotatedAtoms>
  150.9932  134.9262  159.7911 H   0  0  0  0  0  0  0  0  0  0  0  0  # atno 6907 bound_to 6896
  152.5257  134.3254  159.9173 H   0  0  0  0  0  0  0  0  0  0  0  0  # atno 6908 bound_to 6896
  151.3260  133.3979  159.2693 H   0  0  0  0  0  0  0  0  0  0  0  0  # atno 6909 bound_to 6896
  144.8097  140.5334  143.5651 H   0  0  0  0  0  0  0  0  0  0  0  0  # atno 7974 bound_to 7965
  156.0371  140.3323  155.7203 H   0  0  0  0  0  0  0  0  0  0  0  0  # atno 8008 bound_to 7997
  155.5800  140.0636  157.2803 H   0  0  0  0  0  0  0  0  0  0  0  0  # atno 8009 bound_to 7997
  154.4377  140.1845  156.0954 H   0  0  0  0  0  0  0  0  0  0  0  0  # atno 8010 bound_to 7997
  140.6094  143.8439  150.7049 H   0  0  0  0  0  0  0  0  0  0  0  0  # atno 10167 bound_to 10162
  156.0093  130.5212  150.6434 H   0  0  0  0  0  0  0  0  0  0  0  0  # atno 10718 bound_to 10713
  154.8211  135.3324  154.7034 H   0  0  0  0  0  0  0  0  0  0  0  0  # atno 10763 bound_to 10752
  153.7667  135.6928  153.4919 H   0  0  0  0  0  0  0  0  0  0  0  0  # atno 10764 bound_to 10752
  153.2073  135.4495  155.0287 H   0  0  0  0  0  0  0  0  0  0  0  0  # atno 10765 bound_to 10752
  140.1635  134.8593  157.2603 H   0  0  0  0  0  0  0  0  0  0  0  0  # atno 11005 bound_to 11000
  145.5353  139.1475  143.3477 LP  0  0  0  0  0  0  0  0  0  0  0  0  # atno 17320 bound_to 7965
  146.2394  140.5493  142.8940 LP  0  0  0  0  0  0  0  0  0  0  0  0  # atno 17321 bound_to 7965
  140.2003  143.3964  152.1796 LP  0  0  0  0  0  0  0  0  0  0  0  0  # atno 17342 bound_to 10162
  139.5350  144.7200  151.4925 LP  0  0  0  0  0  0  0  0  0  0  0  0  # atno 17343 bound_to 10162
  157.4210  131.0836  151.1131 LP  0  0  0  0  0  0  0  0  0  0  0  0  # atno 17370 bound_to 10713
  157.1733  130.6277  149.5648 LP  0  0  0  0  0  0  0  0  0  0  0  0  # atno 17371 bound_to 10713
  140.2461  134.3738  155.7460 LP  0  0  0  0  0  0  0  0  0  0  0  0  # atno 17394 bound_to 11000
  141.2211  133.7291  156.8864 LP  0  0  0  0  0  0  0  0  0  0  0  0  # atno 17395 bound_to 11000

$$$$
