AV-unprocessed.smi:2963|AV-procd|sdf|11320|dock8
  -GOLD-   2272016223D 1   1.00000     0.00000
 Structure written by MMmdl.
 42 44  0  0  0  0  0  0  0  0  2 V2000
  140.1778  136.1236  153.9765 C   0  0  0  0  0  0  0  0  0  0  0  0
  140.9800  134.9566  154.0655 O   0  0  0  0  0  0  0  0  0  0  0  0
  142.3766  135.2129  154.0721 C   0  0  0  0  0  0  0  0  0  0  0  0
  142.8302  135.9358  152.7923 C   0  0  0  0  0  0  0  0  0  0  0  0
  144.1941  135.5522  152.4061 N   0  0  0  0  0  0  0  0  0  0  0  0
  145.3731  136.2237  152.5303 C   0  0  0  0  0  0  0  0  0  0  0  0
  145.5927  137.8275  153.2317 S   0  0  0  0  0  0  0  0  0  0  0  0
  147.0022  137.6787  154.3713 C   0  0  0  0  0  0  0  0  0  0  0  0
  148.0460  138.8016  154.2452 C   0  0  0  0  0  0  0  0  0  0  0  0
  149.2059  138.4994  153.9535 O   0  0  0  0  0  0  0  0  0  0  0  0
  147.6285  140.0785  154.4588 N   0  0  0  0  0  0  0  0  0  0  0  0
  146.2520  140.4290  154.8136 C   0  0  0  0  0  0  0  0  0  0  0  0
  146.2698  141.9486  154.9398 C   0  0  0  0  0  0  0  0  0  0  0  0
  147.6466  142.2590  154.6460 N   0  0  0  0  0  0  0  0  0  0  0  0
  148.3994  141.1896  154.3774 C   0  0  0  0  0  0  0  0  0  0  0  0
  149.5981  141.2550  154.1031 O   0  0  0  0  0  0  0  0  0  0  0  0
  146.3562  135.4286  152.0231 N   0  3  0  0  0  0  0  0  0  0  0  0
  145.8007  134.2288  151.5751 C   0  0  0  0  0  0  0  0  0  0  0  0
  146.3915  133.1116  150.9927 C   0  0  0  0  0  0  0  0  0  0  0  0
  145.5326  132.0448  150.6555 C   0  0  0  0  0  0  0  0  0  0  0  0
  144.1452  132.1136  150.8980 C   0  0  0  0  0  0  0  0  0  0  0  0
  143.5566  133.2517  151.4881 C   0  0  0  0  0  0  0  0  0  0  0  0
  144.4127  134.3015  151.8186 C   0  0  0  0  0  0  0  0  0  0  0  0
  139.1277  135.8371  153.9203 H   0  0  0  0  0  0  0  0  0  0  0  0
  140.4150  136.6991  153.0807 H   0  0  0  0  0  0  0  0  0  0  0  0
  140.2981  136.7662  154.8483 H   0  0  0  0  0  0  0  0  0  0  0  0
  142.5836  135.8509  154.9321 H   0  0  0  0  0  0  0  0  0  0  0  0
  142.9384  134.2909  154.2298 H   0  0  0  0  0  0  0  0  0  0  0  0
  142.1644  135.7368  151.9526 H   0  0  0  0  0  0  0  0  0  0  0  0
  142.8178  137.0149  152.9481 H   0  0  0  0  0  0  0  0  0  0  0  0
  146.6135  137.6685  155.3899 H   0  0  0  0  0  0  0  0  0  0  0  0
  147.4785  136.7155  154.1884 H   0  0  0  0  0  0  0  0  0  0  0  0
  145.5515  140.1125  154.0393 H   0  0  0  0  0  0  0  0  0  0  0  0
  145.9602  139.9672  155.7582 H   0  0  0  0  0  0  0  0  0  0  0  0
  145.6060  142.4293  154.2202 H   0  0  0  0  0  0  0  0  0  0  0  0
  146.0075  142.2814  155.9448 H   0  0  0  0  0  0  0  0  0  0  0  0
  147.9981  143.2059  154.6453 H   0  0  0  0  0  0  0  0  0  0  0  0
  147.4541  133.0542  150.8065 H   0  0  0  0  0  0  0  0  0  0  0  0
  145.9465  131.1554  150.2024 H   0  0  0  0  0  0  0  0  0  0  0  0
  143.5193  131.2757  150.6272 H   0  0  0  0  0  0  0  0  0  0  0  0
  142.4930  133.2939  151.6725 H   0  0  0  0  0  0  0  0  0  0  0  0
  147.3336  135.6879  151.9920 H   0  0  0  0  0  0  0  0  0  0  0  0
  1  2  1  0  0  0  0
  1 24  1  0  0  0  0
  1 25  1  0  0  0  0
  1 26  1  0  0  0  0
  2  3  1  0  0  0  0
  3  4  1  0  0  0  0
  3 27  1  0  0  0  0
  3 28  1  0  0  0  0
  4  5  1  0  0  0  0
  4 29  1  0  0  0  0
  4 30  1  0  0  0  0
  5 23  1  0  0  0  0
  5  6  1  0  0  0  0
  6  7  1  0  0  0  0
  6 17  2  0  0  0  0
  7  8  1  0  0  0  0
  8  9  1  0  0  0  0
  8 31  1  0  0  0  0
  8 32  1  0  0  0  0
  9 10  2  0  0  0  0
  9 11  1  0  0  0  0
 11 15  1  0  0  0  0
 11 12  1  0  0  0  0
 12 13  1  0  0  0  0
 12 33  1  0  0  0  0
 12 34  1  0  0  0  0
 13 14  1  0  0  0  0
 13 35  1  0  0  0  0
 13 36  1  0  0  0  0
 14 15  1  0  0  0  0
 14 37  1  0  0  0  0
 15 16  2  0  0  0  0
 17 18  1  0  0  0  0
 17 42  1  0  0  0  0
 18 23  2  0  0  0  0
 18 19  1  0  0  0  0
 19 20  2  0  0  0  0
 19 38  1  0  0  0  0
 20 21  1  0  0  0  0
 20 39  1  0  0  0  0
 21 22  2  0  0  0  0
 21 40  1  0  0  0  0
 22 23  1  0  0  0  0
 22 41  1  0  0  0  0
M  CHG  1  17   1
M  END
> <s_m_source_file>
AV-unprocessed.smi

> <i_m_source_file_index>
2963

> <i_lp_mmshare_version>
43012

> <i_f3d_flags>
0

> <s_epik_input>
W2NIXTFbY0hdW2NIXVtjSF1jKGMxMiluKFtDSDJdW0NIMl1PW0NIM10pYyhuMilTW0NIMl1DKD1PKU4zW0NIMl1bQ0gyXVtOSF1DMz1P

> <s_epik_cmdline>
J2VwaWtfcHl0aG9uJywgJy1waCcsICc3LjAnLCAnLXRuJywgJzgnLCAnLW1hJywgJzIwMCcsICctbWV0YWxfYmluZGluZycsICctaW1hZScsICc8aW5maWxlLm1hZT4nLCAnLW9tYWUnLCAnPG91dGZpbGUubWFlPic=

> <r_lp_tautomer_probability>
0.9999

> <r_epik_Ionization_Penalty>
1.70838

> <r_epik_Ionization_Penalty_Charging>
1.70836

> <r_epik_Ionization_Penalty_Neutral>
2.53969e-05

> <r_epik_State_Penalty>
1.81492

> <r_epik_Charging_Adjusted_Penalty>
3.52327

> <i_epik_Tot_Q>
1

> <i_epik_Tot_abs_Q>
1

> <r_epik_Metal_State_Penalty>
1.84772

> <b_epik_Metal_Only>
0

> <s_lp_Force_Field>
OPLS_2005

> <r_lp_Energy>
48.5569

> <b_lp_Chiralities_Consistent>
1

> <s_lp_Variant>
AV-unprocessed.smi:2963-2

> <Gold.Version>
5.8.1

> <Gold.Id.Protein>
6NUR|6NUR_protein|mol2

> <Gold.PLP.Fitness>
53.6924

> <Gold.PLP.PLP>
-40.7219

> <Gold.PLP.part.hbond>
-5.1497

> <Gold.PLP.part.metal>
0.0000

> <Gold.PLP.part.buried>
-9.4096

> <Gold.PLP.part.nonpolar>
-29.2053

> <Gold.PLP.part.repulsive>
1.4021

> <Gold.PLP.ligand.clash>
0.0000

> <Gold.PLP.ligand.torsion>
0.8922

> <Gold.PLP.Chemscore.Hbond>
4.9028

> <Gold.PLP.Chemscore.CHOScore>
0.0000

> <Gold.PLP.Chemscore.Metal>
0.0000

> <Gold.Chemscore.Hbonds>
donor molecule, donor type, donor heavy atom, donor atom, acceptor molecule, acceptor atom, score
      L1  H    14    37       P1  8028  0.99
      L1  H    17    42       P1  7948  2.00
      P1  H  7989  7998       L1    16  0.27
      P1  H  8011  8017       L1    16  0.57
      P1  H 11000 11005       L1     2  1.00

> <Gold.PLP.Chemscore.Internal.Correction>
0.0465

> <Gold.Rescore>
     Score         DG    S(hbond)    S(metal)    S(lipo)     H(rot)  DE(clash)    DE(int)     intcor
     15.28     -17.71       3.07        0.00      69.38       2.39       0.04       2.39       ----

> <Gold.Chemscore.Fitness>
15.2775

> <Gold.Chemscore.DG>
-17.7111

> <Gold.Chemscore.ZeroCoef>
-5.4800

> <Gold.Chemscore.Hbond>
3.0661

> <Gold.Chemscore.Metal>
0.0000

> <Gold.Chemscore.Lipo>
69.3797

> <Gold.Chemscore.Internal_Hbond>
0.0000

> <Gold.Chemscore.DEClash>
0.0424

> <Gold.Chemscore.DEInternal>
2.3912

> <Gold.Chemscore.Rot>
2.3933

> <Gold.Chemscore.Internal.Correction>
   9.000000E+99

> <Gold.Chemscore.Hbonds>
donor molecule, donor type, donor heavy atom, donor atom, acceptor molecule, acceptor atom, score
      L1  H    14    37       P1  8028  0.83
      L1  H    17    42       P1  7948  1.00
      P1  H  7989  7998       L1    16  0.27
      P1  H  8011  8017       L1    16  0.37
      P1  H 11000 11005       L1     2  0.27

> <Gold.Chemscore.Hbond.Weighted>
-10.2406

> <Gold.Chemscore.Metal.Weighted>
-0.0000

> <Gold.Chemscore.Lipo.Weighted>
-8.1174

> <Gold.Chemscore.Internal_Hbond.Weighted>
0.0000

> <Gold.Chemscore.DEClash.Weighted>
0.0424

> <Gold.Chemscore.DEInternal.Weighted>
2.3912

> <Gold.Chemscore.Rot.Weighted>
6.1270

> <Gold.Chemscore.Internal.Correction.Weighted>
   9.000000E+99

> <Gold.Protein.RotatedTorsions>
[ 6907 6896 6895 6894 ] final  -55.94 input  -60.11 | X-H torsion
[ 7974 7965 7964 7962 ] final  -72.04 input  175.53 | X-H torsion
[ 8008 7997 7996 7995 ] final -136.91 input   59.86 | X-H torsion
[ 10167 10162 10161 10158 ] final  179.51 input  -65.29 | X-H torsion
[ 10718 10713 10712 10709 ] final   -6.06 input   66.30 | X-H torsion
[ 10763 10752 10751 10750 ] final -174.90 input  -60.55 | X-H torsion
[ 11005 11000 10999 10996 ] final   22.14 input  -57.11 | X-H torsion

> <Gold.Protein.ActiveResidues>
 VAL166  LYS551  ARG553  GLY616  TRP617  ASP618  TYR619  PRO620  LYS621  CYS622 
 ASP623  PHE694  ASN695  SER759  ASP760  ASP761  ALA762  ILE779  LEU786  VAL792 
 PHE793  MET794  SER795  GLU796  ALA797  LYS798  CYS799  TRP800  GLU811  SER814 

> <Gold.Protein.RotatedAtoms>
  150.8209  134.7416  159.6771 H   0  0  0  0  0  0  0  0  0  0  0  0  # atno 6907 bound_to 6896
  152.4325  134.5747  159.9941 H   0  0  0  0  0  0  0  0  0  0  0  0  # atno 6908 bound_to 6896
  151.5932  133.3327  159.3068 H   0  0  0  0  0  0  0  0  0  0  0  0  # atno 6909 bound_to 6896
  145.6702  140.9223  143.0887 H   0  0  0  0  0  0  0  0  0  0  0  0  # atno 7974 bound_to 7965
  155.4031  140.0507  157.3035 H   0  0  0  0  0  0  0  0  0  0  0  0  # atno 8008 bound_to 7997
  154.4981  140.2146  155.9364 H   0  0  0  0  0  0  0  0  0  0  0  0  # atno 8009 bound_to 7997
  156.1432  140.3150  155.8534 H   0  0  0  0  0  0  0  0  0  0  0  0  # atno 8010 bound_to 7997
  139.5339  144.2553  152.0752 H   0  0  0  0  0  0  0  0  0  0  0  0  # atno 10167 bound_to 10162
  156.7375  130.5199  149.5831 H   0  0  0  0  0  0  0  0  0  0  0  0  # atno 10718 bound_to 10713
  154.5908  135.2845  155.0638 H   0  0  0  0  0  0  0  0  0  0  0  0  # atno 10763 bound_to 10752
  154.1939  135.6436  153.5071 H   0  0  0  0  0  0  0  0  0  0  0  0  # atno 10764 bound_to 10752
  153.0120  135.5453  154.6593 H   0  0  0  0  0  0  0  0  0  0  0  0  # atno 10765 bound_to 10752
  140.3839  134.1891  155.7663 H   0  0  0  0  0  0  0  0  0  0  0  0  # atno 11005 bound_to 11000
  144.7059  139.8563  143.7430 LP  0  0  0  0  0  0  0  0  0  0  0  0  # atno 17320 bound_to 7965
  146.1051  139.4050  143.0322 LP  0  0  0  0  0  0  0  0  0  0  0  0  # atno 17321 bound_to 7965
  140.2020  144.4648  150.6427 LP  0  0  0  0  0  0  0  0  0  0  0  0  # atno 17342 bound_to 10162
  140.6535  143.2231  151.6023 LP  0  0  0  0  0  0  0  0  0  0  0  0  # atno 17343 bound_to 10162
  156.1487  130.6295  151.0566 LP  0  0  0  0  0  0  0  0  0  0  0  0  # atno 17370 bound_to 10713
  157.6833  131.0832  150.7312 LP  0  0  0  0  0  0  0  0  0  0  0  0  # atno 17371 bound_to 10713
  141.1914  133.8196  157.0880 LP  0  0  0  0  0  0  0  0  0  0  0  0  # atno 17394 bound_to 11000
  140.0458  134.9831  157.1045 LP  0  0  0  0  0  0  0  0  0  0  0  0  # atno 17395 bound_to 11000

$$$$
