AV-unprocessed.smi:2910|AV-procd|sdf|11175|dock10
  -GOLD-   2272016 63D 1   1.00000     0.00000
 Structure written by MMmdl.
 47 48  0  0  0  0  0  0  0  0  1 V2000
  149.8111  142.1519  155.8127 C   0  0  0  0  0  0  0  0  0  0  0  0
  149.6668  140.8055  155.1672 C   0  0  0  0  0  0  0  0  0  0  0  0
  148.4826  140.2015  154.6534 C   0  0  0  0  0  0  0  0  0  0  0  0
  148.9361  138.9977  154.1879 C   0  0  0  0  0  0  0  0  0  0  0  0
  148.2416  137.9993  153.5802 N   0  0  0  0  0  0  0  0  0  0  0  0
  146.9607  137.6349  153.7641 C   0  0  0  0  0  0  0  0  0  0  0  0
  146.1824  138.1473  154.5686 O   0  0  0  0  0  0  0  0  0  0  0  0
  146.6273  136.6218  152.9499 N   0  0  0  0  0  0  0  0  0  0  0  0
  145.3126  135.9791  152.8671 C   0  0  2  0  0  0  0  0  0  0  0  0
  144.9387  135.4170  154.2596 C   0  0  0  0  0  0  0  0  0  0  0  0
  143.4307  135.1858  154.4626 C   0  0  0  0  0  0  0  0  0  0  0  0
  143.2271  134.2577  155.5060 O   0  0  0  0  0  0  0  0  0  0  0  0
  145.3153  134.9053  151.7401 C   0  0  0  0  0  0  0  0  0  0  0  0
  143.9261  134.2379  151.5648 C   0  0  0  0  0  0  0  0  0  0  0  0
  143.9221  133.1686  150.4613 C   0  0  0  0  0  0  0  0  0  0  0  0
  144.9855  132.0959  150.7237 C   0  0  0  0  0  0  0  0  0  0  0  0
  146.3716  132.7358  150.8667 C   0  0  0  0  0  0  0  0  0  0  0  0
  146.3838  133.8074  151.9690 C   0  0  0  0  0  0  0  0  0  0  0  0
  150.2914  138.9139  154.4179 N   0  0  0  0  0  0  0  0  0  0  0  0
  151.2136  137.8396  154.1052 C   0  0  0  0  0  0  0  0  0  0  0  0
  150.7388  140.0340  155.0254 N   0  0  0  0  0  0  0  0  0  0  0  0
  148.8500  142.6622  155.8778 H   0  0  0  0  0  0  0  0  0  0  0  0
  150.4865  142.7899  155.2422 H   0  0  0  0  0  0  0  0  0  0  0  0
  150.2087  142.0629  156.8240 H   0  0  0  0  0  0  0  0  0  0  0  0
  147.4809  140.6036  154.6373 H   0  0  0  0  0  0  0  0  0  0  0  0
  148.7605  137.4708  152.8946 H   0  0  0  0  0  0  0  0  0  0  0  0
  147.3371  136.2685  152.3249 H   0  0  0  0  0  0  0  0  0  0  0  0
  144.5573  136.7223  152.6051 H   0  0  0  0  0  0  0  0  0  0  0  0
  145.4369  134.4610  154.4148 H   0  0  0  0  0  0  0  0  0  0  0  0
  145.3113  136.0859  155.0367 H   0  0  0  0  0  0  0  0  0  0  0  0
  142.9173  136.1121  154.7201 H   0  0  0  0  0  0  0  0  0  0  0  0
  142.9744  134.8005  153.5503 H   0  0  0  0  0  0  0  0  0  0  0  0
  143.3714  133.3874  155.1667 H   0  0  0  0  0  0  0  0  0  0  0  0
  145.5560  135.4093  150.8026 H   0  0  0  0  0  0  0  0  0  0  0  0
  143.6160  133.7868  152.5084 H   0  0  0  0  0  0  0  0  0  0  0  0
  143.1670  134.9797  151.3173 H   0  0  0  0  0  0  0  0  0  0  0  0
  142.9368  132.7061  150.3970 H   0  0  0  0  0  0  0  0  0  0  0  0
  144.1066  133.6395  149.4948 H   0  0  0  0  0  0  0  0  0  0  0  0
  144.7379  131.5462  151.6326 H   0  0  0  0  0  0  0  0  0  0  0  0
  144.9911  131.3683  149.9117 H   0  0  0  0  0  0  0  0  0  0  0  0
  147.1130  131.9677  151.0886 H   0  0  0  0  0  0  0  0  0  0  0  0
  146.6668  133.1849  149.9175 H   0  0  0  0  0  0  0  0  0  0  0  0
  147.3832  134.2386  151.9999 H   0  0  0  0  0  0  0  0  0  0  0  0
  146.2215  133.3332  152.9380 H   0  0  0  0  0  0  0  0  0  0  0  0
  151.1524  137.6022  153.0430 H   0  0  0  0  0  0  0  0  0  0  0  0
  150.9526  136.9541  154.6851 H   0  0  0  0  0  0  0  0  0  0  0  0
  152.2379  138.1303  154.3430 H   0  0  0  0  0  0  0  0  0  0  0  0
  1  2  1  0  0  0  0
  1 22  1  0  0  0  0
  1 23  1  0  0  0  0
  1 24  1  0  0  0  0
  2 21  2  0  0  0  0
  2  3  1  0  0  0  0
  3  4  2  0  0  0  0
  3 25  1  0  0  0  0
  4  5  1  0  0  0  0
  4 19  1  0  0  0  0
  5  6  1  0  0  0  0
  5 26  1  0  0  0  0
  6  7  2  0  0  0  0
  6  8  1  0  0  0  0
  8  9  1  0  0  0  0
  8 27  1  0  0  0  0
  9 10  1  0  0  0  0
  9 13  1  0  0  0  0
  9 28  1  0  0  0  0
 10 11  1  0  0  0  0
 10 29  1  0  0  0  0
 10 30  1  0  0  0  0
 11 12  1  0  0  0  0
 11 31  1  0  0  0  0
 11 32  1  0  0  0  0
 12 33  1  0  0  0  0
 13 18  1  0  0  0  0
 13 14  1  0  0  0  0
 13 34  1  0  0  0  0
 14 15  1  0  0  0  0
 14 35  1  0  0  0  0
 14 36  1  0  0  0  0
 15 16  1  0  0  0  0
 15 37  1  0  0  0  0
 15 38  1  0  0  0  0
 16 17  1  0  0  0  0
 16 39  1  0  0  0  0
 16 40  1  0  0  0  0
 17 18  1  0  0  0  0
 17 41  1  0  0  0  0
 17 42  1  0  0  0  0
 18 43  1  0  0  0  0
 18 44  1  0  0  0  0
 19 20  1  0  0  0  0
 19 21  1  0  0  0  0
 20 45  1  0  0  0  0
 20 46  1  0  0  0  0
 20 47  1  0  0  0  0
M  END
> <s_m_source_file>
AV-unprocessed.smi

> <i_m_source_file_index>
2910

> <i_lp_mmshare_version>
43012

> <i_f3d_flags>
0

> <s_epik_input>
W0NIM11jMVtjSF1jKG4objEpW0NIM10pW05IXUMoPU8pW05IXVtDQEhdKFtDSDJdW0NIMl1bT0hdKVtDSF0yW0NIMl1bQ0gyXVtDSDJdW0NIMl1bQ0gyXTI=

> <s_epik_cmdline>
J2VwaWtfcHl0aG9uJywgJy1waCcsICc3LjAnLCAnLXRuJywgJzgnLCAnLW1hJywgJzIwMCcsICctbWV0YWxfYmluZGluZycsICctaW1hZScsICc8aW5maWxlLm1hZT4nLCAnLW9tYWUnLCAnPG91dGZpbGUubWFlPic=

> <r_lp_tautomer_probability>
1

> <r_epik_Ionization_Penalty>
0.000101449

> <r_epik_Ionization_Penalty_Charging>
0

> <r_epik_Ionization_Penalty_Neutral>
0.000101449

> <r_epik_State_Penalty>
-0

> <r_epik_Charging_Adjusted_Penalty>
0

> <i_epik_Tot_Q>
0

> <i_epik_Tot_abs_Q>
0

> <r_epik_Metal_State_Penalty>
-0

> <b_epik_Metal_Only>
0

> <s_lp_Force_Field>
OPLS_2005

> <r_lp_Energy>
16.2269

> <b_lp_Chiralities_Consistent>
1

> <s_lp_Variant>
AV-unprocessed.smi:2910-1

> <Gold.Version>
5.8.1

> <Gold.Id.Protein>
6NUR|6NUR_protein|mol2

> <Gold.PLP.Fitness>
44.9396

> <Gold.PLP.PLP>
-33.7071

> <Gold.PLP.part.hbond>
-4.9572

> <Gold.PLP.part.metal>
0.0000

> <Gold.PLP.part.buried>
0.0707

> <Gold.PLP.part.nonpolar>
-29.2869

> <Gold.PLP.part.repulsive>
0.2100

> <Gold.PLP.ligand.clash>
0.0000

> <Gold.PLP.ligand.torsion>
0.5044

> <Gold.PLP.Chemscore.Hbond>
4.0522

> <Gold.PLP.Chemscore.CHOScore>
0.0000

> <Gold.PLP.Chemscore.Metal>
0.0000

> <Gold.Chemscore.Hbonds>
donor molecule, donor type, donor heavy atom, donor atom, acceptor molecule, acceptor atom, score
      L1  H     5    26       P1  7948  1.00
      L1  H     8    27       P1  7948  0.99
      L1  H    12    33       P1 10957  0.94
      P1  H  7989  7998       L1    21  0.95
      P1  H 11000 11005       L1    12  0.13

> <Gold.PLP.Chemscore.Internal.Correction>
0.0845

> <Gold.Rescore>
     Score         DG    S(hbond)    S(metal)    S(lipo)     H(rot)  DE(clash)    DE(int)     intcor
     16.72     -18.87       2.95        0.00      79.96       2.27       1.55       0.59       ----

> <Gold.Chemscore.Fitness>
16.7180

> <Gold.Chemscore.DG>
-18.8661

> <Gold.Chemscore.ZeroCoef>
-5.4800

> <Gold.Chemscore.Hbond>
2.9502

> <Gold.Chemscore.Metal>
0.0000

> <Gold.Chemscore.Lipo>
79.9555

> <Gold.Chemscore.Internal_Hbond>
0.0000

> <Gold.Chemscore.DEClash>
1.5546

> <Gold.Chemscore.DEInternal>
0.5935

> <Gold.Chemscore.Rot>
2.2743

> <Gold.Chemscore.Internal.Correction>
   9.000000E+99

> <Gold.Chemscore.Hbonds>
donor molecule, donor type, donor heavy atom, donor atom, acceptor molecule, acceptor atom, score
      L1  H     5    26       P1  7948  0.97
      L1  H     8    27       P1  7948  0.94
      L1  H    12    33       P1 10957  0.91
      P1  H  7989  7998       L1    21  0.07
      P1  H 11000 11005       L1    12  0.01

> <Gold.Chemscore.Hbond.Weighted>
-9.8536

> <Gold.Chemscore.Metal.Weighted>
-0.0000

> <Gold.Chemscore.Lipo.Weighted>
-9.3548

> <Gold.Chemscore.Internal_Hbond.Weighted>
0.0000

> <Gold.Chemscore.DEClash.Weighted>
1.5546

> <Gold.Chemscore.DEInternal.Weighted>
0.5935

> <Gold.Chemscore.Rot.Weighted>
5.8223

> <Gold.Chemscore.Internal.Correction.Weighted>
   9.000000E+99

> <Gold.Protein.RotatedTorsions>
[ 6907 6896 6895 6894 ] final   33.55 input  -60.11 | X-H torsion
[ 7974 7965 7964 7962 ] final    0.75 input  175.53 | X-H torsion
[ 8008 7997 7996 7995 ] final -178.10 input   59.86 | X-H torsion
[ 10167 10162 10161 10158 ] final -124.28 input  -65.29 | X-H torsion
[ 10718 10713 10712 10709 ] final   -9.58 input   66.30 | X-H torsion
[ 10763 10752 10751 10750 ] final    1.52 input  -60.55 | X-H torsion
[ 11005 11000 10999 10996 ] final  -46.36 input  -57.11 | X-H torsion

> <Gold.Protein.ActiveResidues>
 VAL166  LYS551  ARG553  GLY616  TRP617  ASP618  TYR619  PRO620  LYS621  CYS622 
 ASP623  PHE694  ASN695  SER759  ASP760  ASP761  ALA762  ILE779  LEU786  VAL792 
 PHE793  MET794  SER795  GLU796  ALA797  LYS798  CYS799  TRP800  GLU811  SER814 

> <Gold.Protein.RotatedAtoms>
  152.0901  134.9413  160.0571 H   0  0  0  0  0  0  0  0  0  0  0  0  # atno 6907 bound_to 6896
  152.0668  133.4083  159.4450 H   0  0  0  0  0  0  0  0  0  0  0  0  # atno 6908 bound_to 6896
  150.6837  134.3058  159.4769 H   0  0  0  0  0  0  0  0  0  0  0  0  # atno 6909 bound_to 6896
  146.2436  140.1091  142.8344 H   0  0  0  0  0  0  0  0  0  0  0  0  # atno 7974 bound_to 7965
  156.0148  140.1248  157.0417 H   0  0  0  0  0  0  0  0  0  0  0  0  # atno 8008 bound_to 7997
  154.4289  140.1080  156.5951 H   0  0  0  0  0  0  0  0  0  0  0  0  # atno 8009 bound_to 7997
  155.6028  140.3470  155.4601 H   0  0  0  0  0  0  0  0  0  0  0  0  # atno 8010 bound_to 7997
  139.9945  143.5606  152.2329 H   0  0  0  0  0  0  0  0  0  0  0  0  # atno 10167 bound_to 10162
  156.6860  130.5051  149.5957 H   0  0  0  0  0  0  0  0  0  0  0  0  # atno 10718 bound_to 10713
  153.3070  135.6960  153.7150 H   0  0  0  0  0  0  0  0  0  0  0  0  # atno 10763 bound_to 10752
  153.6042  135.3456  155.2957 H   0  0  0  0  0  0  0  0  0  0  0  0  # atno 10764 bound_to 10752
  154.8565  135.4348  154.2198 H   0  0  0  0  0  0  0  0  0  0  0  0  # atno 10765 bound_to 10752
  141.0574  133.6721  156.3144 H   0  0  0  0  0  0  0  0  0  0  0  0  # atno 11005 bound_to 11000
  145.0502  140.9012  143.5000 LP  0  0  0  0  0  0  0  0  0  0  0  0  # atno 17320 bound_to 7965
  145.1187  139.2708  143.5599 LP  0  0  0  0  0  0  0  0  0  0  0  0  # atno 17321 bound_to 7965
  139.6316  144.7645  151.2524 LP  0  0  0  0  0  0  0  0  0  0  0  0  # atno 17342 bound_to 10162
  140.7442  143.6469  150.8283 LP  0  0  0  0  0  0  0  0  0  0  0  0  # atno 17343 bound_to 10162
  156.1832  130.6512  151.0976 LP  0  0  0  0  0  0  0  0  0  0  0  0  # atno 17370 bound_to 10713
  157.7026  131.0769  150.6770 LP  0  0  0  0  0  0  0  0  0  0  0  0  # atno 17371 bound_to 10713
  140.5937  134.5625  157.5504 LP  0  0  0  0  0  0  0  0  0  0  0  0  # atno 17394 bound_to 11000
  139.9402  134.7801  156.0698 LP  0  0  0  0  0  0  0  0  0  0  0  0  # atno 17395 bound_to 11000

$$$$
