#       Name:                AV-unprocessed.smi:2578
#       Creating user name   scv26
#       Creation time:       Fri Mar 27 14:14:08 2020


#       File generated by GOLD software.
#

@<TRIPOS>MOLECULE
AV-unprocessed.smi:2578
    45    46     1
SMALL
NO_CHARGES


@<TRIPOS>ATOM
      1 ****        -2.3047  -4.1103   0.0584 C.3            1 S1                 0.0000
      2 ****        -3.1648  -2.8576   0.0871 C.2            1 S1                 0.0000
      3 ****        -4.4972  -2.9636   0.2886 C.2            1 S1                 0.0000
      4 ****        -5.3870  -1.8023   0.3295 C.2            1 S1                 0.0000
      5 ****        -6.5999  -1.9093   0.5122 O.2            1 S1                 0.0000
      6 ****        -4.7840  -0.5950   0.1523 N.am           1 S1                 0.0000
      7 ****        -5.5874   0.6306   0.1765 C.3            1 S1                 0.0000
      8 ****        -3.4009  -0.4707  -0.0620 C.2            1 S1                 0.0000
      9 ****        -2.5726  -1.5386  -0.1009 C.2            1 S1                 0.0000
     10 ****        -1.1839  -1.4662  -0.3112 N.am           1 S1                 0.0000
     11 ****        -0.3894  -0.3923  -0.4826 C.2            1 S1                 0.0000
     12 ****        -0.7504   0.7840  -0.4913 O.2            1 S1                 0.0000
     13 ****         0.8885  -0.7659  -0.6419 N.am           1 S1                 0.0000
     14 ****         2.0099   0.1477  -0.8286 C.3            1 S1                 0.0000
     15 ****         2.4828   0.7378   0.5108 C.3            1 S1                 0.0000
     16 ****         3.6800   1.6546   0.3564 C.2            1 S1                 0.0000
     17 ****         4.8936   1.4692   0.8737 C.2            1 S1                 0.0000
     18 ****         5.8417   2.5897   0.5453 C.3            1 S1                 0.0000
     19 ****         4.9882   3.5689  -0.2916 C.3            1 S1                 0.0000
     20 ****         3.5800   2.9450  -0.4160 C.3            1 S1                 0.0000
     21 ****        -2.8964  -5.0118   0.2206 H              1 S1                 0.0000
     22 ****        -1.5433  -4.0650   0.8374 H              1 S1                 0.0000
     23 ****        -1.8066  -4.2056  -0.9066 H              1 S1                 0.0000
     24 ****        -4.9357  -3.9413   0.4266 H              1 S1                 0.0000
     25 ****        -4.9864   1.5347   0.0747 H              1 S1                 0.0000
     26 ****        -6.1361   0.7131   1.1159 H              1 S1                 0.0000
     27 ****        -6.3107   0.6266  -0.6400 H              1 S1                 0.0000
     28 ****        -3.0839   0.5507  -0.1911 H              1 S1                 0.0000
     29 ****        -0.7200  -2.3625  -0.3277 H              1 S1                 0.0000
     30 ****         1.1032  -1.7521  -0.6251 H              1 S1                 0.0000
     31 ****         2.8235  -0.4064  -1.2975 H              1 S1                 0.0000
     32 ****         1.7299   0.9385  -1.5261 H              1 S1                 0.0000
     33 ****         1.6790   1.3027   0.9842 H              1 S1                 0.0000
     34 ****         2.7432  -0.0697   1.1965 H              1 S1                 0.0000
     35 ****         5.1938   0.6213   1.4718 H              1 S1                 0.0000
     36 ****         6.2086   3.0542   1.4610 H              1 S1                 0.0000
     37 ****         6.6932   2.2092  -0.0196 H              1 S1                 0.0000
     38 ****         4.9345   4.5437   0.1945 H              1 S1                 0.0000
     39 ****         5.4310   3.7228  -1.2764 H              1 S1                 0.0000
     40 ****         3.3209   2.7520  -1.4572 H              1 S1                 0.0000
     41 ****         2.8144   3.5881   0.0196 H              1 S1                 0.0000
     42 ****        -7.0086  -2.8131   0.6389 LP             1 S1                 0.0000
     43 ****        -7.1762  -1.0924   0.5338 LP             1 S1                 0.0000
     44 ****        -1.7156   1.0118  -0.3628 LP             1 S1                 0.0000
     45 ****        -0.0785   1.5122  -0.6269 LP             1 S1                 0.0000
@<TRIPOS>BOND
    1    1    2 1     
    2    1   21 1     
    3    1   22 1     
    4    1   23 1     
    5    2    9 1     
    6    2    3 2     
    7    3    4 1     
    8    3   24 1     
    9    4    5 2     
   10    4    6 am    
   11    6    7 1     
   12    6    8 1     
   13    7   25 1     
   14    7   26 1     
   15    7   27 1     
   16    8    9 2     
   17    8   28 1     
   18    9   10 1     
   19   10   11 am    
   20   10   29 1     
   21   11   12 2     
   22   11   13 am    
   23   13   14 1     
   24   13   30 1     
   25   14   15 1     
   26   14   31 1     
   27   14   32 1     
   28   15   16 1     
   29   15   33 1     
   30   15   34 1     
   31   16   20 1     
   32   16   17 2     
   33   17   18 1     
   34   17   35 1     
   35   18   19 1     
   36   18   36 1     
   37   18   37 1     
   38   19   20 1     
   39   19   38 1     
   40   19   39 1     
   41   20   40 1     
   42   20   41 1     
   43    5   42 1     
   44    5   43 1     
   45   12   44 1     
   46   12   45 1     
@<TRIPOS>SUBSTRUCTURE
      1 S1             1
@<TRIPOS>SET
LONE_PAIRS      STATIC     ATOMS    <user>   **** ""
4 42 43 44 45
DONOR_HYDROGENS      STATIC     ATOMS    <user>   **** ""
2 29 30
ATOM$BLUE        STATIC     ATOMS    COLORGROUP SYSTEM
4 42 43 44 45
ATOM$RED        STATIC     ATOMS    COLORGROUP SYSTEM
2 29 30
