AV-unprocessed.smi:2008|AV-procd|sdf|8144|dock1
  -GOLD-   2272010383D 1   1.00000     0.00000
 Structure written by MMmdl.
 46 47  0  0  0  0  0  0  0  0  2 V2000
  151.0322  140.0529  156.0402 C   0  0  0  0  0  0  0  0  0  0  0  0
  150.3896  140.8650  155.0638 O   0  0  0  0  0  0  0  0  0  0  0  0
  149.2584  140.3735  154.4451 C   0  0  0  0  0  0  0  0  0  0  0  0
  148.3057  141.2890  153.9564 C   0  0  0  0  0  0  0  0  0  0  0  0
  147.1488  140.7962  153.3229 C   0  0  0  0  0  0  0  0  0  0  0  0
  146.9844  139.3964  153.1906 C   0  0  0  0  0  0  0  0  0  0  0  0
  145.8585  138.7719  152.5878 N   0  0  0  0  0  0  0  0  0  0  0  0
  145.6119  137.4607  152.4265 C   0  0  0  0  0  0  0  0  0  0  0  0
  146.3413  136.5443  152.8049 O   0  0  0  0  0  0  0  0  0  0  0  0
  144.4429  137.2583  151.8018 N   0  0  0  0  0  0  0  0  0  0  0  0
  143.8790  135.9486  151.4937 C   0  0  0  0  0  0  0  0  0  0  0  0
  144.3972  135.4121  150.1434 C   0  0  0  0  0  0  0  0  0  0  0  0
  145.1648  134.1415  150.2848 N   0  3  1  0  0  0  0  0  0  0  0  0
  145.9455  134.1210  151.5565 C   0  0  0  0  0  0  0  0  0  0  0  0
  146.8432  132.8812  151.6660 C   0  0  0  0  0  0  0  0  0  0  0  0
  146.0059  131.6077  151.5596 C   0  0  0  0  0  0  0  0  0  0  0  0
  145.2166  131.6332  150.2492 C   0  0  0  0  0  0  0  0  0  0  0  0
  144.3393  132.8989  150.1176 C   0  0  2  0  0  0  0  0  0  0  0  0
  143.6013  132.8343  148.7626 C   0  0  0  0  0  0  0  0  0  0  0  0
  147.9902  138.5655  153.7263 C   0  0  0  0  0  0  0  0  0  0  0  0
  149.1014  139.0313  154.3340 N   0  0  0  0  0  0  0  0  0  0  0  0
  151.9013  140.5805  156.4327 H   0  0  0  0  0  0  0  0  0  0  0  0
  151.3822  139.1135  155.6099 H   0  0  0  0  0  0  0  0  0  0  0  0
  150.3692  139.8379  156.8794 H   0  0  0  0  0  0  0  0  0  0  0  0
  148.4575  142.3524  154.0693 H   0  0  0  0  0  0  0  0  0  0  0  0
  146.4122  141.4995  152.9674 H   0  0  0  0  0  0  0  0  0  0  0  0
  145.1264  139.4007  152.2911 H   0  0  0  0  0  0  0  0  0  0  0  0
  143.9012  138.0660  151.5297 H   0  0  0  0  0  0  0  0  0  0  0  0
  144.1096  135.2473  152.2977 H   0  0  0  0  0  0  0  0  0  0  0  0
  142.7965  136.0651  151.4842 H   0  0  0  0  0  0  0  0  0  0  0  0
  143.5734  135.2690  149.4424 H   0  0  0  0  0  0  0  0  0  0  0  0
  145.0189  136.1933  149.7159 H   0  0  0  0  0  0  0  0  0  0  0  0
  146.5801  135.0022  151.6331 H   0  0  0  0  0  0  0  0  0  0  0  0
  145.2595  134.1565  152.4044 H   0  0  0  0  0  0  0  0  0  0  0  0
  147.5968  132.8981  150.8773 H   0  0  0  0  0  0  0  0  0  0  0  0
  147.3836  132.8932  152.6132 H   0  0  0  0  0  0  0  0  0  0  0  0
  146.6483  130.7273  151.5971 H   0  0  0  0  0  0  0  0  0  0  0  0
  145.3222  131.5361  152.4067 H   0  0  0  0  0  0  0  0  0  0  0  0
  145.9109  131.5779  149.4093 H   0  0  0  0  0  0  0  0  0  0  0  0
  144.5947  130.7391  150.1900 H   0  0  0  0  0  0  0  0  0  0  0  0
  143.5932  132.8813  150.9140 H   0  0  0  0  0  0  0  0  0  0  0  0
  143.1768  131.8435  148.5973 H   0  0  0  0  0  0  0  0  0  0  0  0
  144.2749  133.0430  147.9307 H   0  0  0  0  0  0  0  0  0  0  0  0
  142.7624  133.5267  148.7067 H   0  0  0  0  0  0  0  0  0  0  0  0
  147.9044  137.4904  153.6628 H   0  0  0  0  0  0  0  0  0  0  0  0
  145.8354  134.1296  149.5295 H   0  0  0  0  0  0  0  0  0  0  0  0
  1  2  1  0  0  0  0
  1 22  1  0  0  0  0
  1 23  1  0  0  0  0
  1 24  1  0  0  0  0
  2  3  1  0  0  0  0
  3 21  1  0  0  0  0
  3  4  2  0  0  0  0
  4  5  1  0  0  0  0
  4 25  1  0  0  0  0
  5  6  2  0  0  0  0
  5 26  1  0  0  0  0
  6  7  1  0  0  0  0
  6 20  1  0  0  0  0
  7  8  1  0  0  0  0
  7 27  1  0  0  0  0
  8  9  2  0  0  0  0
  8 10  1  0  0  0  0
 10 11  1  0  0  0  0
 10 28  1  0  0  0  0
 11 12  1  0  0  0  0
 11 29  1  0  0  0  0
 11 30  1  0  0  0  0
 12 13  1  0  0  0  0
 12 31  1  0  0  0  0
 12 32  1  0  0  0  0
 13 18  1  0  0  0  0
 13 14  1  0  0  0  0
 13 46  1  0  0  0  0
 14 15  1  0  0  0  0
 14 33  1  0  0  0  0
 14 34  1  0  0  0  0
 15 16  1  0  0  0  0
 15 35  1  0  0  0  0
 15 36  1  0  0  0  0
 16 17  1  0  0  0  0
 16 37  1  0  0  0  0
 16 38  1  0  0  0  0
 17 18  1  0  0  0  0
 17 39  1  0  0  0  0
 17 40  1  0  0  0  0
 18 19  1  0  0  0  0
 18 41  1  0  0  0  0
 19 42  1  0  0  0  0
 19 43  1  0  0  0  0
 19 44  1  0  0  0  0
 20 21  2  0  0  0  0
 20 45  1  0  0  0  0
M  CHG  1  13   1
M  END
> <s_m_source_file>
AV-unprocessed.smi

> <i_m_source_file_index>
2008

> <i_lp_mmshare_version>
43012

> <i_f3d_flags>
0

> <s_epik_input>
W0NIM11PYzFbY0hdW2NIXWMoW2NIXW4xKVtOSF1DKD1PKVtOSF1bQ0gyXVtDSDJdTjJbQ0gyXVtDSDJdW0NIMl1bQ0gyXVtDQEhdMltDSDNd

> <s_epik_cmdline>
J2VwaWtfcHl0aG9uJywgJy1waCcsICc3LjAnLCAnLXRuJywgJzgnLCAnLW1hJywgJzIwMCcsICctbWV0YWxfYmluZGluZycsICctaW1hZScsICc8aW5maWxlLm1hZT4nLCAnLW9tYWUnLCAnPG91dGZpbGUubWFlPic=

> <r_lp_tautomer_probability>
1

> <r_epik_Ionization_Penalty>
0.00219526

> <r_epik_Ionization_Penalty_Charging>
0.00211816

> <r_epik_Ionization_Penalty_Neutral>
7.71003e-05

> <r_epik_State_Penalty>
0.00145254

> <r_epik_Charging_Adjusted_Penalty>
0.0035707

> <i_epik_Tot_Q>
1

> <i_epik_Tot_abs_Q>
1

> <r_epik_Metal_State_Penalty>
-0

> <b_epik_Metal_Only>
0

> <s_lp_Force_Field>
OPLS_2005

> <r_lp_Energy>
23.0726

> <b_lp_Chiralities_Consistent>
1

> <s_lp_Variant>
AV-unprocessed.smi:2008-4

> <Gold.Version>
5.8.1

> <Gold.Id.Protein>
6NUR|6NUR_protein|mol2

> <Gold.PLP.Fitness>
48.8693

> <Gold.PLP.PLP>
-39.8233

> <Gold.PLP.part.hbond>
-3.9374

> <Gold.PLP.part.metal>
0.0000

> <Gold.PLP.part.buried>
-1.6602

> <Gold.PLP.part.nonpolar>
-35.8159

> <Gold.PLP.part.repulsive>
2.7811

> <Gold.PLP.ligand.clash>
0.0000

> <Gold.PLP.ligand.torsion>
1.2761

> <Gold.PLP.Chemscore.Hbond>
2.9762

> <Gold.PLP.Chemscore.CHOScore>
0.8816

> <Gold.PLP.Chemscore.Metal>
0.0000

> <Gold.Chemscore.Hbonds>
donor molecule, donor type, donor heavy atom, donor atom, acceptor molecule, acceptor atom, score
      L1  H     7    27       P1 10175  1.00
      L1  H    10    28       P1 10171  0.42
      L1  H    13    46       P1  7921  0.86
      P1  H  7989  7998       L1     2  0.76
      L1  C    20    45       P1  7948  0.82

> <Gold.PLP.Chemscore.Internal.Correction>
0.0250

> <Gold.Rescore>
     Score         DG    S(hbond)    S(metal)    S(lipo)     H(rot)  DE(clash)    DE(int)     intcor
     15.94     -18.80       1.89        0.00      97.35       1.71       0.34       2.52       ----

> <Gold.Chemscore.Fitness>
15.9412

> <Gold.Chemscore.DG>
-18.8004

> <Gold.Chemscore.ZeroCoef>
-5.4800

> <Gold.Chemscore.Hbond>
1.8894

> <Gold.Chemscore.Metal>
0.0000

> <Gold.Chemscore.Lipo>
97.3455

> <Gold.Chemscore.Internal_Hbond>
0.0000

> <Gold.Chemscore.DEClash>
0.3390

> <Gold.Chemscore.DEInternal>
2.5203

> <Gold.Chemscore.Rot>
1.7107

> <Gold.Chemscore.Internal.Correction>
   9.000000E+99

> <Gold.Chemscore.Hbonds>
donor molecule, donor type, donor heavy atom, donor atom, acceptor molecule, acceptor atom, score
      L1  H     7    27       P1 10175  0.99
      L1  H    10    28       P1 10171  0.42
      L1  H    13    46       P1  7921  0.35
      P1  H  7989  7998       L1     2  0.09

> <Gold.Chemscore.Hbond.Weighted>
-6.3104

> <Gold.Chemscore.Metal.Weighted>
-0.0000

> <Gold.Chemscore.Lipo.Weighted>
-11.3894

> <Gold.Chemscore.Internal_Hbond.Weighted>
0.0000

> <Gold.Chemscore.DEClash.Weighted>
0.3390

> <Gold.Chemscore.DEInternal.Weighted>
2.5203

> <Gold.Chemscore.Rot.Weighted>
4.3794

> <Gold.Chemscore.Internal.Correction.Weighted>
   9.000000E+99

> <Gold.Protein.RotatedTorsions>
[ 6907 6896 6895 6894 ] final   56.89 input  -60.11 | X-H torsion
[ 7974 7965 7964 7962 ] final  174.59 input  175.53 | X-H torsion
[ 8008 7997 7996 7995 ] final  -65.64 input   59.86 | X-H torsion
[ 10167 10162 10161 10158 ] final   90.74 input  -65.29 | X-H torsion
[ 10718 10713 10712 10709 ] final -110.47 input   66.30 | X-H torsion
[ 10763 10752 10751 10750 ] final -139.07 input  -60.55 | X-H torsion
[ 11005 11000 10999 10996 ] final  142.98 input  -57.11 | X-H torsion

> <Gold.Protein.ActiveResidues>
 VAL166  LYS551  ARG553  GLY616  TRP617  ASP618  TYR619  PRO620  LYS621  CYS622 
 ASP623  PHE694  ASN695  SER759  ASP760  ASP761  ALA762  ILE779  LEU786  VAL792 
 PHE793  MET794  SER795  GLU796  ALA797  LYS798  CYS799  TRP800  GLU811  SER814 

> <Gold.Protein.RotatedAtoms>
  152.3679  134.6776  160.0185 H   0  0  0  0  0  0  0  0  0  0  0  0  # atno 6907 bound_to 6896
  151.7079  133.3306  159.3291 H   0  0  0  0  0  0  0  0  0  0  0  0  # atno 6908 bound_to 6896
  150.7652  134.6493  159.6324 H   0  0  0  0  0  0  0  0  0  0  0  0  # atno 6909 bound_to 6896
  144.7218  139.9819  143.6439 H   0  0  0  0  0  0  0  0  0  0  0  0  # atno 7974 bound_to 7965
  154.4684  140.0929  156.7081 H   0  0  0  0  0  0  0  0  0  0  0  0  # atno 8008 bound_to 7997
  155.4792  140.3467  155.4319 H   0  0  0  0  0  0  0  0  0  0  0  0  # atno 8009 bound_to 7997
  156.0997  140.1419  156.9473 H   0  0  0  0  0  0  0  0  0  0  0  0  # atno 8010 bound_to 7997
  139.8443  144.6625  150.9246 H   0  0  0  0  0  0  0  0  0  0  0  0  # atno 10167 bound_to 10162
  156.0593  130.5817  150.8242 H   0  0  0  0  0  0  0  0  0  0  0  0  # atno 10718 bound_to 10713
  154.8619  135.3593  154.5487 H   0  0  0  0  0  0  0  0  0  0  0  0  # atno 10763 bound_to 10752
  153.6106  135.7009  153.5353 H   0  0  0  0  0  0  0  0  0  0  0  0  # atno 10764 bound_to 10752
  153.3212  135.4150  155.1379 H   0  0  0  0  0  0  0  0  0  0  0  0  # atno 10765 bound_to 10752
  140.0519  134.9251  157.1032 H   0  0  0  0  0  0  0  0  0  0  0  0  # atno 11005 bound_to 11000
  146.0481  139.3484  143.0656 LP  0  0  0  0  0  0  0  0  0  0  0  0  # atno 17320 bound_to 7965
  145.8250  140.9660  143.0879 LP  0  0  0  0  0  0  0  0  0  0  0  0  # atno 17321 bound_to 7965
  140.7795  143.3884  151.1352 LP  0  0  0  0  0  0  0  0  0  0  0  0  # atno 17342 bound_to 10162
  139.7528  143.8753  152.3081 LP  0  0  0  0  0  0  0  0  0  0  0  0  # atno 17343 bound_to 10162
  157.5589  131.0945  150.9589 LP  0  0  0  0  0  0  0  0  0  0  0  0  # atno 17370 bound_to 10713
  156.9831  130.5534  149.5297 LP  0  0  0  0  0  0  0  0  0  0  0  0  # atno 17371 bound_to 10713
  140.3904  134.2190  155.7166 LP  0  0  0  0  0  0  0  0  0  0  0  0  # atno 17394 bound_to 11000
  141.1934  133.8151  157.0800 LP  0  0  0  0  0  0  0  0  0  0  0  0  # atno 17395 bound_to 11000

$$$$
