AV-unprocessed.smi:2784|AV-procd|sdf|10727|dock9
  -GOLD-   2272015163D 1   1.00000     0.00000
 Structure written by MMmdl.
 31 32  0  0  0  0  0  0  0  0  1 V2000
  147.9193  138.6887  157.1113 C   0  0  0  0  0  0  0  0  0  0  0  0
  148.3249  139.8760  156.4495 O   0  0  0  0  0  0  0  0  0  0  0  0
  148.9322  139.6485  155.1804 C   0  0  1  0  0  0  0  0  0  0  0  0
  147.8952  139.0387  154.2309 C   0  0  0  0  0  0  0  0  0  0  0  0
  147.0902  140.2382  153.7382 C   0  0  0  0  0  0  0  0  0  0  0  0
  148.1118  141.3721  153.6108 C   0  0  0  0  0  0  0  0  0  0  0  0
  149.2991  140.9970  154.5196 C   0  0  1  0  0  0  0  0  0  0  0  0
  149.5807  142.0540  155.4888 N   0  0  0  0  0  0  0  0  0  0  0  0
  150.3792  141.9187  156.5572 C   0  0  0  0  0  0  0  0  0  0  0  0
  150.9744  140.8763  156.8324 O   0  0  0  0  0  0  0  0  0  0  0  0
  150.4351  143.0548  157.2719 N   0  0  0  0  0  0  0  0  0  0  0  0
  151.1640  143.2889  158.4649 C   0  0  0  0  0  0  0  0  0  0  0  0
  151.4130  144.4738  159.0251 N   0  0  0  0  0  0  0  0  0  0  0  0
  152.1529  144.1753  160.1601 C   0  0  0  0  0  0  0  0  0  0  0  0
  152.3107  142.8147  160.2222 C   0  0  0  0  0  0  0  0  0  0  0  0
  151.6863  142.2371  159.1492 O   0  0  0  0  0  0  0  0  0  0  0  0
  147.4538  138.9438  158.0632 H   0  0  0  0  0  0  0  0  0  0  0  0
  148.7751  138.0458  157.3202 H   0  0  0  0  0  0  0  0  0  0  0  0
  147.1942  138.1246  156.5247 H   0  0  0  0  0  0  0  0  0  0  0  0
  149.8189  139.0202  155.2838 H   0  0  0  0  0  0  0  0  0  0  0  0
  148.4053  138.5729  153.3867 H   0  0  0  0  0  0  0  0  0  0  0  0
  147.2690  138.2770  154.6950 H   0  0  0  0  0  0  0  0  0  0  0  0
  146.5683  140.0368  152.8027 H   0  0  0  0  0  0  0  0  0  0  0  0
  146.3405  140.5034  154.4849 H   0  0  0  0  0  0  0  0  0  0  0  0
  148.4535  141.4529  152.5780 H   0  0  0  0  0  0  0  0  0  0  0  0
  147.6614  142.3306  153.8732 H   0  0  0  0  0  0  0  0  0  0  0  0
  150.1747  140.8532  153.8836 H   0  0  0  0  0  0  0  0  0  0  0  0
  149.1238  142.9417  155.3403 H   0  0  0  0  0  0  0  0  0  0  0  0
  149.8959  143.8355  156.9283 H   0  0  0  0  0  0  0  0  0  0  0  0
  152.5057  144.9468  160.8283 H   0  0  0  0  0  0  0  0  0  0  0  0
  152.8037  142.1478  160.9140 H   0  0  0  0  0  0  0  0  0  0  0  0
  1  2  1  0  0  0  0
  1 17  1  0  0  0  0
  1 18  1  0  0  0  0
  1 19  1  0  0  0  0
  2  3  1  0  0  0  0
  3  7  1  0  0  0  0
  3  4  1  0  0  0  0
  3 20  1  0  0  0  0
  4  5  1  0  0  0  0
  4 21  1  0  0  0  0
  4 22  1  0  0  0  0
  5  6  1  0  0  0  0
  5 23  1  0  0  0  0
  5 24  1  0  0  0  0
  6  7  1  0  0  0  0
  6 25  1  0  0  0  0
  6 26  1  0  0  0  0
  7  8  1  0  0  0  0
  7 27  1  0  0  0  0
  8  9  1  0  0  0  0
  8 28  1  0  0  0  0
  9 10  2  0  0  0  0
  9 11  1  0  0  0  0
 11 12  1  0  0  0  0
 11 29  1  0  0  0  0
 12 16  1  0  0  0  0
 12 13  2  0  0  0  0
 13 14  1  0  0  0  0
 14 15  2  0  0  0  0
 14 30  1  0  0  0  0
 15 16  1  0  0  0  0
 15 31  1  0  0  0  0
M  END
> <s_m_source_file>
AV-unprocessed.smi

> <i_m_source_file_index>
2784

> <i_lp_mmshare_version>
43012

> <i_f3d_flags>
0

> <s_epik_input>
W0NIM11PW0NAQEhdMVtDSDJdW0NIMl1bQ0gyXVtDQEhdMVtOSF1DKD1PKVtOSF1jMm5bY0hdW2NIXW8y

> <s_epik_cmdline>
J2VwaWtfcHl0aG9uJywgJy1waCcsICc3LjAnLCAnLXRuJywgJzgnLCAnLW1hJywgJzIwMCcsICctbWV0YWxfYmluZGluZycsICctaW1hZScsICc8aW5maWxlLm1hZT4nLCAnLW9tYWUnLCAnPG91dGZpbGUubWFlPic=

> <r_lp_tautomer_probability>
0.785861

> <r_epik_Ionization_Penalty>
4.58897e-05

> <r_epik_Ionization_Penalty_Charging>
0

> <r_epik_Ionization_Penalty_Neutral>
4.58897e-05

> <r_epik_State_Penalty>
0.0380021

> <r_epik_Charging_Adjusted_Penalty>
0.0380021

> <i_epik_Tot_Q>
0

> <i_epik_Tot_abs_Q>
0

> <r_epik_Metal_State_Penalty>
0.0585611

> <b_epik_Metal_Only>
0

> <s_lp_Force_Field>
OPLS_2005

> <r_lp_Energy>
20.0634

> <b_lp_Chiralities_Consistent>
1

> <s_lp_Variant>
AV-unprocessed.smi:2784-2

> <Gold.Version>
5.8.1

> <Gold.Id.Protein>
6NUR|6NUR_protein|mol2

> <Gold.PLP.Fitness>
33.4767

> <Gold.PLP.PLP>
-27.8759

> <Gold.PLP.part.hbond>
-2.0000

> <Gold.PLP.part.metal>
0.0000

> <Gold.PLP.part.buried>
-4.4356

> <Gold.PLP.part.nonpolar>
-21.6608

> <Gold.PLP.part.repulsive>
0.3002

> <Gold.PLP.ligand.clash>
0.0000

> <Gold.PLP.ligand.torsion>
0.1937

> <Gold.PLP.Chemscore.Hbond>
1.9920

> <Gold.PLP.Chemscore.CHOScore>
0.0000

> <Gold.PLP.Chemscore.Metal>
0.0000

> <Gold.Chemscore.Hbonds>
donor molecule, donor type, donor heavy atom, donor atom, acceptor molecule, acceptor atom, score
      L1  H     8    28       P1  8028  1.00
      L1  H    11    29       P1  8028  1.00

> <Gold.PLP.Chemscore.Internal.Correction>
0.0123

> <Gold.Rescore>
     Score         DG    S(hbond)    S(metal)    S(lipo)     H(rot)  DE(clash)    DE(int)     intcor
     10.06     -15.50       1.92        0.00      59.67       1.32       0.11       5.33       ----

> <Gold.Chemscore.Fitness>
10.0626

> <Gold.Chemscore.DG>
-15.4983

> <Gold.Chemscore.ZeroCoef>
-5.4800

> <Gold.Chemscore.Hbond>
1.9238

> <Gold.Chemscore.Metal>
0.0000

> <Gold.Chemscore.Lipo>
59.6673

> <Gold.Chemscore.Internal_Hbond>
0.0000

> <Gold.Chemscore.DEClash>
0.1095

> <Gold.Chemscore.DEInternal>
5.3262

> <Gold.Chemscore.Rot>
1.3235

> <Gold.Chemscore.Internal.Correction>
   9.000000E+99

> <Gold.Chemscore.Hbonds>
donor molecule, donor type, donor heavy atom, donor atom, acceptor molecule, acceptor atom, score
      L1  H     8    28       P1  8028  0.98
      L1  H    11    29       P1  8028  0.95

> <Gold.Chemscore.Hbond.Weighted>
-6.4254

> <Gold.Chemscore.Metal.Weighted>
-0.0000

> <Gold.Chemscore.Lipo.Weighted>
-6.9811

> <Gold.Chemscore.Internal_Hbond.Weighted>
0.0000

> <Gold.Chemscore.DEClash.Weighted>
0.1095

> <Gold.Chemscore.DEInternal.Weighted>
5.3262

> <Gold.Chemscore.Rot.Weighted>
3.3882

> <Gold.Chemscore.Internal.Correction.Weighted>
   9.000000E+99

> <Gold.Protein.RotatedTorsions>
[ 6907 6896 6895 6894 ] final  -83.65 input  -60.11 | X-H torsion
[ 7974 7965 7964 7962 ] final  106.27 input  175.53 | X-H torsion
[ 8008 7997 7996 7995 ] final   54.20 input   59.86 | X-H torsion
[ 10167 10162 10161 10158 ] final  111.74 input  -65.29 | X-H torsion
[ 10718 10713 10712 10709 ] final -129.55 input   66.30 | X-H torsion
[ 10763 10752 10751 10750 ] final  -64.03 input  -60.55 | X-H torsion
[ 11005 11000 10999 10996 ] final   16.11 input  -57.11 | X-H torsion

> <Gold.Protein.ActiveResidues>
 VAL166  LYS551  ARG553  GLY616  TRP617  ASP618  TYR619  PRO620  LYS621  CYS622 
 ASP623  PHE694  ASN695  SER759  ASP760  ASP761  ALA762  ILE779  LEU786  VAL792 
 PHE793  MET794  SER795  GLU796  ALA797  LYS798  CYS799  TRP800  GLU811  SER814 

> <Gold.Protein.RotatedAtoms>
  150.6883  134.3479  159.4895 H   0  0  0  0  0  0  0  0  0  0  0  0  # atno 6907 bound_to 6896
  152.1324  134.9122  160.0567 H   0  0  0  0  0  0  0  0  0  0  0  0  # atno 6908 bound_to 6896
  152.0287  133.3893  159.4325 H   0  0  0  0  0  0  0  0  0  0  0  0  # atno 6909 bound_to 6896
  145.3088  139.2546  143.3774 H   0  0  0  0  0  0  0  0  0  0  0  0  # atno 7974 bound_to 7965
  155.4808  140.3468  155.4339 H   0  0  0  0  0  0  0  0  0  0  0  0  # atno 8008 bound_to 7997
  156.1040  140.1443  156.9458 H   0  0  0  0  0  0  0  0  0  0  0  0  # atno 8009 bound_to 7997
  154.4712  140.0900  156.7127 H   0  0  0  0  0  0  0  0  0  0  0  0  # atno 8010 bound_to 7997
  139.6588  144.7129  151.1905 H   0  0  0  0  0  0  0  0  0  0  0  0  # atno 10167 bound_to 10162
  156.2058  130.6886  151.0592 H   0  0  0  0  0  0  0  0  0  0  0  0  # atno 10718 bound_to 10713
  154.3240  135.6190  153.5521 H   0  0  0  0  0  0  0  0  0  0  0  0  # atno 10763 bound_to 10752
  152.9817  135.5731  154.5037 H   0  0  0  0  0  0  0  0  0  0  0  0  # atno 10764 bound_to 10752
  154.4711  135.2859  155.1619 H   0  0  0  0  0  0  0  0  0  0  0  0  # atno 10765 bound_to 10752
  140.4507  134.1227  155.7702 H   0  0  0  0  0  0  0  0  0  0  0  0  # atno 11005 bound_to 11000
  146.3125  140.3619  142.8666 LP  0  0  0  0  0  0  0  0  0  0  0  0  # atno 17320 bound_to 7965
  144.9033  140.7669  143.5853 LP  0  0  0  0  0  0  0  0  0  0  0  0  # atno 17321 bound_to 7965
  140.7571  143.6028  150.8682 LP  0  0  0  0  0  0  0  0  0  0  0  0  # atno 17342 bound_to 10162
  139.9684  143.6085  152.2981 LP  0  0  0  0  0  0  0  0  0  0  0  0  # atno 17343 bound_to 10162
  157.7011  131.0775  150.6817 LP  0  0  0  0  0  0  0  0  0  0  0  0  # atno 17370 bound_to 10713
  156.6875  130.4585  149.5609 LP  0  0  0  0  0  0  0  0  0  0  0  0  # atno 17371 bound_to 10713
  141.1665  133.8692  157.1699 LP  0  0  0  0  0  0  0  0  0  0  0  0  # atno 17394 bound_to 11000
  140.0008  135.0028  157.0186 LP  0  0  0  0  0  0  0  0  0  0  0  0  # atno 17395 bound_to 11000

$$$$
