AV-unprocessed.smi:1695|AV-procd|sdf|6793|dock4
  -GOLD-   22720 7553D 1   1.00000     0.00000
 Structure written by MMmdl.
 52 54  0  0  0  0  0  0  0  0  3 V2000
  152.7725  143.4312  161.6196 C   0  0  0  0  0  0  0  0  0  0  0  0
  152.2921  142.9094  160.2758 C   0  0  0  0  0  0  0  0  0  0  0  0
  152.3300  141.5168  160.0405 C   0  0  0  0  0  0  0  0  0  0  0  0
  151.8847  141.0700  158.8021 C   0  0  0  0  0  0  0  0  0  0  0  0
  151.7971  139.7804  158.2746 N   0  3  0  0  0  0  0  0  0  0  0  0
  151.2934  139.8391  157.0112 C   0  0  0  0  0  0  0  0  0  0  0  0
  151.0536  141.1479  156.7243 N   0  0  0  0  0  0  0  0  0  0  0  0
  150.5165  141.7496  155.4956 C   0  0  0  0  0  0  0  0  0  0  0  0
  149.4091  140.8975  154.8440 C   0  0  2  0  0  0  0  0  0  0  0  0
  150.0369  139.9407  154.0151 O   0  0  0  0  0  0  0  0  0  0  0  0
  148.4123  141.7153  153.9942 C   0  0  0  0  0  0  0  0  0  0  0  0
  147.3408  142.3420  154.8107 N   0  3  1  0  0  0  0  0  0  0  0  0
  146.1879  142.8163  153.9999 C   0  0  0  0  0  0  0  0  0  0  0  0
  145.1570  143.5607  154.8704 C   0  0  0  0  0  0  0  0  0  0  0  0
  144.6704  142.7367  156.0813 C   0  0  1  0  0  0  0  0  0  0  0  0
  143.6584  141.6425  155.6923 C   0  0  0  0  0  0  0  0  0  0  0  0
  142.6199  142.0173  154.9410 N   0  0  0  0  0  0  0  0  0  0  0  0
  143.8042  140.4784  156.0587 O   0  0  0  0  0  0  0  0  0  0  0  0
  145.8913  142.1785  156.8419 C   0  0  0  0  0  0  0  0  0  0  0  0
  146.9047  141.4643  155.9269 C   0  0  0  0  0  0  0  0  0  0  0  0
  151.4128  141.9545  157.8120 C   0  0  0  0  0  0  0  0  0  0  0  0
  151.3699  143.3305  158.0285 C   0  0  0  0  0  0  0  0  0  0  0  0
  151.8189  143.8046  159.2819 C   0  0  0  0  0  0  0  0  0  0  0  0
  151.7833  145.3006  159.5451 C   0  0  0  0  0  0  0  0  0  0  0  0
  153.0486  142.6159  162.2888 H   0  0  0  0  0  0  0  0  0  0  0  0
  151.9906  144.0118  162.1097 H   0  0  0  0  0  0  0  0  0  0  0  0
  153.6482  144.0680  161.4907 H   0  0  0  0  0  0  0  0  0  0  0  0
  152.6902  140.8293  160.7921 H   0  0  0  0  0  0  0  0  0  0  0  0
  151.1177  138.9985  156.3548 H   0  0  0  0  0  0  0  0  0  0  0  0
  150.1682  142.7608  155.7066 H   0  0  0  0  0  0  0  0  0  0  0  0
  151.3549  141.8564  154.8058 H   0  0  0  0  0  0  0  0  0  0  0  0
  148.8846  140.3599  155.6332 H   0  0  0  0  0  0  0  0  0  0  0  0
  149.5835  139.9097  153.1862 H   0  0  0  0  0  0  0  0  0  0  0  0
  148.9235  142.4988  153.4343 H   0  0  0  0  0  0  0  0  0  0  0  0
  147.9712  141.0505  153.2497 H   0  0  0  0  0  0  0  0  0  0  0  0
  146.5309  143.4937  153.2193 H   0  0  0  0  0  0  0  0  0  0  0  0
  145.7259  141.9725  153.4873 H   0  0  0  0  0  0  0  0  0  0  0  0
  145.6057  144.4863  155.2333 H   0  0  0  0  0  0  0  0  0  0  0  0
  144.3091  143.8649  154.2553 H   0  0  0  0  0  0  0  0  0  0  0  0
  144.1513  143.4211  156.7547 H   0  0  0  0  0  0  0  0  0  0  0  0
  141.9273  141.3391  154.6580 H   0  0  0  0  0  0  0  0  0  0  0  0
  142.5299  142.9823  154.6567 H   0  0  0  0  0  0  0  0  0  0  0  0
  146.3953  143.0016  157.3502 H   0  0  0  0  0  0  0  0  0  0  0  0
  145.5666  141.4983  157.6304 H   0  0  0  0  0  0  0  0  0  0  0  0
  146.4883  140.5395  155.5273 H   0  0  0  0  0  0  0  0  0  0  0  0
  147.7715  141.1789  156.5240 H   0  0  0  0  0  0  0  0  0  0  0  0
  151.0084  144.0159  157.2771 H   0  0  0  0  0  0  0  0  0  0  0  0
  151.4400  145.8527  158.6697 H   0  0  0  0  0  0  0  0  0  0  0  0
  152.7767  145.6696  159.8009 H   0  0  0  0  0  0  0  0  0  0  0  0
  151.1062  145.5276  160.3689 H   0  0  0  0  0  0  0  0  0  0  0  0
  147.7546  143.1572  155.2410 H   0  0  0  0  0  0  0  0  0  0  0  0
  152.0647  138.9217  158.7392 H   0  0  0  0  0  0  0  0  0  0  0  0
  1  2  1  0  0  0  0
  1 25  1  0  0  0  0
  1 26  1  0  0  0  0
  1 27  1  0  0  0  0
  2 23  1  0  0  0  0
  2  3  2  0  0  0  0
  3  4  1  0  0  0  0
  3 28  1  0  0  0  0
  4 21  2  0  0  0  0
  4  5  1  0  0  0  0
  5  6  2  0  0  0  0
  5 52  1  0  0  0  0
  6  7  1  0  0  0  0
  6 29  1  0  0  0  0
  7  8  1  0  0  0  0
  7 21  1  0  0  0  0
  8  9  1  0  0  0  0
  8 30  1  0  0  0  0
  8 31  1  0  0  0  0
  9 10  1  0  0  0  0
  9 11  1  0  0  0  0
  9 32  1  0  0  0  0
 10 33  1  0  0  0  0
 11 12  1  0  0  0  0
 11 34  1  0  0  0  0
 11 35  1  0  0  0  0
 12 20  1  0  0  0  0
 12 13  1  0  0  0  0
 12 51  1  0  0  0  0
 13 14  1  0  0  0  0
 13 36  1  0  0  0  0
 13 37  1  0  0  0  0
 14 15  1  0  0  0  0
 14 38  1  0  0  0  0
 14 39  1  0  0  0  0
 15 16  1  0  0  0  0
 15 19  1  0  0  0  0
 15 40  1  0  0  0  0
 16 17  1  0  0  0  0
 16 18  2  0  0  0  0
 17 41  1  0  0  0  0
 17 42  1  0  0  0  0
 19 20  1  0  0  0  0
 19 43  1  0  0  0  0
 19 44  1  0  0  0  0
 20 45  1  0  0  0  0
 20 46  1  0  0  0  0
 21 22  1  0  0  0  0
 22 23  2  0  0  0  0
 22 47  1  0  0  0  0
 23 24  1  0  0  0  0
 24 48  1  0  0  0  0
 24 49  1  0  0  0  0
 24 50  1  0  0  0  0
M  CHG  1   5   1
M  CHG  1  12   1
M  END
> <s_m_source_file>
AV-unprocessed.smi

> <i_m_source_file_index>
1695

> <i_lp_mmshare_version>
43012

> <i_f3d_flags>
0

> <s_epik_input>
W0NIM11jKFtjSF0xKWMoW0NIM10pW2NIXWMoYzEyKW4oW2NIXW4yKVtDSDJdW0NASF0oW09IXSlbQ0gyXU4zW0NIMl1bQ0gyXVtDSF0oQyg9TylbTkgyXSlbQ0gyXVtDSDJdMw==

> <s_epik_cmdline>
J2VwaWtfcHl0aG9uJywgJy1waCcsICc3LjAnLCAnLXRuJywgJzgnLCAnLW1hJywgJzIwMCcsICctbWV0YWxfYmluZGluZycsICctaW1hZScsICc8aW5maWxlLm1hZT4nLCAnLW9tYWUnLCAnPG91dGZpbGUubWFlPic=

> <r_epik_Ionization_Penalty>
1.20173

> <r_epik_Ionization_Penalty_Charging>
1.20172

> <r_epik_Ionization_Penalty_Neutral>
1.7852e-06

> <r_epik_State_Penalty>
1.28089

> <r_epik_Charging_Adjusted_Penalty>
2.48261

> <i_epik_Tot_Q>
2

> <i_epik_Tot_abs_Q>
2

> <r_epik_Metal_State_Penalty>
1.35652

> <b_epik_Metal_Only>
0

> <s_lp_Force_Field>
OPLS_2005

> <r_lp_Energy>
28.6872

> <b_lp_Chiralities_Consistent>
1

> <s_lp_Variant>
AV-unprocessed.smi:1695-5

> <Gold.Version>
5.8.1

> <Gold.Id.Protein>
6NUR|6NUR_protein|mol2

> <Gold.PLP.Fitness>
59.8432

> <Gold.PLP.PLP>
-50.2448

> <Gold.PLP.part.hbond>
-4.9504

> <Gold.PLP.part.metal>
0.0000

> <Gold.PLP.part.buried>
-5.5428

> <Gold.PLP.part.nonpolar>
-39.8319

> <Gold.PLP.part.repulsive>
0.2998

> <Gold.PLP.ligand.clash>
0.0000

> <Gold.PLP.ligand.torsion>
1.1403

> <Gold.PLP.Chemscore.Hbond>
3.9360

> <Gold.PLP.Chemscore.CHOScore>
0.0000

> <Gold.PLP.Chemscore.Metal>
0.0000

> <Gold.Chemscore.Hbonds>
donor molecule, donor type, donor heavy atom, donor atom, acceptor molecule, acceptor atom, score
      L1  H    10    33       P1  7957  0.99
      L1  H    12    51       P1  8028  2.00
      P1  H  7989  7998       L1    10  0.90

> <Gold.PLP.Chemscore.Internal.Correction>
0.0711

> <Gold.Rescore>
     Score         DG    S(hbond)    S(metal)    S(lipo)     H(rot)  DE(clash)    DE(int)     intcor
     15.41     -17.85       1.62        0.00     123.30       2.91       1.47       0.97       ----

> <Gold.Chemscore.Fitness>
15.4128

> <Gold.Chemscore.DG>
-17.8493

> <Gold.Chemscore.ZeroCoef>
-5.4800

> <Gold.Chemscore.Hbond>
1.6168

> <Gold.Chemscore.Metal>
0.0000

> <Gold.Chemscore.Lipo>
123.2977

> <Gold.Chemscore.Internal_Hbond>
0.0000

> <Gold.Chemscore.DEClash>
1.4657

> <Gold.Chemscore.DEInternal>
0.9708

> <Gold.Chemscore.Rot>
2.9127

> <Gold.Chemscore.Internal.Correction>
   9.000000E+99

> <Gold.Chemscore.Hbonds>
donor molecule, donor type, donor heavy atom, donor atom, acceptor molecule, acceptor atom, score
      L1  H    10    33       P1  7957  0.88
      L1  H    12    51       P1  8028  0.55
      P1  H  7989  7998       L1    10  0.07

> <Gold.Chemscore.Hbond.Weighted>
-5.4000

> <Gold.Chemscore.Metal.Weighted>
-0.0000

> <Gold.Chemscore.Lipo.Weighted>
-14.4258

> <Gold.Chemscore.Internal_Hbond.Weighted>
0.0000

> <Gold.Chemscore.DEClash.Weighted>
1.4657

> <Gold.Chemscore.DEInternal.Weighted>
0.9708

> <Gold.Chemscore.Rot.Weighted>
7.4565

> <Gold.Chemscore.Internal.Correction.Weighted>
   9.000000E+99

> <Gold.Protein.RotatedTorsions>
[ 6907 6896 6895 6894 ] final -112.62 input  -60.11 | X-H torsion
[ 7974 7965 7964 7962 ] final -109.32 input  175.53 | X-H torsion
[ 8008 7997 7996 7995 ] final  -63.29 input   59.86 | X-H torsion
[ 10167 10162 10161 10158 ] final -160.72 input  -65.29 | X-H torsion
[ 10718 10713 10712 10709 ] final  134.88 input   66.30 | X-H torsion
[ 10763 10752 10751 10750 ] final  -55.68 input  -60.55 | X-H torsion
[ 11005 11000 10999 10996 ] final   95.74 input  -57.11 | X-H torsion

> <Gold.Protein.ActiveResidues>
 VAL166  LYS551  ARG553  GLY616  TRP617  ASP618  TYR619  PRO620  LYS621  CYS622 
 ASP623  PHE694  ASN695  SER759  ASP760  ASP761  ALA762  ILE779  LEU786  VAL792 
 PHE793  MET794  SER795  GLU796  ALA797  LYS798  CYS799  TRP800  GLU811  SER814 

> <Gold.Protein.RotatedAtoms>
  150.7771  133.9063  159.3355 H   0  0  0  0  0  0  0  0  0  0  0  0  # atno 6907 bound_to 6896
  151.6935  135.0940  160.0247 H   0  0  0  0  0  0  0  0  0  0  0  0  # atno 6908 bound_to 6896
  152.3811  133.6508  159.6197 H   0  0  0  0  0  0  0  0  0  0  0  0  # atno 6909 bound_to 6896
  145.1819  140.8975  143.3475 H   0  0  0  0  0  0  0  0  0  0  0  0  # atno 7974 bound_to 7965
  154.4546  140.0978  156.6720 H   0  0  0  0  0  0  0  0  0  0  0  0  # atno 8008 bound_to 7997
  155.5178  140.3478  155.4382 H   0  0  0  0  0  0  0  0  0  0  0  0  # atno 8009 bound_to 7997
  156.0751  140.1359  156.9770 H   0  0  0  0  0  0  0  0  0  0  0  0  # atno 8010 bound_to 7997
  139.6518  144.0070  152.2167 H   0  0  0  0  0  0  0  0  0  0  0  0  # atno 10167 bound_to 10162
  157.4628  131.1074  150.9899 H   0  0  0  0  0  0  0  0  0  0  0  0  # atno 10718 bound_to 10713
  154.1946  135.6421  153.5070 H   0  0  0  0  0  0  0  0  0  0  0  0  # atno 10763 bound_to 10752
  153.0026  135.5437  154.6379 H   0  0  0  0  0  0  0  0  0  0  0  0  # atno 10764 bound_to 10752
  154.5776  135.2922  155.0738 H   0  0  0  0  0  0  0  0  0  0  0  0  # atno 10765 bound_to 10752
  139.8786  134.8915  156.4056 H   0  0  0  0  0  0  0  0  0  0  0  0  # atno 11005 bound_to 11000
  145.0127  139.3495  143.6112 LP  0  0  0  0  0  0  0  0  0  0  0  0  # atno 17320 bound_to 7965
  146.3451  139.9396  142.8742 LP  0  0  0  0  0  0  0  0  0  0  0  0  # atno 17321 bound_to 7965
  139.9786  144.6444  150.7921 LP  0  0  0  0  0  0  0  0  0  0  0  0  # atno 17342 bound_to 10162
  140.7541  143.3021  151.3055 LP  0  0  0  0  0  0  0  0  0  0  0  0  # atno 17343 bound_to 10162
  157.0691  130.5856  149.5399 LP  0  0  0  0  0  0  0  0  0  0  0  0  # atno 17370 bound_to 10713
  156.0036  130.5119  150.7752 LP  0  0  0  0  0  0  0  0  0  0  0  0  # atno 17371 bound_to 10713
  140.9236  133.7628  155.9937 LP  0  0  0  0  0  0  0  0  0  0  0  0  # atno 17394 bound_to 11000
  140.8411  134.3065  157.5313 LP  0  0  0  0  0  0  0  0  0  0  0  0  # atno 17395 bound_to 11000

$$$$
