AV-unprocessed.smi:3217|AV-procd|sdf|12289|dock4
  -GOLD-   2272018133D 1   1.00000     0.00000
 Structure written by MMmdl.
 34 35  0  0  0  0  0  0  0  0  1 V2000
  143.8181  136.6401  152.8114 C   0  0  0  0  0  0  0  0  0  0  0  0
  145.0136  135.6749  152.8109 C   0  0  2  0  0  0  0  0  0  0  0  0
  146.2474  136.4558  152.8713 N   0  0  0  0  0  0  0  0  0  0  0  0
  146.4606  137.5334  153.6401 C   0  0  0  0  0  0  0  0  0  0  0  0
  145.6144  138.0135  154.3935 O   0  0  0  0  0  0  0  0  0  0  0  0
  147.7019  138.0153  153.4569 N   0  0  0  0  0  0  0  0  0  0  0  0
  148.3202  139.1369  154.0737 C   0  0  0  0  0  0  0  0  0  0  0  0
  147.5341  140.2883  154.2854 C   0  0  0  0  0  0  0  0  0  0  0  0
  148.1211  141.4214  154.8799 C   0  0  0  0  0  0  0  0  0  0  0  0
  149.4827  141.3617  155.2336 C   0  0  0  0  0  0  0  0  0  0  0  0
  150.2540  140.2741  155.0247 N   0  0  0  0  0  0  0  0  0  0  0  0
  149.6840  139.1899  154.4557 C   0  0  0  0  0  0  0  0  0  0  0  0
  145.0415  134.7736  151.5612 C   0  0  2  0  0  0  0  0  0  0  0  0
  143.8422  133.8332  151.4218 C   0  0  0  0  0  0  0  0  0  0  0  0
  144.3885  132.6562  150.6266 C   0  0  0  0  0  0  0  0  0  0  0  0
  145.9035  132.8706  150.6330 C   0  0  0  0  0  0  0  0  0  0  0  0
  146.1257  133.8593  151.6269 O   0  0  0  0  0  0  0  0  0  0  0  0
  142.8709  136.1004  152.8069 H   0  0  0  0  0  0  0  0  0  0  0  0
  143.8340  137.2928  151.9380 H   0  0  0  0  0  0  0  0  0  0  0  0
  143.8262  137.2723  153.6999 H   0  0  0  0  0  0  0  0  0  0  0  0
  144.9263  135.0357  153.6912 H   0  0  0  0  0  0  0  0  0  0  0  0
  147.0057  136.1408  152.2843 H   0  0  0  0  0  0  0  0  0  0  0  0
  148.2542  137.5533  152.7496 H   0  0  0  0  0  0  0  0  0  0  0  0
  146.4922  140.3050  154.0001 H   0  0  0  0  0  0  0  0  0  0  0  0
  147.5421  142.3151  155.0595 H   0  0  0  0  0  0  0  0  0  0  0  0
  149.9663  142.2121  155.6911 H   0  0  0  0  0  0  0  0  0  0  0  0
  150.3581  138.3638  154.2928 H   0  0  0  0  0  0  0  0  0  0  0  0
  145.1454  135.3770  150.6569 H   0  0  0  0  0  0  0  0  0  0  0  0
  143.5169  133.4861  152.4034 H   0  0  0  0  0  0  0  0  0  0  0  0
  142.9909  134.3111  150.9362 H   0  0  0  0  0  0  0  0  0  0  0  0
  144.1176  131.7133  151.1028 H   0  0  0  0  0  0  0  0  0  0  0  0
  144.0028  132.6405  149.6067 H   0  0  0  0  0  0  0  0  0  0  0  0
  146.4570  131.9573  150.8515 H   0  0  0  0  0  0  0  0  0  0  0  0
  146.2413  133.2518  149.6682 H   0  0  0  0  0  0  0  0  0  0  0  0
  1  2  1  0  0  0  0
  1 18  1  0  0  0  0
  1 19  1  0  0  0  0
  1 20  1  0  0  0  0
  2  3  1  0  0  0  0
  2 13  1  0  0  0  0
  2 21  1  0  0  0  0
  3  4  1  0  0  0  0
  3 22  1  0  0  0  0
  4  5  2  0  0  0  0
  4  6  1  0  0  0  0
  6  7  1  0  0  0  0
  6 23  1  0  0  0  0
  7 12  1  0  0  0  0
  7  8  2  0  0  0  0
  8  9  1  0  0  0  0
  8 24  1  0  0  0  0
  9 10  2  0  0  0  0
  9 25  1  0  0  0  0
 10 11  1  0  0  0  0
 10 26  1  0  0  0  0
 11 12  2  0  0  0  0
 12 27  1  0  0  0  0
 13 17  1  0  0  0  0
 13 14  1  0  0  0  0
 13 28  1  0  0  0  0
 14 15  1  0  0  0  0
 14 29  1  0  0  0  0
 14 30  1  0  0  0  0
 15 16  1  0  0  0  0
 15 31  1  0  0  0  0
 15 32  1  0  0  0  0
 16 17  1  0  0  0  0
 16 33  1  0  0  0  0
 16 34  1  0  0  0  0
M  END
> <s_m_source_file>
AV-unprocessed.smi

> <i_m_source_file_index>
3217

> <i_lp_mmshare_version>
43012

> <i_f3d_flags>
0

> <s_epik_input>
TzFbQ0gyXVtDSDJdW0NIMl1bQ0BIXTFbQ0BIXShbQ0gzXSlbTkhdQyg9TylbTkhdYzJbY0hdW2NIXVtjSF1uW2NIXTI=

> <s_epik_cmdline>
J2VwaWtfcHl0aG9uJywgJy1waCcsICc3LjAnLCAnLXRuJywgJzgnLCAnLW1hJywgJzIwMCcsICctbWV0YWxfYmluZGluZycsICctaW1hZScsICc8aW5maWxlLm1hZT4nLCAnLW9tYWUnLCAnPG91dGZpbGUubWFlPic=

> <r_epik_Ionization_Penalty>
0.00475451

> <r_epik_Ionization_Penalty_Charging>
0

> <r_epik_Ionization_Penalty_Neutral>
0.00475451

> <r_epik_State_Penalty>
0.00341814

> <r_epik_Charging_Adjusted_Penalty>
0.00341814

> <i_epik_Tot_Q>
0

> <i_epik_Tot_abs_Q>
0

> <r_epik_Metal_State_Penalty>
-0

> <b_epik_Metal_Only>
0

> <s_lp_Force_Field>
OPLS_2005

> <r_lp_Energy>
20.3997

> <b_lp_Chiralities_Consistent>
1

> <s_lp_Variant>
AV-unprocessed.smi:3217-1

> <Gold.Version>
5.8.1

> <Gold.Id.Protein>
6NUR|6NUR_protein|mol2

> <Gold.PLP.Fitness>
39.6944

> <Gold.PLP.PLP>
-28.9160

> <Gold.PLP.part.hbond>
-3.0000

> <Gold.PLP.part.metal>
0.0000

> <Gold.PLP.part.buried>
-2.2587

> <Gold.PLP.part.nonpolar>
-24.1571

> <Gold.PLP.part.repulsive>
0.4258

> <Gold.PLP.ligand.clash>
0.0000

> <Gold.PLP.ligand.torsion>
0.5125

> <Gold.PLP.Chemscore.Hbond>
2.9360

> <Gold.PLP.Chemscore.CHOScore>
0.9916

> <Gold.PLP.Chemscore.Metal>
0.0000

> <Gold.Chemscore.Hbonds>
donor molecule, donor type, donor heavy atom, donor atom, acceptor molecule, acceptor atom, score
      L1  H     3    22       P1  7948  0.98
      L1  H     6    23       P1  7948  1.00
      P1  H  7989  7998       L1    11  0.73
      L1  C    10    26       P1  8028  0.43

> <Gold.PLP.Chemscore.Internal.Correction>
0.0208

> <Gold.Rescore>
     Score         DG    S(hbond)    S(metal)    S(lipo)     H(rot)  DE(clash)    DE(int)     intcor
     14.87     -17.78       2.34        0.00      65.06       1.22       0.19       2.71       ----

> <Gold.Chemscore.Fitness>
14.8736

> <Gold.Chemscore.DG>
-17.7787

> <Gold.Chemscore.ZeroCoef>
-5.4800

> <Gold.Chemscore.Hbond>
2.3410

> <Gold.Chemscore.Metal>
0.0000

> <Gold.Chemscore.Lipo>
65.0616

> <Gold.Chemscore.Internal_Hbond>
0.0000

> <Gold.Chemscore.DEClash>
0.1923

> <Gold.Chemscore.DEInternal>
2.7127

> <Gold.Chemscore.Rot>
1.2236

> <Gold.Chemscore.Internal.Correction>
   9.000000E+99

> <Gold.Chemscore.Hbonds>
donor molecule, donor type, donor heavy atom, donor atom, acceptor molecule, acceptor atom, score
      L1  H     3    22       P1  7948  0.91
      L1  H     6    23       P1  7948  0.99
      P1  H  7989  7998       L1    11  0.10

> <Gold.Chemscore.Hbond.Weighted>
-7.8190

> <Gold.Chemscore.Metal.Weighted>
-0.0000

> <Gold.Chemscore.Lipo.Weighted>
-7.6122

> <Gold.Chemscore.Internal_Hbond.Weighted>
0.0000

> <Gold.Chemscore.DEClash.Weighted>
0.1923

> <Gold.Chemscore.DEInternal.Weighted>
2.7127

> <Gold.Chemscore.Rot.Weighted>
3.1325

> <Gold.Chemscore.Internal.Correction.Weighted>
   9.000000E+99

> <Gold.Protein.RotatedTorsions>
[ 6907 6896 6895 6894 ] final  105.83 input  -60.11 | X-H torsion
[ 7974 7965 7964 7962 ] final -113.32 input  175.53 | X-H torsion
[ 8008 7997 7996 7995 ] final   28.60 input   59.86 | X-H torsion
[ 10167 10162 10161 10158 ] final    0.23 input  -65.29 | X-H torsion
[ 10718 10713 10712 10709 ] final  -42.83 input   66.30 | X-H torsion
[ 10763 10752 10751 10750 ] final  -85.42 input  -60.55 | X-H torsion
[ 11005 11000 10999 10996 ] final   41.85 input  -57.11 | X-H torsion

> <Gold.Protein.ActiveResidues>
 VAL166  LYS551  ARG553  GLY616  TRP617  ASP618  TYR619  PRO620  LYS621  CYS622 
 ASP623  PHE694  ASN695  SER759  ASP760  ASP761  ALA762  ILE779  LEU786  VAL792 
 PHE793  MET794  SER795  GLU796  ALA797  LYS798  CYS799  TRP800  GLU811  SER814 

> <Gold.Protein.RotatedAtoms>
  152.5216  133.9470  159.7653 H   0  0  0  0  0  0  0  0  0  0  0  0  # atno 6907 bound_to 6896
  150.9788  133.6259  159.2733 H   0  0  0  0  0  0  0  0  0  0  0  0  # atno 6908 bound_to 6896
  151.3443  135.0876  159.9435 H   0  0  0  0  0  0  0  0  0  0  0  0  # atno 6909 bound_to 6896
  145.1334  140.8737  143.3744 H   0  0  0  0  0  0  0  0  0  0  0  0  # atno 7974 bound_to 7965
  155.0613  140.3190  155.4660 H   0  0  0  0  0  0  0  0  0  0  0  0  # atno 8008 bound_to 7997
  156.2812  140.2128  156.5684 H   0  0  0  0  0  0  0  0  0  0  0  0  # atno 8009 bound_to 7997
  154.7130  140.0496  157.0555 H   0  0  0  0  0  0  0  0  0  0  0  0  # atno 8010 bound_to 7997
  140.6738  143.6975  150.7978 H   0  0  0  0  0  0  0  0  0  0  0  0  # atno 10167 bound_to 10162
  156.2554  130.4192  149.8602 H   0  0  0  0  0  0  0  0  0  0  0  0  # atno 10718 bound_to 10713
  154.6109  135.5485  153.7472 H   0  0  0  0  0  0  0  0  0  0  0  0  # atno 10763 bound_to 10752
  153.0195  135.6389  154.1580 H   0  0  0  0  0  0  0  0  0  0  0  0  # atno 10764 bound_to 10752
  154.1517  135.2902  155.3113 H   0  0  0  0  0  0  0  0  0  0  0  0  # atno 10765 bound_to 10752
  140.1795  134.4121  155.8208 H   0  0  0  0  0  0  0  0  0  0  0  0  # atno 11005 bound_to 11000
  145.0610  139.3105  143.5880 LP  0  0  0  0  0  0  0  0  0  0  0  0  # atno 17320 bound_to 7965
  146.3512  140.0052  142.8672 LP  0  0  0  0  0  0  0  0  0  0  0  0  # atno 17321 bound_to 7965
  140.0664  143.5104  152.2602 LP  0  0  0  0  0  0  0  0  0  0  0  0  # atno 17342 bound_to 10162
  139.6019  144.7585  151.3152 LP  0  0  0  0  0  0  0  0  0  0  0  0  # atno 17343 bound_to 10162
  156.6136  130.8597  151.3460 LP  0  0  0  0  0  0  0  0  0  0  0  0  # atno 17370 bound_to 10713
  157.7230  130.9584  150.1518 LP  0  0  0  0  0  0  0  0  0  0  0  0  # atno 17371 bound_to 10713
  141.2222  133.6994  156.7906 LP  0  0  0  0  0  0  0  0  0  0  0  0  # atno 17394 bound_to 11000
  140.2283  134.8705  157.3450 LP  0  0  0  0  0  0  0  0  0  0  0  0  # atno 17395 bound_to 11000

$$$$
