AV-unprocessed.smi:1100|AV-procd|sdf|4759|dock5
  -GOLD-   22720 3293D 1   1.00000     0.00000
 Structure written by MMmdl.
 43 44  0  0  0  0  0  0  0  0  1 V2000
  147.1250  141.6662  153.7973 C   0  0  0  0  0  0  0  0  0  0  0  0
  147.7678  140.2639  153.6437 C   0  0  2  0  0  0  0  0  0  0  0  0
  146.6655  139.1824  153.8415 C   0  0  0  0  0  0  0  0  0  0  0  0
  146.8591  137.9939  153.0148 N   0  0  0  0  0  0  0  0  0  0  0  0
  145.9030  137.1065  152.7051 C   0  0  0  0  0  0  0  0  0  0  0  0
  144.7380  137.2135  153.0862 O   0  0  0  0  0  0  0  0  0  0  0  0
  146.3964  136.1185  151.9363 N   0  0  0  0  0  0  0  0  0  0  0  0
  145.7466  134.9854  151.4272 C   0  0  0  0  0  0  0  0  0  0  0  0
  144.6293  135.0017  150.4936 C   0  0  0  0  0  0  0  0  0  0  0  0
  144.0717  133.8522  150.0637 C   0  0  0  0  0  0  0  0  0  0  0  0
  144.5581  132.5449  150.5115 C   0  0  0  0  0  0  0  0  0  0  0  0
  144.0628  131.4885  150.1181 O   0  0  0  0  0  0  0  0  0  0  0  0
  145.5957  132.5746  151.3964 N   0  0  0  0  0  0  0  0  0  0  0  0
  146.1518  131.3204  151.9099 C   0  0  0  0  0  0  0  0  0  0  0  0
  146.1738  133.7785  151.8406 C   0  0  0  0  0  0  0  0  0  0  0  0
  148.9415  140.0704  154.5271 N   0  0  0  0  0  0  0  0  0  0  0  0
  149.9029  139.1009  153.9881 C   0  0  0  0  0  0  0  0  0  0  0  0
  151.1391  138.9213  154.8861 C   0  0  0  0  0  0  0  0  0  0  0  0
  151.7731  140.1767  155.0875 O   0  0  0  0  0  0  0  0  0  0  0  0
  150.8984  141.1255  155.6817 C   0  0  0  0  0  0  0  0  0  0  0  0
  149.6625  141.3221  154.7870 C   0  0  0  0  0  0  0  0  0  0  0  0
  146.2338  141.7857  153.1823 H   0  0  0  0  0  0  0  0  0  0  0  0
  147.7941  142.4646  153.4802 H   0  0  0  0  0  0  0  0  0  0  0  0
  146.8371  141.8567  154.8315 H   0  0  0  0  0  0  0  0  0  0  0  0
  148.1139  140.1862  152.6120 H   0  0  0  0  0  0  0  0  0  0  0  0
  146.6099  138.8374  154.8729 H   0  0  0  0  0  0  0  0  0  0  0  0
  145.6878  139.6033  153.6051 H   0  0  0  0  0  0  0  0  0  0  0  0
  147.7907  137.8353  152.6595 H   0  0  0  0  0  0  0  0  0  0  0  0
  147.3711  136.1942  151.6848 H   0  0  0  0  0  0  0  0  0  0  0  0
  144.2071  135.9238  150.1294 H   0  0  0  0  0  0  0  0  0  0  0  0
  143.2404  133.8937  149.3752 H   0  0  0  0  0  0  0  0  0  0  0  0
  146.9325  131.4788  152.6544 H   0  0  0  0  0  0  0  0  0  0  0  0
  146.5880  130.7376  151.0975 H   0  0  0  0  0  0  0  0  0  0  0  0
  145.3739  130.7178  152.3813 H   0  0  0  0  0  0  0  0  0  0  0  0
  146.9926  133.6579  152.5356 H   0  0  0  0  0  0  0  0  0  0  0  0
  149.4461  138.1190  153.8853 H   0  0  0  0  0  0  0  0  0  0  0  0
  150.2210  139.4101  152.9912 H   0  0  0  0  0  0  0  0  0  0  0  0
  150.8585  138.4879  155.8472 H   0  0  0  0  0  0  0  0  0  0  0  0
  151.8477  138.2357  154.4213 H   0  0  0  0  0  0  0  0  0  0  0  0
  150.6055  140.7896  156.6779 H   0  0  0  0  0  0  0  0  0  0  0  0
  151.4297  142.0693  155.8057 H   0  0  0  0  0  0  0  0  0  0  0  0
  149.9681  141.7760  153.8429 H   0  0  0  0  0  0  0  0  0  0  0  0
  149.0173  142.0402  155.2897 H   0  0  0  0  0  0  0  0  0  0  0  0
  1  2  1  0  0  0  0
  1 22  1  0  0  0  0
  1 23  1  0  0  0  0
  1 24  1  0  0  0  0
  2  3  1  0  0  0  0
  2 16  1  0  0  0  0
  2 25  1  0  0  0  0
  3  4  1  0  0  0  0
  3 26  1  0  0  0  0
  3 27  1  0  0  0  0
  4  5  1  0  0  0  0
  4 28  1  0  0  0  0
  5  6  2  0  0  0  0
  5  7  1  0  0  0  0
  7  8  1  0  0  0  0
  7 29  1  0  0  0  0
  8 15  2  0  0  0  0
  8  9  1  0  0  0  0
  9 10  2  0  0  0  0
  9 30  1  0  0  0  0
 10 11  1  0  0  0  0
 10 31  1  0  0  0  0
 11 12  2  0  0  0  0
 11 13  1  0  0  0  0
 13 14  1  0  0  0  0
 13 15  1  0  0  0  0
 14 32  1  0  0  0  0
 14 33  1  0  0  0  0
 14 34  1  0  0  0  0
 15 35  1  0  0  0  0
 16 21  1  0  0  0  0
 16 17  1  0  0  0  0
 17 18  1  0  0  0  0
 17 36  1  0  0  0  0
 17 37  1  0  0  0  0
 18 19  1  0  0  0  0
 18 38  1  0  0  0  0
 18 39  1  0  0  0  0
 19 20  1  0  0  0  0
 20 21  1  0  0  0  0
 20 40  1  0  0  0  0
 20 41  1  0  0  0  0
 21 42  1  0  0  0  0
 21 43  1  0  0  0  0
M  END
> <s_m_source_file>
AV-unprocessed.smi

> <i_m_source_file_index>
1100

> <i_lp_mmshare_version>
43012

> <i_f3d_flags>
0

> <s_epik_input>
W0NIMl0xW0NIMl1PW0NIMl1bQ0gyXU4xW0NASF0oW0NIM10pW0NIMl1bTkhdQyg9TylbTkhdYzJbY0hdW2NIXWMoPU8pbihbQ0gzXSlbY0hdMg==

> <s_epik_cmdline>
J2VwaWtfcHl0aG9uJywgJy1waCcsICc3LjAnLCAnLXRuJywgJzgnLCAnLW1hJywgJzIwMCcsICctbWV0YWxfYmluZGluZycsICctaW1hZScsICc8aW5maWxlLm1hZT4nLCAnLW9tYWUnLCAnPG91dGZpbGUubWFlPic=

> <r_lp_tautomer_probability>
1

> <r_epik_Ionization_Penalty>
0.266016

> <r_epik_Ionization_Penalty_Charging>
5.79683e-06

> <r_epik_Ionization_Penalty_Neutral>
0.26601

> <r_epik_State_Penalty>
0.257924

> <r_epik_Charging_Adjusted_Penalty>
0.25793

> <i_epik_Tot_Q>
0

> <i_epik_Tot_abs_Q>
0

> <r_epik_Metal_State_Penalty>
0.260326

> <b_epik_Metal_Only>
0

> <s_lp_Force_Field>
OPLS_2005

> <r_lp_Energy>
41.8129

> <b_lp_Chiralities_Consistent>
1

> <s_lp_Variant>
AV-unprocessed.smi:1100-1

> <Gold.Version>
5.8.1

> <Gold.Id.Protein>
6NUR|6NUR_protein|mol2

> <Gold.PLP.Fitness>
43.9311

> <Gold.PLP.PLP>
-38.5865

> <Gold.PLP.part.hbond>
-4.0000

> <Gold.PLP.part.metal>
0.0000

> <Gold.PLP.part.buried>
-2.3233

> <Gold.PLP.part.nonpolar>
-32.3189

> <Gold.PLP.part.repulsive>
0.5438

> <Gold.PLP.ligand.clash>
0.1696

> <Gold.PLP.ligand.torsion>
1.7346

> <Gold.PLP.Chemscore.Hbond>
2.9826

> <Gold.PLP.Chemscore.CHOScore>
0.0000

> <Gold.PLP.Chemscore.Metal>
0.0000

> <Gold.Chemscore.Hbonds>
donor molecule, donor type, donor heavy atom, donor atom, acceptor molecule, acceptor atom, score
      L1  H     4    28       P1  7948  0.61
      L1  H     7    29       P1  7948  1.00
      P1  H  7989  7998       L1    19  0.63
      P1  H 10785 10796       L1    12  0.54

> <Gold.PLP.Chemscore.Internal.Correction>
0.0355

> <Gold.Rescore>
     Score         DG    S(hbond)    S(metal)    S(lipo)     H(rot)  DE(clash)    DE(int)     intcor
     17.91     -19.69       2.61        0.00      79.58       1.49       0.25       1.53       ----

> <Gold.Chemscore.Fitness>
17.9120

> <Gold.Chemscore.DG>
-19.6932

> <Gold.Chemscore.ZeroCoef>
-5.4800

> <Gold.Chemscore.Hbond>
2.6129

> <Gold.Chemscore.Metal>
0.0000

> <Gold.Chemscore.Lipo>
79.5755

> <Gold.Chemscore.Internal_Hbond>
0.0000

> <Gold.Chemscore.DEClash>
0.2481

> <Gold.Chemscore.DEInternal>
1.5330

> <Gold.Chemscore.Rot>
1.4938

> <Gold.Chemscore.Internal.Correction>
   9.000000E+99

> <Gold.Chemscore.Hbonds>
donor molecule, donor type, donor heavy atom, donor atom, acceptor molecule, acceptor atom, score
      L1  H     4    28       P1  7948  0.61
      L1  H     7    29       P1  7948  0.96
      P1  H  7989  7998       L1    19  0.02
      P1  H 10785 10796       L1    12  0.53

> <Gold.Chemscore.Hbond.Weighted>
-8.7270

> <Gold.Chemscore.Metal.Weighted>
-0.0000

> <Gold.Chemscore.Lipo.Weighted>
-9.3103

> <Gold.Chemscore.Internal_Hbond.Weighted>
0.0000

> <Gold.Chemscore.DEClash.Weighted>
0.2481

> <Gold.Chemscore.DEInternal.Weighted>
1.5330

> <Gold.Chemscore.Rot.Weighted>
3.8242

> <Gold.Chemscore.Internal.Correction.Weighted>
   9.000000E+99

> <Gold.Protein.RotatedTorsions>
[ 6907 6896 6895 6894 ] final  -54.21 input  -60.11 | X-H torsion
[ 7974 7965 7964 7962 ] final    8.97 input  175.53 | X-H torsion
[ 8008 7997 7996 7995 ] final  178.99 input   59.86 | X-H torsion
[ 10167 10162 10161 10158 ] final   57.64 input  -65.29 | X-H torsion
[ 10718 10713 10712 10709 ] final  143.06 input   66.30 | X-H torsion
[ 10763 10752 10751 10750 ] final  124.92 input  -60.55 | X-H torsion
[ 11005 11000 10999 10996 ] final  -27.41 input  -57.11 | X-H torsion

> <Gold.Protein.ActiveResidues>
 VAL166  LYS551  ARG553  GLY616  TRP617  ASP618  TYR619  PRO620  LYS621  CYS622 
 ASP623  PHE694  ASN695  SER759  ASP760  ASP761  ALA762  ILE779  LEU786  VAL792 
 PHE793  MET794  SER795  GLU796  ALA797  LYS798  CYS799  TRP800  GLU811  SER814 

> <Gold.Protein.RotatedAtoms>
  150.8358  134.7630  159.6891 H   0  0  0  0  0  0  0  0  0  0  0  0  # atno 6907 bound_to 6896
  152.4455  134.5501  159.9874 H   0  0  0  0  0  0  0  0  0  0  0  0  # atno 6908 bound_to 6896
  151.5651  133.3360  159.3014 H   0  0  0  0  0  0  0  0  0  0  0  0  # atno 6909 bound_to 6896
  146.2409  139.9853  142.8431 H   0  0  0  0  0  0  0  0  0  0  0  0  # atno 7974 bound_to 7965
  156.0485  140.1320  157.0077 H   0  0  0  0  0  0  0  0  0  0  0  0  # atno 8008 bound_to 7997
  154.4423  140.1016  156.6411 H   0  0  0  0  0  0  0  0  0  0  0  0  # atno 8009 bound_to 7997
  155.5560  140.3464  155.4482 H   0  0  0  0  0  0  0  0  0  0  0  0  # atno 8010 bound_to 7997
  140.1959  144.4038  150.6550 H   0  0  0  0  0  0  0  0  0  0  0  0  # atno 10167 bound_to 10162
  157.3734  131.0982  151.0807 H   0  0  0  0  0  0  0  0  0  0  0  0  # atno 10718 bound_to 10713
  153.6690  135.3333  155.3148 H   0  0  0  0  0  0  0  0  0  0  0  0  # atno 10763 bound_to 10752
  154.8496  135.4382  154.1725 H   0  0  0  0  0  0  0  0  0  0  0  0  # atno 10764 bound_to 10752
  153.2711  135.7000  153.7555 H   0  0  0  0  0  0  0  0  0  0  0  0  # atno 10765 bound_to 10752
  140.9116  133.7457  156.0679 H   0  0  0  0  0  0  0  0  0  0  0  0  # atno 11005 bound_to 11000
  145.1553  140.9645  143.4409 LP  0  0  0  0  0  0  0  0  0  0  0  0  # atno 17320 bound_to 7965
  145.0166  139.3461  143.6093 LP  0  0  0  0  0  0  0  0  0  0  0  0  # atno 17321 bound_to 7965
  140.6424  143.2206  151.6261 LP  0  0  0  0  0  0  0  0  0  0  0  0  # atno 17342 bound_to 10162
  139.5237  144.3126  152.0980 LP  0  0  0  0  0  0  0  0  0  0  0  0  # atno 17343 bound_to 10162
  157.1903  130.6349  149.5702 LP  0  0  0  0  0  0  0  0  0  0  0  0  # atno 17370 bound_to 10713
  155.9760  130.4724  150.6499 LP  0  0  0  0  0  0  0  0  0  0  0  0  # atno 17371 bound_to 10713
  140.8102  134.3408  157.5414 LP  0  0  0  0  0  0  0  0  0  0  0  0  # atno 17394 bound_to 11000
  139.8758  134.9250  156.3363 LP  0  0  0  0  0  0  0  0  0  0  0  0  # atno 17395 bound_to 11000

$$$$
