AV-unprocessed.smi:765|AV-procd|sdf|3646|dock5
  -GOLD-   22720 1 53D 1   1.00000     0.00000
 Structure written by MMmdl.
 39 40  0  0  0  0  0  0  0  0  1 V2000
  147.4412  142.0041  154.0855 C   0  0  0  0  0  0  0  0  0  0  0  0
  148.2538  141.4913  155.2829 C   0  0  1  0  0  0  0  0  0  0  0  0
  147.5258  140.3426  156.0045 C   0  0  0  0  0  0  0  0  0  0  0  0
  148.3462  139.8028  157.1845 C   0  0  0  0  0  0  0  0  0  0  0  0
  149.7484  139.3663  156.7262 C   0  0  0  0  0  0  0  0  0  0  0  0
  150.5228  140.5086  156.0226 C   0  0  2  0  0  0  0  0  0  0  0  0
  151.7928  139.9924  155.4779 C   0  0  0  0  0  0  0  0  0  0  0  0
  152.7883  139.5875  155.0491 N   0  0  0  0  0  0  0  0  0  0  0  0
  150.7720  141.6136  156.9521 N   0  0  0  0  0  0  0  0  0  0  0  0
  151.4781  141.5754  158.0942 C   0  0  0  0  0  0  0  0  0  0  0  0
  152.1062  140.5856  158.4704 O   0  0  0  0  0  0  0  0  0  0  0  0
  151.4295  142.8527  158.9465 C   0  0  2  0  0  0  0  0  0  0  0  0
  151.9841  144.0910  158.2169 C   0  0  0  0  0  0  0  0  0  0  0  0
  152.1260  142.6287  160.2076 N   0  0  0  0  0  0  0  0  0  0  0  0
  153.3877  142.1066  160.4192 C   0  0  0  0  0  0  0  0  0  0  0  0
  153.5898  142.0579  161.7684 C   0  0  0  0  0  0  0  0  0  0  0  0
  152.3810  142.5773  162.3092 C   0  0  0  0  0  0  0  0  0  0  0  0
  151.5068  142.9142  161.3746 N   0  0  0  0  0  0  0  0  0  0  0  0
  149.6695  141.0481  154.8521 C   0  0  0  0  0  0  0  0  0  0  0  0
  147.3031  141.2239  153.3360 H   0  0  0  0  0  0  0  0  0  0  0  0
  147.9412  142.8441  153.6026 H   0  0  0  0  0  0  0  0  0  0  0  0
  146.4534  142.3442  154.3972 H   0  0  0  0  0  0  0  0  0  0  0  0
  148.3505  142.3204  155.9853 H   0  0  0  0  0  0  0  0  0  0  0  0
  146.5535  140.6835  156.3626 H   0  0  0  0  0  0  0  0  0  0  0  0
  147.3280  139.5326  155.3013 H   0  0  0  0  0  0  0  0  0  0  0  0
  148.4262  140.5668  157.9585 H   0  0  0  0  0  0  0  0  0  0  0  0
  147.8269  138.9596  157.6406 H   0  0  0  0  0  0  0  0  0  0  0  0
  150.3109  138.9829  157.5778 H   0  0  0  0  0  0  0  0  0  0  0  0
  149.6479  138.5255  156.0385 H   0  0  0  0  0  0  0  0  0  0  0  0
  150.3021  142.4812  156.7374 H   0  0  0  0  0  0  0  0  0  0  0  0
  150.3786  143.0481  159.1685 H   0  0  0  0  0  0  0  0  0  0  0  0
  151.4343  144.2851  157.2953 H   0  0  0  0  0  0  0  0  0  0  0  0
  153.0371  143.9730  157.9582 H   0  0  0  0  0  0  0  0  0  0  0  0
  151.8964  144.9801  158.8418 H   0  0  0  0  0  0  0  0  0  0  0  0
  154.0265  141.8104  159.6000 H   0  0  0  0  0  0  0  0  0  0  0  0
  154.4666  141.7033  162.2894 H   0  0  0  0  0  0  0  0  0  0  0  0
  152.1133  142.7156  163.3464 H   0  0  0  0  0  0  0  0  0  0  0  0
  149.5818  140.2736  154.0885 H   0  0  0  0  0  0  0  0  0  0  0  0
  150.1867  141.8815  154.3740 H   0  0  0  0  0  0  0  0  0  0  0  0
  1  2  1  0  0  0  0
  1 20  1  0  0  0  0
  1 21  1  0  0  0  0
  1 22  1  0  0  0  0
  2 19  1  0  0  0  0
  2  3  1  0  0  0  0
  2 23  1  0  0  0  0
  3  4  1  0  0  0  0
  3 24  1  0  0  0  0
  3 25  1  0  0  0  0
  4  5  1  0  0  0  0
  4 26  1  0  0  0  0
  4 27  1  0  0  0  0
  5  6  1  0  0  0  0
  5 28  1  0  0  0  0
  5 29  1  0  0  0  0
  6  7  1  0  0  0  0
  6  9  1  0  0  0  0
  6 19  1  0  0  0  0
  7  8  3  0  0  0  0
  9 10  1  0  0  0  0
  9 30  1  0  0  0  0
 10 11  2  0  0  0  0
 10 12  1  0  0  0  0
 12 13  1  0  0  0  0
 12 14  1  0  0  0  0
 12 31  1  0  0  0  0
 13 32  1  0  0  0  0
 13 33  1  0  0  0  0
 13 34  1  0  0  0  0
 14 18  1  0  0  0  0
 14 15  1  0  0  0  0
 15 16  2  0  0  0  0
 15 35  1  0  0  0  0
 16 17  1  0  0  0  0
 16 36  1  0  0  0  0
 17 18  2  0  0  0  0
 17 37  1  0  0  0  0
 19 38  1  0  0  0  0
 19 39  1  0  0  0  0
M  END
> <s_m_source_file>
AV-unprocessed.smi

> <i_m_source_file_index>
765

> <i_lp_mmshare_version>
43012

> <i_f3d_flags>
0

> <s_epik_input>
W0NIM11bQ0BASF0oW0NIMl0xKVtDSDJdW0NIMl1bQ0gyXVtDQEBdMShDI04pW05IXUMoPU8pW0NASF0oW0NIM10pbjJbY0hdW2NIXVtjSF1uMg==

> <s_epik_cmdline>
J2VwaWtfcHl0aG9uJywgJy1waCcsICc3LjAnLCAnLXRuJywgJzgnLCAnLW1hJywgJzIwMCcsICctbWV0YWxfYmluZGluZycsICctaW1hZScsICc8aW5maWxlLm1hZT4nLCAnLW9tYWUnLCAnPG91dGZpbGUubWFlPic=

> <r_lp_tautomer_probability>
1

> <r_epik_Ionization_Penalty>
2.71142e-05

> <r_epik_Ionization_Penalty_Charging>
0

> <r_epik_Ionization_Penalty_Neutral>
2.71142e-05

> <r_epik_State_Penalty>
-0

> <r_epik_Charging_Adjusted_Penalty>
0

> <i_epik_Tot_Q>
0

> <i_epik_Tot_abs_Q>
0

> <r_epik_Metal_State_Penalty>
-0

> <b_epik_Metal_Only>
0

> <s_lp_Force_Field>
OPLS_2005

> <r_lp_Energy>
10.6921

> <b_lp_Chiralities_Consistent>
1

> <s_lp_Variant>
AV-unprocessed.smi:765-4

> <Gold.Version>
5.8.1

> <Gold.Id.Protein>
6NUR|6NUR_protein|mol2

> <Gold.PLP.Fitness>
45.6895

> <Gold.PLP.PLP>
-42.4860

> <Gold.PLP.part.hbond>
-3.0000

> <Gold.PLP.part.metal>
0.0000

> <Gold.PLP.part.buried>
-3.5625

> <Gold.PLP.part.nonpolar>
-36.6593

> <Gold.PLP.part.repulsive>
0.1919

> <Gold.PLP.ligand.clash>
0.0000

> <Gold.PLP.ligand.torsion>
0.2859

> <Gold.PLP.Chemscore.Hbond>
1.2348

> <Gold.PLP.Chemscore.CHOScore>
0.0000

> <Gold.PLP.Chemscore.Metal>
0.0000

> <Gold.Chemscore.Hbonds>
donor molecule, donor type, donor heavy atom, donor atom, acceptor molecule, acceptor atom, score
      P1  H  6933  6945       L1    18  0.27
      P1  H  7997  8009       L1     8  1.00

> <Gold.PLP.Chemscore.Internal.Correction>
0.0710

> <Gold.Rescore>
     Score         DG    S(hbond)    S(metal)    S(lipo)     H(rot)  DE(clash)    DE(int)     intcor
     14.12     -17.33       1.34        0.00      93.92       1.42       1.87       1.34       ----

> <Gold.Chemscore.Fitness>
14.1227

> <Gold.Chemscore.DG>
-17.3298

> <Gold.Chemscore.ZeroCoef>
-5.4800

> <Gold.Chemscore.Hbond>
1.3448

> <Gold.Chemscore.Metal>
0.0000

> <Gold.Chemscore.Lipo>
93.9238

> <Gold.Chemscore.Internal_Hbond>
0.0000

> <Gold.Chemscore.DEClash>
1.8662

> <Gold.Chemscore.DEInternal>
1.3409

> <Gold.Chemscore.Rot>
1.4183

> <Gold.Chemscore.Internal.Correction>
   9.000000E+99

> <Gold.Chemscore.Hbonds>
donor molecule, donor type, donor heavy atom, donor atom, acceptor molecule, acceptor atom, score
      P1  H  6933  6945       L1    18  0.02
      P1  H  7997  8009       L1     8  0.91

> <Gold.Chemscore.Hbond.Weighted>
-4.4917

> <Gold.Chemscore.Metal.Weighted>
-0.0000

> <Gold.Chemscore.Lipo.Weighted>
-10.9891

> <Gold.Chemscore.Internal_Hbond.Weighted>
0.0000

> <Gold.Chemscore.DEClash.Weighted>
1.8662

> <Gold.Chemscore.DEInternal.Weighted>
1.3409

> <Gold.Chemscore.Rot.Weighted>
3.6309

> <Gold.Chemscore.Internal.Correction.Weighted>
   9.000000E+99

> <Gold.Protein.RotatedTorsions>
[ 6907 6896 6895 6894 ] final   58.41 input  -60.11 | X-H torsion
[ 7974 7965 7964 7962 ] final  -52.63 input  175.53 | X-H torsion
[ 8008 7997 7996 7995 ] final -141.38 input   59.86 | X-H torsion
[ 10167 10162 10161 10158 ] final   75.64 input  -65.29 | X-H torsion
[ 10718 10713 10712 10709 ] final   23.93 input   66.30 | X-H torsion
[ 10763 10752 10751 10750 ] final  110.36 input  -60.55 | X-H torsion
[ 11005 11000 10999 10996 ] final  105.39 input  -57.11 | X-H torsion

> <Gold.Protein.ActiveResidues>
 VAL166  LYS551  ARG553  GLY616  TRP617  ASP618  TYR619  PRO620  LYS621  CYS622 
 ASP623  PHE694  ASN695  SER759  ASP760  ASP761  ALA762  ILE779  LEU786  VAL792 
 PHE793  MET794  SER795  GLU796  ALA797  LYS798  CYS799  TRP800  GLU811  SER814 

> <Gold.Protein.RotatedAtoms>
  152.3821  134.6573  160.0138 H   0  0  0  0  0  0  0  0  0  0  0  0  # atno 6907 bound_to 6896
  151.6833  133.3306  159.3233 H   0  0  0  0  0  0  0  0  0  0  0  0  # atno 6908 bound_to 6896
  150.7756  134.6698  159.6430 H   0  0  0  0  0  0  0  0  0  0  0  0  # atno 6909 bound_to 6896
  145.9058  140.7956  142.9720 H   0  0  0  0  0  0  0  0  0  0  0  0  # atno 7974 bound_to 7965
  155.4768  140.0557  157.2972 H   0  0  0  0  0  0  0  0  0  0  0  0  # atno 8008 bound_to 7997
  154.4676  140.2025  156.0031 H   0  0  0  0  0  0  0  0  0  0  0  0  # atno 8009 bound_to 7997
  156.1001  140.3220  155.7935 H   0  0  0  0  0  0  0  0  0  0  0  0  # atno 8010 bound_to 7997
  140.0008  144.5687  150.7739 H   0  0  0  0  0  0  0  0  0  0  0  0  # atno 10167 bound_to 10162
  157.1728  130.6767  149.6084 H   0  0  0  0  0  0  0  0  0  0  0  0  # atno 10718 bound_to 10713
  153.4478  135.3751  155.2266 H   0  0  0  0  0  0  0  0  0  0  0  0  # atno 10763 bound_to 10752
  154.8755  135.3878  154.4074 H   0  0  0  0  0  0  0  0  0  0  0  0  # atno 10764 bound_to 10752
  153.4629  135.7087  153.6103 H   0  0  0  0  0  0  0  0  0  0  0  0  # atno 10765 bound_to 10752
  139.8801  134.9334  156.5507 H   0  0  0  0  0  0  0  0  0  0  0  0  # atno 11005 bound_to 11000
  144.6739  140.1748  143.7411 LP  0  0  0  0  0  0  0  0  0  0  0  0  # atno 17320 bound_to 7965
  145.8734  139.2284  143.1648 LP  0  0  0  0  0  0  0  0  0  0  0  0  # atno 17321 bound_to 7965
  140.7419  143.2825  151.3558 LP  0  0  0  0  0  0  0  0  0  0  0  0  # atno 17342 bound_to 10162
  139.6273  144.0789  152.2445 LP  0  0  0  0  0  0  0  0  0  0  0  0  # atno 17343 bound_to 10162
  155.9736  130.4673  150.6320 LP  0  0  0  0  0  0  0  0  0  0  0  0  # atno 17370 bound_to 10713
  157.4027  131.0812  151.1294 LP  0  0  0  0  0  0  0  0  0  0  0  0  # atno 17371 bound_to 10713
  140.8242  133.8330  155.8923 LP  0  0  0  0  0  0  0  0  0  0  0  0  # atno 17394 bound_to 11000
  140.9390  134.1925  157.4811 LP  0  0  0  0  0  0  0  0  0  0  0  0  # atno 17395 bound_to 11000

$$$$
