AV-unprocessed.smi:3178|AV-procd|sdf|12131|dock9
  -GOLD-   2272017573D 1   1.00000     0.00000
 Structure written by MMmdl.
 35 35  0  0  0  0  0  0  0  0  1 V2000
  146.9024  139.7181  153.5921 C   0  0  0  0  0  0  0  0  0  0  0  0
  147.2304  139.9735  154.9531 O   0  0  0  0  0  0  0  0  0  0  0  0
  147.7886  141.2494  155.2863 C   0  0  0  0  0  0  0  0  0  0  0  0
  149.0068  141.3941  154.3536 C   0  0  0  0  0  0  0  0  0  0  0  0
  146.7865  142.3802  154.9768 C   0  0  0  0  0  0  0  0  0  0  0  0
  148.2284  141.3053  156.7700 C   0  0  0  0  0  0  0  0  0  0  0  0
  149.2112  142.3595  156.9937 N   0  0  0  0  0  0  0  0  0  0  0  0
  150.4913  142.1738  157.3507 C   0  0  0  0  0  0  0  0  0  0  0  0
  151.0092  141.0637  157.4675 O   0  0  0  0  0  0  0  0  0  0  0  0
  151.3197  143.4342  157.6136 C   0  0  0  0  0  0  0  0  0  0  0  0
  151.6809  143.5637  159.0608 C   0  0  0  0  0  0  0  0  0  0  0  0
  152.3007  142.6995  159.9199 C   0  0  0  0  0  0  0  0  0  0  0  0
  152.3345  143.3994  161.1615 C   0  0  0  0  0  0  0  0  0  0  0  0
  152.8986  142.9329  162.4711 C   0  0  0  0  0  0  0  0  0  0  0  0
  151.7868  144.6028  161.0788 N   0  0  0  0  0  0  0  0  0  0  0  0
  151.3934  144.6923  159.7951 N   0  0  0  0  0  0  0  0  0  0  0  0
  150.9342  145.5185  159.4388 H   0  0  0  0  0  0  0  0  0  0  0  0
  146.4798  138.7165  153.5157 H   0  0  0  0  0  0  0  0  0  0  0  0
  147.7781  139.7465  152.9447 H   0  0  0  0  0  0  0  0  0  0  0  0
  146.1545  140.4119  153.2097 H   0  0  0  0  0  0  0  0  0  0  0  0
  149.5387  142.3280  154.5380 H   0  0  0  0  0  0  0  0  0  0  0  0
  148.7025  141.3891  153.3064 H   0  0  0  0  0  0  0  0  0  0  0  0
  149.7185  140.5781  154.4852 H   0  0  0  0  0  0  0  0  0  0  0  0
  147.2562  143.3583  155.0846 H   0  0  0  0  0  0  0  0  0  0  0  0
  145.9295  142.3654  155.6497 H   0  0  0  0  0  0  0  0  0  0  0  0
  146.4110  142.3067  153.9557 H   0  0  0  0  0  0  0  0  0  0  0  0
  147.3485  141.4660  157.3957 H   0  0  0  0  0  0  0  0  0  0  0  0
  148.6546  140.3558  157.0935 H   0  0  0  0  0  0  0  0  0  0  0  0
  148.8746  143.3088  156.9209 H   0  0  0  0  0  0  0  0  0  0  0  0
  152.2276  143.4042  157.0102 H   0  0  0  0  0  0  0  0  0  0  0  0
  150.7527  144.3045  157.2815 H   0  0  0  0  0  0  0  0  0  0  0  0
  152.6695  141.7095  159.6960 H   0  0  0  0  0  0  0  0  0  0  0  0
  152.9642  141.8452  162.5053 H   0  0  0  0  0  0  0  0  0  0  0  0
  152.2772  143.2525  163.3084 H   0  0  0  0  0  0  0  0  0  0  0  0
  153.9011  143.3311  162.6276 H   0  0  0  0  0  0  0  0  0  0  0  0
  1  2  1  0  0  0  0
  1 18  1  0  0  0  0
  1 19  1  0  0  0  0
  1 20  1  0  0  0  0
  2  3  1  0  0  0  0
  3  4  1  0  0  0  0
  3  5  1  0  0  0  0
  3  6  1  0  0  0  0
  4 21  1  0  0  0  0
  4 22  1  0  0  0  0
  4 23  1  0  0  0  0
  5 24  1  0  0  0  0
  5 25  1  0  0  0  0
  5 26  1  0  0  0  0
  6  7  1  0  0  0  0
  6 27  1  0  0  0  0
  6 28  1  0  0  0  0
  7  8  1  0  0  0  0
  7 29  1  0  0  0  0
  8  9  2  0  0  0  0
  8 10  1  0  0  0  0
 10 30  1  0  0  0  0
 10 31  1  0  0  0  0
 10 11  1  0  0  0  0
 11 16  1  0  0  0  0
 11 12  2  0  0  0  0
 12 13  1  0  0  0  0
 12 32  1  0  0  0  0
 13 14  1  0  0  0  0
 13 15  2  0  0  0  0
 14 33  1  0  0  0  0
 14 34  1  0  0  0  0
 14 35  1  0  0  0  0
 15 16  1  0  0  0  0
 16 17  1  0  0  0  0
M  END
> <s_m_source_file>
AV-unprocessed.smi

> <i_m_source_file_index>
3178

> <i_lp_mmshare_version>
43012

> <i_f3d_flags>
0

> <s_epik_input>
W0NIM11PQyhbQ0gzXSkoW0NIM10pW0NIMl1bTkhdQyg9TylbQ0gyXWMxW2NIXWMoW0NIM10pW25IXW4x

> <s_epik_cmdline>
J2VwaWtfcHl0aG9uJywgJy1waCcsICc3LjAnLCAnLXRuJywgJzgnLCAnLW1hJywgJzIwMCcsICctbWV0YWxfYmluZGluZycsICctaW1hZScsICc8aW5maWxlLm1hZT4nLCAnLW9tYWUnLCAnPG91dGZpbGUubWFlPic=

> <r_lp_tautomer_probability>
0.5

> <r_epik_Ionization_Penalty>
0.000125824

> <r_epik_Ionization_Penalty_Charging>
0

> <r_epik_Ionization_Penalty_Neutral>
0.000125824

> <r_epik_State_Penalty>
0.41068

> <r_epik_Charging_Adjusted_Penalty>
0.41068

> <i_epik_Tot_Q>
0

> <i_epik_Tot_abs_Q>
0

> <r_epik_Metal_State_Penalty>
0.410657

> <b_epik_Metal_Only>
0

> <s_lp_Force_Field>
OPLS_2005

> <r_lp_Energy>
5.55187

> <b_lp_Chiralities_Consistent>
1

> <s_lp_Variant>
AV-unprocessed.smi:3178-2

> <Gold.Version>
5.8.1

> <Gold.Id.Protein>
6NUR|6NUR_protein|mol2

> <Gold.PLP.Fitness>
34.9169

> <Gold.PLP.PLP>
-33.1476

> <Gold.PLP.part.hbond>
-1.0000

> <Gold.PLP.part.metal>
0.0000

> <Gold.PLP.part.buried>
-3.1236

> <Gold.PLP.part.nonpolar>
-28.3371

> <Gold.PLP.part.repulsive>
0.3739

> <Gold.PLP.ligand.clash>
0.0000

> <Gold.PLP.ligand.torsion>
0.3795

> <Gold.PLP.Chemscore.Hbond>
0.8320

> <Gold.PLP.Chemscore.CHOScore>
0.0000

> <Gold.PLP.Chemscore.Metal>
0.0000

> <Gold.Chemscore.Hbonds>
donor molecule, donor type, donor heavy atom, donor atom, acceptor molecule, acceptor atom, score
      L1  H     7    29       P1  8028  0.78

> <Gold.PLP.Chemscore.Internal.Correction>
0.0323

> <Gold.Rescore>
     Score         DG    S(hbond)    S(metal)    S(lipo)     H(rot)  DE(clash)    DE(int)     intcor
     13.64     -14.21       0.98        0.00      87.85       1.89       0.39       0.19       ----

> <Gold.Chemscore.Fitness>
13.6403

> <Gold.Chemscore.DG>
-14.2138

> <Gold.Chemscore.ZeroCoef>
-5.4800

> <Gold.Chemscore.Hbond>
0.9843

> <Gold.Chemscore.Metal>
0.0000

> <Gold.Chemscore.Lipo>
87.8522

> <Gold.Chemscore.Internal_Hbond>
0.0000

> <Gold.Chemscore.DEClash>
0.3862

> <Gold.Chemscore.DEInternal>
0.1874

> <Gold.Chemscore.Rot>
1.8877

> <Gold.Chemscore.Internal.Correction>
   9.000000E+99

> <Gold.Chemscore.Hbonds>
donor molecule, donor type, donor heavy atom, donor atom, acceptor molecule, acceptor atom, score
      L1  H     7    29       P1  8028  0.54

> <Gold.Chemscore.Hbond.Weighted>
-3.2876

> <Gold.Chemscore.Metal.Weighted>
-0.0000

> <Gold.Chemscore.Lipo.Weighted>
-10.2787

> <Gold.Chemscore.Internal_Hbond.Weighted>
0.0000

> <Gold.Chemscore.DEClash.Weighted>
0.3862

> <Gold.Chemscore.DEInternal.Weighted>
0.1874

> <Gold.Chemscore.Rot.Weighted>
4.8325

> <Gold.Chemscore.Internal.Correction.Weighted>
   9.000000E+99

> <Gold.Protein.RotatedTorsions>
[ 6907 6896 6895 6894 ] final  104.82 input  -60.11 | X-H torsion
[ 7974 7965 7964 7962 ] final   67.23 input  175.53 | X-H torsion
[ 8008 7997 7996 7995 ] final  -57.80 input   59.86 | X-H torsion
[ 10167 10162 10161 10158 ] final  -23.53 input  -65.29 | X-H torsion
[ 10718 10713 10712 10709 ] final -126.16 input   66.30 | X-H torsion
[ 10763 10752 10751 10750 ] final   29.56 input  -60.55 | X-H torsion
[ 11005 11000 10999 10996 ] final  -34.71 input  -57.11 | X-H torsion

> <Gold.Protein.ActiveResidues>
 VAL166  LYS551  ARG553  GLY616  TRP617  ASP618  TYR619  PRO620  LYS621  CYS622 
 ASP623  PHE694  ASN695  SER759  ASP760  ASP761  ALA762  ILE779  LEU786  VAL792 
 PHE793  MET794  SER795  GLU796  ALA797  LYS798  CYS799  TRP800  GLU811  SER814 

> <Gold.Protein.RotatedAtoms>
  152.5251  133.9620  159.7721 H   0  0  0  0  0  0  0  0  0  0  0  0  # atno 6907 bound_to 6896
  150.9908  133.6143  159.2715 H   0  0  0  0  0  0  0  0  0  0  0  0  # atno 6908 bound_to 6896
  151.3287  135.0842  159.9384 H   0  0  0  0  0  0  0  0  0  0  0  0  # atno 6909 bound_to 6896
  145.8171  139.3064  143.1065 H   0  0  0  0  0  0  0  0  0  0  0  0  # atno 7974 bound_to 7965
  154.4282  140.1098  156.5855 H   0  0  0  0  0  0  0  0  0  0  0  0  # atno 8008 bound_to 7997
  155.6067  140.3494  155.4591 H   0  0  0  0  0  0  0  0  0  0  0  0  # atno 8009 bound_to 7997
  156.0131  140.1223  157.0423 H   0  0  0  0  0  0  0  0  0  0  0  0  # atno 8010 bound_to 7997
  140.7288  143.4435  151.0622 H   0  0  0  0  0  0  0  0  0  0  0  0  # atno 10167 bound_to 10162
  156.1740  130.6687  151.0218 H   0  0  0  0  0  0  0  0  0  0  0  0  # atno 10718 bound_to 10713
  153.0423  135.6486  154.0909 H   0  0  0  0  0  0  0  0  0  0  0  0  # atno 10763 bound_to 10752
  154.0613  135.2887  155.3326 H   0  0  0  0  0  0  0  0  0  0  0  0  # atno 10764 bound_to 10752
  154.6655  135.5375  153.8137 H   0  0  0  0  0  0  0  0  0  0  0  0  # atno 10765 bound_to 10752
  140.9738  133.7094  156.1568 H   0  0  0  0  0  0  0  0  0  0  0  0  # atno 11005 bound_to 11000
  145.9715  140.8756  143.0160 LP  0  0  0  0  0  0  0  0  0  0  0  0  # atno 17320 bound_to 7965
  144.6751  140.1952  143.7392 LP  0  0  0  0  0  0  0  0  0  0  0  0  # atno 17321 bound_to 7965
  139.8104  143.7959  152.3171 LP  0  0  0  0  0  0  0  0  0  0  0  0  # atno 17342 bound_to 10162
  139.8006  144.7375  150.9830 LP  0  0  0  0  0  0  0  0  0  0  0  0  # atno 17343 bound_to 10162
  157.6823  131.0834  150.7337 LP  0  0  0  0  0  0  0  0  0  0  0  0  # atno 17370 bound_to 10713
  156.7396  130.4735  149.5480 LP  0  0  0  0  0  0  0  0  0  0  0  0  # atno 17371 bound_to 10713
  140.7289  134.4276  157.5568 LP  0  0  0  0  0  0  0  0  0  0  0  0  # atno 17394 bound_to 11000
  139.8922  134.8759  156.2280 LP  0  0  0  0  0  0  0  0  0  0  0  0  # atno 17395 bound_to 11000

$$$$
