AV-unprocessed.smi:2784|AV-procd|sdf|10728|dock6
  -GOLD-   2272015163D 1   1.00000     0.00000
 Structure written by MMmdl.
 31 32  0  0  0  0  0  0  0  0  1 V2000
  152.8428  142.9936  161.9136 C   0  0  0  0  0  0  0  0  0  0  0  0
  152.6122  142.7547  160.5345 O   0  0  0  0  0  0  0  0  0  0  0  0
  152.5746  143.9408  159.7450 C   0  0  2  0  0  0  0  0  0  0  0  0
  151.6236  144.9467  160.4024 C   0  0  0  0  0  0  0  0  0  0  0  0
  150.2361  144.4936  159.9561 C   0  0  0  0  0  0  0  0  0  0  0  0
  150.4292  143.9992  158.5196 C   0  0  0  0  0  0  0  0  0  0  0  0
  151.9226  143.6454  158.3748 C   0  0  2  0  0  0  0  0  0  0  0  0
  152.1019  142.2617  157.9395 N   0  0  0  0  0  0  0  0  0  0  0  0
  151.4953  141.7095  156.8790 C   0  0  0  0  0  0  0  0  0  0  0  0
  150.7040  142.3169  156.1567 O   0  0  0  0  0  0  0  0  0  0  0  0
  151.8664  140.4288  156.7164 N   0  0  0  0  0  0  0  0  0  0  0  0
  151.4497  139.5314  155.7012 C   0  0  0  0  0  0  0  0  0  0  0  0
  150.6305  139.8057  154.6846 N   0  0  0  0  0  0  0  0  0  0  0  0
  150.5371  138.6144  153.9796 C   0  0  0  0  0  0  0  0  0  0  0  0
  151.3123  137.6792  154.6159 C   0  0  0  0  0  0  0  0  0  0  0  0
  151.9002  138.2490  155.7132 O   0  0  0  0  0  0  0  0  0  0  0  0
  152.8366  142.0466  162.4529 H   0  0  0  0  0  0  0  0  0  0  0  0
  152.0743  143.6324  162.3489 H   0  0  0  0  0  0  0  0  0  0  0  0
  153.8158  143.4606  162.0712 H   0  0  0  0  0  0  0  0  0  0  0  0
  153.5787  144.3475  159.6100 H   0  0  0  0  0  0  0  0  0  0  0  0
  151.7191  144.9962  161.4870 H   0  0  0  0  0  0  0  0  0  0  0  0
  151.8228  145.9447  160.0099 H   0  0  0  0  0  0  0  0  0  0  0  0
  149.9033  143.6678  160.5862 H   0  0  0  0  0  0  0  0  0  0  0  0
  149.4922  145.2872  160.0297 H   0  0  0  0  0  0  0  0  0  0  0  0
  149.7689  143.1575  158.3056 H   0  0  0  0  0  0  0  0  0  0  0  0
  150.1727  144.7923  157.8161 H   0  0  0  0  0  0  0  0  0  0  0  0
  152.3532  144.3132  157.6259 H   0  0  0  0  0  0  0  0  0  0  0  0
  152.7437  141.6951  158.4741 H   0  0  0  0  0  0  0  0  0  0  0  0
  152.5207  140.0559  157.3880 H   0  0  0  0  0  0  0  0  0  0  0  0
  149.9323  138.5257  153.0893 H   0  0  0  0  0  0  0  0  0  0  0  0
  151.5365  136.6392  154.4299 H   0  0  0  0  0  0  0  0  0  0  0  0
  1  2  1  0  0  0  0
  1 17  1  0  0  0  0
  1 18  1  0  0  0  0
  1 19  1  0  0  0  0
  2  3  1  0  0  0  0
  3  7  1  0  0  0  0
  3  4  1  0  0  0  0
  3 20  1  0  0  0  0
  4  5  1  0  0  0  0
  4 21  1  0  0  0  0
  4 22  1  0  0  0  0
  5  6  1  0  0  0  0
  5 23  1  0  0  0  0
  5 24  1  0  0  0  0
  6  7  1  0  0  0  0
  6 25  1  0  0  0  0
  6 26  1  0  0  0  0
  7  8  1  0  0  0  0
  7 27  1  0  0  0  0
  8  9  1  0  0  0  0
  8 28  1  0  0  0  0
  9 10  2  0  0  0  0
  9 11  1  0  0  0  0
 11 12  1  0  0  0  0
 11 29  1  0  0  0  0
 12 16  1  0  0  0  0
 12 13  2  0  0  0  0
 13 14  1  0  0  0  0
 14 15  2  0  0  0  0
 14 30  1  0  0  0  0
 15 16  1  0  0  0  0
 15 31  1  0  0  0  0
M  END
> <s_m_source_file>
AV-unprocessed.smi

> <i_m_source_file_index>
2784

> <i_lp_mmshare_version>
43012

> <i_f3d_flags>
0

> <s_epik_input>
W0NIM11PW0NAQEhdMVtDSDJdW0NIMl1bQ0gyXVtDQEhdMVtOSF1DKD1PKVtOSF1jMm5bY0hdW2NIXW8y

> <s_epik_cmdline>
J2VwaWtfcHl0aG9uJywgJy1waCcsICc3LjAnLCAnLXRuJywgJzgnLCAnLW1hJywgJzIwMCcsICctbWV0YWxfYmluZGluZycsICctaW1hZScsICc8aW5maWxlLm1hZT4nLCAnLW9tYWUnLCAnPG91dGZpbGUubWFlPic=

> <r_lp_tautomer_probability>
0.785861

> <r_epik_Ionization_Penalty>
4.58897e-05

> <r_epik_Ionization_Penalty_Charging>
0

> <r_epik_Ionization_Penalty_Neutral>
4.58897e-05

> <r_epik_State_Penalty>
0.0380021

> <r_epik_Charging_Adjusted_Penalty>
0.0380021

> <i_epik_Tot_Q>
0

> <i_epik_Tot_abs_Q>
0

> <r_epik_Metal_State_Penalty>
0.0585611

> <b_epik_Metal_Only>
0

> <s_lp_Force_Field>
OPLS_2005

> <r_lp_Energy>
20.0171

> <b_lp_Chiralities_Consistent>
1

> <s_lp_Variant>
AV-unprocessed.smi:2784-3

> <Gold.Version>
5.8.1

> <Gold.Id.Protein>
6NUR|6NUR_protein|mol2

> <Gold.PLP.Fitness>
39.2703

> <Gold.PLP.PLP>
-31.8656

> <Gold.PLP.part.hbond>
-1.0000

> <Gold.PLP.part.metal>
0.0000

> <Gold.PLP.part.buried>
-5.5744

> <Gold.PLP.part.nonpolar>
-26.2531

> <Gold.PLP.part.repulsive>
0.9340

> <Gold.PLP.ligand.clash>
0.0000

> <Gold.PLP.ligand.torsion>
0.1663

> <Gold.PLP.Chemscore.Hbond>
1.0000

> <Gold.PLP.Chemscore.CHOScore>
1.5754

> <Gold.PLP.Chemscore.Metal>
0.0000

> <Gold.Chemscore.Hbonds>
donor molecule, donor type, donor heavy atom, donor atom, acceptor molecule, acceptor atom, score
      P1  H  7989  7998       L1    13  1.00
      L1  C    14    30       P1  7948  0.49
      L1  C    14    30       P1  7957  1.00

> <Gold.PLP.Chemscore.Internal.Correction>
0.0111

> <Gold.Rescore>
     Score         DG    S(hbond)    S(metal)    S(lipo)     H(rot)  DE(clash)    DE(int)     intcor
     11.83     -14.30       0.78        0.00      82.06       1.32       0.09       2.38       ----

> <Gold.Chemscore.Fitness>
11.8319

> <Gold.Chemscore.DG>
-14.3006

> <Gold.Chemscore.ZeroCoef>
-5.4800

> <Gold.Chemscore.Hbond>
0.7809

> <Gold.Chemscore.Metal>
0.0000

> <Gold.Chemscore.Lipo>
82.0561

> <Gold.Chemscore.Internal_Hbond>
0.0000

> <Gold.Chemscore.DEClash>
0.0888

> <Gold.Chemscore.DEInternal>
2.3799

> <Gold.Chemscore.Rot>
1.3235

> <Gold.Chemscore.Internal.Correction>
   9.000000E+99

> <Gold.Chemscore.Hbonds>
donor molecule, donor type, donor heavy atom, donor atom, acceptor molecule, acceptor atom, score
      P1  H  7989  7998       L1    13  0.17

> <Gold.Chemscore.Hbond.Weighted>
-2.6082

> <Gold.Chemscore.Metal.Weighted>
-0.0000

> <Gold.Chemscore.Lipo.Weighted>
-9.6006

> <Gold.Chemscore.Internal_Hbond.Weighted>
0.0000

> <Gold.Chemscore.DEClash.Weighted>
0.0888

> <Gold.Chemscore.DEInternal.Weighted>
2.3799

> <Gold.Chemscore.Rot.Weighted>
3.3882

> <Gold.Chemscore.Internal.Correction.Weighted>
   9.000000E+99

> <Gold.Protein.RotatedTorsions>
[ 6907 6896 6895 6894 ] final   43.72 input  -60.11 | X-H torsion
[ 7974 7965 7964 7962 ] final -152.47 input  175.53 | X-H torsion
[ 8008 7997 7996 7995 ] final  173.44 input   59.86 | X-H torsion
[ 10167 10162 10161 10158 ] final   18.07 input  -65.29 | X-H torsion
[ 10718 10713 10712 10709 ] final   14.27 input   66.30 | X-H torsion
[ 10763 10752 10751 10750 ] final -103.97 input  -60.55 | X-H torsion
[ 11005 11000 10999 10996 ] final -105.57 input  -57.11 | X-H torsion

> <Gold.Protein.ActiveResidues>
 VAL166  LYS551  ARG553  GLY616  TRP617  ASP618  TYR619  PRO620  LYS621  CYS622 
 ASP623  PHE694  ASN695  SER759  ASP760  ASP761  ALA762  ILE779  LEU786  VAL792 
 PHE793  MET794  SER795  GLU796  ALA797  LYS798  CYS799  TRP800  GLU811  SER814 

> <Gold.Protein.RotatedAtoms>
  152.2237  134.8388  160.0482 H   0  0  0  0  0  0  0  0  0  0  0  0  # atno 6907 bound_to 6896
  151.9162  133.3568  159.3889 H   0  0  0  0  0  0  0  0  0  0  0  0  # atno 6908 bound_to 6896
  150.7007  134.4607  159.5423 H   0  0  0  0  0  0  0  0  0  0  0  0  # atno 6909 bound_to 6896
  144.7793  140.4658  143.5851 H   0  0  0  0  0  0  0  0  0  0  0  0  # atno 7974 bound_to 7965
  156.1075  140.1460  156.9384 H   0  0  0  0  0  0  0  0  0  0  0  0  # atno 8008 bound_to 7997
  154.4744  140.0899  156.7269 H   0  0  0  0  0  0  0  0  0  0  0  0  # atno 8009 bound_to 7997
  155.4654  140.3440  155.4320 H   0  0  0  0  0  0  0  0  0  0  0  0  # atno 8010 bound_to 7997
  140.5680  143.9215  150.6691 H   0  0  0  0  0  0  0  0  0  0  0  0  # atno 10167 bound_to 10162
  157.0367  130.6214  149.5744 H   0  0  0  0  0  0  0  0  0  0  0  0  # atno 10718 bound_to 10713
  154.7845  135.4803  153.9917 H   0  0  0  0  0  0  0  0  0  0  0  0  # atno 10763 bound_to 10752
  153.1541  135.6796  153.8846 H   0  0  0  0  0  0  0  0  0  0  0  0  # atno 10764 bound_to 10752
  153.8480  135.3171  155.3409 H   0  0  0  0  0  0  0  0  0  0  0  0  # atno 10765 bound_to 10752
  141.1047  133.8819  157.1750 H   0  0  0  0  0  0  0  0  0  0  0  0  # atno 11005 bound_to 11000
  145.6097  139.1512  143.3083 LP  0  0  0  0  0  0  0  0  0  0  0  0  # atno 17320 bound_to 7965
  146.1991  140.6214  142.9110 LP  0  0  0  0  0  0  0  0  0  0  0  0  # atno 17321 bound_to 7965
  140.2682  143.3474  152.1261 LP  0  0  0  0  0  0  0  0  0  0  0  0  # atno 17342 bound_to 10162
  139.5103  144.6881  151.5833 LP  0  0  0  0  0  0  0  0  0  0  0  0  # atno 17343 bound_to 10162
  156.0051  130.5137  150.7803 LP  0  0  0  0  0  0  0  0  0  0  0  0  # atno 17370 bound_to 10713
  157.5136  131.0927  151.0167 LP  0  0  0  0  0  0  0  0  0  0  0  0  # atno 17371 bound_to 10713
  139.9912  135.0064  156.9979 LP  0  0  0  0  0  0  0  0  0  0  0  0  # atno 17394 bound_to 11000
  140.4933  134.1171  155.7236 LP  0  0  0  0  0  0  0  0  0  0  0  0  # atno 17395 bound_to 11000

$$$$
