#       Name:                AV-unprocessed.smi:2905
#       Creating user name   scv26
#       Creation time:       Fri Mar 27 16:04:51 2020


#       File generated by GOLD software.
#

@<TRIPOS>MOLECULE
AV-unprocessed.smi:2905
    43    44     1
SMALL
NO_CHARGES


@<TRIPOS>ATOM
      1 ****        -4.9974  -1.7176   0.0559 C.3            1 S1                 0.0000
      2 ****        -4.3637  -0.3047   0.0471 C.3            1 S1                 0.0000
      3 ****        -4.8834   0.4233  -1.2095 C.3            1 S1                 0.0000
      4 ****        -4.8391   0.4173   1.3245 C.3            1 S1                 0.0000
      5 ****        -2.8255  -0.3593   0.0197 C.ar           1 S1                 0.0000
      6 ****        -2.2326  -1.5604   0.0100 N.ar           1 S1                 0.0000
      7 ****        -0.8831  -1.5948  -0.0137 C.ar           1 S1                 0.0000
      8 ****        -0.1108  -0.4088  -0.0305 C.ar           1 S1                 0.0000
      9 ****         1.3084  -0.3544  -0.0277 N.am           1 S1                 0.0000
     10 ****         2.1886  -1.3295  -0.3261 C.2            1 S1                 0.0000
     11 ****         1.8825  -2.4461  -0.7382 O.2            1 S1                 0.0000
     12 ****         3.4767  -0.9738  -0.1712 N.am           1 S1                 0.0000
     13 ****         4.6722  -1.7858  -0.4064 C.3            1 S1                 0.0000
     14 ****         4.9557  -2.7892   0.7409 C.3            1 S1                 0.0000
     15 ****         6.4324  -2.6398   0.9863 C.2            1 S1                 0.0000
     16 ****         6.9617  -1.6303   0.2982 C.2            1 S1                 0.0000
     17 ****         5.9411  -0.9097  -0.5401 C.3            1 S1                 0.0000
     18 ****        -0.8389   0.7974  -0.0079 C.ar           1 S1                 0.0000
     19 ****        -2.1883   0.8186   0.0131 N.ar           1 S1                 0.0000
     20 ****        -6.0864  -1.6637   0.0773 H              1 S1                 0.0000
     21 ****        -4.6880  -2.2928   0.9297 H              1 S1                 0.0000
     22 ****        -4.7223  -2.2884  -0.8321 H              1 S1                 0.0000
     23 ****        -4.5563  -0.0794  -2.1203 H              1 S1                 0.0000
     24 ****        -4.5258   1.4525  -1.2564 H              1 S1                 0.0000
     25 ****        -5.9732   0.4603  -1.2262 H              1 S1                 0.0000
     26 ****        -5.9277   0.4476   1.3832 H              1 S1                 0.0000
     27 ****        -4.4865   1.4484   1.3605 H              1 S1                 0.0000
     28 ****        -4.4743  -0.0856   2.2209 H              1 S1                 0.0000
     29 ****        -0.4438  -2.5798   0.0043 H              1 S1                 0.0000
     30 ****         1.7074   0.5420   0.2099 H              1 S1                 0.0000
     31 ****         3.6467  -0.0186   0.1088 H              1 S1                 0.0000
     32 ****         4.5607  -2.3414  -1.3395 H              1 S1                 0.0000
     33 ****         4.4140  -2.5426   1.6552 H              1 S1                 0.0000
     34 ****         4.7083  -3.8119   0.4551 H              1 S1                 0.0000
     35 ****         6.9725  -3.2806   1.6675 H              1 S1                 0.0000
     36 ****         7.9973  -1.3256   0.3345 H              1 S1                 0.0000
     37 ****         6.2721  -0.8308  -1.5761 H              1 S1                 0.0000
     38 ****         5.7990   0.0964  -0.1431 H              1 S1                 0.0000
     39 ****        -0.3376   1.7543  -0.0075 H              1 S1                 0.0000
     40 ****        -2.7712  -2.4030   0.0200 LP             1 S1                 0.0000
     41 ****         0.9204  -2.6827  -0.8736 LP             1 S1                 0.0000
     42 ****         2.5956  -3.1181  -0.9381 LP             1 S1                 0.0000
     43 ****        -2.6934   1.6816   0.0234 LP             1 S1                 0.0000
@<TRIPOS>BOND
    1    1    2 1     
    2    1   20 1     
    3    1   21 1     
    4    1   22 1     
    5    2    3 1     
    6    2    4 1     
    7    2    5 1     
    8    3   23 1     
    9    3   24 1     
   10    3   25 1     
   11    4   26 1     
   12    4   27 1     
   13    4   28 1     
   14    5   19 ar    
   15    5    6 ar    
   16    6    7 ar    
   17    7    8 ar    
   18    7   29 1     
   19    8    9 1     
   20    8   18 ar    
   21    9   10 am    
   22    9   30 1     
   23   10   11 2     
   24   10   12 am    
   25   12   13 1     
   26   12   31 1     
   27   13   17 1     
   28   13   14 1     
   29   13   32 1     
   30   14   15 1     
   31   14   33 1     
   32   14   34 1     
   33   15   16 2     
   34   15   35 1     
   35   16   17 1     
   36   16   36 1     
   37   17   37 1     
   38   17   38 1     
   39   18   19 ar    
   40   18   39 1     
   41    6   40 1     
   42   11   41 1     
   43   11   42 1     
   44   19   43 1     
@<TRIPOS>SUBSTRUCTURE
      1 S1             1
@<TRIPOS>SET
LONE_PAIRS      STATIC     ATOMS    <user>   **** ""
4 40 41 42 43
DONOR_HYDROGENS      STATIC     ATOMS    <user>   **** ""
2 30 31
ATOM$BLUE        STATIC     ATOMS    COLORGROUP SYSTEM
4 40 41 42 43
ATOM$RED        STATIC     ATOMS    COLORGROUP SYSTEM
2 30 31
