AV-unprocessed.smi:2119|AV-procd|sdf|8636|dock2
  -GOLD-   2272011383D 1   1.00000     0.00000
 Structure written by MMmdl.
 48 50  0  0  0  0  0  0  0  0  2 V2000
  145.0107  138.2122  153.1010 O   0  0  0  0  0  0  0  0  0  0  0  0
  146.0854  137.7026  152.7860 C   0  0  0  0  0  0  0  0  0  0  0  0
  146.1902  136.5485  152.1115 N   0  0  0  0  0  0  0  0  0  0  0  0
  145.0729  135.7222  151.6635 C   0  0  0  0  0  0  0  0  0  0  0  0
  144.9036  134.4309  152.5088 C   0  0  2  0  0  0  0  0  0  0  0  0
  144.9059  133.1190  151.6728 C   0  0  1  0  0  0  0  0  0  0  0  0
  143.8244  132.9925  150.6109 C   0  0  0  0  0  0  0  0  0  0  0  0
  144.3911  131.9380  149.6629 C   0  0  0  0  0  0  0  0  0  0  0  0
  145.8052  131.9885  149.8108 O   0  0  0  0  0  0  0  0  0  0  0  0
  146.1505  132.9537  150.7940 C   0  0  0  0  0  0  0  0  0  0  0  0
  143.6704  134.4787  153.3521 N   0  3  0  0  0  0  0  0  0  0  0  0
  143.8047  135.3053  154.5765 C   0  0  0  0  0  0  0  0  0  0  0  0
  142.5628  135.1352  155.4687 C   0  0  0  0  0  0  0  0  0  0  0  0
  141.3915  135.4678  154.7325 O   0  0  0  0  0  0  0  0  0  0  0  0
  141.2121  134.6244  153.6007 C   0  0  0  0  0  0  0  0  0  0  0  0
  142.4031  134.7921  152.6434 C   0  0  0  0  0  0  0  0  0  0  0  0
  147.2976  138.2045  153.0774 N   0  0  0  0  0  0  0  0  0  0  0  0
  147.6099  139.4146  153.7532 C   0  0  0  0  0  0  0  0  0  0  0  0
  148.9109  139.5656  154.2758 C   0  0  0  0  0  0  0  0  0  0  0  0
  149.2519  140.7630  154.9327 C   0  0  0  0  0  0  0  0  0  0  0  0
  148.2758  141.7731  155.0330 C   0  0  0  0  0  0  0  0  0  0  0  0
  147.0315  141.6524  154.5246 N   0  0  0  0  0  0  0  0  0  0  0  0
  146.7100  140.4999  153.8980 C   0  0  0  0  0  0  0  0  0  0  0  0
  147.1176  136.2066  151.9057 H   0  0  0  0  0  0  0  0  0  0  0  0
  144.1793  136.3426  151.7291 H   0  0  0  0  0  0  0  0  0  0  0  0
  145.1896  135.4603  150.6108 H   0  0  0  0  0  0  0  0  0  0  0  0
  145.7508  134.3681  153.1938 H   0  0  0  0  0  0  0  0  0  0  0  0
  144.8307  132.2550  152.3344 H   0  0  0  0  0  0  0  0  0  0  0  0
  142.8572  132.6904  151.0111 H   0  0  0  0  0  0  0  0  0  0  0  0
  143.6965  133.9378  150.0816 H   0  0  0  0  0  0  0  0  0  0  0  0
  144.0498  130.9421  149.9470 H   0  0  0  0  0  0  0  0  0  0  0  0
  144.0946  132.1150  148.6288 H   0  0  0  0  0  0  0  0  0  0  0  0
  146.3943  133.8899  150.2895 H   0  0  0  0  0  0  0  0  0  0  0  0
  147.0277  132.6365  151.3589 H   0  0  0  0  0  0  0  0  0  0  0  0
  144.6941  135.0087  155.1336 H   0  0  0  0  0  0  0  0  0  0  0  0
  143.9272  136.3555  154.3102 H   0  0  0  0  0  0  0  0  0  0  0  0
  142.4906  134.1137  155.8456 H   0  0  0  0  0  0  0  0  0  0  0  0
  142.6318  135.7905  156.3373 H   0  0  0  0  0  0  0  0  0  0  0  0
  141.1075  133.5851  153.9168 H   0  0  0  0  0  0  0  0  0  0  0  0
  140.2846  134.8999  153.0986 H   0  0  0  0  0  0  0  0  0  0  0  0
  142.4190  135.8173  152.2716 H   0  0  0  0  0  0  0  0  0  0  0  0
  142.2727  134.1374  151.7822 H   0  0  0  0  0  0  0  0  0  0  0  0
  148.0900  137.6273  152.8361 H   0  0  0  0  0  0  0  0  0  0  0  0
  149.6393  138.7735  154.1807 H   0  0  0  0  0  0  0  0  0  0  0  0
  150.2382  140.9047  155.3492 H   0  0  0  0  0  0  0  0  0  0  0  0
  148.5026  142.7050  155.5292 H   0  0  0  0  0  0  0  0  0  0  0  0
  145.7116  140.4719  153.4899 H   0  0  0  0  0  0  0  0  0  0  0  0
  143.5602  133.5348  153.6940 H   0  0  0  0  0  0  0  0  0  0  0  0
  1  2  2  0  0  0  0
  2  3  1  0  0  0  0
  2 17  1  0  0  0  0
  3  4  1  0  0  0  0
  3 24  1  0  0  0  0
  4  5  1  0  0  0  0
  4 25  1  0  0  0  0
  4 26  1  0  0  0  0
  5  6  1  0  0  0  0
  5 11  1  0  0  0  0
  5 27  1  0  0  0  0
  6 10  1  0  0  0  0
  6  7  1  0  0  0  0
  6 28  1  0  0  0  0
  7  8  1  0  0  0  0
  7 29  1  0  0  0  0
  7 30  1  0  0  0  0
  8  9  1  0  0  0  0
  8 31  1  0  0  0  0
  8 32  1  0  0  0  0
  9 10  1  0  0  0  0
 10 33  1  0  0  0  0
 10 34  1  0  0  0  0
 11 16  1  0  0  0  0
 11 12  1  0  0  0  0
 11 48  1  0  0  0  0
 12 13  1  0  0  0  0
 12 35  1  0  0  0  0
 12 36  1  0  0  0  0
 13 14  1  0  0  0  0
 13 37  1  0  0  0  0
 13 38  1  0  0  0  0
 14 15  1  0  0  0  0
 15 16  1  0  0  0  0
 15 39  1  0  0  0  0
 15 40  1  0  0  0  0
 16 41  1  0  0  0  0
 16 42  1  0  0  0  0
 17 18  1  0  0  0  0
 17 43  1  0  0  0  0
 18 23  1  0  0  0  0
 18 19  2  0  0  0  0
 19 20  1  0  0  0  0
 19 44  1  0  0  0  0
 20 21  2  0  0  0  0
 20 45  1  0  0  0  0
 21 22  1  0  0  0  0
 21 46  1  0  0  0  0
 22 23  2  0  0  0  0
 23 47  1  0  0  0  0
M  CHG  1  11   1
M  END
> <s_m_source_file>
AV-unprocessed.smi

> <i_m_source_file_index>
2119

> <i_lp_mmshare_version>
43012

> <i_f3d_flags>
0

> <s_epik_input>
W2NIXTFuW2NIXVtjSF1bY0hdYzFbTkhdQyg9TylbTkhdW0NIMl1bQ0BIXShbQ0BASF0yW0NIMl1bQ0gyXU9bQ0gyXTIpTjNbQ0gyXVtDSDJdT1tDSDJdW0NIMl0z

> <s_epik_cmdline>
J2VwaWtfcHl0aG9uJywgJy1waCcsICc3LjAnLCAnLXRuJywgJzgnLCAnLW1hJywgJzIwMCcsICctbWV0YWxfYmluZGluZycsICctaW1hZScsICc8aW5maWxlLm1hZT4nLCAnLW9tYWUnLCAnPG91dGZpbGUubWFlPic=

> <r_epik_Ionization_Penalty>
0.987463

> <r_epik_Ionization_Penalty_Charging>
0.98326

> <r_epik_Ionization_Penalty_Neutral>
0.00420251

> <r_epik_State_Penalty>
1.01721

> <r_epik_Charging_Adjusted_Penalty>
2.00047

> <i_epik_Tot_Q>
1

> <i_epik_Tot_abs_Q>
1

> <r_epik_Metal_State_Penalty>
1.01439

> <b_epik_Metal_Only>
0

> <s_lp_Force_Field>
OPLS_2005

> <r_lp_Energy>
42.3323

> <b_lp_Chiralities_Consistent>
1

> <s_lp_Variant>
AV-unprocessed.smi:2119-7

> <Gold.Version>
5.8.1

> <Gold.Id.Protein>
6NUR|6NUR_protein|mol2

> <Gold.PLP.Fitness>
42.5558

> <Gold.PLP.PLP>
-29.5200

> <Gold.PLP.part.hbond>
-3.2538

> <Gold.PLP.part.metal>
0.0000

> <Gold.PLP.part.buried>
1.0389

> <Gold.PLP.part.nonpolar>
-32.1271

> <Gold.PLP.part.repulsive>
2.8685

> <Gold.PLP.ligand.clash>
0.0000

> <Gold.PLP.ligand.torsion>
1.1824

> <Gold.PLP.Chemscore.Hbond>
3.0133

> <Gold.PLP.Chemscore.CHOScore>
2.0000

> <Gold.PLP.Chemscore.Metal>
0.0000

> <Gold.Chemscore.Hbonds>
donor molecule, donor type, donor heavy atom, donor atom, acceptor molecule, acceptor atom, score
      L1  H     3    24       P1  7948  1.00
      L1  H    11    48       P1 10957  0.85
      L1  H    17    43       P1  7948  1.00
      P1  H 11000 11005       L1    14  0.33
      L1  C    21    46       P1  8028  1.00
      L1  C    23    47       P1 10175  1.00

> <Gold.PLP.Chemscore.Internal.Correction>
0.3608

> <Gold.Rescore>
     Score         DG    S(hbond)    S(metal)    S(lipo)     H(rot)  DE(clash)    DE(int)     intcor
     14.82     -20.44       2.72        0.00      87.41       1.70       3.07       2.54       ----

> <Gold.Chemscore.Fitness>
14.8209

> <Gold.Chemscore.DG>
-20.4378

> <Gold.Chemscore.ZeroCoef>
-5.4800

> <Gold.Chemscore.Hbond>
2.7212

> <Gold.Chemscore.Metal>
0.0000

> <Gold.Chemscore.Lipo>
87.4054

> <Gold.Chemscore.Internal_Hbond>
0.0000

> <Gold.Chemscore.DEClash>
3.0731

> <Gold.Chemscore.DEInternal>
2.5439

> <Gold.Chemscore.Rot>
1.7021

> <Gold.Chemscore.Internal.Correction>
   9.000000E+99

> <Gold.Chemscore.Hbonds>
donor molecule, donor type, donor heavy atom, donor atom, acceptor molecule, acceptor atom, score
      L1  H     3    24       P1  7948  0.99
      L1  H    11    48       P1 10957  0.41
      L1  H    17    43       P1  7948  0.97
      P1  H 11000 11005       L1    14  0.01

> <Gold.Chemscore.Hbond.Weighted>
-9.0889

> <Gold.Chemscore.Metal.Weighted>
-0.0000

> <Gold.Chemscore.Lipo.Weighted>
-10.2264

> <Gold.Chemscore.Internal_Hbond.Weighted>
0.0000

> <Gold.Chemscore.DEClash.Weighted>
3.0731

> <Gold.Chemscore.DEInternal.Weighted>
2.5439

> <Gold.Chemscore.Rot.Weighted>
4.3575

> <Gold.Chemscore.Internal.Correction.Weighted>
   9.000000E+99

> <Gold.Protein.RotatedTorsions>
[ 6907 6896 6895 6894 ] final  165.24 input  -60.11 | X-H torsion
[ 7974 7965 7964 7962 ] final -145.00 input  175.53 | X-H torsion
[ 8008 7997 7996 7995 ] final  -63.37 input   59.86 | X-H torsion
[ 10167 10162 10161 10158 ] final -101.64 input  -65.29 | X-H torsion
[ 10718 10713 10712 10709 ] final  -35.55 input   66.30 | X-H torsion
[ 10763 10752 10751 10750 ] final -154.57 input  -60.55 | X-H torsion
[ 11005 11000 10999 10996 ] final   54.51 input  -57.11 | X-H torsion

> <Gold.Protein.ActiveResidues>
 VAL166  LYS551  ARG553  GLY616  TRP617  ASP618  TYR619  PRO620  LYS621  CYS622 
 ASP623  PHE694  ASN695  SER759  ASP760  ASP761  ALA762  ILE779  LEU786  VAL792 
 PHE793  MET794  SER795  GLU796  ALA797  LYS798  CYS799  TRP800  GLU811  SER814 

> <Gold.Protein.RotatedAtoms>
  151.8975  133.3530  159.3818 H   0  0  0  0  0  0  0  0  0  0  0  0  # atno 6907 bound_to 6896
  150.7088  134.4862  159.5503 H   0  0  0  0  0  0  0  0  0  0  0  0  # atno 6908 bound_to 6896
  152.2444  134.8196  160.0506 H   0  0  0  0  0  0  0  0  0  0  0  0  # atno 6909 bound_to 6896
  144.8258  140.5639  143.5548 H   0  0  0  0  0  0  0  0  0  0  0  0  # atno 7974 bound_to 7965
  154.4551  140.0976  156.6732 H   0  0  0  0  0  0  0  0  0  0  0  0  # atno 8008 bound_to 7997
  155.5164  140.3478  155.4380 H   0  0  0  0  0  0  0  0  0  0  0  0  # atno 8009 bound_to 7997
  156.0760  140.1361  156.9759 H   0  0  0  0  0  0  0  0  0  0  0  0  # atno 8010 bound_to 7997
  140.2391  143.3551  152.0818 H   0  0  0  0  0  0  0  0  0  0  0  0  # atno 10167 bound_to 10162
  156.3373  130.4288  149.7819 H   0  0  0  0  0  0  0  0  0  0  0  0  # atno 10718 bound_to 10713
  154.7849  135.3187  154.7907 H   0  0  0  0  0  0  0  0  0  0  0  0  # atno 10763 bound_to 10752
  153.8610  135.6853  153.4787 H   0  0  0  0  0  0  0  0  0  0  0  0  # atno 10764 bound_to 10752
  153.1498  135.4704  154.9558 H   0  0  0  0  0  0  0  0  0  0  0  0  # atno 10765 bound_to 10752
  140.0681  134.5508  155.9077 H   0  0  0  0  0  0  0  0  0  0  0  0  # atno 11005 bound_to 11000
  145.5003  139.1483  143.3661 LP  0  0  0  0  0  0  0  0  0  0  0  0  # atno 17320 bound_to 7965
  146.2563  140.5143  142.8872 LP  0  0  0  0  0  0  0  0  0  0  0  0  # atno 17321 bound_to 7965
  139.5083  144.6848  151.5916 LP  0  0  0  0  0  0  0  0  0  0  0  0  # atno 17342 bound_to 10162
  140.6127  143.9406  150.6465 LP  0  0  0  0  0  0  0  0  0  0  0  0  # atno 17343 bound_to 10162
  156.5069  130.8154  151.3154 LP  0  0  0  0  0  0  0  0  0  0  0  0  # atno 17370 bound_to 10713
  157.7441  130.9926  150.2644 LP  0  0  0  0  0  0  0  0  0  0  0  0  # atno 17371 bound_to 10713
  141.2001  133.6610  156.5877 LP  0  0  0  0  0  0  0  0  0  0  0  0  # atno 17394 bound_to 11000
  140.3669  134.7639  157.4572 LP  0  0  0  0  0  0  0  0  0  0  0  0  # atno 17395 bound_to 11000

$$$$
