AV-unprocessed.smi:2627|AV-procd|sdf|10240|dock6
  -GOLD-   2272014253D 1   1.00000     0.00000
 Structure written by MMmdl.
 39 41  0  0  0  0  0  0  0  0  1 V2000
  154.6637  137.1628  160.6647 C   0  0  0  0  0  0  0  0  0  0  0  0
  155.3157  138.3462  159.9354 C   0  0  1  0  0  0  0  0  0  0  0  0
  155.4100  138.0314  158.5620 O   0  0  0  0  0  0  0  0  0  0  0  0
  154.5673  139.6314  160.1634 C   0  0  0  0  0  0  0  0  0  0  0  0
  154.0477  140.3161  159.1411 N   0  0  0  0  0  0  0  0  0  0  0  0
  153.4543  141.3961  159.7617 C   0  0  0  0  0  0  0  0  0  0  0  0
  152.7265  142.4800  159.2206 C   0  0  0  0  0  0  0  0  0  0  0  0
  152.2048  143.4817  160.0650 C   0  0  0  0  0  0  0  0  0  0  0  0
  152.4036  143.4139  161.4591 C   0  0  0  0  0  0  0  0  0  0  0  0
  153.1277  142.3432  162.0177 C   0  0  0  0  0  0  0  0  0  0  0  0
  153.6463  141.3453  161.1704 C   0  0  0  0  0  0  0  0  0  0  0  0
  154.3901  140.1895  161.3916 N   0  0  0  0  0  0  0  0  0  0  0  0
  154.8566  139.7301  162.6937 C   0  0  0  0  0  0  0  0  0  0  0  0
  155.4073  140.8729  163.5581 C   0  0  0  0  0  0  0  0  0  0  0  0
  155.3542  140.5128  164.9319 O   0  0  0  0  0  0  0  0  0  0  0  0
  155.3341  141.5228  165.8702 C   0  0  0  0  0  0  0  0  0  0  0  0
  155.2812  141.1381  167.2263 C   0  0  0  0  0  0  0  0  0  0  0  0
  155.2562  142.1042  168.2505 C   0  0  0  0  0  0  0  0  0  0  0  0
  155.2854  143.4731  167.9268 C   0  0  0  0  0  0  0  0  0  0  0  0
  155.3396  143.8720  166.5783 C   0  0  0  0  0  0  0  0  0  0  0  0
  155.3629  142.9052  165.5539 C   0  0  0  0  0  0  0  0  0  0  0  0
  154.5803  137.3604  161.7330 H   0  0  0  0  0  0  0  0  0  0  0  0
  155.2508  136.2525  160.5407 H   0  0  0  0  0  0  0  0  0  0  0  0
  153.6595  136.9647  160.2887 H   0  0  0  0  0  0  0  0  0  0  0  0
  156.3353  138.4336  160.3031 H   0  0  0  0  0  0  0  0  0  0  0  0
  155.5482  138.8351  158.0840 H   0  0  0  0  0  0  0  0  0  0  0  0
  152.5687  142.5403  158.1538 H   0  0  0  0  0  0  0  0  0  0  0  0
  151.6494  144.3054  159.6411 H   0  0  0  0  0  0  0  0  0  0  0  0
  152.0003  144.1847  162.0993 H   0  0  0  0  0  0  0  0  0  0  0  0
  153.2806  142.2897  163.0852 H   0  0  0  0  0  0  0  0  0  0  0  0
  154.0614  139.1928  163.2087 H   0  0  0  0  0  0  0  0  0  0  0  0
  155.6436  138.9933  162.5311 H   0  0  0  0  0  0  0  0  0  0  0  0
  156.4392  141.0749  163.2671 H   0  0  0  0  0  0  0  0  0  0  0  0
  154.8244  141.7780  163.3798 H   0  0  0  0  0  0  0  0  0  0  0  0
  155.2636  140.0900  167.4864 H   0  0  0  0  0  0  0  0  0  0  0  0
  155.2163  141.7944  169.2845 H   0  0  0  0  0  0  0  0  0  0  0  0
  155.2671  144.2156  168.7110 H   0  0  0  0  0  0  0  0  0  0  0  0
  155.3628  144.9225  166.3285 H   0  0  0  0  0  0  0  0  0  0  0  0
  155.4020  143.2511  164.5322 H   0  0  0  0  0  0  0  0  0  0  0  0
  1  2  1  0  0  0  0
  1 22  1  0  0  0  0
  1 23  1  0  0  0  0
  1 24  1  0  0  0  0
  2  3  1  0  0  0  0
  2  4  1  0  0  0  0
  2 25  1  0  0  0  0
  3 26  1  0  0  0  0
  4 12  1  0  0  0  0
  4  5  2  0  0  0  0
  5  6  1  0  0  0  0
  6 11  2  0  0  0  0
  6  7  1  0  0  0  0
  7  8  2  0  0  0  0
  7 27  1  0  0  0  0
  8  9  1  0  0  0  0
  8 28  1  0  0  0  0
  9 10  2  0  0  0  0
  9 29  1  0  0  0  0
 10 11  1  0  0  0  0
 10 30  1  0  0  0  0
 11 12  1  0  0  0  0
 12 13  1  0  0  0  0
 13 14  1  0  0  0  0
 13 31  1  0  0  0  0
 13 32  1  0  0  0  0
 14 15  1  0  0  0  0
 14 33  1  0  0  0  0
 14 34  1  0  0  0  0
 15 16  1  0  0  0  0
 16 21  1  0  0  0  0
 16 17  2  0  0  0  0
 17 18  1  0  0  0  0
 17 35  1  0  0  0  0
 18 19  2  0  0  0  0
 18 36  1  0  0  0  0
 19 20  1  0  0  0  0
 19 37  1  0  0  0  0
 20 21  2  0  0  0  0
 20 38  1  0  0  0  0
 21 39  1  0  0  0  0
M  END
> <s_m_source_file>
AV-unprocessed.smi

> <i_m_source_file_index>
2627

> <i_lp_mmshare_version>
43012

> <i_f3d_flags>
0

> <s_epik_input>
W2NIXTFbY0hdW2NIXVtjSF1jKGMxMiluKGMobjIpW0NASF0oW0NIM10pW09IXSlbQ0gyXVtDSDJdT2MzW2NIXVtjSF1bY0hdW2NIXVtjSF0z

> <s_epik_cmdline>
J2VwaWtfcHl0aG9uJywgJy1waCcsICc3LjAnLCAnLXRuJywgJzgnLCAnLW1hJywgJzIwMCcsICctbWV0YWxfYmluZGluZycsICctaW1hZScsICc8aW5maWxlLm1hZT4nLCAnLW9tYWUnLCAnPG91dGZpbGUubWFlPic=

> <r_lp_tautomer_probability>
1

> <r_epik_Ionization_Penalty>
0.0472514

> <r_epik_Ionization_Penalty_Charging>
0

> <r_epik_Ionization_Penalty_Neutral>
0.0472514

> <r_epik_State_Penalty>
0.040225

> <r_epik_Charging_Adjusted_Penalty>
0.040225

> <i_epik_Tot_Q>
0

> <i_epik_Tot_abs_Q>
0

> <r_epik_Metal_State_Penalty>
4.16204e-05

> <b_epik_Metal_Only>
0

> <s_lp_Force_Field>
OPLS_2005

> <r_lp_Energy>
14.021

> <b_lp_Chiralities_Consistent>
1

> <s_lp_Variant>
AV-unprocessed.smi:2627-2

> <Gold.Version>
5.8.1

> <Gold.Id.Protein>
6NUR|6NUR_protein|mol2

> <Gold.PLP.Fitness>
48.9699

> <Gold.PLP.PLP>
-47.5598

> <Gold.PLP.part.hbond>
-1.3844

> <Gold.PLP.part.metal>
0.0000

> <Gold.PLP.part.buried>
-1.3556

> <Gold.PLP.part.nonpolar>
-44.0624

> <Gold.PLP.part.repulsive>
0.0000

> <Gold.PLP.ligand.clash>
0.0000

> <Gold.PLP.ligand.torsion>
0.4790

> <Gold.PLP.Chemscore.Hbond>
0.7691

> <Gold.PLP.Chemscore.CHOScore>
0.0000

> <Gold.PLP.Chemscore.Metal>
0.0000

> <Gold.Chemscore.Hbonds>
donor molecule, donor type, donor heavy atom, donor atom, acceptor molecule, acceptor atom, score
      P1  H  7997  8009       L1     5  0.68

> <Gold.PLP.Chemscore.Internal.Correction>
0.0610

> <Gold.Rescore>
     Score         DG    S(hbond)    S(metal)    S(lipo)     H(rot)  DE(clash)    DE(int)     intcor
     17.57     -18.88       0.79        0.00     137.16       2.06       0.84       0.48       ----

> <Gold.Chemscore.Fitness>
17.5695

> <Gold.Chemscore.DG>
-18.8838

> <Gold.Chemscore.ZeroCoef>
-5.4800

> <Gold.Chemscore.Hbond>
0.7855

> <Gold.Chemscore.Metal>
0.0000

> <Gold.Chemscore.Lipo>
137.1636

> <Gold.Chemscore.Internal_Hbond>
0.0000

> <Gold.Chemscore.DEClash>
0.8391

> <Gold.Chemscore.DEInternal>
0.4752

> <Gold.Chemscore.Rot>
2.0577

> <Gold.Chemscore.Internal.Correction>
   9.000000E+99

> <Gold.Chemscore.Hbonds>
donor molecule, donor type, donor heavy atom, donor atom, acceptor molecule, acceptor atom, score
      P1  H  7997  8009       L1     5  0.55

> <Gold.Chemscore.Hbond.Weighted>
-2.6235

> <Gold.Chemscore.Metal.Weighted>
-0.0000

> <Gold.Chemscore.Lipo.Weighted>
-16.0481

> <Gold.Chemscore.Internal_Hbond.Weighted>
0.0000

> <Gold.Chemscore.DEClash.Weighted>
0.8391

> <Gold.Chemscore.DEInternal.Weighted>
0.4752

> <Gold.Chemscore.Rot.Weighted>
5.2678

> <Gold.Chemscore.Internal.Correction.Weighted>
   9.000000E+99

> <Gold.Protein.RotatedTorsions>
[ 6907 6896 6895 6894 ] final  -83.68 input  -60.11 | X-H torsion
[ 7974 7965 7964 7962 ] final   59.35 input  175.53 | X-H torsion
[ 8008 7997 7996 7995 ] final  120.03 input   59.86 | X-H torsion
[ 10167 10162 10161 10158 ] final    1.15 input  -65.29 | X-H torsion
[ 10718 10713 10712 10709 ] final   70.36 input   66.30 | X-H torsion
[ 10763 10752 10751 10750 ] final  -35.62 input  -60.55 | X-H torsion
[ 11005 11000 10999 10996 ] final  -74.43 input  -57.11 | X-H torsion

> <Gold.Protein.ActiveResidues>
 VAL166  LYS551  ARG553  GLY616  TRP617  ASP618  TYR619  PRO620  LYS621  CYS622 
 ASP623  PHE694  ASN695  SER759  ASP760  ASP761  ALA762  ILE779  LEU786  VAL792 
 PHE793  MET794  SER795  GLU796  ALA797  LYS798  CYS799  TRP800  GLU811  SER814 

> <Gold.Protein.RotatedAtoms>
  150.6883  134.3475  159.4894 H   0  0  0  0  0  0  0  0  0  0  0  0  # atno 6907 bound_to 6896
  152.1320  134.9125  160.0567 H   0  0  0  0  0  0  0  0  0  0  0  0  # atno 6908 bound_to 6896
  152.0291  133.3895  159.4326 H   0  0  0  0  0  0  0  0  0  0  0  0  # atno 6909 bound_to 6896
  145.9081  139.3633  143.0552 H   0  0  0  0  0  0  0  0  0  0  0  0  # atno 7974 bound_to 7965
  156.2624  140.2839  156.1086 H   0  0  0  0  0  0  0  0  0  0  0  0  # atno 8008 bound_to 7997
  155.1282  140.0393  157.2785 H   0  0  0  0  0  0  0  0  0  0  0  0  # atno 8009 bound_to 7997
  154.6619  140.2568  155.7105 H   0  0  0  0  0  0  0  0  0  0  0  0  # atno 8010 bound_to 7997
  140.6696  143.7086  150.7895 H   0  0  0  0  0  0  0  0  0  0  0  0  # atno 10167 bound_to 10162
  157.6395  130.9473  150.0640 H   0  0  0  0  0  0  0  0  0  0  0  0  # atno 10718 bound_to 10713
  153.8662  135.6835  153.4778 H   0  0  0  0  0  0  0  0  0  0  0  0  # atno 10763 bound_to 10752
  153.1313  135.4696  154.9351 H   0  0  0  0  0  0  0  0  0  0  0  0  # atno 10764 bound_to 10752
  154.7735  135.3246  154.8089 H   0  0  0  0  0  0  0  0  0  0  0  0  # atno 10765 bound_to 10752
  141.1635  133.6911  156.7363 H   0  0  0  0  0  0  0  0  0  0  0  0  # atno 11005 bound_to 11000
  145.8706  140.9422  143.0652 LP  0  0  0  0  0  0  0  0  0  0  0  0  # atno 17320 bound_to 7965
  144.6741  140.0650  143.7475 LP  0  0  0  0  0  0  0  0  0  0  0  0  # atno 17321 bound_to 7965
  140.0769  143.5007  152.2551 LP  0  0  0  0  0  0  0  0  0  0  0  0  # atno 17342 bound_to 10162
  139.5958  144.7566  151.3289 LP  0  0  0  0  0  0  0  0  0  0  0  0  # atno 17343 bound_to 10162
  156.1664  130.3645  149.9226 LP  0  0  0  0  0  0  0  0  0  0  0  0  # atno 17370 bound_to 10713
  156.7212  130.9007  151.3618 LP  0  0  0  0  0  0  0  0  0  0  0  0  # atno 17371 bound_to 10713
  140.2707  134.8394  157.3845 LP  0  0  0  0  0  0  0  0  0  0  0  0  # atno 17394 bound_to 11000
  140.1524  134.4833  155.7952 LP  0  0  0  0  0  0  0  0  0  0  0  0  # atno 17395 bound_to 11000

$$$$
