AV-unprocessed.smi:519|AV-procd|sdf|2795|dock8
  -GOLD-   2262023273D 1   1.00000     0.00000
 Structure written by MMmdl.
 36 38  0  0  0  0  0  0  0  0  1 V2000
  153.4000  139.4145  154.6536 O   0  0  0  0  0  0  0  0  0  0  0  0
  152.3749  139.0152  155.5412 C   0  0  0  0  0  0  0  0  0  0  0  0
  151.0612  139.7059  155.3080 C   0  0  0  0  0  0  0  0  0  0  0  0
  150.4165  139.6720  154.1393 N   0  0  0  0  0  0  0  0  0  0  0  0
  149.2833  140.4193  154.3925 C   0  0  0  0  0  0  0  0  0  0  0  0
  148.2004  140.7592  153.5506 C   0  0  0  0  0  0  0  0  0  0  0  0
  147.1374  141.5470  154.0384 C   0  0  0  0  0  0  0  0  0  0  0  0
  147.1408  142.0032  155.3724 C   0  0  0  0  0  0  0  0  0  0  0  0
  148.2095  141.6743  156.2281 C   0  0  0  0  0  0  0  0  0  0  0  0
  149.2697  140.8904  155.7353 C   0  0  0  0  0  0  0  0  0  0  0  0
  150.4480  140.4060  156.2951 N   0  0  0  0  0  0  0  0  0  0  0  0
  150.9070  140.6247  157.6593 C   0  0  0  0  0  0  0  0  0  0  0  0
  152.1833  141.4775  157.7109 C   0  0  0  0  0  0  0  0  0  0  0  0
  151.9726  142.5924  158.5677 O   0  0  0  0  0  0  0  0  0  0  0  0
  152.4449  142.5290  159.8619 C   0  0  0  0  0  0  0  0  0  0  0  0
  153.2001  141.4434  160.3750 C   0  0  0  0  0  0  0  0  0  0  0  0
  153.6460  141.4502  161.7109 C   0  0  0  0  0  0  0  0  0  0  0  0
  153.3436  142.5368  162.5512 C   0  0  0  0  0  0  0  0  0  0  0  0
  152.5960  143.6191  162.0526 C   0  0  0  0  0  0  0  0  0  0  0  0
  152.1508  143.6162  160.7159 C   0  0  0  0  0  0  0  0  0  0  0  0
  151.2385  144.9608  160.1294 Cl  0  0  0  0  0  0  0  0  0  0  0  0
  153.0887  139.3102  153.7679 H   0  0  0  0  0  0  0  0  0  0  0  0
  152.2314  137.9389  155.4425 H   0  0  0  0  0  0  0  0  0  0  0  0
  152.7094  139.2096  156.5603 H   0  0  0  0  0  0  0  0  0  0  0  0
  148.1887  140.4142  152.5273 H   0  0  0  0  0  0  0  0  0  0  0  0
  146.3158  141.8031  153.3856 H   0  0  0  0  0  0  0  0  0  0  0  0
  146.3242  142.6083  155.7381 H   0  0  0  0  0  0  0  0  0  0  0  0
  148.2175  142.0272  157.2486 H   0  0  0  0  0  0  0  0  0  0  0  0
  150.1094  141.1153  158.2183 H   0  0  0  0  0  0  0  0  0  0  0  0
  151.0712  139.6631  158.1455 H   0  0  0  0  0  0  0  0  0  0  0  0
  153.0094  140.8695  158.0819 H   0  0  0  0  0  0  0  0  0  0  0  0
  152.4394  141.8182  156.7066 H   0  0  0  0  0  0  0  0  0  0  0  0
  153.4513  140.5902  159.7637 H   0  0  0  0  0  0  0  0  0  0  0  0
  154.2208  140.6184  162.0910 H   0  0  0  0  0  0  0  0  0  0  0  0
  153.6848  142.5406  163.5761 H   0  0  0  0  0  0  0  0  0  0  0  0
  152.3640  144.4538  162.6976 H   0  0  0  0  0  0  0  0  0  0  0  0
  1  2  1  0  0  0  0
  1 22  1  0  0  0  0
  2  3  1  0  0  0  0
  2 23  1  0  0  0  0
  2 24  1  0  0  0  0
  3 11  1  0  0  0  0
  3  4  2  0  0  0  0
  4  5  1  0  0  0  0
  5 10  2  0  0  0  0
  5  6  1  0  0  0  0
  6  7  2  0  0  0  0
  6 25  1  0  0  0  0
  7  8  1  0  0  0  0
  7 26  1  0  0  0  0
  8  9  2  0  0  0  0
  8 27  1  0  0  0  0
  9 10  1  0  0  0  0
  9 28  1  0  0  0  0
 10 11  1  0  0  0  0
 11 12  1  0  0  0  0
 12 13  1  0  0  0  0
 12 29  1  0  0  0  0
 12 30  1  0  0  0  0
 13 14  1  0  0  0  0
 13 31  1  0  0  0  0
 13 32  1  0  0  0  0
 14 15  1  0  0  0  0
 15 20  1  0  0  0  0
 15 16  2  0  0  0  0
 16 17  1  0  0  0  0
 16 33  1  0  0  0  0
 17 18  2  0  0  0  0
 17 34  1  0  0  0  0
 18 19  1  0  0  0  0
 18 35  1  0  0  0  0
 19 20  2  0  0  0  0
 19 36  1  0  0  0  0
 20 21  1  0  0  0  0
M  END
> <s_m_source_file>
AV-unprocessed.smi

> <i_m_source_file_index>
519

> <i_lp_mmshare_version>
43012

> <i_f3d_flags>
0

> <s_epik_input>
W2NIXTFbY0hdW2NIXVtjSF1jKGMxMiluKGMobjIpW0NIMl1bT0hdKVtDSDJdW0NIMl1PYzNbY0hdW2NIXVtjSF1bY0hdYzNDbA==

> <s_epik_cmdline>
J2VwaWtfcHl0aG9uJywgJy1waCcsICc3LjAnLCAnLXRuJywgJzgnLCAnLW1hJywgJzIwMCcsICctbWV0YWxfYmluZGluZycsICctaW1hZScsICc8aW5maWxlLm1hZT4nLCAnLW9tYWUnLCAnPG91dGZpbGUubWFlPic=

> <r_lp_tautomer_probability>
1

> <r_epik_Ionization_Penalty>
0.045213

> <r_epik_Ionization_Penalty_Charging>
0

> <r_epik_Ionization_Penalty_Neutral>
0.045213

> <r_epik_State_Penalty>
0.0382996

> <r_epik_Charging_Adjusted_Penalty>
0.0382996

> <i_epik_Tot_Q>
0

> <i_epik_Tot_abs_Q>
0

> <r_epik_Metal_State_Penalty>
3.95633e-05

> <b_epik_Metal_Only>
0

> <s_lp_Force_Field>
OPLS_2005

> <r_lp_Energy>
15.9183

> <b_lp_Chiralities_Consistent>
1

> <s_lp_Variant>
AV-unprocessed.smi:519-1

> <Gold.Version>
5.8.1

> <Gold.Id.Protein>
6NUR|6NUR_protein|mol2

> <Gold.PLP.Fitness>
54.2438

> <Gold.PLP.PLP>
-51.1078

> <Gold.PLP.part.hbond>
-2.8330

> <Gold.PLP.part.metal>
0.0000

> <Gold.PLP.part.buried>
-2.9213

> <Gold.PLP.part.nonpolar>
-44.5429

> <Gold.PLP.part.repulsive>
0.2460

> <Gold.PLP.ligand.clash>
0.0000

> <Gold.PLP.ligand.torsion>
0.6994

> <Gold.PLP.Chemscore.Hbond>
1.5000

> <Gold.PLP.Chemscore.CHOScore>
0.0000

> <Gold.PLP.Chemscore.Metal>
0.0000

> <Gold.Chemscore.Hbonds>
donor molecule, donor type, donor heavy atom, donor atom, acceptor molecule, acceptor atom, score
      P1  H  7989  7998       L1     4  0.45
      P1  H  7997  8008       L1     1  1.00

> <Gold.PLP.Chemscore.Internal.Correction>
0.0349

> <Gold.Rescore>
     Score         DG    S(hbond)    S(metal)    S(lipo)     H(rot)  DE(clash)    DE(int)     intcor
     17.55     -18.35       0.99        0.00     129.25       2.17       0.10       0.69       ----

> <Gold.Chemscore.Fitness>
17.5548

> <Gold.Chemscore.DG>
-18.3526

> <Gold.Chemscore.ZeroCoef>
-5.4800

> <Gold.Chemscore.Hbond>
0.9925

> <Gold.Chemscore.Metal>
0.0000

> <Gold.Chemscore.Lipo>
129.2461

> <Gold.Chemscore.Internal_Hbond>
0.0000

> <Gold.Chemscore.DEClash>
0.1048

> <Gold.Chemscore.DEInternal>
0.6930

> <Gold.Chemscore.Rot>
2.1735

> <Gold.Chemscore.Internal.Correction>
   9.000000E+99

> <Gold.Chemscore.Hbonds>
donor molecule, donor type, donor heavy atom, donor atom, acceptor molecule, acceptor atom, score
      P1  H  7989  7998       L1     4  0.01
      P1  H  7997  8008       L1     1  0.40

> <Gold.Chemscore.Hbond.Weighted>
-3.3150

> <Gold.Chemscore.Metal.Weighted>
-0.0000

> <Gold.Chemscore.Lipo.Weighted>
-15.1218

> <Gold.Chemscore.Internal_Hbond.Weighted>
0.0000

> <Gold.Chemscore.DEClash.Weighted>
0.1048

> <Gold.Chemscore.DEInternal.Weighted>
0.6930

> <Gold.Chemscore.Rot.Weighted>
5.5642

> <Gold.Chemscore.Internal.Correction.Weighted>
   9.000000E+99

> <Gold.Protein.RotatedTorsions>
[ 6907 6896 6895 6894 ] final   39.97 input  -60.11 | X-H torsion
[ 7974 7965 7964 7962 ] final -163.99 input  175.53 | X-H torsion
[ 8008 7997 7996 7995 ] final   -5.11 input   59.86 | X-H torsion
[ 10167 10162 10161 10158 ] final -108.97 input  -65.29 | X-H torsion
[ 10718 10713 10712 10709 ] final   27.56 input   66.30 | X-H torsion
[ 10763 10752 10751 10750 ] final -120.52 input  -60.55 | X-H torsion
[ 11005 11000 10999 10996 ] final    7.20 input  -57.11 | X-H torsion

> <Gold.Protein.ActiveResidues>
 VAL166  LYS551  ARG553  GLY616  TRP617  ASP618  TYR619  PRO620  LYS621  CYS622 
 ASP623  PHE694  ASN695  SER759  ASP760  ASP761  ALA762  ILE779  LEU786  VAL792 
 PHE793  MET794  SER795  GLU796  ALA797  LYS798  CYS799  TRP800  GLU811  SER814 

> <Gold.Protein.RotatedAtoms>
  152.1764  134.8791  160.0529 H   0  0  0  0  0  0  0  0  0  0  0  0  # atno 6907 bound_to 6896
  151.9731  133.3727  159.4087 H   0  0  0  0  0  0  0  0  0  0  0  0  # atno 6908 bound_to 6896
  150.6910  134.4041  159.5176 H   0  0  0  0  0  0  0  0  0  0  0  0  # atno 6909 bound_to 6896
  144.7310  140.3026  143.6202 H   0  0  0  0  0  0  0  0  0  0  0  0  # atno 7974 bound_to 7965
  154.6073  140.2467  155.7714 H   0  0  0  0  0  0  0  0  0  0  0  0  # atno 8008 bound_to 7997
  156.2349  140.2954  156.0236 H   0  0  0  0  0  0  0  0  0  0  0  0  # atno 8009 bound_to 7997
  155.2111  140.0397  157.2924 H   0  0  0  0  0  0  0  0  0  0  0  0  # atno 8010 bound_to 7997
  140.1604  143.4125  152.1430 H   0  0  0  0  0  0  0  0  0  0  0  0  # atno 10167 bound_to 10162
  157.2219  130.6982  149.6274 H   0  0  0  0  0  0  0  0  0  0  0  0  # atno 10718 bound_to 10713
  154.8646  135.4200  154.2472 H   0  0  0  0  0  0  0  0  0  0  0  0  # atno 10763 bound_to 10752
  153.3426  135.6994  153.6860 H   0  0  0  0  0  0  0  0  0  0  0  0  # atno 10764 bound_to 10752
  153.5833  135.3569  155.2856 H   0  0  0  0  0  0  0  0  0  0  0  0  # atno 10765 bound_to 10752
  140.5509  134.0284  155.7936 H   0  0  0  0  0  0  0  0  0  0  0  0  # atno 11005 bound_to 11000
  145.7745  139.1869  143.2193 LP  0  0  0  0  0  0  0  0  0  0  0  0  # atno 17320 bound_to 7965
  146.0884  140.7684  142.9607 LP  0  0  0  0  0  0  0  0  0  0  0  0  # atno 17321 bound_to 7965
  139.5384  144.7232  151.4816 LP  0  0  0  0  0  0  0  0  0  0  0  0  # atno 17342 bound_to 10162
  140.6646  143.8425  150.6927 LP  0  0  0  0  0  0  0  0  0  0  0  0  # atno 17343 bound_to 10162
  155.9681  130.4517  150.5746 LP  0  0  0  0  0  0  0  0  0  0  0  0  # atno 17370 bound_to 10713
  157.3567  131.0743  151.1669 LP  0  0  0  0  0  0  0  0  0  0  0  0  # atno 17371 bound_to 10713
  141.1172  133.9521  157.2799 LP  0  0  0  0  0  0  0  0  0  0  0  0  # atno 17394 bound_to 11000
  139.9456  135.0184  156.8841 LP  0  0  0  0  0  0  0  0  0  0  0  0  # atno 17395 bound_to 11000

$$$$
