AV-unprocessed.smi:3331|AV-procd|sdf|12825|dock4
  -GOLD-   2272019203D 1   1.00000     0.00000
 Structure written by MMmdl.
 46 47  0  0  0  0  0  0  0  0  1 V2000
  148.4549  130.1335  155.9133 C   0  0  0  0  0  0  0  0  0  0  0  0
  149.3361  130.3586  154.6719 C   0  0  1  0  0  0  0  0  0  0  0  0
  148.5398  130.9561  153.4904 C   0  0  0  0  0  0  0  0  0  0  0  0
  148.2615  132.4670  153.6564 C   0  0  2  0  0  0  0  0  0  0  0  0
  147.5890  133.0533  152.4073 C   0  0  0  0  0  0  0  0  0  0  0  0
  149.5655  133.2151  154.0030 C   0  0  0  0  0  0  0  0  0  0  0  0
  150.1581  132.6234  155.2108 N   0  0  0  0  0  0  0  0  0  0  0  0
  150.2255  133.2904  156.3923 C   0  0  0  0  0  0  0  0  0  0  0  0
  150.6842  132.7643  157.4082 O   0  0  0  0  0  0  0  0  0  0  0  0
  149.7078  134.7419  156.4860 C   0  0  2  0  0  0  0  0  0  0  0  0
  150.4655  135.6850  155.5258 C   0  0  0  0  0  0  0  0  0  0  0  0
  149.8003  135.2165  157.8764 N   0  0  0  0  0  0  0  0  0  0  0  0
  149.0120  136.4159  158.1218 C   0  0  0  0  0  0  0  0  0  0  0  0
  149.2660  136.9051  159.5548 C   0  0  0  0  0  0  0  0  0  0  0  0
  148.4151  136.2228  160.5105 N   0  0  0  0  0  0  0  0  0  0  0  0
  148.1512  134.8732  160.6125 C   0  0  0  0  0  0  0  0  0  0  0  0
  147.2994  134.7047  161.6666 C   0  0  0  0  0  0  0  0  0  0  0  0
  147.0967  136.0270  162.1522 C   0  0  0  0  0  0  0  0  0  0  0  0
  147.7648  136.9337  161.4573 N   0  0  0  0  0  0  0  0  0  0  0  0
  150.5736  131.2326  154.9711 C   0  0  0  0  0  0  0  0  0  0  0  0
  148.0386  131.0662  156.2941 H   0  0  0  0  0  0  0  0  0  0  0  0
  149.0273  129.6735  156.7191 H   0  0  0  0  0  0  0  0  0  0  0  0
  147.6211  129.4692  155.6852 H   0  0  0  0  0  0  0  0  0  0  0  0
  149.6937  129.3759  154.3628 H   0  0  0  0  0  0  0  0  0  0  0  0
  149.1158  130.8058  152.5763 H   0  0  0  0  0  0  0  0  0  0  0  0
  147.6058  130.4109  153.3489 H   0  0  0  0  0  0  0  0  0  0  0  0
  147.5686  132.5974  154.4888 H   0  0  0  0  0  0  0  0  0  0  0  0
  148.2320  132.9635  151.5311 H   0  0  0  0  0  0  0  0  0  0  0  0
  147.3588  134.1101  152.5447 H   0  0  0  0  0  0  0  0  0  0  0  0
  146.6532  132.5385  152.1883 H   0  0  0  0  0  0  0  0  0  0  0  0
  150.2766  133.1374  153.1792 H   0  0  0  0  0  0  0  0  0  0  0  0
  149.3616  134.2811  154.1117 H   0  0  0  0  0  0  0  0  0  0  0  0
  148.6660  134.7367  156.1653 H   0  0  0  0  0  0  0  0  0  0  0  0
  150.4755  135.2896  154.5092 H   0  0  0  0  0  0  0  0  0  0  0  0
  151.5012  135.8298  155.8366 H   0  0  0  0  0  0  0  0  0  0  0  0
  149.9969  136.6674  155.4727 H   0  0  0  0  0  0  0  0  0  0  0  0
  150.7590  135.3681  158.1560 H   0  0  0  0  0  0  0  0  0  0  0  0
  149.2808  137.1991  157.4131 H   0  0  0  0  0  0  0  0  0  0  0  0
  147.9516  136.1971  157.9856 H   0  0  0  0  0  0  0  0  0  0  0  0
  150.3075  136.7429  159.8379 H   0  0  0  0  0  0  0  0  0  0  0  0
  149.0802  137.9774  159.6312 H   0  0  0  0  0  0  0  0  0  0  0  0
  148.5878  134.1534  159.9357 H   0  0  0  0  0  0  0  0  0  0  0  0
  146.8847  133.7783  162.0356 H   0  0  0  0  0  0  0  0  0  0  0  0
  146.4885  136.3527  162.9833 H   0  0  0  0  0  0  0  0  0  0  0  0
  151.1516  130.7935  155.7815 H   0  0  0  0  0  0  0  0  0  0  0  0
  151.2463  131.2163  154.1124 H   0  0  0  0  0  0  0  0  0  0  0  0
  1  2  1  0  0  0  0
  1 21  1  0  0  0  0
  1 22  1  0  0  0  0
  1 23  1  0  0  0  0
  2 20  1  0  0  0  0
  2  3  1  0  0  0  0
  2 24  1  0  0  0  0
  3  4  1  0  0  0  0
  3 25  1  0  0  0  0
  3 26  1  0  0  0  0
  4  5  1  0  0  0  0
  4  6  1  0  0  0  0
  4 27  1  0  0  0  0
  5 28  1  0  0  0  0
  5 29  1  0  0  0  0
  5 30  1  0  0  0  0
  6  7  1  0  0  0  0
  6 31  1  0  0  0  0
  6 32  1  0  0  0  0
  7  8  1  0  0  0  0
  7 20  1  0  0  0  0
  8  9  2  0  0  0  0
  8 10  1  0  0  0  0
 10 11  1  0  0  0  0
 10 12  1  0  0  0  0
 10 33  1  0  0  0  0
 11 34  1  0  0  0  0
 11 35  1  0  0  0  0
 11 36  1  0  0  0  0
 12 13  1  0  0  0  0
 12 37  1  0  0  0  0
 13 14  1  0  0  0  0
 13 38  1  0  0  0  0
 13 39  1  0  0  0  0
 14 15  1  0  0  0  0
 14 40  1  0  0  0  0
 14 41  1  0  0  0  0
 15 19  1  0  0  0  0
 15 16  1  0  0  0  0
 16 17  2  0  0  0  0
 16 42  1  0  0  0  0
 17 18  1  0  0  0  0
 17 43  1  0  0  0  0
 18 19  2  0  0  0  0
 18 44  1  0  0  0  0
 20 45  1  0  0  0  0
 20 46  1  0  0  0  0
M  END
> <s_m_source_file>
AV-unprocessed.smi

> <i_m_source_file_index>
3331

> <i_lp_mmshare_version>
43012

> <i_f3d_flags>
0

> <s_epik_input>
W0NIM11bQ0BASF0xW0NIMl1bQ0BASF0oW0NIM10pW0NIMl1OKFtDSDJdMSlDKD1PKVtDQEhdKFtDSDNdKVtOSF1bQ0gyXVtDSDJdbjJbY0hdW2NIXVtjSF1uMg==

> <s_epik_cmdline>
J2VwaWtfcHl0aG9uJywgJy1waCcsICc3LjAnLCAnLXRuJywgJzgnLCAnLW1hJywgJzIwMCcsICctbWV0YWxfYmluZGluZycsICctaW1hZScsICc8aW5maWxlLm1hZT4nLCAnLW9tYWUnLCAnPG91dGZpbGUubWFlPic=

> <r_lp_tautomer_probability>
1

> <r_epik_Ionization_Penalty>
0.767994

> <r_epik_Ionization_Penalty_Charging>
0

> <r_epik_Ionization_Penalty_Neutral>
0.767994

> <r_epik_State_Penalty>
0.795453

> <r_epik_Charging_Adjusted_Penalty>
0.795453

> <i_epik_Tot_Q>
0

> <i_epik_Tot_abs_Q>
0

> <r_epik_Metal_State_Penalty>
0.794784

> <b_epik_Metal_Only>
0

> <s_lp_Force_Field>
OPLS_2005

> <r_lp_Energy>
29.2756

> <b_lp_Chiralities_Consistent>
1

> <s_lp_Variant>
AV-unprocessed.smi:3331-9

> <Gold.Version>
5.8.1

> <Gold.Id.Protein>
6NUR|6NUR_protein|mol2

> <Gold.PLP.Fitness>
44.0711

> <Gold.PLP.PLP>
-36.2360

> <Gold.PLP.part.hbond>
-4.0000

> <Gold.PLP.part.metal>
0.0000

> <Gold.PLP.part.buried>
-4.1215

> <Gold.PLP.part.nonpolar>
-28.6711

> <Gold.PLP.part.repulsive>
0.0000

> <Gold.PLP.ligand.clash>
0.0000

> <Gold.PLP.ligand.torsion>
0.4161

> <Gold.PLP.Chemscore.Hbond>
2.8640

> <Gold.PLP.Chemscore.CHOScore>
0.0000

> <Gold.PLP.Chemscore.Metal>
0.0000

> <Gold.Chemscore.Hbonds>
donor molecule, donor type, donor heavy atom, donor atom, acceptor molecule, acceptor atom, score
      P1  H  6896  6909       L1     9  1.00
      P1  H  6931  6943       L1    19  1.00
      P1  H  6934  6947       L1    19  0.40

> <Gold.PLP.Chemscore.Internal.Correction>
0.0752

> <Gold.Rescore>
     Score         DG    S(hbond)    S(metal)    S(lipo)     H(rot)  DE(clash)    DE(int)     intcor
     16.43     -17.64       2.33        0.00      73.86       1.66       0.13       1.08       ----

> <Gold.Chemscore.Fitness>
16.4293

> <Gold.Chemscore.DG>
-17.6383

> <Gold.Chemscore.ZeroCoef>
-5.4800

> <Gold.Chemscore.Hbond>
2.3291

> <Gold.Chemscore.Metal>
0.0000

> <Gold.Chemscore.Lipo>
73.8554

> <Gold.Chemscore.Internal_Hbond>
0.0000

> <Gold.Chemscore.DEClash>
0.1292

> <Gold.Chemscore.DEInternal>
1.0798

> <Gold.Chemscore.Rot>
1.6649

> <Gold.Chemscore.Internal.Correction>
   9.000000E+99

> <Gold.Chemscore.Hbonds>
donor molecule, donor type, donor heavy atom, donor atom, acceptor molecule, acceptor atom, score
      P1  H  6896  6909       L1     9  0.93
      P1  H  6931  6943       L1    19  0.34
      P1  H  6934  6947       L1    19  0.39

> <Gold.Chemscore.Hbond.Weighted>
-7.7793

> <Gold.Chemscore.Metal.Weighted>
-0.0000

> <Gold.Chemscore.Lipo.Weighted>
-8.6411

> <Gold.Chemscore.Internal_Hbond.Weighted>
0.0000

> <Gold.Chemscore.DEClash.Weighted>
0.1292

> <Gold.Chemscore.DEInternal.Weighted>
1.0798

> <Gold.Chemscore.Rot.Weighted>
4.2621

> <Gold.Chemscore.Internal.Correction.Weighted>
   9.000000E+99

> <Gold.Protein.RotatedTorsions>
[ 6907 6896 6895 6894 ] final  -40.64 input  -60.11 | X-H torsion
[ 7974 7965 7964 7962 ] final   16.95 input  175.53 | X-H torsion
[ 8008 7997 7996 7995 ] final  168.07 input   59.86 | X-H torsion
[ 10167 10162 10161 10158 ] final   65.29 input  -65.29 | X-H torsion
[ 10718 10713 10712 10709 ] final   -0.00 input   66.30 | X-H torsion
[ 10763 10752 10751 10750 ] final -171.15 input  -60.55 | X-H torsion
[ 11005 11000 10999 10996 ] final    9.24 input  -57.11 | X-H torsion

> <Gold.Protein.ActiveResidues>
 VAL166  LYS551  ARG553  GLY616  TRP617  ASP618  TYR619  PRO620  LYS621  CYS622 
 ASP623  PHE694  ASN695  SER759  ASP760  ASP761  ALA762  ILE779  LEU786  VAL792 
 PHE793  MET794  SER795  GLU796  ALA797  LYS798  CYS799  TRP800  GLU811  SER814 

> <Gold.Protein.RotatedAtoms>
  150.9761  134.9125  159.7816 H   0  0  0  0  0  0  0  0  0  0  0  0  # atno 6907 bound_to 6896
  152.5206  134.3474  159.9249 H   0  0  0  0  0  0  0  0  0  0  0  0  # atno 6908 bound_to 6896
  151.3482  133.3894  159.2712 H   0  0  0  0  0  0  0  0  0  0  0  0  # atno 6909 bound_to 6896
  146.2233  139.8673  142.8594 H   0  0  0  0  0  0  0  0  0  0  0  0  # atno 7974 bound_to 7965
  156.1579  140.1600  156.8662 H   0  0  0  0  0  0  0  0  0  0  0  0  # atno 8008 bound_to 7997
  154.5132  140.0796  156.8067 H   0  0  0  0  0  0  0  0  0  0  0  0  # atno 8009 bound_to 7997
  155.3766  140.3403  155.4247 H   0  0  0  0  0  0  0  0  0  0  0  0  # atno 8010 bound_to 7997
  140.1128  144.4802  150.6967 H   0  0  0  0  0  0  0  0  0  0  0  0  # atno 10167 bound_to 10162
  156.8268  130.5475  149.5691 H   0  0  0  0  0  0  0  0  0  0  0  0  # atno 10718 bound_to 10713
  154.6337  135.2889  155.0187 H   0  0  0  0  0  0  0  0  0  0  0  0  # atno 10763 bound_to 10752
  154.1338  135.6529  153.4931 H   0  0  0  0  0  0  0  0  0  0  0  0  # atno 10764 bound_to 10752
  153.0292  135.5316  154.7174 H   0  0  0  0  0  0  0  0  0  0  0  0  # atno 10765 bound_to 10752
  140.5279  134.0495  155.7864 H   0  0  0  0  0  0  0  0  0  0  0  0  # atno 11005 bound_to 11000
  145.2644  141.0088  143.3808 LP  0  0  0  0  0  0  0  0  0  0  0  0  # atno 17320 bound_to 7965
  144.9273  139.4340  143.6512 LP  0  0  0  0  0  0  0  0  0  0  0  0  # atno 17321 bound_to 7965
  140.6916  143.2379  151.5116 LP  0  0  0  0  0  0  0  0  0  0  0  0  # atno 17342 bound_to 10162
  139.5610  144.2157  152.1690 LP  0  0  0  0  0  0  0  0  0  0  0  0  # atno 17343 bound_to 10162
  156.0957  130.5930  150.9809 LP  0  0  0  0  0  0  0  0  0  0  0  0  # atno 17370 bound_to 10713
  157.6428  131.0908  150.8217 LP  0  0  0  0  0  0  0  0  0  0  0  0  # atno 17371 bound_to 10713
  141.1298  133.9322  157.2560 LP  0  0  0  0  0  0  0  0  0  0  0  0  # atno 17394 bound_to 11000
  139.9570  135.0163  156.9155 LP  0  0  0  0  0  0  0  0  0  0  0  0  # atno 17395 bound_to 11000

$$$$
