AV-unprocessed.smi:1875|AV-procd|sdf|7619|dock4
  -GOLD-   22720 9343D 1   1.00000     0.00000
 Structure written by MMmdl.
 48 50  0  0  0  0  0  0  0  0  2 V2000
  146.2625  137.7016  163.0384 C   0  0  0  0  0  0  0  0  0  0  0  0
  146.8554  136.6827  162.0874 C   0  0  0  0  0  0  0  0  0  0  0  0
  146.7252  135.3960  162.4253 N   0  0  0  0  0  0  0  0  0  0  0  0
  147.2599  134.4860  161.5817 C   0  0  0  0  0  0  0  0  0  0  0  0
  147.9260  134.8698  160.4003 C   0  0  0  0  0  0  0  0  0  0  0  0
  148.0000  136.2563  160.1510 C   0  0  0  0  0  0  0  0  0  0  0  0
  148.7015  136.7971  158.9228 C   0  0  0  0  0  0  0  0  0  0  0  0
  148.4441  138.2202  158.7327 N   0  0  0  0  0  0  0  0  0  0  0  0
  148.6103  138.6521  157.3490 C   0  0  0  0  0  0  0  0  0  0  0  0
  150.0144  138.3053  156.8183 C   0  0  1  0  0  0  0  0  0  0  0  0
  149.9970  138.4038  155.4094 O   0  0  0  0  0  0  0  0  0  0  0  0
  151.1207  139.2527  157.3235 C   0  0  0  0  0  0  0  0  0  0  0  0
  150.7660  140.6730  157.1901 N   0  0  0  0  0  0  0  0  0  0  0  0
  150.0373  141.2927  156.2224 C   0  0  0  0  0  0  0  0  0  0  0  0
  149.9744  142.6155  156.5381 N   0  3  0  0  0  0  0  0  0  0  0  0
  150.6724  142.8447  157.7255 C   0  0  0  0  0  0  0  0  0  0  0  0
  150.8903  144.0169  158.4396 C   0  0  0  0  0  0  0  0  0  0  0  0
  151.6577  143.9191  159.6219 C   0  0  0  0  0  0  0  0  0  0  0  0
  151.9180  145.1828  160.4243 C   0  0  0  0  0  0  0  0  0  0  0  0
  152.1786  142.6714  160.0525 C   0  0  0  0  0  0  0  0  0  0  0  0
  153.0100  142.5787  161.3206 C   0  0  0  0  0  0  0  0  0  0  0  0
  151.9403  141.4893  159.3154 C   0  0  0  0  0  0  0  0  0  0  0  0
  151.1829  141.6026  158.1512 C   0  0  0  0  0  0  0  0  0  0  0  0
  147.4650  137.1625  160.9990 N   0  0  0  0  0  0  0  0  0  0  0  0
  145.4382  137.2732  163.6098 H   0  0  0  0  0  0  0  0  0  0  0  0
  145.8808  138.5661  162.4938 H   0  0  0  0  0  0  0  0  0  0  0  0
  147.0229  138.0464  163.7395 H   0  0  0  0  0  0  0  0  0  0  0  0
  147.1575  133.4456  161.8519 H   0  0  0  0  0  0  0  0  0  0  0  0
  148.3552  134.1422  159.7273 H   0  0  0  0  0  0  0  0  0  0  0  0
  149.7723  136.6187  159.0282 H   0  0  0  0  0  0  0  0  0  0  0  0
  148.3755  136.2344  158.0469 H   0  0  0  0  0  0  0  0  0  0  0  0
  149.0703  138.7532  159.3273 H   0  0  0  0  0  0  0  0  0  0  0  0
  147.8449  138.2106  156.7091 H   0  0  0  0  0  0  0  0  0  0  0  0
  148.4582  139.7300  157.3099 H   0  0  0  0  0  0  0  0  0  0  0  0
  150.2765  137.2821  157.0921 H   0  0  0  0  0  0  0  0  0  0  0  0
  150.5850  139.0964  155.1492 H   0  0  0  0  0  0  0  0  0  0  0  0
  151.3028  139.0746  158.3845 H   0  0  0  0  0  0  0  0  0  0  0  0
  152.0679  139.0624  156.8188 H   0  0  0  0  0  0  0  0  0  0  0  0
  149.5889  140.8197  155.3605 H   0  0  0  0  0  0  0  0  0  0  0  0
  150.4928  144.9636  158.1039 H   0  0  0  0  0  0  0  0  0  0  0  0
  151.5615  145.0686  161.4485 H   0  0  0  0  0  0  0  0  0  0  0  0
  151.4086  146.0433  159.9894 H   0  0  0  0  0  0  0  0  0  0  0  0
  152.9851  145.4052  160.4509 H   0  0  0  0  0  0  0  0  0  0  0  0
  153.3748  141.5645  161.4855 H   0  0  0  0  0  0  0  0  0  0  0  0
  152.4168  142.8660  162.1890 H   0  0  0  0  0  0  0  0  0  0  0  0
  153.8771  143.2366  161.2597 H   0  0  0  0  0  0  0  0  0  0  0  0
  152.3404  140.5421  159.6451 H   0  0  0  0  0  0  0  0  0  0  0  0
  149.4903  143.3088  155.9820 H   0  0  0  0  0  0  0  0  0  0  0  0
  1  2  1  0  0  0  0
  1 25  1  0  0  0  0
  1 26  1  0  0  0  0
  1 27  1  0  0  0  0
  2 24  1  0  0  0  0
  2  3  2  0  0  0  0
  3  4  1  0  0  0  0
  4  5  2  0  0  0  0
  4 28  1  0  0  0  0
  5  6  1  0  0  0  0
  5 29  1  0  0  0  0
  6  7  1  0  0  0  0
  6 24  2  0  0  0  0
  7  8  1  0  0  0  0
  7 30  1  0  0  0  0
  7 31  1  0  0  0  0
  8  9  1  0  0  0  0
  8 32  1  0  0  0  0
  9 10  1  0  0  0  0
  9 33  1  0  0  0  0
  9 34  1  0  0  0  0
 10 11  1  0  0  0  0
 10 12  1  0  0  0  0
 10 35  1  0  0  0  0
 11 36  1  0  0  0  0
 12 13  1  0  0  0  0
 12 37  1  0  0  0  0
 12 38  1  0  0  0  0
 13 23  1  0  0  0  0
 13 14  1  0  0  0  0
 14 15  2  0  0  0  0
 14 39  1  0  0  0  0
 15 16  1  0  0  0  0
 15 48  1  0  0  0  0
 16 23  2  0  0  0  0
 16 17  1  0  0  0  0
 17 18  2  0  0  0  0
 17 40  1  0  0  0  0
 18 19  1  0  0  0  0
 18 20  1  0  0  0  0
 19 41  1  0  0  0  0
 19 42  1  0  0  0  0
 19 43  1  0  0  0  0
 20 21  1  0  0  0  0
 20 22  2  0  0  0  0
 21 44  1  0  0  0  0
 21 45  1  0  0  0  0
 21 46  1  0  0  0  0
 22 23  1  0  0  0  0
 22 47  1  0  0  0  0
M  CHG  1  15   1
M  END
> <s_m_source_file>
AV-unprocessed.smi

> <i_m_source_file_index>
1875

> <i_lp_mmshare_version>
43012

> <i_f3d_flags>
0

> <s_epik_input>
W0NIM11jMW5bY0hdW2NIXWMobjEpW0NIMl1bTkhdW0NIMl1bQ0BIXShbT0hdKVtDSDJdbihbY0hdbjIpYyhjMjMpW2NIXWMoW0NIM10pYyhbY0hdMylbQ0gzXQ==

> <s_epik_cmdline>
J2VwaWtfcHl0aG9uJywgJy1waCcsICc3LjAnLCAnLXRuJywgJzgnLCAnLW1hJywgJzIwMCcsICctbWV0YWxfYmluZGluZycsICctaW1hZScsICc8aW5maWxlLm1hZT4nLCAnLW9tYWUnLCAnPG91dGZpbGUubWFlPic=

> <r_epik_Ionization_Penalty>
2.02862

> <r_epik_Ionization_Penalty_Charging>
1.0004

> <r_epik_Ionization_Penalty_Neutral>
1.02823

> <r_epik_State_Penalty>
2.23022

> <r_epik_Charging_Adjusted_Penalty>
3.23062

> <i_epik_Tot_Q>
1

> <i_epik_Tot_abs_Q>
1

> <r_epik_Metal_State_Penalty>
2.31249

> <b_epik_Metal_Only>
0

> <s_epik_Chemistry_Notes>
This compound contains an electron-poor aromatic ring that is susceptible to covalent hydrolysis at low pH, typically resulting in measured values for nitrogen ring protonation that are around two units higher than predicted values.

> <s_lp_Force_Field>
OPLS_2005

> <r_lp_Energy>
17.8623

> <b_lp_Chiralities_Consistent>
1

> <s_lp_Variant>
AV-unprocessed.smi:1875-8

> <Gold.Version>
5.8.1

> <Gold.Id.Protein>
6NUR|6NUR_protein|mol2

> <Gold.PLP.Fitness>
57.3702

> <Gold.PLP.PLP>
-47.3547

> <Gold.PLP.part.hbond>
-3.9838

> <Gold.PLP.part.metal>
0.0000

> <Gold.PLP.part.buried>
-7.3301

> <Gold.PLP.part.nonpolar>
-37.0730

> <Gold.PLP.part.repulsive>
0.0615

> <Gold.PLP.ligand.clash>
0.0000

> <Gold.PLP.ligand.torsion>
0.7915

> <Gold.PLP.Chemscore.Hbond>
3.8400

> <Gold.PLP.Chemscore.CHOScore>
0.0000

> <Gold.PLP.Chemscore.Metal>
0.0000

> <Gold.Chemscore.Hbonds>
donor molecule, donor type, donor heavy atom, donor atom, acceptor molecule, acceptor atom, score
      L1  H    15    48       P1  8028  2.00
      P1  H  6931  6943       L1    24  0.69
      P1  H  6934  6947       L1    24  1.00

> <Gold.PLP.Chemscore.Internal.Correction>
0.0785

> <Gold.Rescore>
     Score         DG    S(hbond)    S(metal)    S(lipo)     H(rot)  DE(clash)    DE(int)     intcor
     17.32     -18.34       1.93        0.00     116.22       2.80       0.22       0.81       ----

> <Gold.Chemscore.Fitness>
17.3170

> <Gold.Chemscore.DG>
-18.3444

> <Gold.Chemscore.ZeroCoef>
-5.4800

> <Gold.Chemscore.Hbond>
1.9291

> <Gold.Chemscore.Metal>
0.0000

> <Gold.Chemscore.Lipo>
116.2174

> <Gold.Chemscore.Internal_Hbond>
0.0000

> <Gold.Chemscore.DEClash>
0.2198

> <Gold.Chemscore.DEInternal>
0.8076

> <Gold.Chemscore.Rot>
2.8032

> <Gold.Chemscore.Internal.Correction>
   9.000000E+99

> <Gold.Chemscore.Hbonds>
donor molecule, donor type, donor heavy atom, donor atom, acceptor molecule, acceptor atom, score
      L1  H    15    48       P1  8028  0.95
      P1  H  6931  6943       L1    24  0.12
      P1  H  6934  6947       L1    24  0.62

> <Gold.Chemscore.Hbond.Weighted>
-6.4431

> <Gold.Chemscore.Metal.Weighted>
-0.0000

> <Gold.Chemscore.Lipo.Weighted>
-13.5974

> <Gold.Chemscore.Internal_Hbond.Weighted>
0.0000

> <Gold.Chemscore.DEClash.Weighted>
0.2198

> <Gold.Chemscore.DEInternal.Weighted>
0.8076

> <Gold.Chemscore.Rot.Weighted>
7.1761

> <Gold.Chemscore.Internal.Correction.Weighted>
   9.000000E+99

> <Gold.Protein.RotatedTorsions>
[ 6907 6896 6895 6894 ] final  156.48 input  -60.11 | X-H torsion
[ 7974 7965 7964 7962 ] final -141.67 input  175.53 | X-H torsion
[ 8008 7997 7996 7995 ] final  111.43 input   59.86 | X-H torsion
[ 10167 10162 10161 10158 ] final  152.06 input  -65.29 | X-H torsion
[ 10718 10713 10712 10709 ] final  -16.50 input   66.30 | X-H torsion
[ 10763 10752 10751 10750 ] final   11.33 input  -60.55 | X-H torsion
[ 11005 11000 10999 10996 ] final  151.07 input  -57.11 | X-H torsion

> <Gold.Protein.ActiveResidues>
 VAL166  LYS551  ARG553  GLY616  TRP617  ASP618  TYR619  PRO620  LYS621  CYS622 
 ASP623  PHE694  ASN695  SER759  ASP760  ASP761  ALA762  ILE779  LEU786  VAL792 
 PHE793  MET794  SER795  GLU796  ALA797  LYS798  CYS799  TRP800  GLU811  SER814 

> <Gold.Protein.RotatedAtoms>
  152.0291  133.3930  159.4289 H   0  0  0  0  0  0  0  0  0  0  0  0  # atno 6907 bound_to 6896
  150.6884  134.3541  159.4931 H   0  0  0  0  0  0  0  0  0  0  0  0  # atno 6908 bound_to 6896
  152.1325  134.9124  160.0608 H   0  0  0  0  0  0  0  0  0  0  0  0  # atno 6909 bound_to 6896
  144.8501  140.6051  143.5395 H   0  0  0  0  0  0  0  0  0  0  0  0  # atno 7974 bound_to 7965
  156.2123  140.3019  155.9761 H   0  0  0  0  0  0  0  0  0  0  0  0  # atno 8008 bound_to 7997
  155.2692  140.0433  157.3022 H   0  0  0  0  0  0  0  0  0  0  0  0  # atno 8009 bound_to 7997
  154.5718  140.2350  155.8189 H   0  0  0  0  0  0  0  0  0  0  0  0  # atno 8010 bound_to 7997
  139.4835  144.5389  151.7598 H   0  0  0  0  0  0  0  0  0  0  0  0  # atno 10167 bound_to 10162
  156.5867  130.4788  149.6297 H   0  0  0  0  0  0  0  0  0  0  0  0  # atno 10718 bound_to 10713
  153.1937  135.6846  153.8319 H   0  0  0  0  0  0  0  0  0  0  0  0  # atno 10763 bound_to 10752
  153.7609  135.3210  155.3338 H   0  0  0  0  0  0  0  0  0  0  0  0  # atno 10764 bound_to 10752
  154.8132  135.4703  154.0672 H   0  0  0  0  0  0  0  0  0  0  0  0  # atno 10765 bound_to 10752
  140.1187  134.8878  157.2041 H   0  0  0  0  0  0  0  0  0  0  0  0  # atno 11005 bound_to 11000
  145.4517  139.1523  143.3915 LP  0  0  0  0  0  0  0  0  0  0  0  0  # atno 17320 bound_to 7965
  146.2778  140.4643  142.8788 LP  0  0  0  0  0  0  0  0  0  0  0  0  # atno 17321 bound_to 7965
  140.4925  144.1288  150.5953 LP  0  0  0  0  0  0  0  0  0  0  0  0  # atno 17342 bound_to 10162
  140.4154  143.2637  151.9781 LP  0  0  0  0  0  0  0  0  0  0  0  0  # atno 17343 bound_to 10162
  156.2585  130.6948  151.1709 LP  0  0  0  0  0  0  0  0  0  0  0  0  # atno 17370 bound_to 10713
  157.7313  131.0609  150.5682 LP  0  0  0  0  0  0  0  0  0  0  0  0  # atno 17371 bound_to 10713
  140.2994  134.3149  155.7294 LP  0  0  0  0  0  0  0  0  0  0  0  0  # atno 17394 bound_to 11000
  141.2147  133.7583  156.9619 LP  0  0  0  0  0  0  0  0  0  0  0  0  # atno 17395 bound_to 11000

$$$$
