#       Name:                AV-unprocessed.smi:2795
#       Creating user name   scv26
#       Creation time:       Fri Mar 27 15:21:41 2020


#       File generated by GOLD software.
#

@<TRIPOS>MOLECULE
AV-unprocessed.smi:2795
    41    42     1
SMALL
NO_CHARGES


@<TRIPOS>ATOM
      1 ****        -4.8031  -0.8548  -1.3641 C.3            1 S1                 0.0000
      2 ****        -3.7023   0.0675  -1.5591 N.pl3          1 S1                 0.0000
      3 ****        -3.7787   1.4025  -1.6435 C.2            1 S1                 0.0000
      4 ****        -2.6147   2.0087  -1.8302 N.2            1 S1                 0.0000
      5 ****        -1.6997   0.9605  -1.8702 C.2            1 S1                 0.0000
      6 ****        -2.3519  -0.2429  -1.6968 C.2            1 S1                 0.0000
      7 ****        -1.8343  -1.6523  -1.6639 C.3            1 S1                 0.0000
      8 ****        -0.3030  -1.7958  -1.6362 C.3            1 S1                 0.0000
      9 ****         0.2762  -1.1378  -0.4718 N.am           1 S1                 0.0000
     10 ****         1.5833  -1.1283  -0.1736 C.2            1 S1                 0.0000
     11 ****         2.4274  -1.7207  -0.8472 O.2            1 S1                 0.0000
     12 ****         1.9830  -0.3357   1.0788 C.3            1 S1                 0.0000
     13 ****         3.5121  -0.1567   1.2203 C.3            1 S1                 0.0000
     14 ****         3.8431   0.7104   2.4400 C.3            1 S1                 0.0000
     15 ****         3.0589   2.0244   2.3684 C.3            1 S1                 0.0000
     16 ****         1.5609   1.7405   2.1781 C.3            1 S1                 0.0000
     17 ****         1.3601   0.9476   1.0125 O.3            1 S1                 0.0000
     18 ****        -5.7505  -0.3149  -1.3449 H              1 S1                 0.0000
     19 ****        -4.6773  -1.3823  -0.4183 H              1 S1                 0.0000
     20 ****        -4.8258  -1.5789  -2.1789 H              1 S1                 0.0000
     21 ****        -4.7104   1.9442  -1.5688 H              1 S1                 0.0000
     22 ****        -0.6469   1.1530  -2.0173 H              1 S1                 0.0000
     23 ****        -2.2476  -2.1634  -0.7935 H              1 S1                 0.0000
     24 ****        -2.2186  -2.1877  -2.5325 H              1 S1                 0.0000
     25 ****        -0.0342  -2.8531  -1.6243 H              1 S1                 0.0000
     26 ****         0.1281  -1.3683  -2.5429 H              1 S1                 0.0000
     27 ****        -0.3538  -0.6274   0.1308 H              1 S1                 0.0000
     28 ****         1.5958  -0.8754   1.9448 H              1 S1                 0.0000
     29 ****         4.0040  -1.1255   1.3165 H              1 S1                 0.0000
     30 ****         3.9176   0.3135   0.3229 H              1 S1                 0.0000
     31 ****         3.5812   0.1752   3.3535 H              1 S1                 0.0000
     32 ****         4.9143   0.9081   2.4875 H              1 S1                 0.0000
     33 ****         3.2209   2.6110   3.2729 H              1 S1                 0.0000
     34 ****         3.4247   2.6253   1.5350 H              1 S1                 0.0000
     35 ****         1.1465   1.2336   3.0507 H              1 S1                 0.0000
     36 ****         1.0139   2.6766   2.0645 H              1 S1                 0.0000
     37 ****        -2.4360   2.9884  -1.9209 LP             1 S1                 0.0000
     38 ****         2.1484  -2.2379  -1.6563 LP             1 S1                 0.0000
     39 ****         3.3917  -1.6845  -0.5849 LP             1 S1                 0.0000
     40 ****         0.3770   0.8155   0.8857 LP             1 S1                 0.0000
     41 ****         1.7343   1.4403   0.2269 LP             1 S1                 0.0000
@<TRIPOS>BOND
    1    1    2 1     
    2    1   18 1     
    3    1   19 1     
    4    1   20 1     
    5    2    6 1     
    6    2    3 1     
    7    3    4 2     
    8    3   21 1     
    9    4    5 1     
   10    5    6 2     
   11    5   22 1     
   12    6    7 1     
   13    7    8 1     
   14    7   23 1     
   15    7   24 1     
   16    8    9 1     
   17    8   25 1     
   18    8   26 1     
   19    9   10 am    
   20    9   27 1     
   21   10   11 2     
   22   10   12 1     
   23   12   17 1     
   24   12   13 1     
   25   12   28 1     
   26   13   14 1     
   27   13   29 1     
   28   13   30 1     
   29   14   15 1     
   30   14   31 1     
   31   14   32 1     
   32   15   16 1     
   33   15   33 1     
   34   15   34 1     
   35   16   17 1     
   36   16   35 1     
   37   16   36 1     
   38    4   37 1     
   39   11   38 1     
   40   11   39 1     
   41   17   40 1     
   42   17   41 1     
@<TRIPOS>SUBSTRUCTURE
      1 S1             1
@<TRIPOS>SET
LONE_PAIRS      STATIC     ATOMS    <user>   **** ""
5 37 38 39 40 41
DONOR_HYDROGENS      STATIC     ATOMS    <user>   **** ""
1 27
ATOM$BLUE        STATIC     ATOMS    COLORGROUP SYSTEM
5 37 38 39 40 41
ATOM$RED        STATIC     ATOMS    COLORGROUP SYSTEM
1 27
