AV-unprocessed.smi:2911|AV-procd|sdf|11179|dock6
  -GOLD-   2272016 73D 1   1.00000     0.00000
 Structure written by MMmdl.
 41 42  0  0  0  0  0  0  0  0  1 V2000
  155.1131  140.1357  167.5680 C   0  0  0  0  0  0  0  0  0  0  0  0
  155.2536  140.0843  166.0849 C   0  0  0  0  0  0  0  0  0  0  0  0
  155.6099  141.1583  165.3911 N   0  0  0  0  0  0  0  0  0  0  0  0
  155.6141  140.7001  164.0656 O   0  0  0  0  0  0  0  0  0  0  0  0
  155.2721  139.3905  164.1266 C   0  0  0  0  0  0  0  0  0  0  0  0
  155.1396  138.6188  162.8568 C   0  0  0  0  0  0  0  0  0  0  0  0
  155.4837  139.4639  161.6200 C   0  0  0  0  0  0  0  0  0  0  0  0
  154.4653  140.4751  161.3601 N   0  0  0  0  0  0  0  0  0  0  0  0
  153.8270  140.6553  160.1909 C   0  0  0  0  0  0  0  0  0  0  0  0
  154.0844  139.9682  159.2011 O   0  0  0  0  0  0  0  0  0  0  0  0
  152.9312  141.6788  160.1780 N   0  0  0  0  0  0  0  0  0  0  0  0
  152.2718  142.2416  161.3774 C   0  0  0  0  0  0  0  0  0  0  0  0
  152.4167  143.7694  161.4181 C   0  0  0  0  0  0  0  0  0  0  0  0
  151.8326  144.4075  160.1493 C   0  0  1  0  0  0  0  0  0  0  0  0
  151.9842  145.9351  160.1608 C   0  0  0  0  0  0  0  0  0  0  0  0
  152.4864  143.7809  158.9067 C   0  0  0  0  0  0  0  0  0  0  0  0
  152.4327  142.2370  158.9015 C   0  0  2  0  0  0  0  0  0  0  0  0
  151.0556  141.6585  158.5279 C   0  0  0  0  0  0  0  0  0  0  0  0
  155.0178  138.9571  165.3590 N   0  0  0  0  0  0  0  0  0  0  0  0
  155.9128  140.7325  168.0078 H   0  0  0  0  0  0  0  0  0  0  0  0
  155.1603  139.1329  167.9934 H   0  0  0  0  0  0  0  0  0  0  0  0
  154.1562  140.5820  167.8389 H   0  0  0  0  0  0  0  0  0  0  0  0
  155.7900  137.7454  162.9146 H   0  0  0  0  0  0  0  0  0  0  0  0
  154.1181  138.2436  162.7838 H   0  0  0  0  0  0  0  0  0  0  0  0
  156.4336  139.9764  161.7743 H   0  0  0  0  0  0  0  0  0  0  0  0
  155.6138  138.8263  160.7435 H   0  0  0  0  0  0  0  0  0  0  0  0
  154.2259  141.0875  162.1263 H   0  0  0  0  0  0  0  0  0  0  0  0
  151.2157  141.9726  161.3561 H   0  0  0  0  0  0  0  0  0  0  0  0
  152.6413  141.8396  162.3202 H   0  0  0  0  0  0  0  0  0  0  0  0
  151.9098  144.1629  162.2999 H   0  0  0  0  0  0  0  0  0  0  0  0
  153.4701  144.0343  161.5208 H   0  0  0  0  0  0  0  0  0  0  0  0
  150.7652  144.1851  160.1201 H   0  0  0  0  0  0  0  0  0  0  0  0
  153.0335  146.2302  160.1930 H   0  0  0  0  0  0  0  0  0  0  0  0
  151.4886  146.3722  161.0280 H   0  0  0  0  0  0  0  0  0  0  0  0
  151.5405  146.3795  159.2694 H   0  0  0  0  0  0  0  0  0  0  0  0
  152.0235  144.1727  158.0002 H   0  0  0  0  0  0  0  0  0  0  0  0
  153.5319  144.0908  158.8666 H   0  0  0  0  0  0  0  0  0  0  0  0
  153.1001  141.9461  158.0884 H   0  0  0  0  0  0  0  0  0  0  0  0
  150.7432  142.0059  157.5430 H   0  0  0  0  0  0  0  0  0  0  0  0
  150.2811  141.9499  159.2365 H   0  0  0  0  0  0  0  0  0  0  0  0
  151.0845  140.5690  158.4960 H   0  0  0  0  0  0  0  0  0  0  0  0
  1  2  1  0  0  0  0
  1 20  1  0  0  0  0
  1 21  1  0  0  0  0
  1 22  1  0  0  0  0
  2 19  1  0  0  0  0
  2  3  2  0  0  0  0
  3  4  1  0  0  0  0
  4  5  1  0  0  0  0
  5  6  1  0  0  0  0
  5 19  2  0  0  0  0
  6  7  1  0  0  0  0
  6 23  1  0  0  0  0
  6 24  1  0  0  0  0
  7  8  1  0  0  0  0
  7 25  1  0  0  0  0
  7 26  1  0  0  0  0
  8  9  1  0  0  0  0
  8 27  1  0  0  0  0
  9 10  2  0  0  0  0
  9 11  1  0  0  0  0
 11 17  1  0  0  0  0
 11 12  1  0  0  0  0
 12 13  1  0  0  0  0
 12 28  1  0  0  0  0
 12 29  1  0  0  0  0
 13 14  1  0  0  0  0
 13 30  1  0  0  0  0
 13 31  1  0  0  0  0
 14 15  1  0  0  0  0
 14 16  1  0  0  0  0
 14 32  1  0  0  0  0
 15 33  1  0  0  0  0
 15 34  1  0  0  0  0
 15 35  1  0  0  0  0
 16 17  1  0  0  0  0
 16 36  1  0  0  0  0
 16 37  1  0  0  0  0
 17 18  1  0  0  0  0
 17 38  1  0  0  0  0
 18 39  1  0  0  0  0
 18 40  1  0  0  0  0
 18 41  1  0  0  0  0
M  END
> <s_m_source_file>
AV-unprocessed.smi

> <i_m_source_file_index>
2911

> <i_lp_mmshare_version>
43012

> <i_f3d_flags>
0

> <s_epik_input>
W0NIM11jMW5vYyhuMSlbQ0gyXVtDSDJdW05IXUMoPU8pTjJbQ0gyXVtDSDJdW0NAQEhdKFtDSDNdKVtDSDJdW0NASF0yW0NIM10=

> <s_epik_cmdline>
J2VwaWtfcHl0aG9uJywgJy1waCcsICc3LjAnLCAnLXRuJywgJzgnLCAnLW1hJywgJzIwMCcsICctbWV0YWxfYmluZGluZycsICctaW1hZScsICc8aW5maWxlLm1hZT4nLCAnLW9tYWUnLCAnPG91dGZpbGUubWFlPic=

> <r_lp_tautomer_probability>
1

> <r_epik_Ionization_Penalty>
6.61671e-05

> <r_epik_Ionization_Penalty_Charging>
0

> <r_epik_Ionization_Penalty_Neutral>
6.61671e-05

> <r_epik_State_Penalty>
-0

> <r_epik_Charging_Adjusted_Penalty>
0

> <i_epik_Tot_Q>
0

> <i_epik_Tot_abs_Q>
0

> <r_epik_Metal_State_Penalty>
-0

> <b_epik_Metal_Only>
0

> <s_lp_Force_Field>
OPLS_2005

> <r_lp_Energy>
30.51

> <b_lp_Chiralities_Consistent>
1

> <s_lp_Variant>
AV-unprocessed.smi:2911-3

> <Gold.Version>
5.8.1

> <Gold.Id.Protein>
6NUR|6NUR_protein|mol2

> <Gold.PLP.Fitness>
45.7265

> <Gold.PLP.PLP>
-43.2013

> <Gold.PLP.part.hbond>
-2.5989

> <Gold.PLP.part.metal>
0.0000

> <Gold.PLP.part.buried>
-5.1963

> <Gold.PLP.part.nonpolar>
-34.6183

> <Gold.PLP.part.repulsive>
0.0354

> <Gold.PLP.ligand.clash>
0.0000

> <Gold.PLP.ligand.torsion>
0.2143

> <Gold.PLP.Chemscore.Hbond>
0.9760

> <Gold.PLP.Chemscore.CHOScore>
0.0000

> <Gold.PLP.Chemscore.Metal>
0.0000

> <Gold.Chemscore.Hbonds>
donor molecule, donor type, donor heavy atom, donor atom, acceptor molecule, acceptor atom, score
      P1  H  7997  8010       L1    10  0.75

> <Gold.PLP.Chemscore.Internal.Correction>
0.0258

> <Gold.Rescore>
     Score         DG    S(hbond)    S(metal)    S(lipo)     H(rot)  DE(clash)    DE(int)     intcor
     15.18     -15.47       0.97        0.00      92.80       1.61       0.12       0.17       ----

> <Gold.Chemscore.Fitness>
15.1780

> <Gold.Chemscore.DG>
-15.4732

> <Gold.Chemscore.ZeroCoef>
-5.4800

> <Gold.Chemscore.Hbond>
0.9743

> <Gold.Chemscore.Metal>
0.0000

> <Gold.Chemscore.Lipo>
92.7999

> <Gold.Chemscore.Internal_Hbond>
0.0000

> <Gold.Chemscore.DEClash>
0.1205

> <Gold.Chemscore.DEInternal>
0.1748

> <Gold.Chemscore.Rot>
1.6088

> <Gold.Chemscore.Internal.Correction>
   9.000000E+99

> <Gold.Chemscore.Hbonds>
donor molecule, donor type, donor heavy atom, donor atom, acceptor molecule, acceptor atom, score
      P1  H  7997  8010       L1    10  0.72

> <Gold.Chemscore.Hbond.Weighted>
-3.2543

> <Gold.Chemscore.Metal.Weighted>
-0.0000

> <Gold.Chemscore.Lipo.Weighted>
-10.8576

> <Gold.Chemscore.Internal_Hbond.Weighted>
0.0000

> <Gold.Chemscore.DEClash.Weighted>
0.1205

> <Gold.Chemscore.DEInternal.Weighted>
0.1748

> <Gold.Chemscore.Rot.Weighted>
4.1186

> <Gold.Chemscore.Internal.Correction.Weighted>
   9.000000E+99

> <Gold.Protein.RotatedTorsions>
[ 6907 6896 6895 6894 ] final  173.72 input  -60.11 | X-H torsion
[ 7974 7965 7964 7962 ] final   19.10 input  175.53 | X-H torsion
[ 8008 7997 7996 7995 ] final   -0.28 input   59.86 | X-H torsion
[ 10167 10162 10161 10158 ] final   89.21 input  -65.29 | X-H torsion
[ 10718 10713 10712 10709 ] final  142.80 input   66.30 | X-H torsion
[ 10763 10752 10751 10750 ] final  -54.12 input  -60.55 | X-H torsion
[ 11005 11000 10999 10996 ] final  171.42 input  -57.11 | X-H torsion

> <Gold.Protein.ActiveResidues>
 VAL166  LYS551  ARG553  GLY616  TRP617  ASP618  TYR619  PRO620  LYS621  CYS622 
 ASP623  PHE694  ASN695  SER759  ASP760  ASP761  ALA762  ILE779  LEU786  VAL792 
 PHE793  MET794  SER795  GLU796  ALA797  LYS798  CYS799  TRP800  GLU811  SER814 

> <Gold.Protein.RotatedAtoms>
  151.7639  133.3336  159.3425 H   0  0  0  0  0  0  0  0  0  0  0  0  # atno 6907 bound_to 6896
  150.7487  134.6081  159.6081 H   0  0  0  0  0  0  0  0  0  0  0  0  # atno 6908 bound_to 6896
  152.3387  134.7165  160.0321 H   0  0  0  0  0  0  0  0  0  0  0  0  # atno 6909 bound_to 6896
  146.2161  139.8361  142.8650 H   0  0  0  0  0  0  0  0  0  0  0  0  # atno 7974 bound_to 7965
  154.6599  140.2588  155.7121 H   0  0  0  0  0  0  0  0  0  0  0  0  # atno 8008 bound_to 7997
  156.2613  140.2851  156.0988 H   0  0  0  0  0  0  0  0  0  0  0  0  # atno 8009 bound_to 7997
  155.1324  140.0379  157.2768 H   0  0  0  0  0  0  0  0  0  0  0  0  # atno 8010 bound_to 7997
  139.8596  144.6551  150.9074 H   0  0  0  0  0  0  0  0  0  0  0  0  # atno 10167 bound_to 10162
  157.3764  131.0986  151.0780 H   0  0  0  0  0  0  0  0  0  0  0  0  # atno 10718 bound_to 10713
  154.1698  135.6461  153.5006 H   0  0  0  0  0  0  0  0  0  0  0  0  # atno 10763 bound_to 10752
  153.0087  135.5380  154.6624 H   0  0  0  0  0  0  0  0  0  0  0  0  # atno 10764 bound_to 10752
  154.5960  135.2939  155.0557 H   0  0  0  0  0  0  0  0  0  0  0  0  # atno 10765 bound_to 10752
  140.3188  134.7455  157.4048 H   0  0  0  0  0  0  0  0  0  0  0  0  # atno 11005 bound_to 11000
  145.2947  141.0177  143.3643 LP  0  0  0  0  0  0  0  0  0  0  0  0  # atno 17320 bound_to 7965
  144.9051  139.4600  143.6614 LP  0  0  0  0  0  0  0  0  0  0  0  0  # atno 17321 bound_to 7965
  140.7777  143.3756  151.1569 LP  0  0  0  0  0  0  0  0  0  0  0  0  # atno 17342 bound_to 10162
  139.7387  143.8959  152.3043 LP  0  0  0  0  0  0  0  0  0  0  0  0  # atno 17343 bound_to 10162
  157.1866  130.6333  149.5690 LP  0  0  0  0  0  0  0  0  0  0  0  0  # atno 17370 bound_to 10713
  155.9766  130.4736  150.6539 LP  0  0  0  0  0  0  0  0  0  0  0  0  # atno 17371 bound_to 10713
  140.0960  134.5536  155.8398 LP  0  0  0  0  0  0  0  0  0  0  0  0  # atno 17394 bound_to 11000
  141.2091  133.6681  156.6419 LP  0  0  0  0  0  0  0  0  0  0  0  0  # atno 17395 bound_to 11000

$$$$
