AV-unprocessed.smi:2100|AV-procd|sdf|8574|dock6
  -GOLD-   2272011303D 1   1.00000     0.00000
 Structure written by MMmdl.
 41 42  0  0  0  0  0  0  0  0  1 V2000
  150.4563  135.0591  154.6380 C   0  0  0  0  0  0  0  0  0  0  0  0
  150.8578  136.3928  155.2770 C   0  0  1  0  0  0  0  0  0  0  0  0
  151.1542  136.2489  156.7807 C   0  0  0  0  0  0  0  0  0  0  0  0
  151.6585  137.5132  157.3447 N   0  0  0  0  0  0  0  0  0  0  0  0
  151.7905  137.6216  159.0672 S   0  0  0  0  0  0  0  0  0  0  0  0
  150.5569  137.0891  159.6656 O   0  0  0  0  0  0  0  0  0  0  0  0
  153.1088  137.1130  159.4764 O   0  0  0  0  0  0  0  0  0  0  0  0
  151.8024  139.3390  159.2456 N   0  0  0  0  0  0  0  0  0  0  0  0
  153.0673  140.0742  159.1828 C   0  0  0  0  0  0  0  0  0  0  0  0
  153.3301  140.8591  160.4780 C   0  0  0  0  0  0  0  0  0  0  0  0
  152.7882  142.2743  160.4105 C   0  0  0  0  0  0  0  0  0  0  0  0
  152.6405  142.9307  159.1700 C   0  0  0  0  0  0  0  0  0  0  0  0
  152.1356  144.2455  159.1625 C   0  0  0  0  0  0  0  0  0  0  0  0
  151.8018  144.8509  160.3893 C   0  0  0  0  0  0  0  0  0  0  0  0
  151.9891  144.1116  161.5741 C   0  0  0  0  0  0  0  0  0  0  0  0
  152.4717  142.8503  161.5922 N   0  0  0  0  0  0  0  0  0  0  0  0
  152.7577  138.0978  156.5604 C   0  0  0  0  0  0  0  0  0  0  0  0
  152.3992  138.1638  155.0643 C   0  0  1  0  0  0  0  0  0  0  0  0
  153.5783  138.6418  154.2097 C   0  0  0  0  0  0  0  0  0  0  0  0
  152.0167  136.8730  154.6099 O   0  0  0  0  0  0  0  0  0  0  0  0
  149.5649  134.6487  155.1130 H   0  0  0  0  0  0  0  0  0  0  0  0
  151.2542  134.3215  154.7289 H   0  0  0  0  0  0  0  0  0  0  0  0
  150.2389  135.1855  153.5773 H   0  0  0  0  0  0  0  0  0  0  0  0
  150.0406  137.1019  155.1327 H   0  0  0  0  0  0  0  0  0  0  0  0
  150.2507  135.9394  157.3056 H   0  0  0  0  0  0  0  0  0  0  0  0
  151.9003  135.4703  156.9461 H   0  0  0  0  0  0  0  0  0  0  0  0
  151.0488  139.7884  158.7264 H   0  0  0  0  0  0  0  0  0  0  0  0
  153.8804  139.3768  158.9777 H   0  0  0  0  0  0  0  0  0  0  0  0
  153.0195  140.7637  158.3396 H   0  0  0  0  0  0  0  0  0  0  0  0
  152.8809  140.3417  161.3267 H   0  0  0  0  0  0  0  0  0  0  0  0
  154.3999  140.9132  160.6818 H   0  0  0  0  0  0  0  0  0  0  0  0
  152.9071  142.4406  158.2453 H   0  0  0  0  0  0  0  0  0  0  0  0
  152.0078  144.7799  158.2328 H   0  0  0  0  0  0  0  0  0  0  0  0
  151.4126  145.8577  160.4216 H   0  0  0  0  0  0  0  0  0  0  0  0
  151.7452  144.5449  162.5328 H   0  0  0  0  0  0  0  0  0  0  0  0
  152.9802  139.0988  156.9308 H   0  0  0  0  0  0  0  0  0  0  0  0
  153.6540  137.4944  156.7113 H   0  0  0  0  0  0  0  0  0  0  0  0
  151.5674  138.8554  154.9187 H   0  0  0  0  0  0  0  0  0  0  0  0
  153.8997  139.6400  154.5079 H   0  0  0  0  0  0  0  0  0  0  0  0
  153.3039  138.6827  153.1554 H   0  0  0  0  0  0  0  0  0  0  0  0
  154.4332  137.9718  154.3059 H   0  0  0  0  0  0  0  0  0  0  0  0
  1  2  1  0  0  0  0
  1 21  1  0  0  0  0
  1 22  1  0  0  0  0
  1 23  1  0  0  0  0
  2 20  1  0  0  0  0
  2  3  1  0  0  0  0
  2 24  1  0  0  0  0
  3  4  1  0  0  0  0
  3 25  1  0  0  0  0
  3 26  1  0  0  0  0
  4  5  1  0  0  0  0
  4 17  1  0  0  0  0
  5  6  2  0  0  0  0
  5  7  2  0  0  0  0
  5  8  1  0  0  0  0
  8  9  1  0  0  0  0
  8 27  1  0  0  0  0
  9 10  1  0  0  0  0
  9 28  1  0  0  0  0
  9 29  1  0  0  0  0
 10 11  1  0  0  0  0
 10 30  1  0  0  0  0
 10 31  1  0  0  0  0
 11 16  1  0  0  0  0
 11 12  2  0  0  0  0
 12 13  1  0  0  0  0
 12 32  1  0  0  0  0
 13 14  2  0  0  0  0
 13 33  1  0  0  0  0
 14 15  1  0  0  0  0
 14 34  1  0  0  0  0
 15 16  2  0  0  0  0
 15 35  1  0  0  0  0
 17 18  1  0  0  0  0
 17 36  1  0  0  0  0
 17 37  1  0  0  0  0
 18 19  1  0  0  0  0
 18 20  1  0  0  0  0
 18 38  1  0  0  0  0
 19 39  1  0  0  0  0
 19 40  1  0  0  0  0
 19 41  1  0  0  0  0
M  END
> <s_m_source_file>
AV-unprocessed.smi

> <i_m_source_file_index>
2100

> <i_lp_mmshare_version>
43012

> <i_f3d_flags>
0

> <s_epik_input>
W0NIM11bQ0BASF0xW0NIMl1OKFtDSDJdW0NASF0oTzEpW0NIM10pUyg9TykoPU8pW05IXVtDSDJdW0NIMl1jMltjSF1bY0hdW2NIXVtjSF1uMg==

> <s_epik_cmdline>
J2VwaWtfcHl0aG9uJywgJy1waCcsICc3LjAnLCAnLXRuJywgJzgnLCAnLW1hJywgJzIwMCcsICctbWV0YWxfYmluZGluZycsICctaW1hZScsICc8aW5maWxlLm1hZT4nLCAnLW9tYWUnLCAnPG91dGZpbGUubWFlPic=

> <r_epik_Ionization_Penalty>
0.085378

> <r_epik_Ionization_Penalty_Charging>
0

> <r_epik_Ionization_Penalty_Neutral>
0.085378

> <r_epik_State_Penalty>
0.0441186

> <r_epik_Charging_Adjusted_Penalty>
0.0441186

> <i_epik_Tot_Q>
0

> <i_epik_Tot_abs_Q>
0

> <r_epik_Metal_State_Penalty>
0.24397

> <b_epik_Metal_Only>
0

> <s_lp_Force_Field>
OPLS_2005

> <r_lp_Energy>
5.36855

> <b_lp_Chiralities_Consistent>
1

> <s_lp_Variant>
AV-unprocessed.smi:2100-2

> <Gold.Version>
5.8.1

> <Gold.Id.Protein>
6NUR|6NUR_protein|mol2

> <Gold.PLP.Fitness>
42.9478

> <Gold.PLP.PLP>
-40.1260

> <Gold.PLP.part.hbond>
-2.0732

> <Gold.PLP.part.metal>
0.0000

> <Gold.PLP.part.buried>
-7.0534

> <Gold.PLP.part.nonpolar>
-30.7137

> <Gold.PLP.part.repulsive>
0.2256

> <Gold.PLP.ligand.clash>
0.0000

> <Gold.PLP.ligand.torsion>
1.9191

> <Gold.PLP.Chemscore.Hbond>
1.9833

> <Gold.PLP.Chemscore.CHOScore>
0.0000

> <Gold.PLP.Chemscore.Metal>
0.0000

> <Gold.Chemscore.Hbonds>
donor molecule, donor type, donor heavy atom, donor atom, acceptor molecule, acceptor atom, score
      P1  H  6896  6909       L1     6  0.69
      P1  H 10752 10763       L1    20  0.90

> <Gold.PLP.Chemscore.Internal.Correction>
0.7102

> <Gold.Rescore>
     Score         DG    S(hbond)    S(metal)    S(lipo)     H(rot)  DE(clash)    DE(int)     intcor
     16.05     -20.50       1.72        0.00     116.75       1.71       2.46       2.00       ----

> <Gold.Chemscore.Fitness>
16.0451

> <Gold.Chemscore.DG>
-20.5020

> <Gold.Chemscore.ZeroCoef>
-5.4800

> <Gold.Chemscore.Hbond>
1.7155

> <Gold.Chemscore.Metal>
0.0000

> <Gold.Chemscore.Lipo>
116.7504

> <Gold.Chemscore.Internal_Hbond>
0.0000

> <Gold.Chemscore.DEClash>
2.4603

> <Gold.Chemscore.DEInternal>
1.9966

> <Gold.Chemscore.Rot>
1.7060

> <Gold.Chemscore.Internal.Correction>
   9.000000E+99

> <Gold.Chemscore.Hbonds>
donor molecule, donor type, donor heavy atom, donor atom, acceptor molecule, acceptor atom, score
      P1  H  6896  6909       L1     6  0.10
      P1  H 10752 10763       L1    20  0.71

> <Gold.Chemscore.Hbond.Weighted>
-5.7296

> <Gold.Chemscore.Metal.Weighted>
-0.0000

> <Gold.Chemscore.Lipo.Weighted>
-13.6598

> <Gold.Chemscore.Internal_Hbond.Weighted>
0.0000

> <Gold.Chemscore.DEClash.Weighted>
2.4603

> <Gold.Chemscore.DEInternal.Weighted>
1.9966

> <Gold.Chemscore.Rot.Weighted>
4.3674

> <Gold.Chemscore.Internal.Correction.Weighted>
   9.000000E+99

> <Gold.Protein.RotatedTorsions>
[ 6907 6896 6895 6894 ] final  100.36 input  -60.11 | X-H torsion
[ 7974 7965 7964 7962 ] final   97.72 input  175.53 | X-H torsion
[ 8008 7997 7996 7995 ] final   77.37 input   59.86 | X-H torsion
[ 10167 10162 10161 10158 ] final  175.38 input  -65.29 | X-H torsion
[ 10718 10713 10712 10709 ] final  -84.34 input   66.30 | X-H torsion
[ 10763 10752 10751 10750 ] final   33.52 input  -60.55 | X-H torsion
[ 11005 11000 10999 10996 ] final  -67.64 input  -57.11 | X-H torsion

> <Gold.Protein.ActiveResidues>
 VAL166  LYS551  ARG553  GLY616  TRP617  ASP618  TYR619  PRO620  LYS621  CYS622 
 ASP623  PHE694  ASN695  SER759  ASP760  ASP761  ALA762  ILE779  LEU786  VAL792 
 PHE793  MET794  SER795  GLU796  ALA797  LYS798  CYS799  TRP800  GLU811  SER814 

> <Gold.Protein.RotatedAtoms>
  152.5373  134.0289  159.8015 H   0  0  0  0  0  0  0  0  0  0  0  0  # atno 6907 bound_to 6896
  151.0463  133.5655  159.2653 H   0  0  0  0  0  0  0  0  0  0  0  0  # atno 6908 bound_to 6896
  151.2606  135.0660  159.9150 H   0  0  0  0  0  0  0  0  0  0  0  0  # atno 6909 bound_to 6896
  145.4217  139.2321  143.3192 H   0  0  0  0  0  0  0  0  0  0  0  0  # atno 7974 bound_to 7965
  155.8407  140.3462  155.5630 H   0  0  0  0  0  0  0  0  0  0  0  0  # atno 8008 bound_to 7997
  155.8144  140.0903  157.1905 H   0  0  0  0  0  0  0  0  0  0  0  0  # atno 8009 bound_to 7997
  154.4005  140.1442  156.3412 H   0  0  0  0  0  0  0  0  0  0  0  0  # atno 8010 bound_to 7997
  139.5175  144.3038  152.0354 H   0  0  0  0  0  0  0  0  0  0  0  0  # atno 10167 bound_to 10162
  156.0007  130.4695  150.4395 H   0  0  0  0  0  0  0  0  0  0  0  0  # atno 10718 bound_to 10713
  153.0208  135.6385  154.1524 H   0  0  0  0  0  0  0  0  0  0  0  0  # atno 10763 bound_to 10752
  154.1259  135.2843  155.3199 H   0  0  0  0  0  0  0  0  0  0  0  0  # atno 10764 bound_to 10752
  154.6230  135.5518  153.7658 H   0  0  0  0  0  0  0  0  0  0  0  0  # atno 10765 bound_to 10752
  141.1513  133.6723  156.6324 H   0  0  0  0  0  0  0  0  0  0  0  0  # atno 11005 bound_to 11000
  146.2653  140.4942  142.8836 LP  0  0  0  0  0  0  0  0  0  0  0  0  # atno 17320 bound_to 7965
  144.8241  140.6599  143.6334 LP  0  0  0  0  0  0  0  0  0  0  0  0  # atno 17321 bound_to 7965
  140.2485  144.4194  150.6231 LP  0  0  0  0  0  0  0  0  0  0  0  0  # atno 17342 bound_to 10162
  140.6241  143.2179  151.6633 LP  0  0  0  0  0  0  0  0  0  0  0  0  # atno 17343 bound_to 10162
  157.2437  131.0531  151.2421 LP  0  0  0  0  0  0  0  0  0  0  0  0  # atno 17370 bound_to 10713
  157.3595  130.7124  149.6492 LP  0  0  0  0  0  0  0  0  0  0  0  0  # atno 17371 bound_to 10713
  140.3457  134.7811  157.4430 LP  0  0  0  0  0  0  0  0  0  0  0  0  # atno 17394 bound_to 11000
  140.0902  134.5612  155.8452 LP  0  0  0  0  0  0  0  0  0  0  0  0  # atno 17395 bound_to 11000

$$$$
