AV-unprocessed.smi:3354|AV-procd|sdf|12959|dock4
  -GOLD-   2272019393D 1   1.00000     0.00000
 Structure written by MMmdl.
 38 40  0  0  0  0  0  0  0  0  1 V2000
  151.5616  140.8418  156.3622 C   0  0  0  0  0  0  0  0  0  0  0  0
  150.1701  141.0085  155.7918 C   0  0  2  0  0  0  0  0  0  0  0  0
  148.9941  141.2088  156.7200 C   0  0  0  0  0  0  0  0  0  0  0  0
  149.1269  139.9169  155.9490 C   0  0  1  0  0  0  0  0  0  0  0  0
  148.1715  139.6519  154.9161 N   0  0  0  0  0  0  0  0  0  0  0  0
  147.5557  138.3372  154.8512 C   0  0  0  0  0  0  0  0  0  0  0  0
  146.6217  138.3798  153.6296 C   0  0  2  0  0  0  0  0  0  0  0  0
  146.7440  137.1592  152.8373 N   0  0  0  0  0  0  0  0  0  0  0  0
  145.7423  136.3041  152.5898 C   0  0  0  0  0  0  0  0  0  0  0  0
  144.5947  136.4679  153.0036 O   0  0  0  0  0  0  0  0  0  0  0  0
  146.1567  135.2790  151.8254 N   0  0  0  0  0  0  0  0  0  0  0  0
  145.4130  134.1584  151.3662 C   0  0  0  0  0  0  0  0  0  0  0  0
  145.9430  133.1284  150.5515 C   0  0  0  0  0  0  0  0  0  0  0  0
  145.0957  132.0800  150.1444 C   0  0  0  0  0  0  0  0  0  0  0  0
  143.7505  132.1016  150.5607 C   0  0  0  0  0  0  0  0  0  0  0  0
  143.2287  133.0828  151.3265 N   0  0  0  0  0  0  0  0  0  0  0  0
  144.0468  134.0854  151.7118 C   0  0  0  0  0  0  0  0  0  0  0  0
  147.0352  139.6358  152.8460 C   0  0  0  0  0  0  0  0  0  0  0  0
  147.9984  140.3452  153.7823 C   0  0  0  0  0  0  0  0  0  0  0  0
  148.5422  141.4078  153.4852 O   0  0  0  0  0  0  0  0  0  0  0  0
  151.5380  140.2498  157.2777 H   0  0  0  0  0  0  0  0  0  0  0  0
  151.9919  141.8171  156.5897 H   0  0  0  0  0  0  0  0  0  0  0  0
  152.2027  140.3380  155.6390 H   0  0  0  0  0  0  0  0  0  0  0  0
  150.1442  141.6002  154.8789 H   0  0  0  0  0  0  0  0  0  0  0  0
  149.1792  141.1720  157.7917 H   0  0  0  0  0  0  0  0  0  0  0  0
  148.2257  141.9127  156.4057 H   0  0  0  0  0  0  0  0  0  0  0  0
  149.4327  139.0477  156.5286 H   0  0  0  0  0  0  0  0  0  0  0  0
  148.3393  137.5854  154.7404 H   0  0  0  0  0  0  0  0  0  0  0  0
  147.0061  138.1172  155.7674 H   0  0  0  0  0  0  0  0  0  0  0  0
  145.5924  138.4936  153.9757 H   0  0  0  0  0  0  0  0  0  0  0  0
  147.6544  136.9528  152.4529 H   0  0  0  0  0  0  0  0  0  0  0  0
  147.1091  135.3295  151.4943 H   0  0  0  0  0  0  0  0  0  0  0  0
  146.9692  133.1267  150.2193 H   0  0  0  0  0  0  0  0  0  0  0  0
  145.4679  131.2795  149.5224 H   0  0  0  0  0  0  0  0  0  0  0  0
  143.0745  131.3129  150.2648 H   0  0  0  0  0  0  0  0  0  0  0  0
  143.5938  134.8541  152.3206 H   0  0  0  0  0  0  0  0  0  0  0  0
  147.5514  139.3959  151.9154 H   0  0  0  0  0  0  0  0  0  0  0  0
  146.1790  140.2697  152.6129 H   0  0  0  0  0  0  0  0  0  0  0  0
  1  2  1  0  0  0  0
  1 21  1  0  0  0  0
  1 22  1  0  0  0  0
  1 23  1  0  0  0  0
  2  4  1  0  0  0  0
  2  3  1  0  0  0  0
  2 24  1  0  0  0  0
  3  4  1  0  0  0  0
  3 25  1  0  0  0  0
  3 26  1  0  0  0  0
  4  5  1  0  0  0  0
  4 27  1  0  0  0  0
  5 19  1  0  0  0  0
  5  6  1  0  0  0  0
  6  7  1  0  0  0  0
  6 28  1  0  0  0  0
  6 29  1  0  0  0  0
  7  8  1  0  0  0  0
  7 18  1  0  0  0  0
  7 30  1  0  0  0  0
  8  9  1  0  0  0  0
  8 31  1  0  0  0  0
  9 10  2  0  0  0  0
  9 11  1  0  0  0  0
 11 12  1  0  0  0  0
 11 32  1  0  0  0  0
 12 17  1  0  0  0  0
 12 13  2  0  0  0  0
 13 14  1  0  0  0  0
 13 33  1  0  0  0  0
 14 15  2  0  0  0  0
 14 34  1  0  0  0  0
 15 16  1  0  0  0  0
 15 35  1  0  0  0  0
 16 17  2  0  0  0  0
 17 36  1  0  0  0  0
 18 19  1  0  0  0  0
 18 37  1  0  0  0  0
 18 38  1  0  0  0  0
 19 20  2  0  0  0  0
M  END
> <s_m_source_file>
AV-unprocessed.smi

> <i_m_source_file_index>
3354

> <i_lp_mmshare_version>
43012

> <i_f3d_flags>
0

> <s_epik_input>
W0NIM11bQ0BASF0xW0NIMl1bQ0BIXTFOMltDSDJdW0NASF0oW0NIMl1DMj1PKVtOSF1DKD1PKVtOSF1jM1tjSF1bY0hdW2NIXW5bY0hdMw==

> <s_epik_cmdline>
J2VwaWtfcHl0aG9uJywgJy1waCcsICc3LjAnLCAnLXRuJywgJzgnLCAnLW1hJywgJzIwMCcsICctbWV0YWxfYmluZGluZycsICctaW1hZScsICc8aW5maWxlLm1hZT4nLCAnLW9tYWUnLCAnPG91dGZpbGUubWFlPic=

> <r_epik_Ionization_Penalty>
0.00456191

> <r_epik_Ionization_Penalty_Charging>
0

> <r_epik_Ionization_Penalty_Neutral>
0.00456191

> <r_epik_State_Penalty>
0.00327094

> <r_epik_Charging_Adjusted_Penalty>
0.00327094

> <i_epik_Tot_Q>
0

> <i_epik_Tot_abs_Q>
0

> <r_epik_Metal_State_Penalty>
-0

> <b_epik_Metal_Only>
0

> <s_lp_Force_Field>
OPLS_2005

> <r_lp_Energy>
40.1113

> <b_lp_Chiralities_Consistent>
1

> <s_lp_Variant>
AV-unprocessed.smi:3354-5

> <Gold.Version>
5.8.1

> <Gold.Id.Protein>
6NUR|6NUR_protein|mol2

> <Gold.PLP.Fitness>
39.4278

> <Gold.PLP.PLP>
-28.5322

> <Gold.PLP.part.hbond>
-3.0000

> <Gold.PLP.part.metal>
0.0000

> <Gold.PLP.part.buried>
-4.5461

> <Gold.PLP.part.nonpolar>
-23.0675

> <Gold.PLP.part.repulsive>
2.4299

> <Gold.PLP.ligand.clash>
0.0000

> <Gold.PLP.ligand.torsion>
0.2746

> <Gold.PLP.Chemscore.Hbond>
2.6892

> <Gold.PLP.Chemscore.CHOScore>
1.0000

> <Gold.PLP.Chemscore.Metal>
0.0000

> <Gold.Chemscore.Hbonds>
donor molecule, donor type, donor heavy atom, donor atom, acceptor molecule, acceptor atom, score
      L1  H     8    31       P1  7948  1.00
      L1  H    11    32       P1  7948  0.87
      P1  H  8011  8017       L1    20  0.78
      L1  C    15    35       P1 10952  0.95

> <Gold.PLP.Chemscore.Internal.Correction>
0.3772

> <Gold.Rescore>
     Score         DG    S(hbond)    S(metal)    S(lipo)     H(rot)  DE(clash)    DE(int)     intcor
     15.85     -18.86       2.56        0.00      68.16       1.24       0.01       2.99       ----

> <Gold.Chemscore.Fitness>
15.8525

> <Gold.Chemscore.DG>
-18.8553

> <Gold.Chemscore.ZeroCoef>
-5.4800

> <Gold.Chemscore.Hbond>
2.5644

> <Gold.Chemscore.Metal>
0.0000

> <Gold.Chemscore.Lipo>
68.1574

> <Gold.Chemscore.Internal_Hbond>
0.0000

> <Gold.Chemscore.DEClash>
0.0141

> <Gold.Chemscore.DEInternal>
2.9887

> <Gold.Chemscore.Rot>
1.2361

> <Gold.Chemscore.Internal.Correction>
   9.000000E+99

> <Gold.Chemscore.Hbonds>
donor molecule, donor type, donor heavy atom, donor atom, acceptor molecule, acceptor atom, score
      L1  H     8    31       P1  7948  0.98
      L1  H    11    32       P1  7948  0.78
      P1  H  8011  8017       L1    20  0.76

> <Gold.Chemscore.Hbond.Weighted>
-8.5652

> <Gold.Chemscore.Metal.Weighted>
-0.0000

> <Gold.Chemscore.Lipo.Weighted>
-7.9744

> <Gold.Chemscore.Internal_Hbond.Weighted>
0.0000

> <Gold.Chemscore.DEClash.Weighted>
0.0141

> <Gold.Chemscore.DEInternal.Weighted>
2.9887

> <Gold.Chemscore.Rot.Weighted>
3.1643

> <Gold.Chemscore.Internal.Correction.Weighted>
   9.000000E+99

> <Gold.Protein.RotatedTorsions>
[ 6907 6896 6895 6894 ] final  -51.10 input  -60.11 | X-H torsion
[ 7974 7965 7964 7962 ] final  -80.81 input  175.53 | X-H torsion
[ 8008 7997 7996 7995 ] final  -97.41 input   59.86 | X-H torsion
[ 10167 10162 10161 10158 ] final  -70.33 input  -65.29 | X-H torsion
[ 10718 10713 10712 10709 ] final -150.57 input   66.30 | X-H torsion
[ 10763 10752 10751 10750 ] final   44.23 input  -60.55 | X-H torsion
[ 11005 11000 10999 10996 ] final  -69.76 input  -57.11 | X-H torsion

> <Gold.Protein.ActiveResidues>
 VAL166  LYS551  ARG553  GLY616  TRP617  ASP618  TYR619  PRO620  LYS621  CYS622 
 ASP623  PHE694  ASN695  SER759  ASP760  ASP761  ALA762  ILE779  LEU786  VAL792 
 PHE793  MET794  SER795  GLU796  ALA797  LYS798  CYS799  TRP800  GLU811  SER814 

> <Gold.Protein.RotatedAtoms>
  150.8644  134.8003  159.7106 H   0  0  0  0  0  0  0  0  0  0  0  0  # atno 6907 bound_to 6896
  152.4670  134.5048  159.9745 H   0  0  0  0  0  0  0  0  0  0  0  0  # atno 6908 bound_to 6896
  151.5146  133.3440  159.2926 H   0  0  0  0  0  0  0  0  0  0  0  0  # atno 6909 bound_to 6896
  145.5550  140.9491  143.1478 H   0  0  0  0  0  0  0  0  0  0  0  0  # atno 7974 bound_to 7965
  154.7874  140.0463  157.1174 H   0  0  0  0  0  0  0  0  0  0  0  0  # atno 8008 bound_to 7997
  154.9632  140.3080  155.5002 H   0  0  0  0  0  0  0  0  0  0  0  0  # atno 8009 bound_to 7997
  156.2945  140.2267  156.4719 H   0  0  0  0  0  0  0  0  0  0  0  0  # atno 8010 bound_to 7997
  140.5360  143.2318  151.7175 H   0  0  0  0  0  0  0  0  0  0  0  0  # atno 10167 bound_to 10162
  156.4479  130.8153  151.2384 H   0  0  0  0  0  0  0  0  0  0  0  0  # atno 10718 bound_to 10713
  152.9845  135.6077  154.3240 H   0  0  0  0  0  0  0  0  0  0  0  0  # atno 10763 bound_to 10752
  154.2948  135.2774  155.2640 H   0  0  0  0  0  0  0  0  0  0  0  0  # atno 10764 bound_to 10752
  154.4919  135.5890  153.6522 H   0  0  0  0  0  0  0  0  0  0  0  0  # atno 10765 bound_to 10752
  141.1560  133.6772  156.6648 H   0  0  0  0  0  0  0  0  0  0  0  0  # atno 11005 bound_to 11000
  144.7511  139.7192  143.7273 LP  0  0  0  0  0  0  0  0  0  0  0  0  # atno 17320 bound_to 7965
  146.1891  139.5121  142.9817 LP  0  0  0  0  0  0  0  0  0  0  0  0  # atno 17321 bound_to 7965
  139.4971  144.4041  152.0150 LP  0  0  0  0  0  0  0  0  0  0  0  0  # atno 17342 bound_to 10162
  140.3147  144.3497  150.6025 LP  0  0  0  0  0  0  0  0  0  0  0  0  # atno 17343 bound_to 10162
  157.7504  131.0147  150.3476 LP  0  0  0  0  0  0  0  0  0  0  0  0  # atno 17370 bound_to 10713
  156.3848  130.3887  149.7074 LP  0  0  0  0  0  0  0  0  0  0  0  0  # atno 17371 bound_to 10713
  140.3219  134.8000  157.4259 LP  0  0  0  0  0  0  0  0  0  0  0  0  # atno 17394 bound_to 11000
  140.1089  134.5372  155.8284 LP  0  0  0  0  0  0  0  0  0  0  0  0  # atno 17395 bound_to 11000

$$$$
