AV-unprocessed.smi:278|AV-procd|sdf|2087|dock10
  -GOLD-   2262021363D 1   1.00000     0.00000
 Structure written by MMmdl.
 50 54  0  0  0  0  0  0  0  0  1 V2000
  147.5804  137.1826  161.1095 O   0  0  0  0  0  0  0  0  0  0  0  0
  146.9121  136.4534  162.1984 S   0  0  0  0  0  0  0  0  0  0  0  0
  147.2634  136.7132  163.6027 O   0  0  0  0  0  0  0  0  0  0  0  0
  145.0955  136.6161  161.9996 C   0  0  0  0  0  0  0  0  0  0  0  0
  144.5373  135.1874  161.9675 C   0  0  0  0  0  0  0  0  0  0  0  0
  145.6026  134.2425  161.3821 C   0  0  1  0  0  0  0  0  0  0  0  0
  145.7583  134.3459  159.8612 C   0  0  0  0  0  0  0  0  0  0  0  0
  147.1486  134.0026  159.5990 N   0  0  0  0  0  0  0  0  0  0  0  0
  147.6736  134.0816  158.3481 C   0  0  0  0  0  0  0  0  0  0  0  0
  148.9869  134.4080  158.2138 N   0  0  0  0  0  0  0  0  0  0  0  0
  149.5446  134.5031  157.0037 C   0  0  0  0  0  0  0  0  0  0  0  0
  148.9801  134.3223  155.8094 N   0  0  0  0  0  0  0  0  0  0  0  0
  147.6603  134.0029  155.9315 C   0  0  0  0  0  0  0  0  0  0  0  0
  146.9318  133.8635  157.1485 C   0  0  0  0  0  0  0  0  0  0  0  0
  145.6082  133.5430  156.8627 N   0  0  0  0  0  0  0  0  0  0  0  0
  145.5618  133.4831  155.5602 C   0  0  0  0  0  0  0  0  0  0  0  0
  146.7502  133.7477  154.9212 N   0  0  0  0  0  0  0  0  0  0  0  0
  146.9812  133.7528  153.4875 C   0  0  0  0  0  0  0  0  0  0  0  0
  146.6326  132.4036  152.8294 C   0  0  2  0  0  0  0  0  0  0  0  0
  147.7545  131.5415  152.8241 O   0  0  0  0  0  0  0  0  0  0  0  0
  146.0660  132.5651  151.4041 C   0  0  2  0  0  0  0  0  0  0  0  0
  145.0864  133.7210  151.1839 C   0  0  0  0  0  0  0  0  0  0  0  0
  144.3486  133.2479  149.9514 C   0  0  0  0  0  0  0  0  0  0  0  0
  144.2355  131.7472  150.2113 C   0  0  0  0  0  0  0  0  0  0  0  0
  145.3955  131.3886  150.9582 O   0  0  0  0  0  0  0  0  0  0  0  0
  147.9652  134.2448  160.7806 C   0  0  0  0  0  0  0  0  0  0  0  0
  146.9882  134.6356  161.8994 C   0  0  1  0  0  0  0  0  0  0  0  0
  145.3883  133.2057  161.6449 H   0  0  0  0  0  0  0  0  0  0  0  0
  147.2256  134.1482  162.8454 H   0  0  0  0  0  0  0  0  0  0  0  0
  144.6801  137.2185  162.8074 H   0  0  0  0  0  0  0  0  0  0  0  0
  144.9065  137.1268  161.0552 H   0  0  0  0  0  0  0  0  0  0  0  0
  144.3227  134.8746  162.9900 H   0  0  0  0  0  0  0  0  0  0  0  0
  143.5971  135.1338  161.4178 H   0  0  0  0  0  0  0  0  0  0  0  0
  145.0744  133.6718  159.3443 H   0  0  0  0  0  0  0  0  0  0  0  0
  145.5676  135.3612  159.5112 H   0  0  0  0  0  0  0  0  0  0  0  0
  150.5930  134.7619  156.9911 H   0  0  0  0  0  0  0  0  0  0  0  0
  144.6534  133.2439  155.0263 H   0  0  0  0  0  0  0  0  0  0  0  0
  146.3809  134.5505  153.0487 H   0  0  0  0  0  0  0  0  0  0  0  0
  148.0244  134.0131  153.3046 H   0  0  0  0  0  0  0  0  0  0  0  0
  145.8709  131.9119  153.4357 H   0  0  0  0  0  0  0  0  0  0  0  0
  148.1811  131.6132  151.9837 H   0  0  0  0  0  0  0  0  0  0  0  0
  146.9034  132.7068  150.7188 H   0  0  0  0  0  0  0  0  0  0  0  0
  144.3848  133.8197  152.0128 H   0  0  0  0  0  0  0  0  0  0  0  0
  145.5854  134.6801  151.0432 H   0  0  0  0  0  0  0  0  0  0  0  0
  143.3810  133.7315  149.8166 H   0  0  0  0  0  0  0  0  0  0  0  0
  144.9508  133.4315  149.0606 H   0  0  0  0  0  0  0  0  0  0  0  0
  143.3551  131.5334  150.8185 H   0  0  0  0  0  0  0  0  0  0  0  0
  144.1595  131.1693  149.2901 H   0  0  0  0  0  0  0  0  0  0  0  0
  148.4787  133.3186  161.0398 H   0  0  0  0  0  0  0  0  0  0  0  0
  148.7233  135.0096  160.6122 H   0  0  0  0  0  0  0  0  0  0  0  0
  1  2  2  0  0  0  0
  2 27  1  0  0  0  0
  2  3  2  0  0  0  0
  2  4  1  0  0  0  0
  4  5  1  0  0  0  0
  4 30  1  0  0  0  0
  4 31  1  0  0  0  0
  5  6  1  0  0  0  0
  5 32  1  0  0  0  0
  5 33  1  0  0  0  0
  6 28  1  0  0  0  0
  6 27  1  0  0  0  0
  6  7  1  0  0  0  0
  7  8  1  0  0  0  0
  7 34  1  0  0  0  0
  7 35  1  0  0  0  0
  8  9  1  0  0  0  0
  8 26  1  0  0  0  0
  9 14  1  0  0  0  0
  9 10  2  0  0  0  0
 10 11  1  0  0  0  0
 11 12  2  0  0  0  0
 11 36  1  0  0  0  0
 12 13  1  0  0  0  0
 13 17  1  0  0  0  0
 13 14  2  0  0  0  0
 14 15  1  0  0  0  0
 15 16  2  0  0  0  0
 16 17  1  0  0  0  0
 16 37  1  0  0  0  0
 17 18  1  0  0  0  0
 18 19  1  0  0  0  0
 18 38  1  0  0  0  0
 18 39  1  0  0  0  0
 19 20  1  0  0  0  0
 19 21  1  0  0  0  0
 19 40  1  0  0  0  0
 20 41  1  0  0  0  0
 21 25  1  0  0  0  0
 21 22  1  0  0  0  0
 21 42  1  0  0  0  0
 22 23  1  0  0  0  0
 22 43  1  0  0  0  0
 22 44  1  0  0  0  0
 23 24  1  0  0  0  0
 23 45  1  0  0  0  0
 23 46  1  0  0  0  0
 24 25  1  0  0  0  0
 24 47  1  0  0  0  0
 24 48  1  0  0  0  0
 26 27  1  0  0  0  0
 26 49  1  0  0  0  0
 26 50  1  0  0  0  0
 27 29  1  0  0  0  0
M  END
> <s_m_source_file>
AV-unprocessed.smi

> <i_m_source_file_index>
278

> <i_lp_mmshare_version>
43012

> <i_f3d_flags>
0

> <s_epik_input>
W0NIMl0xW0NIMl1TKD1PKSg9TylbQ0BASF0oW0NAQEhdMTIpW0NIMl1OKFtDSDJdMiljKG5bY0hdbjMpYyhjMzQpbltjSF1uNFtDSDJdW0NASF0oW09IXSlbQ0BASF01W0NIMl1bQ0gyXVtDSDJdTzU=

> <s_epik_cmdline>
J2VwaWtfcHl0aG9uJywgJy1waCcsICc3LjAnLCAnLXRuJywgJzgnLCAnLW1hJywgJzIwMCcsICctbWV0YWxfYmluZGluZycsICctaW1hZScsICc8aW5maWxlLm1hZT4nLCAnLW9tYWUnLCAnPG91dGZpbGUubWFlPic=

> <r_lp_tautomer_probability>
1

> <r_epik_Ionization_Penalty>
0.000636766

> <r_epik_Ionization_Penalty_Charging>
0

> <r_epik_Ionization_Penalty_Neutral>
0.000636766

> <r_epik_State_Penalty>
0.000329976

> <r_epik_Charging_Adjusted_Penalty>
0.000329976

> <i_epik_Tot_Q>
0

> <i_epik_Tot_abs_Q>
0

> <r_epik_Metal_State_Penalty>
-0

> <b_epik_Metal_Only>
0

> <s_lp_Force_Field>
OPLS_2005

> <r_lp_Energy>
50.3002

> <b_lp_Chiralities_Consistent>
1

> <s_lp_Variant>
AV-unprocessed.smi:278-1

> <Gold.Version>
5.8.1

> <Gold.Id.Protein>
6NUR|6NUR_protein|mol2

> <Gold.PLP.Fitness>
43.4261

> <Gold.PLP.PLP>
-30.4449

> <Gold.PLP.part.hbond>
-4.0000

> <Gold.PLP.part.metal>
0.0000

> <Gold.PLP.part.buried>
-4.0776

> <Gold.PLP.part.nonpolar>
-22.9343

> <Gold.PLP.part.repulsive>
0.2243

> <Gold.PLP.ligand.clash>
0.0000

> <Gold.PLP.ligand.torsion>
0.8672

> <Gold.PLP.Chemscore.Hbond>
3.8240

> <Gold.PLP.Chemscore.CHOScore>
0.9953

> <Gold.PLP.Chemscore.Metal>
0.0000

> <Gold.Chemscore.Hbonds>
donor molecule, donor type, donor heavy atom, donor atom, acceptor molecule, acceptor atom, score
      L1  H    20    41       P1 10747  1.00
      P1  H  6896  6907       L1    10  0.98
      P1  H  6931  6943       L1     1  0.90
      P1  H  6934  6947       L1     1  0.93
      L1  C    16    37       P1 10957  1.00

> <Gold.PLP.Chemscore.Internal.Correction>
0.2576

> <Gold.Rescore>
     Score         DG    S(hbond)    S(metal)    S(lipo)     H(rot)  DE(clash)    DE(int)     intcor
     17.21     -19.01       3.04        0.00      75.58       2.13       0.96       0.84       ----

> <Gold.Chemscore.Fitness>
17.2107

> <Gold.Chemscore.DG>
-19.0128

> <Gold.Chemscore.ZeroCoef>
-5.4800

> <Gold.Chemscore.Hbond>
3.0405

> <Gold.Chemscore.Metal>
0.0000

> <Gold.Chemscore.Lipo>
75.5750

> <Gold.Chemscore.Internal_Hbond>
0.0000

> <Gold.Chemscore.DEClash>
0.9614

> <Gold.Chemscore.DEInternal>
0.8407

> <Gold.Chemscore.Rot>
2.1346

> <Gold.Chemscore.Internal.Correction>
   9.000000E+99

> <Gold.Chemscore.Hbonds>
donor molecule, donor type, donor heavy atom, donor atom, acceptor molecule, acceptor atom, score
      L1  H    20    41       P1 10747  0.92
      P1  H  6896  6907       L1    10  0.23
      P1  H  6931  6943       L1     1  0.57
      P1  H  6934  6947       L1     1  0.86

> <Gold.Chemscore.Hbond.Weighted>
-10.1552

> <Gold.Chemscore.Metal.Weighted>
-0.0000

> <Gold.Chemscore.Lipo.Weighted>
-8.8423

> <Gold.Chemscore.Internal_Hbond.Weighted>
0.0000

> <Gold.Chemscore.DEClash.Weighted>
0.9614

> <Gold.Chemscore.DEInternal.Weighted>
0.8407

> <Gold.Chemscore.Rot.Weighted>
5.4646

> <Gold.Chemscore.Internal.Correction.Weighted>
   9.000000E+99

> <Gold.Protein.RotatedTorsions>
[ 6907 6896 6895 6894 ] final  -99.46 input  -60.11 | X-H torsion
[ 7974 7965 7964 7962 ] final   98.57 input  175.53 | X-H torsion
[ 8008 7997 7996 7995 ] final   -9.17 input   59.86 | X-H torsion
[ 10167 10162 10161 10158 ] final    2.28 input  -65.29 | X-H torsion
[ 10718 10713 10712 10709 ] final   57.52 input   66.30 | X-H torsion
[ 10763 10752 10751 10750 ] final -156.40 input  -60.55 | X-H torsion
[ 11005 11000 10999 10996 ] final   57.54 input  -57.11 | X-H torsion

> <Gold.Protein.ActiveResidues>
 VAL166  LYS551  ARG553  GLY616  TRP617  ASP618  TYR619  PRO620  LYS621  CYS622 
 ASP623  PHE694  ASN695  SER759  ASP760  ASP761  ALA762  ILE779  LEU786  VAL792 
 PHE793  MET794  SER795  GLU796  ALA797  LYS798  CYS799  TRP800  GLU811  SER814 

> <Gold.Protein.RotatedAtoms>
  150.7081  134.1037  159.3974 H   0  0  0  0  0  0  0  0  0  0  0  0  # atno 6907 bound_to 6896
  151.9023  135.0371  160.0516 H   0  0  0  0  0  0  0  0  0  0  0  0  # atno 6908 bound_to 6896
  152.2404  133.5095  159.5303 H   0  0  0  0  0  0  0  0  0  0  0  0  # atno 6909 bound_to 6896
  145.4105  139.2334  143.3251 H   0  0  0  0  0  0  0  0  0  0  0  0  # atno 7974 bound_to 7965
  154.5672  140.2362  155.8245 H   0  0  0  0  0  0  0  0  0  0  0  0  # atno 8008 bound_to 7997
  156.2078  140.3035  155.9623 H   0  0  0  0  0  0  0  0  0  0  0  0  # atno 8009 bound_to 7997
  155.2779  140.0421  157.3003 H   0  0  0  0  0  0  0  0  0  0  0  0  # atno 8010 bound_to 7997
  140.6642  143.7223  150.7796 H   0  0  0  0  0  0  0  0  0  0  0  0  # atno 10167 bound_to 10162
  157.5522  130.8773  149.8980 H   0  0  0  0  0  0  0  0  0  0  0  0  # atno 10718 bound_to 10713
  154.7715  135.3146  154.8179 H   0  0  0  0  0  0  0  0  0  0  0  0  # atno 10763 bound_to 10752
  153.8913  135.6825  153.4764 H   0  0  0  0  0  0  0  0  0  0  0  0  # atno 10764 bound_to 10752
  153.1330  135.4772  154.9313 H   0  0  0  0  0  0  0  0  0  0  0  0  # atno 10765 bound_to 10752
  140.0445  134.5826  155.9340 H   0  0  0  0  0  0  0  0  0  0  0  0  # atno 11005 bound_to 11000
  146.2707  140.4815  142.8815 LP  0  0  0  0  0  0  0  0  0  0  0  0  # atno 17320 bound_to 7965
  144.8312  140.6710  143.6289 LP  0  0  0  0  0  0  0  0  0  0  0  0  # atno 17321 bound_to 7965
  140.0897  143.4889  152.2485 LP  0  0  0  0  0  0  0  0  0  0  0  0  # atno 17342 bound_to 10162
  139.5886  144.7541  151.3458 LP  0  0  0  0  0  0  0  0  0  0  0  0  # atno 17343 bound_to 10162
  156.0586  130.3704  150.1033 LP  0  0  0  0  0  0  0  0  0  0  0  0  # atno 17370 bound_to 10713
  156.9205  130.9681  151.3549 LP  0  0  0  0  0  0  0  0  0  0  0  0  # atno 17371 bound_to 10713
  141.1900  133.6567  156.5391 LP  0  0  0  0  0  0  0  0  0  0  0  0  # atno 17394 bound_to 11000
  140.4016  134.7351  157.4783 LP  0  0  0  0  0  0  0  0  0  0  0  0  # atno 17395 bound_to 11000

$$$$
