AV-unprocessed.smi:1847|AV-procd|sdf|7517|dock5
  -GOLD-   22720 9223D 1   1.00000     0.00000
 Structure written by MMmdl.
 24 25  0  0  0  0  0  0  0  0  2 V2000
  149.7337  141.0723  157.4591 O   0  0  0  0  0  0  0  0  0  0  0  0
  150.9063  140.6906  157.4009 C   0  0  0  0  0  0  0  0  0  0  0  0
  151.9196  141.2324  158.1250 N   0  5  0  0  0  0  0  0  0  0  0  0
  151.8503  142.4999  158.5615 C   0  0  0  0  0  0  0  0  0  0  0  0
  152.6136  142.9434  159.6643 C   0  0  0  0  0  0  0  0  0  0  0  0
  152.5141  144.2867  160.0790 C   0  0  0  0  0  0  0  0  0  0  0  0
  151.7220  145.1947  159.4718 N   0  0  0  0  0  0  0  0  0  0  0  0
  150.9966  144.7773  158.4134 C   0  0  0  0  0  0  0  0  0  0  0  0
  151.0284  143.4561  157.9241 C   0  0  0  0  0  0  0  0  0  0  0  0
  151.2832  139.5915  156.5153 C   0  0  0  0  0  0  0  0  0  0  0  0
  150.3766  139.0715  155.6536 C   0  0  0  0  0  0  0  0  0  0  0  0
  150.6374  138.0162  154.8153 O   0  0  0  0  0  0  0  0  0  0  0  0
  151.8542  137.3309  155.0857 C   0  0  0  0  0  0  0  0  0  0  0  0
  152.9663  138.3328  155.4265 C   0  0  0  0  0  0  0  0  0  0  0  0
  152.5817  139.1308  156.5399 O   0  0  0  0  0  0  0  0  0  0  0  0
  153.2669  142.2621  160.1894 H   0  0  0  0  0  0  0  0  0  0  0  0
  153.0889  144.6407  160.9219 H   0  0  0  0  0  0  0  0  0  0  0  0
  150.3710  145.5193  157.9399 H   0  0  0  0  0  0  0  0  0  0  0  0
  150.4262  143.1808  157.0703 H   0  0  0  0  0  0  0  0  0  0  0  0
  149.3518  139.4017  155.5625 H   0  0  0  0  0  0  0  0  0  0  0  0
  151.7001  136.6377  155.9137 H   0  0  0  0  0  0  0  0  0  0  0  0
  152.1299  136.7357  154.2152 H   0  0  0  0  0  0  0  0  0  0  0  0
  153.8921  137.8096  155.6653 H   0  0  0  0  0  0  0  0  0  0  0  0
  153.1732  138.9807  154.5735 H   0  0  0  0  0  0  0  0  0  0  0  0
  1  2  2  0  0  0  0
  2  3  1  0  0  0  0
  2 10  1  0  0  0  0
  3  4  1  0  0  0  0
  4  9  1  0  0  0  0
  4  5  2  0  0  0  0
  5  6  1  0  0  0  0
  5 16  1  0  0  0  0
  6  7  2  0  0  0  0
  6 17  1  0  0  0  0
  7  8  1  0  0  0  0
  8  9  2  0  0  0  0
  8 18  1  0  0  0  0
  9 19  1  0  0  0  0
 10 15  1  0  0  0  0
 10 11  2  0  0  0  0
 11 12  1  0  0  0  0
 11 20  1  0  0  0  0
 12 13  1  0  0  0  0
 13 14  1  0  0  0  0
 13 21  1  0  0  0  0
 13 22  1  0  0  0  0
 14 15  1  0  0  0  0
 14 23  1  0  0  0  0
 14 24  1  0  0  0  0
M  CHG  1   3  -1
M  END
> <s_m_source_file>
AV-unprocessed.smi

> <i_m_source_file_index>
1847

> <i_lp_mmshare_version>
43012

> <i_f3d_flags>
0

> <s_epik_input>
TzFbQ0gyXVtDSDJdT1tDSF09QzFDKD1PKVtOSF1jMltjSF1bY0hdbltjSF1bY0hdMg==

> <s_epik_cmdline>
J2VwaWtfcHl0aG9uJywgJy1waCcsICc3LjAnLCAnLXRuJywgJzgnLCAnLW1hJywgJzIwMCcsICctbWV0YWxfYmluZGluZycsICctaW1hZScsICc8aW5maWxlLm1hZT4nLCAnLW9tYWUnLCAnPG91dGZpbGUubWFlPic=

> <r_epik_Ionization_Penalty>
6.68616

> <r_epik_Ionization_Penalty_Charging>
5.33655

> <r_epik_Ionization_Penalty_Neutral>
1.34962

> <r_epik_State_Penalty>
5.36971

> <r_epik_Charging_Adjusted_Penalty>
10.7063

> <i_epik_Tot_Q>
-1

> <i_epik_Tot_abs_Q>
1

> <r_epik_Metal_State_Penalty>
1.43726

> <b_epik_Metal_Only>
1

> <s_lp_Force_Field>
OPLS_2005

> <r_lp_Energy>
5.87976

> <b_lp_Chiralities_Consistent>
1

> <s_lp_Variant>
AV-unprocessed.smi:1847-3

> <Gold.Version>
5.8.1

> <Gold.Id.Protein>
6NUR|6NUR_protein|mol2

> <Gold.PLP.Fitness>
35.8416

> <Gold.PLP.PLP>
-30.0379

> <Gold.PLP.part.hbond>
-1.0000

> <Gold.PLP.part.metal>
0.0000

> <Gold.PLP.part.buried>
-4.7729

> <Gold.PLP.part.nonpolar>
-25.7939

> <Gold.PLP.part.repulsive>
0.3720

> <Gold.PLP.ligand.clash>
0.0000

> <Gold.PLP.ligand.torsion>
0.2668

> <Gold.PLP.Chemscore.Hbond>
0.9500

> <Gold.PLP.Chemscore.CHOScore>
0.9898

> <Gold.PLP.Chemscore.Metal>
0.0000

> <Gold.Chemscore.Hbonds>
donor molecule, donor type, donor heavy atom, donor atom, acceptor molecule, acceptor atom, score
      P1  H  7997  8009       L1    15  0.50
      L1  C     8    18       P1  8028  0.07
      L1  C     8    18       P1  8029  0.64

> <Gold.PLP.Chemscore.Internal.Correction>
0.5178

> <Gold.Rescore>
     Score         DG    S(hbond)    S(metal)    S(lipo)     H(rot)  DE(clash)    DE(int)     intcor
     16.07     -18.05       0.69        0.00      87.77       0.00       0.28       1.71       ----

> <Gold.Chemscore.Fitness>
16.0655

> <Gold.Chemscore.DG>
-18.0479

> <Gold.Chemscore.ZeroCoef>
-5.4800

> <Gold.Chemscore.Hbond>
0.6882

> <Gold.Chemscore.Metal>
0.0000

> <Gold.Chemscore.Lipo>
87.7721

> <Gold.Chemscore.Internal_Hbond>
0.0000

> <Gold.Chemscore.DEClash>
0.2751

> <Gold.Chemscore.DEInternal>
1.7073

> <Gold.Chemscore.Rot>
0.0000

> <Gold.Chemscore.Internal.Correction>
   9.000000E+99

> <Gold.Chemscore.Hbonds>
donor molecule, donor type, donor heavy atom, donor atom, acceptor molecule, acceptor atom, score
      P1  H  7997  8009       L1    15  0.02

> <Gold.Chemscore.Hbond.Weighted>
-2.2986

> <Gold.Chemscore.Metal.Weighted>
-0.0000

> <Gold.Chemscore.Lipo.Weighted>
-10.2693

> <Gold.Chemscore.Internal_Hbond.Weighted>
0.0000

> <Gold.Chemscore.DEClash.Weighted>
0.2751

> <Gold.Chemscore.DEInternal.Weighted>
1.7073

> <Gold.Chemscore.Rot.Weighted>
0.0000

> <Gold.Chemscore.Internal.Correction.Weighted>
   9.000000E+99

> <Gold.Protein.RotatedTorsions>
[ 6907 6896 6895 6894 ] final  175.95 input  -60.11 | X-H torsion
[ 7974 7965 7964 7962 ] final  167.98 input  175.53 | X-H torsion
[ 8008 7997 7996 7995 ] final -169.54 input   59.86 | X-H torsion
[ 10167 10162 10161 10158 ] final -162.30 input  -65.29 | X-H torsion
[ 10718 10713 10712 10709 ] final -150.23 input   66.30 | X-H torsion
[ 10763 10752 10751 10750 ] final  -31.49 input  -60.55 | X-H torsion
[ 11005 11000 10999 10996 ] final  -99.07 input  -57.11 | X-H torsion

> <Gold.Protein.ActiveResidues>
 VAL166  LYS551  ARG553  GLY616  TRP617  ASP618  TYR619  PRO620  LYS621  CYS622 
 ASP623  PHE694  ASN695  SER759  ASP760  ASP761  ALA762  ILE779  LEU786  VAL792 
 PHE793  MET794  SER795  GLU796  ALA797  LYS798  CYS799  TRP800  GLU811  SER814 

> <Gold.Protein.RotatedAtoms>
  151.7280  133.3316  159.3332 H   0  0  0  0  0  0  0  0  0  0  0  0  # atno 6907 bound_to 6896
  150.7625  134.6389  159.6236 H   0  0  0  0  0  0  0  0  0  0  0  0  # atno 6908 bound_to 6896
  152.3610  134.6874  160.0259 H   0  0  0  0  0  0  0  0  0  0  0  0  # atno 6909 bound_to 6896
  144.7405  139.8840  143.6398 H   0  0  0  0  0  0  0  0  0  0  0  0  # atno 7974 bound_to 7965
  155.9064  140.1050  157.1312 H   0  0  0  0  0  0  0  0  0  0  0  0  # atno 8008 bound_to 7997
  154.4033  140.1283  156.4565 H   0  0  0  0  0  0  0  0  0  0  0  0  # atno 8009 bound_to 7997
  155.7362  140.3467  155.5085 H   0  0  0  0  0  0  0  0  0  0  0  0  # atno 8010 bound_to 7997
  139.6402  144.0273  152.2086 H   0  0  0  0  0  0  0  0  0  0  0  0  # atno 10167 bound_to 10162
  156.4434  130.8133  151.2363 H   0  0  0  0  0  0  0  0  0  0  0  0  # atno 10718 bound_to 10713
  153.7982  135.6892  153.4860 H   0  0  0  0  0  0  0  0  0  0  0  0  # atno 10763 bound_to 10752
  153.1705  135.4544  154.9895 H   0  0  0  0  0  0  0  0  0  0  0  0  # atno 10764 bound_to 10752
  154.8017  135.3340  154.7473 H   0  0  0  0  0  0  0  0  0  0  0  0  # atno 10765 bound_to 10752
  141.1322  133.8294  157.0924 H   0  0  0  0  0  0  0  0  0  0  0  0  # atno 11005 bound_to 11000
  146.1190  139.4205  143.0240 LP  0  0  0  0  0  0  0  0  0  0  0  0  # atno 17320 bound_to 7965
  145.7332  141.0035  143.1340 LP  0  0  0  0  0  0  0  0  0  0  0  0  # atno 17321 bound_to 7965
  139.9961  144.6327  150.7771 LP  0  0  0  0  0  0  0  0  0  0  0  0  # atno 17342 bound_to 10162
  140.7487  143.2926  151.3289 LP  0  0  0  0  0  0  0  0  0  0  0  0  # atno 17343 bound_to 10162
  157.7505  131.0161  150.3531 LP  0  0  0  0  0  0  0  0  0  0  0  0  # atno 17370 bound_to 10713
  156.3893  130.3895  149.7042 LP  0  0  0  0  0  0  0  0  0  0  0  0  # atno 17371 bound_to 10713
  140.0384  134.9866  157.0915 LP  0  0  0  0  0  0  0  0  0  0  0  0  # atno 17394 bound_to 11000
  140.4174  134.1917  155.7164 LP  0  0  0  0  0  0  0  0  0  0  0  0  # atno 17395 bound_to 11000

$$$$
