AV-unprocessed.smi:37|AV-procd|sdf|334|dock4
  -GOLD-   2262016173D 1   1.00000     0.00000
 Structure written by MMmdl.
 43 44  0  0  0  0  0  0  0  0  2 V2000
  148.8059  131.8386  153.9161 C   0  0  0  0  0  0  0  0  0  0  0  0
  149.9437  131.9894  154.9366 C   0  0  0  0  0  0  0  0  0  0  0  0
  149.5205  132.6903  156.2294 C   0  0  0  0  0  0  0  0  0  0  0  0
  150.2847  132.8308  157.1862 O   0  0  0  0  0  0  0  0  0  0  0  0
  148.2496  133.1152  156.1752 O   0  0  0  0  0  0  0  0  0  0  0  0
  147.6929  133.8149  157.2775 C   0  0  0  0  0  0  0  0  0  0  0  0
  148.5999  134.9842  157.6843 C   0  0  1  0  0  0  0  0  0  0  0  0
  149.2044  135.5941  156.5446 O   0  0  0  0  0  0  0  0  0  0  0  0
  149.0354  136.9793  156.6132 C   0  0  2  0  0  0  0  0  0  0  0  0
  150.2645  137.6816  156.0839 N   0  0  0  0  0  0  0  0  0  0  0  0
  151.5389  137.2443  156.4055 C   0  0  0  0  0  0  0  0  0  0  0  0
  152.6332  137.8752  155.9329 C   0  0  0  0  0  0  0  0  0  0  0  0
  153.8572  137.4315  156.2664 F   0  0  0  0  0  0  0  0  0  0  0  0
  152.4779  139.0400  155.0633 C   0  0  0  0  0  0  0  0  0  0  0  0
  153.4797  139.6078  154.6309 O   0  0  0  0  0  0  0  0  0  0  0  0
  151.2106  139.4503  154.7669 N   0  5  0  0  0  0  0  0  0  0  0  0
  150.1000  138.8168  155.2457 C   0  0  0  0  0  0  0  0  0  0  0  0
  148.9520  139.1807  154.9893 O   0  0  0  0  0  0  0  0  0  0  0  0
  148.7415  137.3144  158.0801 C   0  0  2  0  0  0  0  0  0  0  0  0
  150.4108  137.3715  159.1829 Br  0  0  0  0  0  0  0  0  0  0  0  0
  147.8994  136.1079  158.4578 C   0  0  2  0  0  0  0  0  0  0  0  0
  147.8795  135.8547  159.8564 O   0  0  0  0  0  0  0  0  0  0  0  0
  147.2505  136.7032  160.6889 C   0  0  0  0  0  0  0  0  0  0  0  0
  146.5881  137.6855  160.3547 O   0  0  0  0  0  0  0  0  0  0  0  0
  147.4455  136.3382  162.1586 C   0  0  0  0  0  0  0  0  0  0  0  0
  147.0463  134.8858  162.4531 C   0  0  0  0  0  0  0  0  0  0  0  0
  149.1651  131.3452  153.0128 H   0  0  0  0  0  0  0  0  0  0  0  0
  148.4027  132.8088  153.6233 H   0  0  0  0  0  0  0  0  0  0  0  0
  147.9878  131.2383  154.3162 H   0  0  0  0  0  0  0  0  0  0  0  0
  150.3396  131.0062  155.1916 H   0  0  0  0  0  0  0  0  0  0  0  0
  150.7634  132.5529  154.4904 H   0  0  0  0  0  0  0  0  0  0  0  0
  146.7089  134.2002  157.0059 H   0  0  0  0  0  0  0  0  0  0  0  0
  147.5557  133.1327  158.1172 H   0  0  0  0  0  0  0  0  0  0  0  0
  149.4222  134.5949  158.2867 H   0  0  0  0  0  0  0  0  0  0  0  0
  148.2181  137.2505  155.9418 H   0  0  0  0  0  0  0  0  0  0  0  0
  151.6743  136.3910  157.0528 H   0  0  0  0  0  0  0  0  0  0  0  0
  148.2199  138.2668  158.1804 H   0  0  0  0  0  0  0  0  0  0  0  0
  146.8895  136.2400  158.0664 H   0  0  0  0  0  0  0  0  0  0  0  0
  148.4892  136.5021  162.4276 H   0  0  0  0  0  0  0  0  0  0  0  0
  146.8508  137.0162  162.7716 H   0  0  0  0  0  0  0  0  0  0  0  0
  147.1493  134.6679  163.5160 H   0  0  0  0  0  0  0  0  0  0  0  0
  147.6762  134.1799  161.9106 H   0  0  0  0  0  0  0  0  0  0  0  0
  146.0091  134.6947  162.1756 H   0  0  0  0  0  0  0  0  0  0  0  0
  1  2  1  0  0  0  0
  1 27  1  0  0  0  0
  1 28  1  0  0  0  0
  1 29  1  0  0  0  0
  2  3  1  0  0  0  0
  2 30  1  0  0  0  0
  2 31  1  0  0  0  0
  3  4  2  0  0  0  0
  3  5  1  0  0  0  0
  5  6  1  0  0  0  0
  6  7  1  0  0  0  0
  6 32  1  0  0  0  0
  6 33  1  0  0  0  0
  7 21  1  0  0  0  0
  7  8  1  0  0  0  0
  7 34  1  0  0  0  0
  8  9  1  0  0  0  0
  9 10  1  0  0  0  0
  9 19  1  0  0  0  0
  9 35  1  0  0  0  0
 10 17  1  0  0  0  0
 10 11  1  0  0  0  0
 11 12  2  0  0  0  0
 11 36  1  0  0  0  0
 12 13  1  0  0  0  0
 12 14  1  0  0  0  0
 14 15  2  0  0  0  0
 14 16  1  0  0  0  0
 16 17  1  0  0  0  0
 17 18  2  0  0  0  0
 19 20  1  0  0  0  0
 19 21  1  0  0  0  0
 19 37  1  0  0  0  0
 21 22  1  0  0  0  0
 21 38  1  0  0  0  0
 22 23  1  0  0  0  0
 23 24  2  0  0  0  0
 23 25  1  0  0  0  0
 25 26  1  0  0  0  0
 25 39  1  0  0  0  0
 25 40  1  0  0  0  0
 26 41  1  0  0  0  0
 26 42  1  0  0  0  0
 26 43  1  0  0  0  0
M  CHG  1  16  -1
M  END
> <s_m_source_file>
AV-unprocessed.smi

> <i_m_source_file_index>
37

> <i_lp_mmshare_version>
43012

> <i_f3d_flags>
0

> <s_epik_input>
W0NIM11bQ0gyXUMoPU8pT1tDSDJdW0NAQEhdMU9bQ0BASF0objJbY0hdYyhGKWMoPU8pW25IXWMyPU8pW0NAQEhdKEJyKVtDQEhdMU9DKD1PKVtDSDJdW0NIM10=

> <s_epik_cmdline>
J2VwaWtfcHl0aG9uJywgJy1waCcsICc3LjAnLCAnLXRuJywgJzgnLCAnLW1hJywgJzIwMCcsICctbWV0YWxfYmluZGluZycsICctaW1hZScsICc8aW5maWxlLm1hZT4nLCAnLW9tYWUnLCAnPG91dGZpbGUubWFlPic=

> <r_epik_Ionization_Penalty>
1.08158

> <r_epik_Ionization_Penalty_Charging>
9.05154e-09

> <r_epik_Ionization_Penalty_Neutral>
1.08158

> <r_epik_State_Penalty>
1.13706

> <r_epik_Charging_Adjusted_Penalty>
1.13706

> <i_epik_Tot_Q>
-1

> <i_epik_Tot_abs_Q>
1

> <r_epik_Metal_State_Penalty>
0.00343535

> <b_epik_Metal_Only>
0

> <s_epik_Chemistry_Notes>
This compound has an ester and may undergo hydrolysis at high or low pH. This compound contains an acetal/aminal-like group ( X-CH(R)-Y where X, Y are N, S, or O) that may be acid/base labile, releasing an aldehyde.

> <s_lp_Force_Field>
OPLS_2005

> <r_lp_Energy>
36.4441

> <b_lp_Chiralities_Consistent>
1

> <s_lp_Variant>
AV-unprocessed.smi:37-32

> <Gold.Version>
5.8.1

> <Gold.Id.Protein>
6NUR|6NUR_protein|mol2

> <Gold.PLP.Fitness>
42.1320

> <Gold.PLP.PLP>
-31.4358

> <Gold.PLP.part.hbond>
-5.0000

> <Gold.PLP.part.metal>
0.0000

> <Gold.PLP.part.buried>
-2.3340

> <Gold.PLP.part.nonpolar>
-24.7754

> <Gold.PLP.part.repulsive>
0.2254

> <Gold.PLP.ligand.clash>
0.0000

> <Gold.PLP.ligand.torsion>
0.8297

> <Gold.PLP.Chemscore.Hbond>
4.0000

> <Gold.PLP.Chemscore.CHOScore>
0.0000

> <Gold.PLP.Chemscore.Metal>
0.0000

> <Gold.Chemscore.Hbonds>
donor molecule, donor type, donor heavy atom, donor atom, acceptor molecule, acceptor atom, score
      P1  H  6896  6909       L1     4  0.27
      P1  H  6934  6947       L1    24  1.00
      P1  H  7989  7998       L1    16  0.95
      P1  H  7997  8010       L1    15  1.00

> <Gold.PLP.Chemscore.Internal.Correction>
0.3557

> <Gold.Rescore>
     Score         DG    S(hbond)    S(metal)    S(lipo)     H(rot)  DE(clash)    DE(int)     intcor
     11.04     -15.58       3.63        0.00      54.18       3.27       0.45       4.09       ----

> <Gold.Chemscore.Fitness>
11.0428

> <Gold.Chemscore.DG>
-15.5818

> <Gold.Chemscore.ZeroCoef>
-5.4800

> <Gold.Chemscore.Hbond>
3.6305

> <Gold.Chemscore.Metal>
0.0000

> <Gold.Chemscore.Lipo>
54.1822

> <Gold.Chemscore.Internal_Hbond>
0.0000

> <Gold.Chemscore.DEClash>
0.4540

> <Gold.Chemscore.DEInternal>
4.0850

> <Gold.Chemscore.Rot>
3.2669

> <Gold.Chemscore.Internal.Correction>
   9.000000E+99

> <Gold.Chemscore.Hbonds>
donor molecule, donor type, donor heavy atom, donor atom, acceptor molecule, acceptor atom, score
      P1  H  6896  6909       L1     4  0.25
      P1  H  6934  6947       L1    24  0.82
      P1  H  7989  7998       L1    16  0.21
      P1  H  7997  8010       L1    15  0.96

> <Gold.Chemscore.Hbond.Weighted>
-12.1259

> <Gold.Chemscore.Metal.Weighted>
-0.0000

> <Gold.Chemscore.Lipo.Weighted>
-6.3393

> <Gold.Chemscore.Internal_Hbond.Weighted>
0.0000

> <Gold.Chemscore.DEClash.Weighted>
0.4540

> <Gold.Chemscore.DEInternal.Weighted>
4.0850

> <Gold.Chemscore.Rot.Weighted>
8.3634

> <Gold.Chemscore.Internal.Correction.Weighted>
   9.000000E+99

> <Gold.Protein.RotatedTorsions>
[ 6907 6896 6895 6894 ] final  -38.08 input  -60.11 | X-H torsion
[ 7974 7965 7964 7962 ] final  -62.08 input  175.53 | X-H torsion
[ 8008 7997 7996 7995 ] final  135.75 input   59.86 | X-H torsion
[ 10167 10162 10161 10158 ] final  -79.42 input  -65.29 | X-H torsion
[ 10718 10713 10712 10709 ] final -122.17 input   66.30 | X-H torsion
[ 10763 10752 10751 10750 ] final  -56.47 input  -60.55 | X-H torsion
[ 11005 11000 10999 10996 ] final -168.33 input  -57.11 | X-H torsion

> <Gold.Protein.ActiveResidues>
 VAL166  LYS551  ARG553  GLY616  TRP617  ASP618  TYR619  PRO620  LYS621  CYS622 
 ASP623  PHE694  ASN695  SER759  ASP760  ASP761  ALA762  ILE779  LEU786  VAL792 
 PHE793  MET794  SER795  GLU796  ALA797  LYS798  CYS799  TRP800  GLU811  SER814 

> <Gold.Protein.RotatedAtoms>
  151.0068  134.9366  159.7984 H   0  0  0  0  0  0  0  0  0  0  0  0  # atno 6907 bound_to 6896
  152.5292  134.3081  159.9113 H   0  0  0  0  0  0  0  0  0  0  0  0  # atno 6908 bound_to 6896
  151.3086  133.4049  159.2679 H   0  0  0  0  0  0  0  0  0  0  0  0  # atno 6909 bound_to 6896
  145.7956  140.8684  143.0258 H   0  0  0  0  0  0  0  0  0  0  0  0  # atno 7974 bound_to 7965
  156.3003  140.2463  156.3633 H   0  0  0  0  0  0  0  0  0  0  0  0  # atno 8008 bound_to 7997
  154.8857  140.0411  157.1828 H   0  0  0  0  0  0  0  0  0  0  0  0  # atno 8009 bound_to 7997
  154.8649  140.2926  155.5520 H   0  0  0  0  0  0  0  0  0  0  0  0  # atno 8010 bound_to 7997
  140.4595  143.2458  151.8370 H   0  0  0  0  0  0  0  0  0  0  0  0  # atno 10167 bound_to 10162
  156.1397  130.6456  150.9751 H   0  0  0  0  0  0  0  0  0  0  0  0  # atno 10718 bound_to 10713
  154.2071  135.6401  153.5104 H   0  0  0  0  0  0  0  0  0  0  0  0  # atno 10763 bound_to 10752
  152.9998  135.5465  154.6254 H   0  0  0  0  0  0  0  0  0  0  0  0  # atno 10764 bound_to 10752
  154.5681  135.2914  155.0827 H   0  0  0  0  0  0  0  0  0  0  0  0  # atno 10765 bound_to 10752
  140.5431  134.5502  157.5104 H   0  0  0  0  0  0  0  0  0  0  0  0  # atno 11005 bound_to 11000
  144.6775  140.0186  143.7484 LP  0  0  0  0  0  0  0  0  0  0  0  0  # atno 17320 bound_to 7965
  145.9931  139.3031  143.0973 LP  0  0  0  0  0  0  0  0  0  0  0  0  # atno 17321 bound_to 7965
  139.4804  144.5025  151.9041 LP  0  0  0  0  0  0  0  0  0  0  0  0  # atno 17342 bound_to 10162
  140.4111  144.2368  150.5889 LP  0  0  0  0  0  0  0  0  0  0  0  0  # atno 17343 bound_to 10162
  157.6564  131.0888  150.7937 LP  0  0  0  0  0  0  0  0  0  0  0  0  # atno 17370 bound_to 10713
  156.8014  130.4922  149.5369 LP  0  0  0  0  0  0  0  0  0  0  0  0  # atno 17371 bound_to 10713
  139.9493  134.7645  156.0486 LP  0  0  0  0  0  0  0  0  0  0  0  0  # atno 17394 bound_to 11000
  141.1215  133.6611  156.3227 LP  0  0  0  0  0  0  0  0  0  0  0  0  # atno 17395 bound_to 11000

$$$$
