AV-unprocessed.smi:91|AV-procd|sdf|836|dock7
  -GOLD-   2262017263D 1   1.00000     0.00000
 Structure written by MMmdl.
 60 63  0  0  0  0  0  0  0  0  1 V2000
  146.7848  133.9416  152.3919 C   0  0  0  0  0  0  0  0  0  0  0  0
  147.5833  133.5309  153.4877 O   0  0  0  0  0  0  0  0  0  0  0  0
  148.9397  133.3280  153.1264 C   0  0  0  0  0  0  0  0  0  0  0  0
  149.8300  133.5268  154.3599 C   0  0  1  0  0  0  0  0  0  0  0  0
  150.0436  135.0149  154.6864 C   0  0  0  0  0  0  0  0  0  0  0  0
  150.7649  135.1568  155.9469 N   0  0  0  0  0  0  0  0  0  0  0  0
  151.3511  136.3627  156.1679 C   0  0  0  0  0  0  0  0  0  0  0  0
  151.9430  136.9672  155.1042 N   0  0  0  0  0  0  0  0  0  0  0  0
  152.5431  138.1524  155.2403 C   0  0  0  0  0  0  0  0  0  0  0  0
  152.6654  138.9035  156.3350 N   0  0  0  0  0  0  0  0  0  0  0  0
  152.0742  138.3081  157.4091 C   0  0  0  0  0  0  0  0  0  0  0  0
  151.4037  137.0500  157.4197 C   0  0  0  0  0  0  0  0  0  0  0  0
  150.9291  136.7921  158.7027 N   0  0  0  0  0  0  0  0  0  0  0  0
  151.3003  137.8272  159.4043 C   0  0  0  0  0  0  0  0  0  0  0  0
  151.9855  138.7906  158.7021 N   0  0  0  0  0  0  0  0  0  0  0  0
  152.5014  140.0450  159.2209 C   0  0  0  0  0  0  0  0  0  0  0  0
  152.2197  141.2519  158.2913 C   0  0  1  0  0  0  0  0  0  0  0  0
  150.7871  141.2354  157.7041 C   0  0  0  0  0  0  0  0  0  0  0  0
  149.8102  141.2311  158.7251 O   0  0  0  0  0  0  0  0  0  0  0  0
  152.5571  142.5940  158.9881 C   0  0  2  0  0  0  0  0  0  0  0  0
  152.0600  142.7187  160.4177 C   0  0  0  0  0  0  0  0  0  0  0  0
  152.1099  144.2253  160.6455 C   0  0  0  0  0  0  0  0  0  0  0  0
  151.8373  144.8148  159.3791 O   0  0  0  0  0  0  0  0  0  0  0  0
  151.8947  143.8237  158.3580 C   0  0  0  0  0  0  0  0  0  0  0  0
  150.1351  134.4543  157.0584 C   0  0  0  0  0  0  0  0  0  0  0  0
  149.8901  132.9682  156.7157 C   0  0  0  0  0  0  0  0  0  0  0  0
  151.2044  132.1593  156.6864 C   0  0  0  0  0  0  0  0  0  0  0  0
  148.9405  132.3481  157.7523 C   0  0  0  0  0  0  0  0  0  0  0  0
  149.1988  132.8790  155.4649 O   0  0  0  0  0  0  0  0  0  0  0  0
  145.7564  134.0870  152.7224 H   0  0  0  0  0  0  0  0  0  0  0  0
  146.7814  133.1886  151.6028 H   0  0  0  0  0  0  0  0  0  0  0  0
  147.1410  134.8845  151.9751 H   0  0  0  0  0  0  0  0  0  0  0  0
  149.0844  132.3307  152.7074 H   0  0  0  0  0  0  0  0  0  0  0  0
  149.2164  134.0489  152.3553 H   0  0  0  0  0  0  0  0  0  0  0  0
  150.7897  133.0496  154.1617 H   0  0  0  0  0  0  0  0  0  0  0  0
  150.5747  135.4908  153.8617 H   0  0  0  0  0  0  0  0  0  0  0  0
  149.0822  135.5220  154.7774 H   0  0  0  0  0  0  0  0  0  0  0  0
  152.9871  138.5572  154.3430 H   0  0  0  0  0  0  0  0  0  0  0  0
  151.0726  137.9229  160.4560 H   0  0  0  0  0  0  0  0  0  0  0  0
  152.0636  140.2168  160.2050 H   0  0  0  0  0  0  0  0  0  0  0  0
  153.5731  139.9219  159.3782 H   0  0  0  0  0  0  0  0  0  0  0  0
  152.8953  141.1568  157.4398 H   0  0  0  0  0  0  0  0  0  0  0  0
  150.6197  142.1006  157.0631 H   0  0  0  0  0  0  0  0  0  0  0  0
  150.6341  140.3629  157.0688 H   0  0  0  0  0  0  0  0  0  0  0  0
  150.2040  141.5596  159.5188 H   0  0  0  0  0  0  0  0  0  0  0  0
  153.6379  142.7460  158.9850 H   0  0  0  0  0  0  0  0  0  0  0  0
  151.0320  142.3616  160.4972 H   0  0  0  0  0  0  0  0  0  0  0  0
  152.6696  142.1703  161.1361 H   0  0  0  0  0  0  0  0  0  0  0  0
  151.3994  144.5569  161.4029 H   0  0  0  0  0  0  0  0  0  0  0  0
  153.1086  144.5288  160.9613 H   0  0  0  0  0  0  0  0  0  0  0  0
  152.4388  144.1913  157.4877 H   0  0  0  0  0  0  0  0  0  0  0  0
  150.8743  143.5967  158.0456 H   0  0  0  0  0  0  0  0  0  0  0  0
  150.7556  134.5245  157.9527 H   0  0  0  0  0  0  0  0  0  0  0  0
  149.1857  134.9434  157.2809 H   0  0  0  0  0  0  0  0  0  0  0  0
  151.6612  132.1232  157.6761 H   0  0  0  0  0  0  0  0  0  0  0  0
  151.9452  132.5907  156.0141 H   0  0  0  0  0  0  0  0  0  0  0  0
  151.0265  131.1318  156.3681 H   0  0  0  0  0  0  0  0  0  0  0  0
  149.3693  132.3824  158.7544 H   0  0  0  0  0  0  0  0  0  0  0  0
  148.7274  131.3047  157.5177 H   0  0  0  0  0  0  0  0  0  0  0  0
  147.9878  132.8781  157.7823 H   0  0  0  0  0  0  0  0  0  0  0  0
  1  2  1  0  0  0  0
  1 30  1  0  0  0  0
  1 31  1  0  0  0  0
  1 32  1  0  0  0  0
  2  3  1  0  0  0  0
  3  4  1  0  0  0  0
  3 33  1  0  0  0  0
  3 34  1  0  0  0  0
  4 29  1  0  0  0  0
  4  5  1  0  0  0  0
  4 35  1  0  0  0  0
  5  6  1  0  0  0  0
  5 36  1  0  0  0  0
  5 37  1  0  0  0  0
  6  7  1  0  0  0  0
  6 25  1  0  0  0  0
  7 12  1  0  0  0  0
  7  8  2  0  0  0  0
  8  9  1  0  0  0  0
  9 10  2  0  0  0  0
  9 38  1  0  0  0  0
 10 11  1  0  0  0  0
 11 15  1  0  0  0  0
 11 12  2  0  0  0  0
 12 13  1  0  0  0  0
 13 14  2  0  0  0  0
 14 15  1  0  0  0  0
 14 39  1  0  0  0  0
 15 16  1  0  0  0  0
 16 17  1  0  0  0  0
 16 40  1  0  0  0  0
 16 41  1  0  0  0  0
 17 18  1  0  0  0  0
 17 20  1  0  0  0  0
 17 42  1  0  0  0  0
 18 19  1  0  0  0  0
 18 43  1  0  0  0  0
 18 44  1  0  0  0  0
 19 45  1  0  0  0  0
 20 24  1  0  0  0  0
 20 21  1  0  0  0  0
 20 46  1  0  0  0  0
 21 22  1  0  0  0  0
 21 47  1  0  0  0  0
 21 48  1  0  0  0  0
 22 23  1  0  0  0  0
 22 49  1  0  0  0  0
 22 50  1  0  0  0  0
 23 24  1  0  0  0  0
 24 51  1  0  0  0  0
 24 52  1  0  0  0  0
 25 26  1  0  0  0  0
 25 53  1  0  0  0  0
 25 54  1  0  0  0  0
 26 27  1  0  0  0  0
 26 28  1  0  0  0  0
 26 29  1  0  0  0  0
 27 55  1  0  0  0  0
 27 56  1  0  0  0  0
 27 57  1  0  0  0  0
 28 58  1  0  0  0  0
 28 59  1  0  0  0  0
 28 60  1  0  0  0  0
M  END
> <s_m_source_file>
AV-unprocessed.smi

> <i_m_source_file_index>
91

> <i_lp_mmshare_version>
43012

> <i_f3d_flags>
0

> <s_epik_input>
W0NIM11PW0NIMl1bQ0BASF0oTzEpW0NIMl1OKFtDSDJdQzEoW0NIM10pW0NIM10pYyhuW2NIXW4yKWMoYzIzKW5bY0hdbjNbQ0gyXVtDQEhdKFtDSDJdW09IXSlbQ0BASF00W0NIMl1bQ0gyXU9bQ0gyXTQ=

> <s_epik_cmdline>
J2VwaWtfcHl0aG9uJywgJy1waCcsICc3LjAnLCAnLXRuJywgJzgnLCAnLW1hJywgJzIwMCcsICctbWV0YWxfYmluZGluZycsICctaW1hZScsICc8aW5maWxlLm1hZT4nLCAnLW9tYWUnLCAnPG91dGZpbGUubWFlPic=

> <r_lp_tautomer_probability>
1

> <r_epik_Ionization_Penalty>
8.63591e-05

> <r_epik_Ionization_Penalty_Charging>
0

> <r_epik_Ionization_Penalty_Neutral>
8.63591e-05

> <r_epik_State_Penalty>
-0

> <r_epik_Charging_Adjusted_Penalty>
0

> <i_epik_Tot_Q>
0

> <i_epik_Tot_abs_Q>
0

> <r_epik_Metal_State_Penalty>
-0

> <b_epik_Metal_Only>
0

> <s_lp_Force_Field>
OPLS_2005

> <r_lp_Energy>
46.7978

> <b_lp_Chiralities_Consistent>
1

> <s_lp_Variant>
AV-unprocessed.smi:91-4

> <Gold.Version>
5.8.1

> <Gold.Id.Protein>
6NUR|6NUR_protein|mol2

> <Gold.PLP.Fitness>
50.1997

> <Gold.PLP.PLP>
-43.4010

> <Gold.PLP.part.hbond>
-3.7310

> <Gold.PLP.part.metal>
0.0000

> <Gold.PLP.part.buried>
-4.6687

> <Gold.PLP.part.nonpolar>
-36.0644

> <Gold.PLP.part.repulsive>
0.2859

> <Gold.PLP.ligand.clash>
0.0000

> <Gold.PLP.ligand.torsion>
1.3233

> <Gold.PLP.Chemscore.Hbond>
2.9585

> <Gold.PLP.Chemscore.CHOScore>
0.0000

> <Gold.PLP.Chemscore.Metal>
0.0000

> <Gold.Chemscore.Hbonds>
donor molecule, donor type, donor heavy atom, donor atom, acceptor molecule, acceptor atom, score
      P1  H  6896  6907       L1    13  0.90
      P1  H  7997  8009       L1    10  0.93
      P1  H 10752 10765       L1     8  0.90

> <Gold.PLP.Chemscore.Internal.Correction>
0.5700

> <Gold.Rescore>
     Score         DG    S(hbond)    S(metal)    S(lipo)     H(rot)  DE(clash)    DE(int)     intcor
     15.28     -17.86       2.25        0.00     107.81       3.03       0.15       2.43       ----

> <Gold.Chemscore.Fitness>
15.2843

> <Gold.Chemscore.DG>
-17.8619

> <Gold.Chemscore.ZeroCoef>
-5.4800

> <Gold.Chemscore.Hbond>
2.2519

> <Gold.Chemscore.Metal>
0.0000

> <Gold.Chemscore.Lipo>
107.8065

> <Gold.Chemscore.Internal_Hbond>
0.0000

> <Gold.Chemscore.DEClash>
0.1498

> <Gold.Chemscore.DEInternal>
2.4278

> <Gold.Chemscore.Rot>
3.0284

> <Gold.Chemscore.Internal.Correction>
   9.000000E+99

> <Gold.Chemscore.Hbonds>
donor molecule, donor type, donor heavy atom, donor atom, acceptor molecule, acceptor atom, score
      P1  H  6896  6907       L1    13  0.54
      P1  H  7997  8009       L1    10  0.80
      P1  H 10752 10765       L1     8  0.16

> <Gold.Chemscore.Hbond.Weighted>
-7.5213

> <Gold.Chemscore.Metal.Weighted>
-0.0000

> <Gold.Chemscore.Lipo.Weighted>
-12.6134

> <Gold.Chemscore.Internal_Hbond.Weighted>
0.0000

> <Gold.Chemscore.DEClash.Weighted>
0.1498

> <Gold.Chemscore.DEInternal.Weighted>
2.4278

> <Gold.Chemscore.Rot.Weighted>
7.7528

> <Gold.Chemscore.Internal.Correction.Weighted>
   9.000000E+99

> <Gold.Protein.RotatedTorsions>
[ 6907 6896 6895 6894 ] final  -22.56 input  -60.11 | X-H torsion
[ 7974 7965 7964 7962 ] final  -54.17 input  175.53 | X-H torsion
[ 8008 7997 7996 7995 ] final -164.22 input   59.86 | X-H torsion
[ 10167 10162 10161 10158 ] final -106.23 input  -65.29 | X-H torsion
[ 10718 10713 10712 10709 ] final -119.04 input   66.30 | X-H torsion
[ 10763 10752 10751 10750 ] final  179.53 input  -60.55 | X-H torsion
[ 11005 11000 10999 10996 ] final -127.50 input  -57.11 | X-H torsion

> <Gold.Protein.ActiveResidues>
 VAL166  LYS551  ARG553  GLY616  TRP617  ASP618  TYR619  PRO620  LYS621  CYS622 
 ASP623  PHE694  ASN695  SER759  ASP760  ASP761  ALA762  ILE779  LEU786  VAL792 
 PHE793  MET794  SER795  GLU796  ALA797  LYS798  CYS799  TRP800  GLU811  SER814 

> <Gold.Protein.RotatedAtoms>
  151.2168  135.0503  159.8933 H   0  0  0  0  0  0  0  0  0  0  0  0  # atno 6907 bound_to 6896
  152.5419  134.0685  159.8193 H   0  0  0  0  0  0  0  0  0  0  0  0  # atno 6908 bound_to 6896
  151.0845  133.5316  159.2650 H   0  0  0  0  0  0  0  0  0  0  0  0  # atno 6909 bound_to 6896
  145.8886  140.8089  142.9803 H   0  0  0  0  0  0  0  0  0  0  0  0  # atno 7974 bound_to 7965
  155.8324  140.0936  157.1784 H   0  0  0  0  0  0  0  0  0  0  0  0  # atno 8008 bound_to 7997
  154.3980  140.1416  156.3691 H   0  0  0  0  0  0  0  0  0  0  0  0  # atno 8009 bound_to 7997
  155.8151  140.3448  155.5483 H   0  0  0  0  0  0  0  0  0  0  0  0  # atno 8010 bound_to 7997
  140.1900  143.3900  152.1214 H   0  0  0  0  0  0  0  0  0  0  0  0  # atno 10167 bound_to 10162
  156.1151  130.6279  150.9366 H   0  0  0  0  0  0  0  0  0  0  0  0  # atno 10718 bound_to 10713
  154.5219  135.2794  155.1255 H   0  0  0  0  0  0  0  0  0  0  0  0  # atno 10763 bound_to 10752
  154.2809  135.6285  153.5350 H   0  0  0  0  0  0  0  0  0  0  0  0  # atno 10764 bound_to 10752
  152.9938  135.5651  154.5710 H   0  0  0  0  0  0  0  0  0  0  0  0  # atno 10765 bound_to 10752
  140.9594  134.0957  157.3983 H   0  0  0  0  0  0  0  0  0  0  0  0  # atno 11005 bound_to 11000
  144.6729  140.1494  143.7431 LP  0  0  0  0  0  0  0  0  0  0  0  0  # atno 17320 bound_to 7965
  145.8936  139.2390  143.1535 LP  0  0  0  0  0  0  0  0  0  0  0  0  # atno 17321 bound_to 7965
  139.5260  144.7102  151.5228 LP  0  0  0  0  0  0  0  0  0  0  0  0  # atno 17342 bound_to 10162
  140.6462  143.8789  150.6740 LP  0  0  0  0  0  0  0  0  0  0  0  0  # atno 17343 bound_to 10162
  157.6334  131.0918  150.8397 LP  0  0  0  0  0  0  0  0  0  0  0  0  # atno 17370 bound_to 10713
  156.8502  130.5078  149.5312 LP  0  0  0  0  0  0  0  0  0  0  0  0  # atno 17371 bound_to 10713
  139.8873  135.0088  156.6552 LP  0  0  0  0  0  0  0  0  0  0  0  0  # atno 17394 bound_to 11000
  140.7489  133.8914  155.8332 LP  0  0  0  0  0  0  0  0  0  0  0  0  # atno 17395 bound_to 11000

$$$$
