#       Name:                AV-unprocessed.smi:522
#       Creating user name   scv26
#       Creation time:       Thu Mar 26 23:27:46 2020


#       File generated by GOLD software.
#

@<TRIPOS>MOLECULE
AV-unprocessed.smi:522
    47    48     1
SMALL
NO_CHARGES


@<TRIPOS>ATOM
      1 ****        -5.0755  -1.7113   0.4387 C.3            1 S1                 0.0000
      2 ****        -3.7061  -1.4891   0.1536 O.3            1 S1                 0.0000
      3 ****        -3.5134  -0.5765  -0.9149 C.3            1 S1                 0.0000
      4 ****        -2.0124  -0.3629  -1.1543 C.3            1 S1                 0.0000
      5 ****        -1.3360   0.1368   0.0337 N.pl3          1 S1                 0.0000
      6 ****        -0.6540  -0.5668   0.9710 C.2            1 S1                 0.0000
      7 ****        -0.4743  -2.3206   0.8823 S.3            1 S1                 0.0000
      8 ****         1.3441  -2.4050   0.9421 C.3            1 S1                 0.0000
      9 ****         2.0136  -1.8013  -0.3010 C.2            1 S1                 0.0000
     10 ****         1.3622  -1.7109  -1.3426 O.2            1 S1                 0.0000
     11 ****         3.4360  -1.3959  -0.1602 C.2            1 S1                 0.0000
     12 ****         4.2039  -1.8157   0.9699 C.1            1 S1                 0.0000
     13 ****         4.8167  -2.1704   1.8858 N.1            1 S1                 0.0000
     14 ****         4.0612  -0.6117  -1.0789 C.2            1 S1                 0.0000
     15 ****         3.4366  -0.0308  -2.3418 C.3            1 S1                 0.0000
     16 ****         5.3876  -0.2422  -0.9384 N.pl3          1 S1                 0.0000
     17 ****        -0.1229   0.1530   1.9602 N.2            1 S1                 0.0000
     18 ****        -0.4995   1.4415   1.6368 C.ar           1 S1                 0.0000
     19 ****        -0.2470   2.6656   2.2966 C.ar           1 S1                 0.0000
     20 ****        -0.7422   3.8760   1.7687 C.ar           1 S1                 0.0000
     21 ****        -1.4944   3.8800   0.5762 C.ar           1 S1                 0.0000
     22 ****        -1.7573   2.6715  -0.0969 C.ar           1 S1                 0.0000
     23 ****        -1.2610   1.4662   0.4347 C.ar           1 S1                 0.0000
     24 ****        -5.1680  -2.4221   1.2599 H              1 S1                 0.0000
     25 ****        -5.5962  -2.1253  -0.4257 H              1 S1                 0.0000
     26 ****        -5.5707  -0.7863   0.7371 H              1 S1                 0.0000
     27 ****        -3.9806  -0.9609  -1.8225 H              1 S1                 0.0000
     28 ****        -3.9908   0.3766  -0.6815 H              1 S1                 0.0000
     29 ****        -1.5427  -1.2898  -1.4824 H              1 S1                 0.0000
     30 ****        -1.8630   0.3530  -1.9630 H              1 S1                 0.0000
     31 ****         1.6947  -1.8955   1.8398 H              1 S1                 0.0000
     32 ****         1.6427  -3.4498   1.0269 H              1 S1                 0.0000
     33 ****         2.5530   0.5601  -2.0977 H              1 S1                 0.0000
     34 ****         3.1492  -0.8260  -3.0301 H              1 S1                 0.0000
     35 ****         4.1290   0.6240  -2.8729 H              1 S1                 0.0000
     36 ****         5.9419  -0.5408  -0.1483 H              1 S1                 0.0000
     37 ****         5.8568   0.3413  -1.6168 H              1 S1                 0.0000
     38 ****         0.3276   2.6729   3.2110 H              1 S1                 0.0000
     39 ****        -0.5442   4.8060   2.2814 H              1 S1                 0.0000
     40 ****        -1.8696   4.8116   0.1784 H              1 S1                 0.0000
     41 ****        -2.3339   2.6707  -1.0101 H              1 S1                 0.0000
     42 ****        -3.2839  -2.3621  -0.0905 LP             1 S1                 0.0000
     43 ****        -3.2639  -1.1223   0.9721 LP             1 S1                 0.0000
     44 ****         0.4141  -2.0280  -1.3685 LP             1 S1                 0.0000
     45 ****         1.7814  -1.3205  -2.1622 LP             1 S1                 0.0000
     46 ****         5.3460  -2.4768   2.6770 LP             1 S1                 0.0000
     47 ****         0.4147  -0.1623   2.7423 LP             1 S1                 0.0000
@<TRIPOS>BOND
    1    1    2 1     
    2    1   24 1     
    3    1   25 1     
    4    1   26 1     
    5    2    3 1     
    6    3    4 1     
    7    3   27 1     
    8    3   28 1     
    9    4    5 1     
   10    4   29 1     
   11    4   30 1     
   12    5   23 1     
   13    5    6 1     
   14    6    7 1     
   15    6   17 2     
   16    7    8 1     
   17    8    9 1     
   18    8   31 1     
   19    8   32 1     
   20    9   10 2     
   21    9   11 1     
   22   11   12 1     
   23   11   14 2     
   24   12   13 3     
   25   14   15 1     
   26   14   16 1     
   27   15   33 1     
   28   15   34 1     
   29   15   35 1     
   30   16   36 1     
   31   16   37 1     
   32   17   18 1     
   33   18   23 ar    
   34   18   19 ar    
   35   19   20 ar    
   36   19   38 1     
   37   20   21 ar    
   38   20   39 1     
   39   21   22 ar    
   40   21   40 1     
   41   22   23 ar    
   42   22   41 1     
   43    2   42 1     
   44    2   43 1     
   45   10   44 1     
   46   10   45 1     
   47   13   46 1     
   48   17   47 1     
@<TRIPOS>SUBSTRUCTURE
      1 S1             1
@<TRIPOS>SET
LONE_PAIRS      STATIC     ATOMS    <user>   **** ""
6 42 43 44 45 46 47
DONOR_HYDROGENS      STATIC     ATOMS    <user>   **** ""
2 36 37
ATOM$BLUE        STATIC     ATOMS    COLORGROUP SYSTEM
6 42 43 44 45 46 47
ATOM$RED        STATIC     ATOMS    COLORGROUP SYSTEM
2 36 37
