AV-unprocessed.smi:1586|AV-procd|sdf|6384|dock9
  -GOLD-   22720 7 23D 1   1.00000     0.00000
 Structure written by MMmdl.
 46 47  0  0  0  0  0  0  0  0  3 V2000
  152.5103  143.6320  162.1383 C   0  0  0  0  0  0  0  0  0  0  0  0
  151.9855  144.2310  160.8256 C   0  0  0  0  0  0  0  0  0  0  0  0
  152.8263  143.8671  159.6828 N   0  0  0  0  0  0  0  0  0  0  0  0
  153.3384  142.4916  159.7047 C   0  0  0  0  0  0  0  0  0  0  0  0
  152.2275  141.4469  159.4631 C   0  0  0  0  0  0  0  0  0  0  0  0
  151.5496  141.7166  158.1731 N   0  3  0  0  0  0  0  0  0  0  0  0
  150.6024  140.6478  157.7408 C   0  0  1  0  0  0  0  0  0  0  0  0
  149.9912  140.8977  156.3485 C   0  0  0  0  0  0  0  0  0  0  0  0
  151.2406  139.2447  157.8455 C   0  0  0  0  0  0  0  0  0  0  0  0
  150.2304  138.1919  157.9370 N   0  0  0  0  0  0  0  0  0  0  0  0
  150.1767  137.2163  158.8557 C   0  0  0  0  0  0  0  0  0  0  0  0
  151.0703  137.1138  159.6985 O   0  0  0  0  0  0  0  0  0  0  0  0
  149.0764  136.4383  158.7565 N   0  5  0  0  0  0  0  0  0  0  0  0
  148.3682  136.1303  159.8539 C   0  0  0  0  0  0  0  0  0  0  0  0
  147.8048  134.8596  160.1536 C   0  0  0  0  0  0  0  0  0  0  0  0
  147.2059  135.0621  161.3644 C   0  0  0  0  0  0  0  0  0  0  0  0
  146.4234  134.1739  162.2699 C   0  0  0  0  0  0  0  0  0  0  0  0
  147.3926  136.3454  161.7744 O   0  0  0  0  0  0  0  0  0  0  0  0
  148.1433  137.0208  160.8047 N   0  0  0  0  0  0  0  0  0  0  0  0
  151.0173  143.1021  158.1465 C   0  0  0  0  0  0  0  0  0  0  0  0
  152.1599  144.1075  158.3992 C   0  0  0  0  0  0  0  0  0  0  0  0
  151.9501  144.0263  162.9864 H   0  0  0  0  0  0  0  0  0  0  0  0
  153.5609  143.8792  162.2949 H   0  0  0  0  0  0  0  0  0  0  0  0
  152.4090  142.5473  162.1635 H   0  0  0  0  0  0  0  0  0  0  0  0
  150.9463  143.9439  160.6696 H   0  0  0  0  0  0  0  0  0  0  0  0
  151.9939  145.3171  160.9264 H   0  0  0  0  0  0  0  0  0  0  0  0
  154.0942  142.3972  158.9234 H   0  0  0  0  0  0  0  0  0  0  0  0
  153.8538  142.2881  160.6425 H   0  0  0  0  0  0  0  0  0  0  0  0
  152.6807  140.4554  159.4353 H   0  0  0  0  0  0  0  0  0  0  0  0
  151.5056  141.4377  160.2798 H   0  0  0  0  0  0  0  0  0  0  0  0
  149.7764  140.6507  158.4539 H   0  0  0  0  0  0  0  0  0  0  0  0
  149.2155  140.1628  156.1322 H   0  0  0  0  0  0  0  0  0  0  0  0
  150.7363  140.8193  155.5564 H   0  0  0  0  0  0  0  0  0  0  0  0
  149.5304  141.8835  156.2833 H   0  0  0  0  0  0  0  0  0  0  0  0
  151.8392  139.0487  156.9555 H   0  0  0  0  0  0  0  0  0  0  0  0
  151.9333  139.1913  158.6867 H   0  0  0  0  0  0  0  0  0  0  0  0
  149.4827  138.2220  157.2587 H   0  0  0  0  0  0  0  0  0  0  0  0
  147.8326  133.9496  159.5732 H   0  0  0  0  0  0  0  0  0  0  0  0
  146.6891  133.1284  162.1128 H   0  0  0  0  0  0  0  0  0  0  0  0
  145.3544  134.2830  162.0869 H   0  0  0  0  0  0  0  0  0  0  0  0
  146.6149  134.4167  163.3154 H   0  0  0  0  0  0  0  0  0  0  0  0
  150.5685  143.3078  157.1750 H   0  0  0  0  0  0  0  0  0  0  0  0
  150.2272  143.2277  158.8870 H   0  0  0  0  0  0  0  0  0  0  0  0
  151.7819  145.1298  158.3648 H   0  0  0  0  0  0  0  0  0  0  0  0
  152.8992  144.0278  157.6007 H   0  0  0  0  0  0  0  0  0  0  0  0
  152.2875  141.6968  157.4823 H   0  0  0  0  0  0  0  0  0  0  0  0
  1  2  1  0  0  0  0
  1 22  1  0  0  0  0
  1 23  1  0  0  0  0
  1 24  1  0  0  0  0
  2  3  1  0  0  0  0
  2 25  1  0  0  0  0
  2 26  1  0  0  0  0
  3 21  1  0  0  0  0
  3  4  1  0  0  0  0
  4  5  1  0  0  0  0
  4 27  1  0  0  0  0
  4 28  1  0  0  0  0
  5  6  1  0  0  0  0
  5 29  1  0  0  0  0
  5 30  1  0  0  0  0
  6  7  1  0  0  0  0
  6 20  1  0  0  0  0
  6 46  1  0  0  0  0
  7  8  1  0  0  0  0
  7  9  1  0  0  0  0
  7 31  1  0  0  0  0
  8 32  1  0  0  0  0
  8 33  1  0  0  0  0
  8 34  1  0  0  0  0
  9 10  1  0  0  0  0
  9 35  1  0  0  0  0
  9 36  1  0  0  0  0
 10 11  1  0  0  0  0
 10 37  1  0  0  0  0
 11 12  2  0  0  0  0
 11 13  1  0  0  0  0
 13 14  1  0  0  0  0
 14 19  2  0  0  0  0
 14 15  1  0  0  0  0
 15 16  2  0  0  0  0
 15 38  1  0  0  0  0
 16 17  1  0  0  0  0
 16 18  1  0  0  0  0
 17 39  1  0  0  0  0
 17 40  1  0  0  0  0
 17 41  1  0  0  0  0
 18 19  1  0  0  0  0
 20 21  1  0  0  0  0
 20 42  1  0  0  0  0
 20 43  1  0  0  0  0
 21 44  1  0  0  0  0
 21 45  1  0  0  0  0
M  CHG  1   6   1
M  CHG  1  13  -1
M  END
> <s_m_source_file>
AV-unprocessed.smi

> <i_m_source_file_index>
1586

> <i_lp_mmshare_version>
43012

> <i_f3d_flags>
0

> <s_epik_input>
W0NIM11bQ0gyXU4xW0NIMl1bQ0gyXU4oW0NIMl1bQ0gyXTEpW0NASF0oW0NIM10pW0NIMl1bTkhdQyg9TylbTkhdYzJbY0hdYyhbQ0gzXSlvbjI=

> <s_epik_cmdline>
J2VwaWtfcHl0aG9uJywgJy1waCcsICc3LjAnLCAnLXRuJywgJzgnLCAnLW1hJywgJzIwMCcsICctbWV0YWxfYmluZGluZycsICctaW1hZScsICc8aW5maWxlLm1hZT4nLCAnLW9tYWUnLCAnPG91dGZpbGUubWFlPic=

> <r_epik_Ionization_Penalty>
6.35599

> <r_epik_Ionization_Penalty_Charging>
6.35441

> <r_epik_Ionization_Penalty_Neutral>
0.00158318

> <r_epik_State_Penalty>
7.1902

> <r_epik_Charging_Adjusted_Penalty>
13.5446

> <i_epik_Tot_Q>
0

> <i_epik_Tot_abs_Q>
2

> <r_epik_Metal_State_Penalty>
3.12491

> <b_epik_Metal_Only>
1

> <s_lp_Force_Field>
OPLS_2005

> <r_lp_Energy>
11.5798

> <b_lp_Chiralities_Consistent>
1

> <s_lp_Variant>
AV-unprocessed.smi:1586-12

> <Gold.Version>
5.8.1

> <Gold.Id.Protein>
6NUR|6NUR_protein|mol2

> <Gold.PLP.Fitness>
47.7971

> <Gold.PLP.PLP>
-42.9257

> <Gold.PLP.part.hbond>
-2.9897

> <Gold.PLP.part.metal>
0.0000

> <Gold.PLP.part.buried>
-7.5663

> <Gold.PLP.part.nonpolar>
-33.6198

> <Gold.PLP.part.repulsive>
0.1566

> <Gold.PLP.ligand.clash>
0.0000

> <Gold.PLP.ligand.torsion>
1.1113

> <Gold.PLP.Chemscore.Hbond>
2.3016

> <Gold.PLP.Chemscore.CHOScore>
0.0000

> <Gold.PLP.Chemscore.Metal>
0.0000

> <Gold.Chemscore.Hbonds>
donor molecule, donor type, donor heavy atom, donor atom, acceptor molecule, acceptor atom, score
      P1  H  6896  6908       L1    12  1.00
      P1  H  6931  6943       L1    19  0.94
      P1  H  6934  6947       L1    19  0.39

> <Gold.PLP.Chemscore.Internal.Correction>
0.1891

> <Gold.Rescore>
     Score         DG    S(hbond)    S(metal)    S(lipo)     H(rot)  DE(clash)    DE(int)     intcor
     19.19     -20.41       2.25        0.00     101.16       1.73       0.01       1.21       ----

> <Gold.Chemscore.Fitness>
19.1852

> <Gold.Chemscore.DG>
-20.4112

> <Gold.Chemscore.ZeroCoef>
-5.4800

> <Gold.Chemscore.Hbond>
2.2489

> <Gold.Chemscore.Metal>
0.0000

> <Gold.Chemscore.Lipo>
101.1617

> <Gold.Chemscore.Internal_Hbond>
0.0000

> <Gold.Chemscore.DEClash>
0.0126

> <Gold.Chemscore.DEInternal>
1.2134

> <Gold.Chemscore.Rot>
1.7250

> <Gold.Chemscore.Internal.Correction>
   9.000000E+99

> <Gold.Chemscore.Hbonds>
donor molecule, donor type, donor heavy atom, donor atom, acceptor molecule, acceptor atom, score
      P1  H  6896  6908       L1    12  0.63
      P1  H  6931  6943       L1    19  0.23
      P1  H  6934  6947       L1    19  0.10

> <Gold.Chemscore.Hbond.Weighted>
-7.5114

> <Gold.Chemscore.Metal.Weighted>
-0.0000

> <Gold.Chemscore.Lipo.Weighted>
-11.8359

> <Gold.Chemscore.Internal_Hbond.Weighted>
0.0000

> <Gold.Chemscore.DEClash.Weighted>
0.0126

> <Gold.Chemscore.DEInternal.Weighted>
1.2134

> <Gold.Chemscore.Rot.Weighted>
4.4161

> <Gold.Chemscore.Internal.Correction.Weighted>
   9.000000E+99

> <Gold.Protein.RotatedTorsions>
[ 6907 6896 6895 6894 ] final -128.24 input  -60.11 | X-H torsion
[ 7974 7965 7964 7962 ] final  -31.23 input  175.53 | X-H torsion
[ 8008 7997 7996 7995 ] final  -21.44 input   59.86 | X-H torsion
[ 10167 10162 10161 10158 ] final -143.46 input  -65.29 | X-H torsion
[ 10718 10713 10712 10709 ] final  -44.06 input   66.30 | X-H torsion
[ 10763 10752 10751 10750 ] final   83.05 input  -60.55 | X-H torsion
[ 11005 11000 10999 10996 ] final -155.62 input  -57.11 | X-H torsion

> <Gold.Protein.ActiveResidues>
 VAL166  LYS551  ARG553  GLY616  TRP617  ASP618  TYR619  PRO620  LYS621  CYS622 
 ASP623  PHE694  ASN695  SER759  ASP760  ASP761  ALA762  ILE779  LEU786  VAL792 
 PHE793  MET794  SER795  GLU796  ALA797  LYS798  CYS799  TRP800  GLU811  SER814 

> <Gold.Protein.RotatedAtoms>
  150.9158  133.6941  159.2843 H   0  0  0  0  0  0  0  0  0  0  0  0  # atno 6907 bound_to 6896
  151.4413  135.1019  159.9680 H   0  0  0  0  0  0  0  0  0  0  0  0  # atno 6908 bound_to 6896
  152.4954  133.8565  159.7283 H   0  0  0  0  0  0  0  0  0  0  0  0  # atno 6909 bound_to 6896
  146.1083  140.5641  142.8789 H   0  0  0  0  0  0  0  0  0  0  0  0  # atno 7974 bound_to 7965
  154.4706  140.2035  156.0005 H   0  0  0  0  0  0  0  0  0  0  0  0  # atno 8008 bound_to 7997
  156.1003  140.3245  155.7904 H   0  0  0  0  0  0  0  0  0  0  0  0  # atno 8009 bound_to 7997
  155.4808  140.0538  157.2958 H   0  0  0  0  0  0  0  0  0  0  0  0  # atno 8010 bound_to 7997
  139.7992  143.7858  152.2657 H   0  0  0  0  0  0  0  0  0  0  0  0  # atno 10167 bound_to 10162
  156.2425  130.4181  149.8744 H   0  0  0  0  0  0  0  0  0  0  0  0  # atno 10718 bound_to 10713
  153.1256  135.4705  154.9267 H   0  0  0  0  0  0  0  0  0  0  0  0  # atno 10763 bound_to 10752
  154.7617  135.3133  154.8367 H   0  0  0  0  0  0  0  0  0  0  0  0  # atno 10764 bound_to 10752
  153.8921  135.6883  153.4814 H   0  0  0  0  0  0  0  0  0  0  0  0  # atno 10765 bound_to 10752
  140.6845  134.4108  157.5224 H   0  0  0  0  0  0  0  0  0  0  0  0  # atno 11005 bound_to 11000
  144.7489  140.5141  143.6815 LP  0  0  0  0  0  0  0  0  0  0  0  0  # atno 17320 bound_to 7965
  145.5716  139.1484  143.3285 LP  0  0  0  0  0  0  0  0  0  0  0  0  # atno 17321 bound_to 7965
  139.7972  144.7388  150.9873 LP  0  0  0  0  0  0  0  0  0  0  0  0  # atno 17342 bound_to 10162
  140.7820  143.4381  151.0593 LP  0  0  0  0  0  0  0  0  0  0  0  0  # atno 17343 bound_to 10162
  156.6321  130.8670  151.3497 LP  0  0  0  0  0  0  0  0  0  0  0  0  # atno 17370 bound_to 10713
  157.7181  130.9523  150.1332 LP  0  0  0  0  0  0  0  0  0  0  0  0  # atno 17371 bound_to 10713
  139.8942  134.8713  156.2190 LP  0  0  0  0  0  0  0  0  0  0  0  0  # atno 17394 bound_to 11000
  141.0291  133.6999  156.1398 LP  0  0  0  0  0  0  0  0  0  0  0  0  # atno 17395 bound_to 11000

$$$$
