#       Name:                AV-unprocessed.smi:2095
#       Creating user name   scv26
#       Creation time:       Fri Mar 27 11:28:14 2020


#       File generated by GOLD software.
#

@<TRIPOS>MOLECULE
AV-unprocessed.smi:2095
    47    48     1
SMALL
NO_CHARGES


@<TRIPOS>ATOM
      1 ****         0.0032  -0.9294  -4.7023 C.3            1 S1                 0.0000
      2 ****        -0.7429  -1.1196  -3.3741 C.3            1 S1                 0.0000
      3 ****        -0.9594  -2.6102  -3.0595 C.3            1 S1                 0.0000
      4 ****        -1.6830  -2.7742  -1.7163 C.3            1 S1                 0.0000
      5 ****        -0.9320  -2.0436  -0.5915 C.3            1 S1                 0.0000
      6 ****        -0.7453  -0.6075  -0.9283 N.4            1 S1                 1.0000
      7 ****        -0.2485   0.2108   0.2161 C.3            1 S1                 0.0000
      8 ****        -0.6372   1.6913   0.0381 C.3            1 S1                 0.0000
      9 ****         1.2651   0.0205   0.4946 C.3            1 S1                 0.0000
     10 ****         1.6991   0.7536   1.6780 N.am           1 S1                 0.0000
     11 ****         1.4833   0.3648   2.9438 C.2            1 S1                 0.0000
     12 ****         0.9449  -0.7006   3.2435 O.2            1 S1                 0.0000
     13 ****         1.9135   1.3412   4.0377 C.3            1 S1                 0.0000
     14 ****         0.9324   2.3991   4.1863 N.pl3          1 S1                 0.0000
     15 ****        -0.1787   2.4666   4.9223 C.2            1 S1                 0.0000
     16 ****        -0.8143   3.6143   4.7426 N.2            1 S1                 0.0000
     17 ****        -0.0138   4.2785   3.8283 N.2            1 S1                 0.0000
     18 ****         1.0241   3.5622   3.4937 N.2            1 S1                 0.0000
     19 ****        -0.0044  -0.4329  -2.2079 C.3            1 S1                 0.0000
     20 ****         0.9944  -1.3828  -4.6694 H              1 S1                 0.0000
     21 ****         0.1289   0.1285  -4.9350 H              1 S1                 0.0000
     22 ****        -0.5436  -1.3848  -5.5285 H              1 S1                 0.0000
     23 ****        -1.7221  -0.6493  -3.4777 H              1 S1                 0.0000
     24 ****        -1.5383  -3.0844  -3.8530 H              1 S1                 0.0000
     25 ****         0.0008  -3.1268  -3.0235 H              1 S1                 0.0000
     26 ****        -2.6970  -2.3799  -1.7963 H              1 S1                 0.0000
     27 ****        -1.7814  -3.8326  -1.4728 H              1 S1                 0.0000
     28 ****        -1.4993  -2.1402   0.3349 H              1 S1                 0.0000
     29 ****         0.0362  -2.5162  -0.4216 H              1 S1                 0.0000
     30 ****        -0.7960  -0.1293   1.0963 H              1 S1                 0.0000
     31 ****        -0.4573   2.2601   0.9510 H              1 S1                 0.0000
     32 ****        -1.6966   1.7938  -0.1984 H              1 S1                 0.0000
     33 ****        -0.0686   2.1698  -0.7590 H              1 S1                 0.0000
     34 ****         1.5163  -1.0343   0.6114 H              1 S1                 0.0000
     35 ****         1.8582   0.3891  -0.3424 H              1 S1                 0.0000
     36 ****         2.1509   1.6441   1.5252 H              1 S1                 0.0000
     37 ****         2.0148   0.8178   4.9894 H              1 S1                 0.0000
     38 ****         2.8858   1.7763   3.8007 H              1 S1                 0.0000
     39 ****        -0.5230   1.6784   5.5756 H              1 S1                 0.0000
     40 ****         0.9997  -0.8491  -2.1157 H              1 S1                 0.0000
     41 ****         0.1095   0.6273  -2.4322 H              1 S1                 0.0000
     42 ****        -1.6775  -0.2611  -1.1048 H              1 S1                 0.0000
     43 ****         0.6430  -1.3276   2.5253 LP             1 S1                 0.0000
     44 ****         0.8093  -0.9393   4.2050 LP             1 S1                 0.0000
     45 ****        -1.6656   3.9258   5.1648 LP             1 S1                 0.0000
     46 ****        -0.2070   5.1918   3.4697 LP             1 S1                 0.0000
     47 ****         1.7464   3.8202   2.8521 LP             1 S1                 0.0000
@<TRIPOS>BOND
    1    1    2 1     
    2    1   20 1     
    3    1   21 1     
    4    1   22 1     
    5    2   19 1     
    6    2    3 1     
    7    2   23 1     
    8    3    4 1     
    9    3   24 1     
   10    3   25 1     
   11    4    5 1     
   12    4   26 1     
   13    4   27 1     
   14    5    6 1     
   15    5   28 1     
   16    5   29 1     
   17    6    7 1     
   18    6   19 1     
   19    6   42 1     
   20    7    8 1     
   21    7    9 1     
   22    7   30 1     
   23    8   31 1     
   24    8   32 1     
   25    8   33 1     
   26    9   10 1     
   27    9   34 1     
   28    9   35 1     
   29   10   11 am    
   30   10   36 1     
   31   11   12 2     
   32   11   13 1     
   33   13   14 1     
   34   13   37 1     
   35   13   38 1     
   36   14   18 1     
   37   14   15 1     
   38   15   16 2     
   39   15   39 1     
   40   16   17 1     
   41   17   18 2     
   42   19   40 1     
   43   19   41 1     
   44   12   43 1     
   45   12   44 1     
   46   16   45 1     
   47   17   46 1     
   48   18   47 1     
@<TRIPOS>SUBSTRUCTURE
      1 S1             1
@<TRIPOS>SET
LONE_PAIRS      STATIC     ATOMS    <user>   **** ""
5 43 44 45 46 47
DONOR_HYDROGENS      STATIC     ATOMS    <user>   **** ""
2 42 36
ATOM$BLUE        STATIC     ATOMS    COLORGROUP SYSTEM
5 43 44 45 46 47
ATOM$RED        STATIC     ATOMS    COLORGROUP SYSTEM
2 42 36
