#       Name:                AV-unprocessed.smi:3115
#       Creating user name   scv26
#       Creation time:       Fri Mar 27 17:24:13 2020


#       File generated by GOLD software.
#

@<TRIPOS>MOLECULE
AV-unprocessed.smi:3115
    37    38     1
SMALL
NO_CHARGES


@<TRIPOS>ATOM
      1 ****        -3.6383  -1.2383  -2.5025 C.3            1 S1                 0.0000
      2 ****        -3.0130  -0.5478  -1.2861 C.3            1 S1                 0.0000
      3 ****        -1.4747  -0.5069  -1.3699 C.3            1 S1                 0.0000
      4 ****        -0.9299   0.2360  -0.2399 N.3            1 S1                 0.0000
      5 ****         0.4708   0.2173  -0.1819 C.ar           1 S1                 0.0000
      6 ****         1.1016  -0.4143   0.9110 C.ar           1 S1                 0.0000
      7 ****         2.5105  -0.4366   0.9608 C.ar           1 S1                 0.0000
      8 ****         3.2337  -1.0982   2.1152 C.3            1 S1                 0.0000
      9 ****         3.5259  -0.1191   3.1742 N.4            1 S1                 1.0000
     10 ****         3.2340   0.1773  -0.0814 C.ar           1 S1                 0.0000
     11 ****         2.5145   0.7850  -1.1287 C.ar           1 S1                 0.0000
     12 ****         1.1660   0.8084  -1.1831 N.ar           1 S1                 0.0000
     13 ****        -1.4977   1.5738  -0.1301 C.3            1 S1                 0.0000
     14 ****        -3.0327   1.4906  -0.0795 C.3            1 S1                 0.0000
     15 ****        -3.5107   0.7870  -1.2227 O.3            1 S1                 0.0000
     16 ****        -3.2947  -2.2694  -2.5881 H              1 S1                 0.0000
     17 ****        -3.3788  -0.7208  -3.4263 H              1 S1                 0.0000
     18 ****        -4.7256  -1.2559  -2.4243 H              1 S1                 0.0000
     19 ****        -3.3180  -1.0855  -0.3864 H              1 S1                 0.0000
     20 ****        -1.0712  -1.5203  -1.3709 H              1 S1                 0.0000
     21 ****        -1.1661  -0.0353  -2.3043 H              1 S1                 0.0000
     22 ****         0.5135  -0.8744   1.6920 H              1 S1                 0.0000
     23 ****         2.6258  -1.9050   2.5260 H              1 S1                 0.0000
     24 ****         4.1664  -1.5418   1.7649 H              1 S1                 0.0000
     25 ****         4.0097  -0.5757   3.9340 H              1 S1                 0.0000
     26 ****         2.6604   0.2763   3.5129 H              1 S1                 0.0000
     27 ****         4.3142   0.1851  -0.0828 H              1 S1                 0.0000
     28 ****         3.0358   1.2655  -1.9435 H              1 S1                 0.0000
     29 ****        -1.1190   2.0640   0.7676 H              1 S1                 0.0000
     30 ****        -1.1887   2.1780  -0.9843 H              1 S1                 0.0000
     31 ****        -3.3669   0.9933   0.8324 H              1 S1                 0.0000
     32 ****        -3.4632   2.4920  -0.0728 H              1 S1                 0.0000
     33 ****         4.1060   0.6170   2.7979 H              1 S1                 0.0000
     34 ****        -1.2235  -0.2559   0.5798 LP             1 S1                 0.0000
     35 ****         0.6917   1.2513  -1.9439 LP             1 S1                 0.0000
     36 ****        -4.5095   0.7560  -1.1864 LP             1 S1                 0.0000
     37 ****        -3.2221   1.2769  -2.0453 LP             1 S1                 0.0000
@<TRIPOS>BOND
    1    1    2 1     
    2    1   16 1     
    3    1   17 1     
    4    1   18 1     
    5    2   15 1     
    6    2    3 1     
    7    2   19 1     
    8    3    4 1     
    9    3   20 1     
   10    3   21 1     
   11    4    5 1     
   12    4   13 1     
   13    5   12 ar    
   14    5    6 ar    
   15    6    7 ar    
   16    6   22 1     
   17    7    8 1     
   18    7   10 ar    
   19    8    9 1     
   20    8   23 1     
   21    8   24 1     
   22    9   25 1     
   23    9   26 1     
   24    9   33 1     
   25   10   11 ar    
   26   10   27 1     
   27   11   12 ar    
   28   11   28 1     
   29   13   14 1     
   30   13   29 1     
   31   13   30 1     
   32   14   15 1     
   33   14   31 1     
   34   14   32 1     
   35    4   34 1     
   36   12   35 1     
   37   15   36 1     
   38   15   37 1     
@<TRIPOS>SUBSTRUCTURE
      1 S1             1
@<TRIPOS>SET
LONE_PAIRS      STATIC     ATOMS    <user>   **** ""
4 34 35 36 37
DONOR_HYDROGENS      STATIC     ATOMS    <user>   **** ""
3 25 26 33
ATOM$BLUE        STATIC     ATOMS    COLORGROUP SYSTEM
4 34 35 36 37
ATOM$RED        STATIC     ATOMS    COLORGROUP SYSTEM
3 25 26 33
