#       Name:                AV-unprocessed.smi:1673
#       Creating user name   scv26
#       Creation time:       Fri Mar 27 07:45:28 2020


#       File generated by GOLD software.
#

@<TRIPOS>MOLECULE
AV-unprocessed.smi:1673
    44    45     1
SMALL
NO_CHARGES


@<TRIPOS>ATOM
      1 ****        -3.4747  -2.1501  -0.3719 C.3            1 S1                 0.0000
      2 ****        -3.8513  -0.7930   0.1546 C.2            1 S1                 0.0000
      3 ****        -5.1219  -0.5422   0.4347 N.2            1 S1                 0.0000
      4 ****        -5.1700   0.7564   0.9650 O.3            1 S1                 0.0000
      5 ****        -3.9111   1.2667   0.9923 C.2            1 S1                 0.0000
      6 ****        -3.7486   2.6428   1.5432 C.3            1 S1                 0.0000
      7 ****        -3.0525   0.3457   0.4693 C.2            1 S1                 0.0000
      8 ****        -1.6501   0.5208   0.3650 N.am           1 S1                 0.0000
      9 ****        -0.8501   0.0557  -0.6061 C.2            1 S1                 0.0000
     10 ****        -1.2363  -0.5520  -1.6041 O.2            1 S1                 0.0000
     11 ****         0.4340   0.3517  -0.3603 N.am           1 S1                 0.0000
     12 ****         1.5783  -0.0060  -1.2013 C.3            1 S1                 0.0000
     13 ****         2.4930   1.2217  -1.3856 C.3            1 S1                 0.0000
     14 ****         3.2273   1.6009  -0.0877 C.3            1 S1                 0.0000
     15 ****         4.0103   0.4067   0.4779 C.3            1 S1                 0.0000
     16 ****         3.0999  -0.8147   0.6836 C.3            1 S1                 0.0000
     17 ****         2.3713  -1.2049  -0.6191 C.3            1 S1                 0.0000
     18 ****         1.5124  -2.4674  -0.4301 C.3            1 S1                 0.0000
     19 ****        -2.4829  -2.4463  -0.0302 H              1 S1                 0.0000
     20 ****        -3.4726  -2.1598  -1.4617 H              1 S1                 0.0000
     21 ****        -4.1740  -2.9163  -0.0364 H              1 S1                 0.0000
     22 ****        -2.6951   2.9069   1.6362 H              1 S1                 0.0000
     23 ****        -4.2044   2.7201   2.5303 H              1 S1                 0.0000
     24 ****        -4.2240   3.3761   0.8920 H              1 S1                 0.0000
     25 ****        -1.2247   1.1167   1.0600 H              1 S1                 0.0000
     26 ****         0.6446   0.8588   0.4867 H              1 S1                 0.0000
     27 ****         1.2181  -0.2878  -2.1924 H              1 S1                 0.0000
     28 ****         3.2304   1.0042  -2.1594 H              1 S1                 0.0000
     29 ****         1.9151   2.0718  -1.7504 H              1 S1                 0.0000
     30 ****         3.9061   2.4331  -0.2761 H              1 S1                 0.0000
     31 ****         2.5100   1.9531   0.6546 H              1 S1                 0.0000
     32 ****         4.8206   0.1461  -0.2039 H              1 S1                 0.0000
     33 ****         4.4793   0.6842   1.4222 H              1 S1                 0.0000
     34 ****         3.6966  -1.6542   1.0418 H              1 S1                 0.0000
     35 ****         2.3727  -0.6006   1.4678 H              1 S1                 0.0000
     36 ****         3.1390  -1.4611  -1.3508 H              1 S1                 0.0000
     37 ****         0.7564  -2.3309   0.3434 H              1 S1                 0.0000
     38 ****         2.1286  -3.3182  -0.1385 H              1 S1                 0.0000
     39 ****         0.9996  -2.7347  -1.3544 H              1 S1                 0.0000
     40 ****        -5.8966  -1.1589   0.2952 LP             1 S1                 0.0000
     41 ****        -5.5404   0.7265   1.8934 LP             1 S1                 0.0000
     42 ****        -5.7533   1.3319   0.3917 LP             1 S1                 0.0000
     43 ****        -2.2115  -0.7307  -1.7345 LP             1 S1                 0.0000
     44 ****        -0.5749  -0.8672  -2.2847 LP             1 S1                 0.0000
@<TRIPOS>BOND
    1    1    2 1     
    2    1   19 1     
    3    1   20 1     
    4    1   21 1     
    5    2    7 1     
    6    2    3 2     
    7    3    4 1     
    8    4    5 1     
    9    5    6 1     
   10    5    7 2     
   11    6   22 1     
   12    6   23 1     
   13    6   24 1     
   14    7    8 1     
   15    8    9 am    
   16    8   25 1     
   17    9   10 2     
   18    9   11 am    
   19   11   12 1     
   20   11   26 1     
   21   12   17 1     
   22   12   13 1     
   23   12   27 1     
   24   13   14 1     
   25   13   28 1     
   26   13   29 1     
   27   14   15 1     
   28   14   30 1     
   29   14   31 1     
   30   15   16 1     
   31   15   32 1     
   32   15   33 1     
   33   16   17 1     
   34   16   34 1     
   35   16   35 1     
   36   17   18 1     
   37   17   36 1     
   38   18   37 1     
   39   18   38 1     
   40   18   39 1     
   41    3   40 1     
   42    4   41 1     
   43    4   42 1     
   44   10   43 1     
   45   10   44 1     
@<TRIPOS>SUBSTRUCTURE
      1 S1             1
@<TRIPOS>SET
LONE_PAIRS      STATIC     ATOMS    <user>   **** ""
5 40 41 42 43 44
DONOR_HYDROGENS      STATIC     ATOMS    <user>   **** ""
2 25 26
ATOM$BLUE        STATIC     ATOMS    COLORGROUP SYSTEM
5 40 41 42 43 44
ATOM$RED        STATIC     ATOMS    COLORGROUP SYSTEM
2 25 26
