#       Name:                AV-unprocessed.smi:2380
#       Creating user name   scv26
#       Creation time:       Fri Mar 27 13:08:44 2020


#       File generated by GOLD software.
#

@<TRIPOS>MOLECULE
AV-unprocessed.smi:2380
    45    46     1
SMALL
NO_CHARGES


@<TRIPOS>ATOM
      1 ****        -5.2944   2.7423   0.0049 C.3            1 S1                 0.0000
      2 ****        -4.5472   1.4268   0.0673 C.ar           1 S1                 0.0000
      3 ****        -5.2098   0.2390   0.4304 C.ar           1 S1                 0.0000
      4 ****        -4.4612  -0.9535   0.4734 C.ar           1 S1                 0.0000
      5 ****        -5.1095  -2.2672   0.8559 C.3            1 S1                 0.0000
      6 ****        -3.1430  -1.0066   0.1861 N.ar           1 S1                 0.0000
      7 ****        -2.4942   0.1314  -0.1637 C.ar           1 S1                 0.0000
      8 ****        -1.1109   0.1829  -0.4811 N.am           1 S1                 0.0000
      9 ****        -0.2293  -0.8318  -0.5173 C.2            1 S1                 0.0000
     10 ****        -0.4917  -2.0137  -0.2936 O.2            1 S1                 0.0000
     11 ****         0.9996  -0.3966  -0.8328 N.am           1 S1                 0.0000
     12 ****         2.1857  -1.2415  -0.9718 C.3            1 S1                 0.0000
     13 ****         2.7512  -1.6732   0.3970 C.3            1 S1                 0.0000
     14 ****         3.3975  -0.4974   1.1502 C.3            1 S1                 0.0000
     15 ****         4.4478   0.1499   0.3256 N.4            1 S1                 1.0000
     16 ****         5.1747   1.2034   1.0659 C.3            1 S1                 0.0000
     17 ****         3.9168   0.6360  -0.9721 C.3            1 S1                 0.0000
     18 ****         3.2755  -0.5102  -1.7760 C.3            1 S1                 0.0000
     19 ****        -3.1709   1.3699  -0.2317 C.ar           1 S1                 0.0000
     20 ****        -6.3642   2.5791  -0.1279 H              1 S1                 0.0000
     21 ****        -4.9386   3.3478  -0.8290 H              1 S1                 0.0000
     22 ****        -5.1441   3.3036   0.9271 H              1 S1                 0.0000
     23 ****        -6.2632   0.2423   0.6701 H              1 S1                 0.0000
     24 ****        -6.1918  -2.1645   0.9390 H              1 S1                 0.0000
     25 ****        -4.7244  -2.6123   1.8157 H              1 S1                 0.0000
     26 ****        -4.8980  -3.0298   0.1058 H              1 S1                 0.0000
     27 ****        -0.7520   1.0998  -0.7017 H              1 S1                 0.0000
     28 ****         1.1201   0.5906  -1.0061 H              1 S1                 0.0000
     29 ****         1.8952  -2.1335  -1.5300 H              1 S1                 0.0000
     30 ****         1.9737  -2.1287   1.0112 H              1 S1                 0.0000
     31 ****         3.5017  -2.4495   0.2423 H              1 S1                 0.0000
     32 ****         2.6402   0.2384   1.4261 H              1 S1                 0.0000
     33 ****         3.8367  -0.8615   2.0799 H              1 S1                 0.0000
     34 ****         4.5067   2.0207   1.3405 H              1 S1                 0.0000
     35 ****         5.9842   1.6113   0.4599 H              1 S1                 0.0000
     36 ****         5.6150   0.7998   1.9783 H              1 S1                 0.0000
     37 ****         3.1886   1.4291  -0.7952 H              1 S1                 0.0000
     38 ****         4.7271   1.0765  -1.5542 H              1 S1                 0.0000
     39 ****         4.0512  -1.2241  -2.0565 H              1 S1                 0.0000
     40 ****         2.8644  -0.1286  -2.7116 H              1 S1                 0.0000
     41 ****        -2.6419   2.2699  -0.5107 H              1 S1                 0.0000
     42 ****         5.1257  -0.5669   0.1088 H              1 S1                 0.0000
     43 ****        -2.6505  -1.8758   0.2309 LP             1 S1                 0.0000
     44 ****        -1.4265  -2.2832  -0.0621 LP             1 S1                 0.0000
     45 ****         0.2300  -2.7042  -0.3433 LP             1 S1                 0.0000
@<TRIPOS>BOND
    1    1    2 1     
    2    1   20 1     
    3    1   21 1     
    4    1   22 1     
    5    2   19 ar    
    6    2    3 ar    
    7    3    4 ar    
    8    3   23 1     
    9    4    5 1     
   10    4    6 ar    
   11    5   24 1     
   12    5   25 1     
   13    5   26 1     
   14    6    7 ar    
   15    7    8 1     
   16    7   19 ar    
   17    8    9 am    
   18    8   27 1     
   19    9   10 2     
   20    9   11 am    
   21   11   12 1     
   22   11   28 1     
   23   12   18 1     
   24   12   13 1     
   25   12   29 1     
   26   13   14 1     
   27   13   30 1     
   28   13   31 1     
   29   14   15 1     
   30   14   32 1     
   31   14   33 1     
   32   15   16 1     
   33   15   17 1     
   34   15   42 1     
   35   16   34 1     
   36   16   35 1     
   37   16   36 1     
   38   17   18 1     
   39   17   37 1     
   40   17   38 1     
   41   18   39 1     
   42   18   40 1     
   43   19   41 1     
   44    6   43 1     
   45   10   44 1     
   46   10   45 1     
@<TRIPOS>SUBSTRUCTURE
      1 S1             1
@<TRIPOS>SET
LONE_PAIRS      STATIC     ATOMS    <user>   **** ""
3 43 44 45
DONOR_HYDROGENS      STATIC     ATOMS    <user>   **** ""
3 27 28 42
ATOM$BLUE        STATIC     ATOMS    COLORGROUP SYSTEM
3 43 44 45
ATOM$RED        STATIC     ATOMS    COLORGROUP SYSTEM
3 27 28 42
