AV-unprocessed.smi:1047|AV-procd|sdf|4574|dock7
  -GOLD-   22720 3 33D 1   1.00000     0.00000
 Structure written by MMmdl.
 56 58  0  0  0  0  0  0  0  0  2 V2000
  143.6040  133.4521  151.3240 C   0  0  0  0  0  0  0  0  0  0  0  0
  144.0809  134.1689  152.5948 C   0  0  0  0  0  0  0  0  0  0  0  0
  144.8618  133.2757  153.4912 N   0  3  1  0  0  0  0  0  0  0  0  0
  145.7474  132.3114  152.7901 C   0  0  0  0  0  0  0  0  0  0  0  0
  147.0360  132.9907  152.2896 C   0  0  0  0  0  0  0  0  0  0  0  0
  147.6897  133.6352  153.3759 O   0  0  0  0  0  0  0  0  0  0  0  0
  146.8921  134.6573  153.9663 C   0  0  2  0  0  0  0  0  0  0  0  0
  147.7278  135.3361  155.0614 C   0  0  0  0  0  0  0  0  0  0  0  0
  148.7128  136.2410  154.4787 N   0  0  0  0  0  0  0  0  0  0  0  0
  149.8791  136.4582  155.3295 C   0  0  0  0  0  0  0  0  0  0  0  0
  150.7198  137.6477  154.8255 C   0  0  2  0  0  0  0  0  0  0  0  0
  151.6448  137.1729  153.8686 O   0  0  0  0  0  0  0  0  0  0  0  0
  151.5332  138.3433  155.9344 C   0  0  0  0  0  0  0  0  0  0  0  0
  151.1325  139.7220  156.1480 N   0  0  0  0  0  0  0  0  0  0  0  0
  150.2858  140.4451  155.3901 C   0  0  0  0  0  0  0  0  0  0  0  0
  150.0587  141.7019  155.7604 N   0  0  0  0  0  0  0  0  0  0  0  0
  150.8559  141.8088  156.8871 C   0  0  0  0  0  0  0  0  0  0  0  0
  151.0732  142.9009  157.7554 C   0  0  0  0  0  0  0  0  0  0  0  0
  151.9452  142.7853  158.8614 C   0  0  0  0  0  0  0  0  0  0  0  0
  152.1545  143.9871  159.7660 C   0  0  0  0  0  0  0  0  0  0  0  0
  152.6131  141.5603  159.1144 C   0  0  0  0  0  0  0  0  0  0  0  0
  153.5521  141.4115  160.2983 C   0  0  0  0  0  0  0  0  0  0  0  0
  152.4074  140.4592  158.2573 C   0  0  0  0  0  0  0  0  0  0  0  0
  151.5405  140.5877  157.1574 C   0  0  0  0  0  0  0  0  0  0  0  0
  145.6175  134.0036  154.5408 C   0  0  0  0  0  0  0  0  0  0  0  0
  142.9471  134.1000  150.7434 H   0  0  0  0  0  0  0  0  0  0  0  0
  143.0438  132.5487  151.5674 H   0  0  0  0  0  0  0  0  0  0  0  0
  144.4332  133.1711  150.6755 H   0  0  0  0  0  0  0  0  0  0  0  0
  144.6527  135.0600  152.3362 H   0  0  0  0  0  0  0  0  0  0  0  0
  143.1952  134.5180  153.1271 H   0  0  0  0  0  0  0  0  0  0  0  0
  146.0128  131.5229  153.4955 H   0  0  0  0  0  0  0  0  0  0  0  0
  145.2282  131.8188  151.9691 H   0  0  0  0  0  0  0  0  0  0  0  0
  147.7105  132.2453  151.8683 H   0  0  0  0  0  0  0  0  0  0  0  0
  146.8284  133.7085  151.4951 H   0  0  0  0  0  0  0  0  0  0  0  0
  146.6183  135.3992  153.2137 H   0  0  0  0  0  0  0  0  0  0  0  0
  147.0704  135.9001  155.7243 H   0  0  0  0  0  0  0  0  0  0  0  0
  148.2171  134.5798  155.6766 H   0  0  0  0  0  0  0  0  0  0  0  0
  149.0140  135.8783  153.5799 H   0  0  0  0  0  0  0  0  0  0  0  0
  149.5350  136.6524  156.3455 H   0  0  0  0  0  0  0  0  0  0  0  0
  150.4941  135.5585  155.3801 H   0  0  0  0  0  0  0  0  0  0  0  0
  150.0726  138.3853  154.3481 H   0  0  0  0  0  0  0  0  0  0  0  0
  151.1696  136.9175  153.0930 H   0  0  0  0  0  0  0  0  0  0  0  0
  151.4328  137.8007  156.8752 H   0  0  0  0  0  0  0  0  0  0  0  0
  152.5951  138.3356  155.6847 H   0  0  0  0  0  0  0  0  0  0  0  0
  149.8085  140.0235  154.5174 H   0  0  0  0  0  0  0  0  0  0  0  0
  150.5641  143.8337  157.5621 H   0  0  0  0  0  0  0  0  0  0  0  0
  153.2025  144.2885  159.7644 H   0  0  0  0  0  0  0  0  0  0  0  0
  151.8624  143.7512  160.7897 H   0  0  0  0  0  0  0  0  0  0  0  0
  151.5609  144.8409  159.4379 H   0  0  0  0  0  0  0  0  0  0  0  0
  153.9790  140.4093  160.3440 H   0  0  0  0  0  0  0  0  0  0  0  0
  153.0199  141.5913  161.2327 H   0  0  0  0  0  0  0  0  0  0  0  0
  154.3749  142.1228  160.2254 H   0  0  0  0  0  0  0  0  0  0  0  0
  152.9108  139.5213  158.4396 H   0  0  0  0  0  0  0  0  0  0  0  0
  144.9803  134.7475  155.0208 H   0  0  0  0  0  0  0  0  0  0  0  0
  145.8933  133.2909  155.3194 H   0  0  0  0  0  0  0  0  0  0  0  0
  144.1697  132.7268  153.9814 H   0  0  0  0  0  0  0  0  0  0  0  0
  1  2  1  0  0  0  0
  1 26  1  0  0  0  0
  1 27  1  0  0  0  0
  1 28  1  0  0  0  0
  2  3  1  0  0  0  0
  2 29  1  0  0  0  0
  2 30  1  0  0  0  0
  3 25  1  0  0  0  0
  3  4  1  0  0  0  0
  3 56  1  0  0  0  0
  4  5  1  0  0  0  0
  4 31  1  0  0  0  0
  4 32  1  0  0  0  0
  5  6  1  0  0  0  0
  5 33  1  0  0  0  0
  5 34  1  0  0  0  0
  6  7  1  0  0  0  0
  7  8  1  0  0  0  0
  7 25  1  0  0  0  0
  7 35  1  0  0  0  0
  8  9  1  0  0  0  0
  8 36  1  0  0  0  0
  8 37  1  0  0  0  0
  9 10  1  0  0  0  0
  9 38  1  0  0  0  0
 10 11  1  0  0  0  0
 10 39  1  0  0  0  0
 10 40  1  0  0  0  0
 11 12  1  0  0  0  0
 11 13  1  0  0  0  0
 11 41  1  0  0  0  0
 12 42  1  0  0  0  0
 13 14  1  0  0  0  0
 13 43  1  0  0  0  0
 13 44  1  0  0  0  0
 14 24  1  0  0  0  0
 14 15  1  0  0  0  0
 15 16  2  0  0  0  0
 15 45  1  0  0  0  0
 16 17  1  0  0  0  0
 17 24  2  0  0  0  0
 17 18  1  0  0  0  0
 18 19  2  0  0  0  0
 18 46  1  0  0  0  0
 19 20  1  0  0  0  0
 19 21  1  0  0  0  0
 20 47  1  0  0  0  0
 20 48  1  0  0  0  0
 20 49  1  0  0  0  0
 21 22  1  0  0  0  0
 21 23  2  0  0  0  0
 22 50  1  0  0  0  0
 22 51  1  0  0  0  0
 22 52  1  0  0  0  0
 23 24  1  0  0  0  0
 23 53  1  0  0  0  0
 25 54  1  0  0  0  0
 25 55  1  0  0  0  0
M  CHG  1   3   1
M  END
> <s_m_source_file>
AV-unprocessed.smi

> <i_m_source_file_index>
1047

> <i_lp_mmshare_version>
43012

> <i_f3d_flags>
0

> <s_epik_input>
W0NIM11bQ0gyXU4xW0NIMl1bQ0gyXU9bQ0BIXShbQ0gyXTEpW0NIMl1bTkhdW0NIMl1bQ0BIXShbT0hdKVtDSDJdbihbY0hdbjIpYyhjMjMpW2NIXWMoW0NIM10pYyhbY0hdMylbQ0gzXQ==

> <s_epik_cmdline>
J2VwaWtfcHl0aG9uJywgJy1waCcsICc3LjAnLCAnLXRuJywgJzgnLCAnLW1hJywgJzIwMCcsICctbWV0YWxfYmluZGluZycsICctaW1hZScsICc8aW5maWxlLm1hZT4nLCAnLW9tYWUnLCAnPG91dGZpbGUubWFlPic=

> <r_epik_Ionization_Penalty>
1.19246

> <r_epik_Ionization_Penalty_Charging>
0.210041

> <r_epik_Ionization_Penalty_Neutral>
0.982415

> <r_epik_State_Penalty>
1.57595

> <r_epik_Charging_Adjusted_Penalty>
1.78599

> <i_epik_Tot_Q>
1

> <i_epik_Tot_abs_Q>
1

> <r_epik_Metal_State_Penalty>
1.46172

> <b_epik_Metal_Only>
0

> <s_lp_Force_Field>
OPLS_2005

> <r_lp_Energy>
32.9743

> <b_lp_Chiralities_Consistent>
1

> <s_lp_Variant>
AV-unprocessed.smi:1047-15

> <Gold.Version>
5.8.1

> <Gold.Id.Protein>
6NUR|6NUR_protein|mol2

> <Gold.PLP.Fitness>
57.0080

> <Gold.PLP.PLP>
-45.8278

> <Gold.PLP.part.hbond>
-4.0000

> <Gold.PLP.part.metal>
0.0000

> <Gold.PLP.part.buried>
-5.6815

> <Gold.PLP.part.nonpolar>
-36.8410

> <Gold.PLP.part.repulsive>
0.2611

> <Gold.PLP.ligand.clash>
0.0000

> <Gold.PLP.ligand.torsion>
1.6108

> <Gold.PLP.Chemscore.Hbond>
4.7840

> <Gold.PLP.Chemscore.CHOScore>
0.0000

> <Gold.PLP.Chemscore.Metal>
0.0000

> <Gold.Chemscore.Hbonds>
donor molecule, donor type, donor heavy atom, donor atom, acceptor molecule, acceptor atom, score
      L1  H     3    56       P1 10957  2.00
      L1  H     9    38       P1  7948  0.86
      L1  H    12    42       P1  7949  0.96
      P1  H 10752 10765       L1    12  0.96

> <Gold.PLP.Chemscore.Internal.Correction>
0.0498

> <Gold.Rescore>
     Score         DG    S(hbond)    S(metal)    S(lipo)     H(rot)  DE(clash)    DE(int)     intcor
     20.84     -22.58       3.14        0.00     113.76       2.62       0.00       1.73       ----

> <Gold.Chemscore.Fitness>
20.8385

> <Gold.Chemscore.DG>
-22.5758

> <Gold.Chemscore.ZeroCoef>
-5.4800

> <Gold.Chemscore.Hbond>
3.1425

> <Gold.Chemscore.Metal>
0.0000

> <Gold.Chemscore.Lipo>
113.7563

> <Gold.Chemscore.Internal_Hbond>
0.0000

> <Gold.Chemscore.DEClash>
0.0029

> <Gold.Chemscore.DEInternal>
1.7344

> <Gold.Chemscore.Rot>
2.6209

> <Gold.Chemscore.Internal.Correction>
   9.000000E+99

> <Gold.Chemscore.Hbonds>
donor molecule, donor type, donor heavy atom, donor atom, acceptor molecule, acceptor atom, score
      L1  H     3    56       P1 10957  0.81
      L1  H     9    38       P1  7948  0.79
      L1  H    12    42       P1  7949  0.46
      P1  H 10752 10765       L1    12  0.22

> <Gold.Chemscore.Hbond.Weighted>
-10.4960

> <Gold.Chemscore.Metal.Weighted>
-0.0000

> <Gold.Chemscore.Lipo.Weighted>
-13.3095

> <Gold.Chemscore.Internal_Hbond.Weighted>
0.0000

> <Gold.Chemscore.DEClash.Weighted>
0.0029

> <Gold.Chemscore.DEInternal.Weighted>
1.7344

> <Gold.Chemscore.Rot.Weighted>
6.7096

> <Gold.Chemscore.Internal.Correction.Weighted>
   9.000000E+99

> <Gold.Protein.RotatedTorsions>
[ 6907 6896 6895 6894 ] final  111.08 input  -60.11 | X-H torsion
[ 7974 7965 7964 7962 ] final  132.73 input  175.53 | X-H torsion
[ 8008 7997 7996 7995 ] final   41.28 input   59.86 | X-H torsion
[ 10167 10162 10161 10158 ] final -108.47 input  -65.29 | X-H torsion
[ 10718 10713 10712 10709 ] final  -33.33 input   66.30 | X-H torsion
[ 10763 10752 10751 10750 ] final  135.88 input  -60.55 | X-H torsion
[ 11005 11000 10999 10996 ] final -142.60 input  -57.11 | X-H torsion

> <Gold.Protein.ActiveResidues>
 VAL166  LYS551  ARG553  GLY616  TRP617  ASP618  TYR619  PRO620  LYS621  CYS622 
 ASP623  PHE694  ASN695  SER759  ASP760  ASP761  ALA762  ILE779  LEU786  VAL792 
 PHE793  MET794  SER795  GLU796  ALA797  LYS798  CYS799  TRP800  GLU811  SER814 

> <Gold.Protein.RotatedAtoms>
  152.4988  133.8709  159.7297 H   0  0  0  0  0  0  0  0  0  0  0  0  # atno 6907 bound_to 6896
  150.9196  133.6888  159.2842 H   0  0  0  0  0  0  0  0  0  0  0  0  # atno 6908 bound_to 6896
  151.4269  135.1009  159.9683 H   0  0  0  0  0  0  0  0  0  0  0  0  # atno 6909 bound_to 6896
  144.9939  139.4379  143.5326 H   0  0  0  0  0  0  0  0  0  0  0  0  # atno 7974 bound_to 7965
  155.2671  140.3363  155.4268 H   0  0  0  0  0  0  0  0  0  0  0  0  # atno 8008 bound_to 7997
  156.2149  140.1785  156.7653 H   0  0  0  0  0  0  0  0  0  0  0  0  # atno 8009 bound_to 7997
  154.5739  140.0665  156.8990 H   0  0  0  0  0  0  0  0  0  0  0  0  # atno 8010 bound_to 7997
  140.1658  143.4083  152.1392 H   0  0  0  0  0  0  0  0  0  0  0  0  # atno 10167 bound_to 10162
  156.3639  130.4328  149.7600 H   0  0  0  0  0  0  0  0  0  0  0  0  # atno 10718 bound_to 10713
  153.8474  135.3083  155.3430 H   0  0  0  0  0  0  0  0  0  0  0  0  # atno 10763 bound_to 10752
  154.7906  135.4785  154.0047 H   0  0  0  0  0  0  0  0  0  0  0  0  # atno 10764 bound_to 10752
  153.1539  135.6848  153.8934 H   0  0  0  0  0  0  0  0  0  0  0  0  # atno 10765 bound_to 10752
  140.8209  134.2633  157.4901 H   0  0  0  0  0  0  0  0  0  0  0  0  # atno 11005 bound_to 11000
  146.3437  139.9286  142.8756 LP  0  0  0  0  0  0  0  0  0  0  0  0  # atno 17320 bound_to 7965
  145.2247  140.9949  143.4025 LP  0  0  0  0  0  0  0  0  0  0  0  0  # atno 17321 bound_to 7965
  139.5360  144.7210  151.4891 LP  0  0  0  0  0  0  0  0  0  0  0  0  # atno 17342 bound_to 10162
  140.6614  143.8491  150.6892 LP  0  0  0  0  0  0  0  0  0  0  0  0  # atno 17343 bound_to 10162
  156.4754  130.8016  151.3032 LP  0  0  0  0  0  0  0  0  0  0  0  0  # atno 17370 bound_to 10713
  157.7476  131.0023  150.2994 LP  0  0  0  0  0  0  0  0  0  0  0  0  # atno 17371 bound_to 10713
  139.8708  134.9534  156.4145 LP  0  0  0  0  0  0  0  0  0  0  0  0  # atno 17394 bound_to 11000
  140.9100  133.7718  155.9781 LP  0  0  0  0  0  0  0  0  0  0  0  0  # atno 17395 bound_to 11000

$$$$
