#       Name:                AV-unprocessed.smi:2342
#       Creating user name   scv26
#       Creation time:       Fri Mar 27 12:57:45 2020


#       File generated by GOLD software.
#

@<TRIPOS>MOLECULE
AV-unprocessed.smi:2342
    45    45     1
SMALL
NO_CHARGES


@<TRIPOS>ATOM
      1 ****        -2.3847   0.3633   0.4944 C.3            1 S1                 0.0000
      2 ****        -2.9436  -0.9167   1.1514 C.3            1 S1                 0.0000
      3 ****        -2.0427  -1.4472   2.2960 C.3            1 S1                 0.0000
      4 ****        -0.6735  -1.6823   1.8525 N.am           1 S1                 0.0000
      5 ****        -0.2504  -2.7530   1.1630 C.2            1 S1                 0.0000
      6 ****        -0.9647  -3.7201   0.8992 O.2            1 S1                 0.0000
      7 ****         1.1998  -2.7154   0.6785 C.3            1 S1                 0.0000
      8 ****         1.3314  -1.7389  -0.4548 C.2            1 S1                 0.0000
      9 ****         1.2233  -2.0120  -1.7949 C.2            1 S1                 0.0000
     10 ****         1.4002  -0.5774  -2.7651 S.3            1 S1                 0.0000
     11 ****         1.6285   0.3692  -1.2899 C.2            1 S1                 0.0000
     12 ****         1.8386   1.8634  -1.2417 C.3            1 S1                 0.0000
     13 ****         0.6696   2.5289  -0.4896 C.3            1 S1                 0.0000
     14 ****         1.8881   2.4690  -2.6611 C.3            1 S1                 0.0000
     15 ****         3.1798   2.1826  -0.5532 C.3            1 S1                 0.0000
     16 ****         1.5761  -0.3878  -0.1883 N.2            1 S1                 0.0000
     17 ****        -4.3929  -0.6784   1.6192 C.2            1 S1                 0.0000
     18 ****        -4.6663  -0.8413   2.8296 O.co2          1 S1                 0.0000
     19 ****        -5.2197  -0.3371   0.7445 O.co2          1 S1                -1.0000
     20 ****        -3.0488   0.7492  -0.2796 H              1 S1                 0.0000
     21 ****        -1.4250   0.1726   0.0146 H              1 S1                 0.0000
     22 ****        -2.2352   1.1540   1.2301 H              1 S1                 0.0000
     23 ****        -2.9997  -1.6867   0.3808 H              1 S1                 0.0000
     24 ****        -2.0007  -0.7217   3.1094 H              1 S1                 0.0000
     25 ****        -2.4521  -2.3660   2.7201 H              1 S1                 0.0000
     26 ****        -0.0109  -0.9391   2.0201 H              1 S1                 0.0000
     27 ****         1.8515  -2.4410   1.5091 H              1 S1                 0.0000
     28 ****         1.5032  -3.7146   0.3634 H              1 S1                 0.0000
     29 ****         1.0351  -2.9651  -2.2669 H              1 S1                 0.0000
     30 ****         0.7887   3.6121  -0.4459 H              1 S1                 0.0000
     31 ****         0.5971   2.1687   0.5374 H              1 S1                 0.0000
     32 ****        -0.2842   2.3220  -0.9765 H              1 S1                 0.0000
     33 ****         0.9584   2.2976  -3.2052 H              1 S1                 0.0000
     34 ****         2.7023   2.0460  -3.2507 H              1 S1                 0.0000
     35 ****         2.0439   3.5480  -2.6259 H              1 S1                 0.0000
     36 ****         3.3642   3.2568  -0.5200 H              1 S1                 0.0000
     37 ****         4.0158   1.7204  -1.0798 H              1 S1                 0.0000
     38 ****         3.1980   1.8192   0.4748 H              1 S1                 0.0000
     39 ****        -1.9173  -3.7358   1.2030 LP             1 S1                 0.0000
     40 ****        -0.5924  -4.4902   0.3811 LP             1 S1                 0.0000
     41 ****         1.6997  -0.0237   0.7348 LP             1 S1                 0.0000
     42 ****        -5.6008  -0.6972   3.1549 LP             1 S1                 0.0000
     43 ****        -3.9502  -1.1157   3.4715 LP             1 S1                 0.0000
     44 ****        -6.1741  -0.1749   0.9949 LP             1 S1                 0.0000
     45 ****        -4.9261  -0.2266  -0.2050 LP             1 S1                 0.0000
@<TRIPOS>BOND
    1    1    2 1     
    2    1   20 1     
    3    1   21 1     
    4    1   22 1     
    5    2    3 1     
    6    2   17 1     
    7    2   23 1     
    8    3    4 1     
    9    3   24 1     
   10    3   25 1     
   11    4    5 am    
   12    4   26 1     
   13    5    6 2     
   14    5    7 1     
   15    7    8 1     
   16    7   27 1     
   17    7   28 1     
   18    8   16 1     
   19    8    9 2     
   20    9   10 1     
   21    9   29 1     
   22   10   11 1     
   23   11   12 1     
   24   11   16 2     
   25   12   13 1     
   26   12   14 1     
   27   12   15 1     
   28   13   30 1     
   29   13   31 1     
   30   13   32 1     
   31   14   33 1     
   32   14   34 1     
   33   14   35 1     
   34   15   36 1     
   35   15   37 1     
   36   15   38 1     
   37   17   18 ar    
   38   17   19 ar    
   39    6   39 1     
   40    6   40 1     
   41   16   41 1     
   42   18   42 1     
   43   18   43 1     
   44   19   44 1     
   45   19   45 1     
@<TRIPOS>SUBSTRUCTURE
      1 S1             1
@<TRIPOS>SET
LONE_PAIRS      STATIC     ATOMS    <user>   **** ""
7 39 40 41 42 43 44 45
DONOR_HYDROGENS      STATIC     ATOMS    <user>   **** ""
1 26
ATOM$BLUE        STATIC     ATOMS    COLORGROUP SYSTEM
7 39 40 41 42 43 44 45
ATOM$RED        STATIC     ATOMS    COLORGROUP SYSTEM
1 26
