AV-unprocessed.smi:224|AV-procd|sdf|1708|dock8
  -GOLD-   2262020173D 1   1.00000     0.00000
 Structure written by MMmdl.
 56 59  0  0  0  0  0  0  0  0  2 V2000
  144.4051  132.5091  150.1456 C   0  0  0  0  0  0  0  0  0  0  0  0
  144.9831  133.3129  151.3176 C   0  0  1  0  0  0  0  0  0  0  0  0
  144.6985  132.6156  152.5137 O   0  0  0  0  0  0  0  0  0  0  0  0
  146.5068  133.5030  151.1981 C   0  0  0  0  0  0  0  0  0  0  0  0
  147.0508  134.3081  152.3279 N   0  3  2  0  0  0  0  0  0  0  0  0
  147.7216  133.4321  153.3299 C   0  0  0  0  0  0  0  0  0  0  0  0
  148.3424  134.2368  154.4789 C   0  0  0  0  0  0  0  0  0  0  0  0
  147.3305  135.0756  155.1049 N   0  0  0  0  0  0  0  0  0  0  0  0
  146.5994  134.5032  156.0983 C   0  0  0  0  0  0  0  0  0  0  0  0
  145.4656  133.8163  155.7945 N   0  0  0  0  0  0  0  0  0  0  0  0
  144.7442  133.2378  156.7589 C   0  0  0  0  0  0  0  0  0  0  0  0
  144.9681  133.2264  158.0735 N   0  0  0  0  0  0  0  0  0  0  0  0
  146.0949  133.9258  158.3899 C   0  0  0  0  0  0  0  0  0  0  0  0
  146.9616  134.5865  157.4733 C   0  0  0  0  0  0  0  0  0  0  0  0
  148.0003  135.1979  158.1658 N   0  0  0  0  0  0  0  0  0  0  0  0
  147.7653  134.9093  159.4167 C   0  0  0  0  0  0  0  0  0  0  0  0
  146.6372  134.1538  159.6427 N   0  0  0  0  0  0  0  0  0  0  0  0
  146.1395  133.6990  160.9322 C   0  0  0  0  0  0  0  0  0  0  0  0
  146.1056  134.8131  162.0041 C   0  0  1  0  0  0  0  0  0  0  0  0
  145.2824  134.3926  163.0787 O   0  0  0  0  0  0  0  0  0  0  0  0
  147.4767  135.1863  162.5606 C   0  0  0  0  0  0  0  0  0  0  0  0
  147.3203  136.6655  162.8832 C   0  0  0  0  0  0  0  0  0  0  0  0
  146.5481  137.1384  161.7931 O   0  0  0  0  0  0  0  0  0  0  0  0
  145.5659  136.1572  161.4751 C   0  0  0  0  0  0  0  0  0  0  0  0
  146.6781  135.9857  154.1685 C   0  0  0  0  0  0  0  0  0  0  0  0
  146.0689  135.2569  152.9442 C   0  0  1  0  0  0  0  0  0  0  0  0
  145.5806  136.3318  151.9509 C   0  0  0  0  0  0  0  0  0  0  0  0
  144.5809  133.0189  149.1981 H   0  0  0  0  0  0  0  0  0  0  0  0
  143.3276  132.3779  150.2518 H   0  0  0  0  0  0  0  0  0  0  0  0
  144.8564  131.5183  150.0788 H   0  0  0  0  0  0  0  0  0  0  0  0
  144.4797  134.2787  151.3575 H   0  0  0  0  0  0  0  0  0  0  0  0
  144.2583  133.2021  153.1105 H   0  0  0  0  0  0  0  0  0  0  0  0
  146.9693  132.5214  151.1275 H   0  0  0  0  0  0  0  0  0  0  0  0
  146.7518  133.9934  150.2545 H   0  0  0  0  0  0  0  0  0  0  0  0
  146.9960  132.7251  153.7361 H   0  0  0  0  0  0  0  0  0  0  0  0
  148.4997  132.8398  152.8489 H   0  0  0  0  0  0  0  0  0  0  0  0
  148.8097  133.5588  155.1917 H   0  0  0  0  0  0  0  0  0  0  0  0
  149.1389  134.8769  154.0981 H   0  0  0  0  0  0  0  0  0  0  0  0
  143.8614  132.7092  156.4304 H   0  0  0  0  0  0  0  0  0  0  0  0
  148.4079  135.2482  160.2165 H   0  0  0  0  0  0  0  0  0  0  0  0
  145.1396  133.2880  160.7869 H   0  0  0  0  0  0  0  0  0  0  0  0
  146.7638  132.8699  161.2684 H   0  0  0  0  0  0  0  0  0  0  0  0
  145.0573  133.4844  162.9455 H   0  0  0  0  0  0  0  0  0  0  0  0
  147.7845  134.5860  163.4178 H   0  0  0  0  0  0  0  0  0  0  0  0
  148.2393  135.0790  161.7885 H   0  0  0  0  0  0  0  0  0  0  0  0
  146.7722  136.8100  163.8155 H   0  0  0  0  0  0  0  0  0  0  0  0
  148.2755  137.1859  162.9568 H   0  0  0  0  0  0  0  0  0  0  0  0
  145.4111  136.1471  160.3958 H   0  0  0  0  0  0  0  0  0  0  0  0
  144.6157  136.4293  161.9374 H   0  0  0  0  0  0  0  0  0  0  0  0
  145.9209  136.5825  154.6793 H   0  0  0  0  0  0  0  0  0  0  0  0
  147.4337  136.6955  153.8290 H   0  0  0  0  0  0  0  0  0  0  0  0
  145.2089  134.6738  153.2758 H   0  0  0  0  0  0  0  0  0  0  0  0
  144.9721  137.0791  152.4613 H   0  0  0  0  0  0  0  0  0  0  0  0
  144.9576  135.9305  151.1538 H   0  0  0  0  0  0  0  0  0  0  0  0
  146.4198  136.8543  151.4905 H   0  0  0  0  0  0  0  0  0  0  0  0
  147.7725  134.8933  151.9315 H   0  0  0  0  0  0  0  0  0  0  0  0
  1  2  1  0  0  0  0
  1 28  1  0  0  0  0
  1 29  1  0  0  0  0
  1 30  1  0  0  0  0
  2  3  1  0  0  0  0
  2  4  1  0  0  0  0
  2 31  1  0  0  0  0
  3 32  1  0  0  0  0
  4  5  1  0  0  0  0
  4 33  1  0  0  0  0
  4 34  1  0  0  0  0
  5 26  1  0  0  0  0
  5  6  1  0  0  0  0
  5 56  1  0  0  0  0
  6  7  1  0  0  0  0
  6 35  1  0  0  0  0
  6 36  1  0  0  0  0
  7  8  1  0  0  0  0
  7 37  1  0  0  0  0
  7 38  1  0  0  0  0
  8  9  1  0  0  0  0
  8 25  1  0  0  0  0
  9 14  1  0  0  0  0
  9 10  2  0  0  0  0
 10 11  1  0  0  0  0
 11 12  2  0  0  0  0
 11 39  1  0  0  0  0
 12 13  1  0  0  0  0
 13 17  1  0  0  0  0
 13 14  2  0  0  0  0
 14 15  1  0  0  0  0
 15 16  2  0  0  0  0
 16 17  1  0  0  0  0
 16 40  1  0  0  0  0
 17 18  1  0  0  0  0
 18 19  1  0  0  0  0
 18 41  1  0  0  0  0
 18 42  1  0  0  0  0
 19 24  1  0  0  0  0
 19 20  1  0  0  0  0
 19 21  1  0  0  0  0
 20 43  1  0  0  0  0
 21 22  1  0  0  0  0
 21 44  1  0  0  0  0
 21 45  1  0  0  0  0
 22 23  1  0  0  0  0
 22 46  1  0  0  0  0
 22 47  1  0  0  0  0
 23 24  1  0  0  0  0
 24 48  1  0  0  0  0
 24 49  1  0  0  0  0
 25 26  1  0  0  0  0
 25 50  1  0  0  0  0
 25 51  1  0  0  0  0
 26 27  1  0  0  0  0
 26 52  1  0  0  0  0
 27 53  1  0  0  0  0
 27 54  1  0  0  0  0
 27 55  1  0  0  0  0
M  CHG  1   5   1
M  END
> <s_m_source_file>
AV-unprocessed.smi

> <i_m_source_file_index>
224

> <i_lp_mmshare_version>
43012

> <i_f3d_flags>
0

> <s_epik_input>
W0NIM11bQ0BIXShbT0hdKVtDSDJdTjFbQ0gyXVtDSDJdTihbQ0gyXVtDQEhdMVtDSDNdKWMobltjSF1uMiljKGMyMyluW2NIXW4zW0NIMl1bQ0BAXTQoW09IXSlbQ0gyXVtDSDJdT1tDSDJdNA==

> <s_epik_cmdline>
J2VwaWtfcHl0aG9uJywgJy1waCcsICc3LjAnLCAnLXRuJywgJzgnLCAnLW1hJywgJzIwMCcsICctbWV0YWxfYmluZGluZycsICctaW1hZScsICc8aW5maWxlLm1hZT4nLCAnLW9tYWUnLCAnPG91dGZpbGUubWFlPic=

> <r_lp_tautomer_probability>
1

> <r_epik_Ionization_Penalty>
0.00516958

> <r_epik_Ionization_Penalty_Charging>
0.00509693

> <r_epik_Ionization_Penalty_Neutral>
7.26542e-05

> <r_epik_State_Penalty>
-0

> <r_epik_Charging_Adjusted_Penalty>
0.00509693

> <i_epik_Tot_Q>
1

> <i_epik_Tot_abs_Q>
1

> <r_epik_Metal_State_Penalty>
-0

> <b_epik_Metal_Only>
0

> <s_lp_Force_Field>
OPLS_2005

> <r_lp_Energy>
48.4109

> <b_lp_Chiralities_Consistent>
1

> <s_lp_Variant>
AV-unprocessed.smi:224-2

> <Gold.Version>
5.8.1

> <Gold.Id.Protein>
6NUR|6NUR_protein|mol2

> <Gold.PLP.Fitness>
45.3367

> <Gold.PLP.PLP>
-35.3377

> <Gold.PLP.part.hbond>
-3.2655

> <Gold.PLP.part.metal>
0.0000

> <Gold.PLP.part.buried>
-2.6367

> <Gold.PLP.part.nonpolar>
-27.6688

> <Gold.PLP.part.repulsive>
0.1855

> <Gold.PLP.ligand.clash>
0.0000

> <Gold.PLP.ligand.torsion>
1.2610

> <Gold.PLP.Chemscore.Hbond>
3.0000

> <Gold.PLP.Chemscore.CHOScore>
1.0000

> <Gold.PLP.Chemscore.Metal>
0.0000

> <Gold.Chemscore.Hbonds>
donor molecule, donor type, donor heavy atom, donor atom, acceptor molecule, acceptor atom, score
      L1  H     5    56       P1  7948  2.00
      P1  H  6934  6947       L1    23  0.68
      L1  C    11    39       P1 10957  1.00

> <Gold.PLP.Chemscore.Internal.Correction>
0.5210

> <Gold.Rescore>
     Score         DG    S(hbond)    S(metal)    S(lipo)     H(rot)  DE(clash)    DE(int)     intcor
     10.38     -11.84       1.79        0.00      76.71       3.36       0.51       0.95       ----

> <Gold.Chemscore.Fitness>
10.3829

> <Gold.Chemscore.DG>
-11.8350

> <Gold.Chemscore.ZeroCoef>
-5.4800

> <Gold.Chemscore.Hbond>
1.7916

> <Gold.Chemscore.Metal>
0.0000

> <Gold.Chemscore.Lipo>
76.7131

> <Gold.Chemscore.Internal_Hbond>
0.0000

> <Gold.Chemscore.DEClash>
0.5071

> <Gold.Chemscore.DEInternal>
0.9450

> <Gold.Chemscore.Rot>
3.3611

> <Gold.Chemscore.Internal.Correction>
   9.000000E+99

> <Gold.Chemscore.Hbonds>
donor molecule, donor type, donor heavy atom, donor atom, acceptor molecule, acceptor atom, score
      L1  H     5    56       P1  7948  0.60
      P1  H  6934  6947       L1    23  0.60

> <Gold.Chemscore.Hbond.Weighted>
-5.9841

> <Gold.Chemscore.Metal.Weighted>
-0.0000

> <Gold.Chemscore.Lipo.Weighted>
-8.9754

> <Gold.Chemscore.Internal_Hbond.Weighted>
0.0000

> <Gold.Chemscore.DEClash.Weighted>
0.5071

> <Gold.Chemscore.DEInternal.Weighted>
0.9450

> <Gold.Chemscore.Rot.Weighted>
8.6045

> <Gold.Chemscore.Internal.Correction.Weighted>
   9.000000E+99

> <Gold.Protein.RotatedTorsions>
[ 6907 6896 6895 6894 ] final -171.46 input  -60.11 | X-H torsion
[ 7974 7965 7964 7962 ] final   31.28 input  175.53 | X-H torsion
[ 8008 7997 7996 7995 ] final    4.78 input   59.86 | X-H torsion
[ 10167 10162 10161 10158 ] final -134.07 input  -65.29 | X-H torsion
[ 10718 10713 10712 10709 ] final   15.11 input   66.30 | X-H torsion
[ 10763 10752 10751 10750 ] final -165.29 input  -60.55 | X-H torsion
[ 11005 11000 10999 10996 ] final   94.55 input  -57.11 | X-H torsion

> <Gold.Protein.ActiveResidues>
 VAL166  LYS551  ARG553  GLY616  TRP617  ASP618  TYR619  PRO620  LYS621  CYS622 
 ASP623  PHE694  ASN695  SER759  ASP760  ASP761  ALA762  ILE779  LEU786  VAL792 
 PHE793  MET794  SER795  GLU796  ALA797  LYS798  CYS799  TRP800  GLU811  SER814 

> <Gold.Protein.RotatedAtoms>
  151.5243  133.3461  159.2906 H   0  0  0  0  0  0  0  0  0  0  0  0  # atno 6907 bound_to 6896
  150.8633  134.7993  159.7110 H   0  0  0  0  0  0  0  0  0  0  0  0  # atno 6908 bound_to 6896
  152.4646  134.5115  159.9807 H   0  0  0  0  0  0  0  0  0  0  0  0  # atno 6909 bound_to 6896
  146.1560  139.6677  142.9066 H   0  0  0  0  0  0  0  0  0  0  0  0  # atno 7974 bound_to 7965
  154.7201  140.2710  155.6549 H   0  0  0  0  0  0  0  0  0  0  0  0  # atno 8008 bound_to 7997
  156.2821  140.2736  156.1795 H   0  0  0  0  0  0  0  0  0  0  0  0  # atno 8009 bound_to 7997
  155.0518  140.0371  157.2536 H   0  0  0  0  0  0  0  0  0  0  0  0  # atno 8010 bound_to 7997
  139.8918  143.6713  152.2611 H   0  0  0  0  0  0  0  0  0  0  0  0  # atno 10167 bound_to 10162
  157.0487  130.6261  149.5764 H   0  0  0  0  0  0  0  0  0  0  0  0  # atno 10718 bound_to 10713
  154.6946  135.2977  154.9430 H   0  0  0  0  0  0  0  0  0  0  0  0  # atno 10763 bound_to 10752
  154.0382  135.6661  153.4791 H   0  0  0  0  0  0  0  0  0  0  0  0  # atno 10764 bound_to 10752
  153.0636  135.5101  154.8057 H   0  0  0  0  0  0  0  0  0  0  0  0  # atno 10765 bound_to 10752
  139.8797  134.8851  156.3880 H   0  0  0  0  0  0  0  0  0  0  0  0  # atno 11005 bound_to 11000
  145.4708  141.0436  143.2700 LP  0  0  0  0  0  0  0  0  0  0  0  0  # atno 17320 bound_to 7965
  144.7964  139.6227  143.7091 LP  0  0  0  0  0  0  0  0  0  0  0  0  # atno 17321 bound_to 7965
  139.7103  144.7621  151.1124 LP  0  0  0  0  0  0  0  0  0  0  0  0  # atno 17342 bound_to 10162
  140.7725  143.5340  150.9390 LP  0  0  0  0  0  0  0  0  0  0  0  0  # atno 17343 bound_to 10162
  156.0014  130.5094  150.7677 LP  0  0  0  0  0  0  0  0  0  0  0  0  # atno 17370 bound_to 10713
  157.5047  131.0921  151.0272 LP  0  0  0  0  0  0  0  0  0  0  0  0  # atno 17371 bound_to 10713
  140.9353  133.7551  156.0076 LP  0  0  0  0  0  0  0  0  0  0  0  0  # atno 17394 bound_to 11000
  140.8283  134.3208  157.5358 LP  0  0  0  0  0  0  0  0  0  0  0  0  # atno 17395 bound_to 11000

$$$$
