AV-unprocessed.smi:2391|AV-procd|sdf|9486|dock6
  -GOLD-   2272013113D 1   1.00000     0.00000
 Structure written by MMmdl.
 34 35  0  0  0  0  0  0  0  0  2 V2000
  149.9418  136.0968  158.7576 O   0  0  0  0  0  0  0  0  0  0  0  0
  149.3326  137.1670  158.8178 C   0  0  0  0  0  0  0  0  0  0  0  0
  148.2623  137.4352  159.6016 N   0  5  0  0  0  0  0  0  0  0  0  0
  147.9251  136.6020  160.5975 C   0  0  0  0  0  0  0  0  0  0  0  0
  147.4123  135.3168  160.3117 C   0  0  0  0  0  0  0  0  0  0  0  0
  147.0610  134.4820  161.3858 C   0  0  0  0  0  0  0  0  0  0  0  0
  147.2421  134.9931  162.6817 C   0  0  0  0  0  0  0  0  0  0  0  0
  147.7296  136.2313  162.9112 N   0  0  0  0  0  0  0  0  0  0  0  0
  148.0609  137.0192  161.8820 N   0  0  0  0  0  0  0  0  0  0  0  0
  149.7092  138.2021  158.0526 N   0  0  0  0  0  0  0  0  0  0  0  0
  150.8235  138.2365  157.1017 C   0  0  1  0  0  0  0  0  0  0  0  0
  150.6359  139.4255  156.1229 C   0  0  0  0  0  0  0  0  0  0  0  0
  150.4123  140.7811  156.8059 C   0  0  0  0  0  0  0  0  0  0  0  0
  149.8349  141.6840  155.7141 C   0  0  0  0  0  0  0  0  0  0  0  0
  149.1208  140.7501  154.7280 C   0  0  0  0  0  0  0  0  0  0  0  0
  149.4195  139.3192  155.1934 C   0  0  0  0  0  0  0  0  0  0  0  0
  152.1486  138.2850  157.8963 C   0  0  0  0  0  0  0  0  0  0  0  0
  152.3231  137.1399  158.5574 F   0  0  0  0  0  0  0  0  0  0  0  0
  153.1901  138.4422  157.0803 F   0  0  0  0  0  0  0  0  0  0  0  0
  152.1348  139.2877  158.7757 F   0  0  0  0  0  0  0  0  0  0  0  0
  147.2941  134.9782  159.2927 H   0  0  0  0  0  0  0  0  0  0  0  0
  146.6681  133.4896  161.2222 H   0  0  0  0  0  0  0  0  0  0  0  0
  146.9907  134.4016  163.5495 H   0  0  0  0  0  0  0  0  0  0  0  0
  149.1756  139.0539  158.1452 H   0  0  0  0  0  0  0  0  0  0  0  0
  150.8344  137.3149  156.5175 H   0  0  0  0  0  0  0  0  0  0  0  0
  151.5284  139.5130  155.5009 H   0  0  0  0  0  0  0  0  0  0  0  0
  149.6856  140.6742  157.6126 H   0  0  0  0  0  0  0  0  0  0  0  0
  151.3254  141.1921  157.2377 H   0  0  0  0  0  0  0  0  0  0  0  0
  149.1666  142.4409  156.1254 H   0  0  0  0  0  0  0  0  0  0  0  0
  150.6440  142.2056  155.2018 H   0  0  0  0  0  0  0  0  0  0  0  0
  148.0465  140.9358  154.7038 H   0  0  0  0  0  0  0  0  0  0  0  0
  149.5023  140.9124  153.7193 H   0  0  0  0  0  0  0  0  0  0  0  0
  149.5947  138.6500  154.3508 H   0  0  0  0  0  0  0  0  0  0  0  0
  148.5624  138.9345  155.7479 H   0  0  0  0  0  0  0  0  0  0  0  0
  1  2  2  0  0  0  0
  2  3  1  0  0  0  0
  2 10  1  0  0  0  0
  3  4  1  0  0  0  0
  4  9  1  0  0  0  0
  4  5  2  0  0  0  0
  5  6  1  0  0  0  0
  5 21  1  0  0  0  0
  6  7  2  0  0  0  0
  6 22  1  0  0  0  0
  7  8  1  0  0  0  0
  7 23  1  0  0  0  0
  8  9  2  0  0  0  0
 10 11  1  0  0  0  0
 10 24  1  0  0  0  0
 11 12  1  0  0  0  0
 11 17  1  0  0  0  0
 11 25  1  0  0  0  0
 12 16  1  0  0  0  0
 12 13  1  0  0  0  0
 12 26  1  0  0  0  0
 13 14  1  0  0  0  0
 13 27  1  0  0  0  0
 13 28  1  0  0  0  0
 14 15  1  0  0  0  0
 14 29  1  0  0  0  0
 14 30  1  0  0  0  0
 15 16  1  0  0  0  0
 15 31  1  0  0  0  0
 15 32  1  0  0  0  0
 16 33  1  0  0  0  0
 16 34  1  0  0  0  0
 17 18  1  0  0  0  0
 17 19  1  0  0  0  0
 17 20  1  0  0  0  0
M  CHG  1   3  -1
M  END
> <s_m_source_file>
AV-unprocessed.smi

> <i_m_source_file_index>
2391

> <i_lp_mmshare_version>
43012

> <i_f3d_flags>
0

> <s_epik_input>
W0NIMl0xW0NIMl1bQ0gyXVtDSDJdW0NIXTFbQ0BIXShDKEYpKEYpRilbTkhdQyg9TylbTkhdYzJbY0hdW2NIXVtjSF1ubjI=

> <s_epik_cmdline>
J2VwaWtfcHl0aG9uJywgJy1waCcsICc3LjAnLCAnLXRuJywgJzgnLCAnLW1hJywgJzIwMCcsICctbWV0YWxfYmluZGluZycsICctaW1hZScsICc8aW5maWxlLm1hZT4nLCAnLW9tYWUnLCAnPG91dGZpbGUubWFlPic=

> <r_lp_tautomer_probability>
1

> <r_epik_Ionization_Penalty>
8.90766

> <r_epik_Ionization_Penalty_Charging>
5.82661

> <r_epik_Ionization_Penalty_Neutral>
3.08106

> <r_epik_State_Penalty>
5.83894

> <r_epik_Charging_Adjusted_Penalty>
11.6655

> <i_epik_Tot_Q>
-1

> <i_epik_Tot_abs_Q>
1

> <r_epik_Metal_State_Penalty>
1.80768

> <b_epik_Metal_Only>
1

> <s_lp_Force_Field>
OPLS_2005

> <r_lp_Energy>
28.2955

> <b_lp_Chiralities_Consistent>
1

> <s_lp_Variant>
AV-unprocessed.smi:2391-6

> <Gold.Version>
5.8.1

> <Gold.Id.Protein>
6NUR|6NUR_protein|mol2

> <Gold.PLP.Fitness>
37.6078

> <Gold.PLP.PLP>
-31.4752

> <Gold.PLP.part.hbond>
-3.9989

> <Gold.PLP.part.metal>
0.0000

> <Gold.PLP.part.buried>
-0.6436

> <Gold.PLP.part.nonpolar>
-26.3743

> <Gold.PLP.part.repulsive>
0.1226

> <Gold.PLP.ligand.clash>
0.0000

> <Gold.PLP.ligand.torsion>
1.0279

> <Gold.PLP.Chemscore.Hbond>
2.5967

> <Gold.PLP.Chemscore.CHOScore>
0.0000

> <Gold.PLP.Chemscore.Metal>
0.0000

> <Gold.Chemscore.Hbonds>
donor molecule, donor type, donor heavy atom, donor atom, acceptor molecule, acceptor atom, score
      P1  H  6896  6907       L1     1  1.00
      P1  H  6931  6943       L1     9  1.00
      P1  H  6934  6947       L1     3  0.06

> <Gold.PLP.Chemscore.Internal.Correction>
0.3983

> <Gold.Rescore>
     Score         DG    S(hbond)    S(metal)    S(lipo)     H(rot)  DE(clash)    DE(int)     intcor
     12.09     -15.63       1.91        0.00      61.01       1.32       0.65       2.90       ----

> <Gold.Chemscore.Fitness>
12.0875

> <Gold.Chemscore.DG>
-15.6330

> <Gold.Chemscore.ZeroCoef>
-5.4800

> <Gold.Chemscore.Hbond>
1.9129

> <Gold.Chemscore.Metal>
0.0000

> <Gold.Chemscore.Lipo>
61.0062

> <Gold.Chemscore.Internal_Hbond>
0.0000

> <Gold.Chemscore.DEClash>
0.6503

> <Gold.Chemscore.DEInternal>
2.8952

> <Gold.Chemscore.Rot>
1.3179

> <Gold.Chemscore.Internal.Correction>
   9.000000E+99

> <Gold.Chemscore.Hbonds>
donor molecule, donor type, donor heavy atom, donor atom, acceptor molecule, acceptor atom, score
      P1  H  6896  6907       L1     1  1.00
      P1  H  6931  6943       L1     9  0.68

> <Gold.Chemscore.Hbond.Weighted>
-6.3889

> <Gold.Chemscore.Metal.Weighted>
-0.0000

> <Gold.Chemscore.Lipo.Weighted>
-7.1377

> <Gold.Chemscore.Internal_Hbond.Weighted>
0.0000

> <Gold.Chemscore.DEClash.Weighted>
0.6503

> <Gold.Chemscore.DEInternal.Weighted>
2.8952

> <Gold.Chemscore.Rot.Weighted>
3.3737

> <Gold.Chemscore.Internal.Correction.Weighted>
   9.000000E+99

> <Gold.Protein.RotatedTorsions>
[ 6907 6896 6895 6894 ] final  -44.59 input  -60.11 | X-H torsion
[ 7974 7965 7964 7962 ] final  131.42 input  175.53 | X-H torsion
[ 8008 7997 7996 7995 ] final -142.53 input   59.86 | X-H torsion
[ 10167 10162 10161 10158 ] final    5.27 input  -65.29 | X-H torsion
[ 10718 10713 10712 10709 ] final  109.40 input   66.30 | X-H torsion
[ 10763 10752 10751 10750 ] final -155.64 input  -60.55 | X-H torsion
[ 11005 11000 10999 10996 ] final   73.24 input  -57.11 | X-H torsion

> <Gold.Protein.ActiveResidues>
 VAL166  LYS551  ARG553  GLY616  TRP617  ASP618  TYR619  PRO620  LYS621  CYS622 
 ASP623  PHE694  ASN695  SER759  ASP760  ASP761  ALA762  ILE779  LEU786  VAL792 
 PHE793  MET794  SER795  GLU796  ALA797  LYS798  CYS799  TRP800  GLU811  SER814 

> <Gold.Protein.RotatedAtoms>
  150.9311  134.8726  159.7551 H   0  0  0  0  0  0  0  0  0  0  0  0  # atno 6907 bound_to 6896
  152.5038  134.4077  159.9448 H   0  0  0  0  0  0  0  0  0  0  0  0  # atno 6908 bound_to 6896
  151.4104  133.3689  159.2778 H   0  0  0  0  0  0  0  0  0  0  0  0  # atno 6909 bound_to 6896
  145.0075  139.4252  143.5261 H   0  0  0  0  0  0  0  0  0  0  0  0  # atno 7974 bound_to 7965
  155.4957  140.0571  157.2947 H   0  0  0  0  0  0  0  0  0  0  0  0  # atno 8008 bound_to 7997
  154.4606  140.1994  156.0206 H   0  0  0  0  0  0  0  0  0  0  0  0  # atno 8009 bound_to 7997
  156.0883  140.3237  155.7786 H   0  0  0  0  0  0  0  0  0  0  0  0  # atno 8010 bound_to 7997
  140.6491  143.7590  150.7545 H   0  0  0  0  0  0  0  0  0  0  0  0  # atno 10167 bound_to 10162
  157.6543  131.0913  150.6448 H   0  0  0  0  0  0  0  0  0  0  0  0  # atno 10718 bound_to 10713
  154.7772  135.3163  154.8066 H   0  0  0  0  0  0  0  0  0  0  0  0  # atno 10763 bound_to 10752
  153.8787  135.6837  153.4773 H   0  0  0  0  0  0  0  0  0  0  0  0  # atno 10764 bound_to 10752
  153.1399  135.4743  154.9416 H   0  0  0  0  0  0  0  0  0  0  0  0  # atno 10765 bound_to 10752
  139.9450  134.7329  156.1002 H   0  0  0  0  0  0  0  0  0  0  0  0  # atno 11005 bound_to 11000
  146.3464  139.9499  142.8730 LP  0  0  0  0  0  0  0  0  0  0  0  0  # atno 17320 bound_to 7965
  145.2069  140.9879  143.4123 LP  0  0  0  0  0  0  0  0  0  0  0  0  # atno 17321 bound_to 7965
  140.1237  143.4589  152.2297 LP  0  0  0  0  0  0  0  0  0  0  0  0  # atno 17342 bound_to 10162
  139.5704  144.7459  151.3907 LP  0  0  0  0  0  0  0  0  0  0  0  0  # atno 17343 bound_to 10162
  156.6756  130.4552  149.5643 LP  0  0  0  0  0  0  0  0  0  0  0  0  # atno 17370 bound_to 10713
  156.1966  130.6593  151.1121 LP  0  0  0  0  0  0  0  0  0  0  0  0  # atno 17371 bound_to 10713
  141.1097  133.6647  156.2950 LP  0  0  0  0  0  0  0  0  0  0  0  0  # atno 17394 bound_to 11000
  140.5857  134.5701  157.5489 LP  0  0  0  0  0  0  0  0  0  0  0  0  # atno 17395 bound_to 11000

$$$$
