AV-unprocessed.smi:1717|AV-procd|sdf|6918|dock4
  -GOLD-   22720 8123D 1   1.00000     0.00000
 Structure written by MMmdl.
 41 42  0  0  0  0  0  0  0  0  2 V2000
  150.1453  141.6338  156.4003 C   0  0  0  0  0  0  0  0  0  0  0  0
  148.7939  141.7284  155.8693 N   0  0  0  0  0  0  0  0  0  0  0  0
  148.4640  141.4626  154.5978 C   0  0  0  0  0  0  0  0  0  0  0  0
  149.2836  141.1154  153.7466 O   0  0  0  0  0  0  0  0  0  0  0  0
  146.9862  141.6340  154.2317 C   0  0  0  0  0  0  0  0  0  0  0  0
  146.4472  140.4955  153.4442 N   0  3  2  0  0  0  0  0  0  0  0  0
  146.3913  139.2372  154.2310 C   0  0  0  0  0  0  0  0  0  0  0  0
  145.6916  138.1192  153.4398 C   0  0  0  0  0  0  0  0  0  0  0  0
  146.3826  137.8780  152.0883 C   0  0  1  0  0  0  0  0  0  0  0  0
  145.6471  136.8714  151.3285 N   0  0  0  0  0  0  0  0  0  0  0  0
  145.6908  135.5504  151.5543 C   0  0  0  0  0  0  0  0  0  0  0  0
  146.3806  135.0340  152.4331 O   0  0  0  0  0  0  0  0  0  0  0  0
  144.8937  134.8831  150.7044 N   0  0  0  0  0  0  0  0  0  0  0  0
  144.6758  133.4837  150.6525 C   0  0  0  0  0  0  0  0  0  0  0  0
  143.7537  132.7416  149.8572 C   0  0  0  0  0  0  0  0  0  0  0  0
  143.8544  131.4413  150.0944 N   0  0  0  0  0  0  0  0  0  0  0  0
  144.8272  131.3464  151.0285 N   0  0  0  0  0  0  0  0  0  0  0  0
  145.3542  132.5646  151.3958 C   0  0  0  0  0  0  0  0  0  0  0  0
  146.4674  139.2036  151.3094 C   0  0  0  0  0  0  0  0  0  0  0  0
  147.1491  140.2976  152.1477 C   0  0  0  0  0  0  0  0  0  0  0  0
  145.1176  130.4529  151.3998 H   0  0  0  0  0  0  0  0  0  0  0  0
  150.1457  141.8800  157.4619 H   0  0  0  0  0  0  0  0  0  0  0  0
  150.8128  142.3290  155.8893 H   0  0  0  0  0  0  0  0  0  0  0  0
  150.5399  140.6236  156.2849 H   0  0  0  0  0  0  0  0  0  0  0  0
  148.0669  142.0170  156.5083 H   0  0  0  0  0  0  0  0  0  0  0  0
  146.3835  141.7888  155.1282 H   0  0  0  0  0  0  0  0  0  0  0  0
  146.9172  142.5514  153.6455 H   0  0  0  0  0  0  0  0  0  0  0  0
  147.4027  138.9319  154.5042 H   0  0  0  0  0  0  0  0  0  0  0  0
  145.8485  139.4078  155.1615 H   0  0  0  0  0  0  0  0  0  0  0  0
  145.6868  137.2002  154.0274 H   0  0  0  0  0  0  0  0  0  0  0  0
  144.6467  138.3899  153.2800 H   0  0  0  0  0  0  0  0  0  0  0  0
  147.3931  137.5120  152.2818 H   0  0  0  0  0  0  0  0  0  0  0  0
  145.0532  137.2054  150.5835 H   0  0  0  0  0  0  0  0  0  0  0  0
  144.3847  135.4325  150.0277 H   0  0  0  0  0  0  0  0  0  0  0  0
  143.0308  133.0840  149.1318 H   0  0  0  0  0  0  0  0  0  0  0  0
  146.1400  132.6648  152.1300 H   0  0  0  0  0  0  0  0  0  0  0  0
  147.0186  139.0606  150.3793 H   0  0  0  0  0  0  0  0  0  0  0  0
  145.4668  139.5347  151.0274 H   0  0  0  0  0  0  0  0  0  0  0  0
  147.1586  141.2281  151.5795 H   0  0  0  0  0  0  0  0  0  0  0  0
  148.1908  140.0320  152.3338 H   0  0  0  0  0  0  0  0  0  0  0  0
  145.4905  140.7365  153.2265 H   0  0  0  0  0  0  0  0  0  0  0  0
  1  2  1  0  0  0  0
  1 22  1  0  0  0  0
  1 23  1  0  0  0  0
  1 24  1  0  0  0  0
  2  3  1  0  0  0  0
  2 25  1  0  0  0  0
  3  4  2  0  0  0  0
  3  5  1  0  0  0  0
  5  6  1  0  0  0  0
  5 26  1  0  0  0  0
  5 27  1  0  0  0  0
  6 20  1  0  0  0  0
  6  7  1  0  0  0  0
  6 41  1  0  0  0  0
  7  8  1  0  0  0  0
  7 28  1  0  0  0  0
  7 29  1  0  0  0  0
  8  9  1  0  0  0  0
  8 30  1  0  0  0  0
  8 31  1  0  0  0  0
  9 10  1  0  0  0  0
  9 19  1  0  0  0  0
  9 32  1  0  0  0  0
 10 11  1  0  0  0  0
 10 33  1  0  0  0  0
 11 12  2  0  0  0  0
 11 13  1  0  0  0  0
 13 14  1  0  0  0  0
 13 34  1  0  0  0  0
 14 18  2  0  0  0  0
 14 15  1  0  0  0  0
 15 16  2  0  0  0  0
 15 35  1  0  0  0  0
 16 17  1  0  0  0  0
 17 21  1  0  0  0  0
 17 18  1  0  0  0  0
 18 36  1  0  0  0  0
 19 20  1  0  0  0  0
 19 37  1  0  0  0  0
 19 38  1  0  0  0  0
 20 39  1  0  0  0  0
 20 40  1  0  0  0  0
M  CHG  1   6   1
M  END
> <s_m_source_file>
AV-unprocessed.smi

> <i_m_source_file_index>
1717

> <i_lp_mmshare_version>
43012

> <i_f3d_flags>
0

> <s_epik_input>
W0NIM11bTkhdQyg9TylbQ0gyXU4xW0NIMl1bQ0gyXVtDSF0oW0NIMl1bQ0gyXTEpW05IXUMoPU8pW05IXWMyW2NIXW5bbkhdW2NIXTI=

> <s_epik_cmdline>
J2VwaWtfcHl0aG9uJywgJy1waCcsICc3LjAnLCAnLXRuJywgJzgnLCAnLW1hJywgJzIwMCcsICctbWV0YWxfYmluZGluZycsICctaW1hZScsICc8aW5maWxlLm1hZT4nLCAnLW9tYWUnLCAnPG91dGZpbGUubWFlPic=

> <r_lp_tautomer_probability>
0.5

> <r_epik_Ionization_Penalty>
0.838906

> <r_epik_Ionization_Penalty_Charging>
0.838844

> <r_epik_Ionization_Penalty_Neutral>
6.24243e-05

> <r_epik_State_Penalty>
0.8734

> <r_epik_Charging_Adjusted_Penalty>
1.71224

> <i_epik_Tot_Q>
1

> <i_epik_Tot_abs_Q>
1

> <r_epik_Metal_State_Penalty>
0.877921

> <b_epik_Metal_Only>
0

> <s_lp_Force_Field>
OPLS_2005

> <r_lp_Energy>
17.0094

> <b_lp_Chiralities_Consistent>
1

> <s_lp_Variant>
AV-unprocessed.smi:1717-2

> <Gold.Version>
5.8.1

> <Gold.Id.Protein>
6NUR|6NUR_protein|mol2

> <Gold.PLP.Fitness>
46.8633

> <Gold.PLP.PLP>
-30.0708

> <Gold.PLP.part.hbond>
-6.0000

> <Gold.PLP.part.metal>
0.0000

> <Gold.PLP.part.buried>
1.1675

> <Gold.PLP.part.nonpolar>
-29.8646

> <Gold.PLP.part.repulsive>
5.0031

> <Gold.PLP.ligand.clash>
0.0000

> <Gold.PLP.ligand.torsion>
0.4136

> <Gold.PLP.Chemscore.Hbond>
4.8842

> <Gold.PLP.Chemscore.CHOScore>
0.9784

> <Gold.PLP.Chemscore.Metal>
0.0000

> <Gold.Chemscore.Hbonds>
donor molecule, donor type, donor heavy atom, donor atom, acceptor molecule, acceptor atom, score
      L1  H     6    41       P1 10175  2.00
      L1  H    10    33       P1 10171  1.00
      P1  H  7989  7998       L1     4  0.07
      P1  H  8011  8017       L1     4  0.94
      P1  H 10785 10796       L1    16  0.75
      L1  C    15    35       P1 10186  0.96

> <Gold.PLP.Chemscore.Internal.Correction>
0.0321

> <Gold.Rescore>
     Score         DG    S(hbond)    S(metal)    S(lipo)     H(rot)  DE(clash)    DE(int)     intcor
     14.92     -20.43       3.30        0.00      73.21       1.81       2.61       2.91       ----

> <Gold.Chemscore.Fitness>
14.9153

> <Gold.Chemscore.DG>
-20.4344

> <Gold.Chemscore.ZeroCoef>
-5.4800

> <Gold.Chemscore.Hbond>
3.2997

> <Gold.Chemscore.Metal>
0.0000

> <Gold.Chemscore.Lipo>
73.2114

> <Gold.Chemscore.Internal_Hbond>
0.0000

> <Gold.Chemscore.DEClash>
2.6140

> <Gold.Chemscore.DEInternal>
2.9051

> <Gold.Chemscore.Rot>
1.8096

> <Gold.Chemscore.Internal.Correction>
   9.000000E+99

> <Gold.Chemscore.Hbonds>
donor molecule, donor type, donor heavy atom, donor atom, acceptor molecule, acceptor atom, score
      L1  H     6    41       P1 10175  0.76
      L1  H    10    33       P1 10171  0.94
      P1  H  7989  7998       L1     4  0.07
      P1  H  8011  8017       L1     4  0.86
      P1  H 10785 10796       L1    16  0.71

> <Gold.Chemscore.Hbond.Weighted>
-11.0211

> <Gold.Chemscore.Metal.Weighted>
-0.0000

> <Gold.Chemscore.Lipo.Weighted>
-8.5657

> <Gold.Chemscore.Internal_Hbond.Weighted>
0.0000

> <Gold.Chemscore.DEClash.Weighted>
2.6140

> <Gold.Chemscore.DEInternal.Weighted>
2.9051

> <Gold.Chemscore.Rot.Weighted>
4.6325

> <Gold.Chemscore.Internal.Correction.Weighted>
   9.000000E+99

> <Gold.Protein.RotatedTorsions>
[ 6907 6896 6895 6894 ] final   16.88 input  -60.11 | X-H torsion
[ 7974 7965 7964 7962 ] final  142.61 input  175.53 | X-H torsion
[ 8008 7997 7996 7995 ] final  165.32 input   59.86 | X-H torsion
[ 10167 10162 10161 10158 ] final  117.67 input  -65.29 | X-H torsion
[ 10718 10713 10712 10709 ] final   12.70 input   66.30 | X-H torsion
[ 10763 10752 10751 10750 ] final   25.34 input  -60.55 | X-H torsion
[ 11005 11000 10999 10996 ] final -168.90 input  -57.11 | X-H torsion

> <Gold.Protein.ActiveResidues>
 VAL166  LYS551  ARG553  GLY616  TRP617  ASP618  TYR619  PRO620  LYS621  CYS622 
 ASP623  PHE694  ASN695  SER759  ASP760  ASP761  ALA762  ILE779  LEU786  VAL792 
 PHE793  MET794  SER795  GLU796  ALA797  LYS798  CYS799  TRP800  GLU811  SER814 

> <Gold.Protein.RotatedAtoms>
  151.8408  135.0591  160.0447 H   0  0  0  0  0  0  0  0  0  0  0  0  # atno 6907 bound_to 6896
  152.2810  133.5466  159.5506 H   0  0  0  0  0  0  0  0  0  0  0  0  # atno 6908 bound_to 6896
  150.7189  134.0480  159.3830 H   0  0  0  0  0  0  0  0  0  0  0  0  # atno 6909 bound_to 6896
  144.8993  139.5446  143.5761 H   0  0  0  0  0  0  0  0  0  0  0  0  # atno 7974 bound_to 7965
  156.1810  140.1673  156.8274 H   0  0  0  0  0  0  0  0  0  0  0  0  # atno 8008 bound_to 7997
  154.5360  140.0746  156.8461 H   0  0  0  0  0  0  0  0  0  0  0  0  # atno 8009 bound_to 7997
  155.3310  140.3379  155.4242 H   0  0  0  0  0  0  0  0  0  0  0  0  # atno 8010 bound_to 7997
  139.6163  144.7092  151.2733 H   0  0  0  0  0  0  0  0  0  0  0  0  # atno 10167 bound_to 10162
  157.0140  130.6128  149.5712 H   0  0  0  0  0  0  0  0  0  0  0  0  # atno 10718 bound_to 10713
  153.0699  135.6585  154.0271 H   0  0  0  0  0  0  0  0  0  0  0  0  # atno 10763 bound_to 10752
  153.9919  135.2945  155.3412 H   0  0  0  0  0  0  0  0  0  0  0  0  # atno 10764 bound_to 10752
  154.7070  135.5221  153.8679 H   0  0  0  0  0  0  0  0  0  0  0  0  # atno 10765 bound_to 10752
  140.5368  134.5562  157.5089 H   0  0  0  0  0  0  0  0  0  0  0  0  # atno 11005 bound_to 11000
  146.3099  139.7709  142.9028 LP  0  0  0  0  0  0  0  0  0  0  0  0  # atno 17320 bound_to 7965
  145.3645  141.0332  143.3266 LP  0  0  0  0  0  0  0  0  0  0  0  0  # atno 17321 bound_to 7965
  140.7353  143.6742  150.8056 LP  0  0  0  0  0  0  0  0  0  0  0  0  # atno 17342 bound_to 10162
  140.0345  143.5409  152.2745 LP  0  0  0  0  0  0  0  0  0  0  0  0  # atno 17343 bound_to 10162
  156.0126  130.5218  150.8036 LP  0  0  0  0  0  0  0  0  0  0  0  0  # atno 17370 bound_to 10713
  157.5299  131.0936  150.9968 LP  0  0  0  0  0  0  0  0  0  0  0  0  # atno 17371 bound_to 10713
  139.9525  134.7592  156.0416 LP  0  0  0  0  0  0  0  0  0  0  0  0  # atno 17394 bound_to 11000
  141.1250  133.6602  156.3313 LP  0  0  0  0  0  0  0  0  0  0  0  0  # atno 17395 bound_to 11000

$$$$
