AV-unprocessed.smi:3066|AV-procd|sdf|11693|dock2
  -GOLD-   2272017 93D 1   1.00000     0.00000
 Structure written by MMmdl.
 35 36  0  0  0  0  0  0  0  0  1 V2000
  155.8574  138.4251  154.3117 N   0  0  0  0  0  0  0  0  0  0  0  0
  154.7200  138.4343  154.5260 C   0  0  0  0  0  0  0  0  0  0  0  0
  153.2922  138.4453  154.7946 C   0  0  0  0  0  0  0  0  0  0  0  0
  152.4548  137.5217  154.2392 N   0  0  0  0  0  0  0  0  0  0  0  0
  151.3093  137.9409  154.7629 C   0  0  0  0  0  0  0  0  0  0  0  0
  151.4338  139.0100  155.5567 N   0  0  0  0  0  0  0  0  0  0  0  0
  150.4314  139.7611  156.2905 C   0  0  0  0  0  0  0  0  0  0  0  0
  151.0174  141.0586  156.8482 C   0  0  0  0  0  0  0  0  0  0  0  0
  150.9838  142.0880  156.1743 O   0  0  0  0  0  0  0  0  0  0  0  0
  151.5502  140.9922  158.0789 N   0  0  0  0  0  0  0  0  0  0  0  0
  152.1917  142.0938  158.7915 C   0  0  0  0  0  0  0  0  0  0  0  0
  152.5097  141.6162  160.2210 C   0  0  0  0  0  0  0  0  0  0  0  0
  153.1738  142.6642  161.1307 C   0  0  0  0  0  0  0  0  0  0  0  0
  152.1890  143.7404  161.6154 C   0  0  0  0  0  0  0  0  0  0  0  0
  151.9990  144.9379  160.6682 C   0  0  0  0  0  0  0  0  0  0  0  0
  152.0222  144.6345  159.1597 C   0  0  0  0  0  0  0  0  0  0  0  0
  151.2946  143.3501  158.7280 C   0  0  0  0  0  0  0  0  0  0  0  0
  152.7432  139.3600  155.5912 N   0  0  0  0  0  0  0  0  0  0  0  0
  150.3611  137.4643  154.5607 H   0  0  0  0  0  0  0  0  0  0  0  0
  149.6004  139.9828  155.6197 H   0  0  0  0  0  0  0  0  0  0  0  0
  150.0363  139.1488  157.1029 H   0  0  0  0  0  0  0  0  0  0  0  0
  151.5263  140.1004  158.5527 H   0  0  0  0  0  0  0  0  0  0  0  0
  153.1400  142.3157  158.2982 H   0  0  0  0  0  0  0  0  0  0  0  0
  151.6029  141.2433  160.6998 H   0  0  0  0  0  0  0  0  0  0  0  0
  153.1776  140.7562  160.1521 H   0  0  0  0  0  0  0  0  0  0  0  0
  153.5560  142.1420  162.0085 H   0  0  0  0  0  0  0  0  0  0  0  0
  154.0441  143.1124  160.6496 H   0  0  0  0  0  0  0  0  0  0  0  0
  151.2215  143.2799  161.8188 H   0  0  0  0  0  0  0  0  0  0  0  0
  152.5291  144.1255  162.5773 H   0  0  0  0  0  0  0  0  0  0  0  0
  151.0559  145.4236  160.9209 H   0  0  0  0  0  0  0  0  0  0  0  0
  152.7720  145.6793  160.8735 H   0  0  0  0  0  0  0  0  0  0  0  0
  151.5730  145.4841  158.6441 H   0  0  0  0  0  0  0  0  0  0  0  0
  153.0540  144.6025  158.8079 H   0  0  0  0  0  0  0  0  0  0  0  0
  150.9759  143.4919  157.6944 H   0  0  0  0  0  0  0  0  0  0  0  0
  150.3785  143.2097  159.3032 H   0  0  0  0  0  0  0  0  0  0  0  0
  1  2  3  0  0  0  0
  2  3  1  0  0  0  0
  3 18  2  0  0  0  0
  3  4  1  0  0  0  0
  4  5  2  0  0  0  0
  5  6  1  0  0  0  0
  5 19  1  0  0  0  0
  6  7  1  0  0  0  0
  6 18  1  0  0  0  0
  7  8  1  0  0  0  0
  7 20  1  0  0  0  0
  7 21  1  0  0  0  0
  8  9  2  0  0  0  0
  8 10  1  0  0  0  0
 10 11  1  0  0  0  0
 10 22  1  0  0  0  0
 11 17  1  0  0  0  0
 11 12  1  0  0  0  0
 11 23  1  0  0  0  0
 12 13  1  0  0  0  0
 12 24  1  0  0  0  0
 12 25  1  0  0  0  0
 13 14  1  0  0  0  0
 13 26  1  0  0  0  0
 13 27  1  0  0  0  0
 14 15  1  0  0  0  0
 14 28  1  0  0  0  0
 14 29  1  0  0  0  0
 15 16  1  0  0  0  0
 15 30  1  0  0  0  0
 15 31  1  0  0  0  0
 16 17  1  0  0  0  0
 16 32  1  0  0  0  0
 16 33  1  0  0  0  0
 17 34  1  0  0  0  0
 17 35  1  0  0  0  0
M  END
> <s_m_source_file>
AV-unprocessed.smi

> <i_m_source_file_index>
3066

> <i_lp_mmshare_version>
43012

> <i_f3d_flags>
0

> <s_epik_input>
TiNDYzFuW2NIXW4objEpW0NIMl1DKD1PKVtOSF1bQ0hdMltDSDJdW0NIMl1bQ0gyXVtDSDJdW0NIMl1bQ0gyXTI=

> <s_epik_cmdline>
J2VwaWtfcHl0aG9uJywgJy1waCcsICc3LjAnLCAnLXRuJywgJzgnLCAnLW1hJywgJzIwMCcsICctbWV0YWxfYmluZGluZycsICctaW1hZScsICc8aW5maWxlLm1hZT4nLCAnLW9tYWUnLCAnPG91dGZpbGUubWFlPic=

> <r_lp_tautomer_probability>
1

> <r_epik_Ionization_Penalty>
4.79211e-08

> <r_epik_Ionization_Penalty_Charging>
0

> <r_epik_Ionization_Penalty_Neutral>
4.79211e-08

> <r_epik_State_Penalty>
-0

> <r_epik_Charging_Adjusted_Penalty>
0

> <i_epik_Tot_Q>
0

> <i_epik_Tot_abs_Q>
0

> <r_epik_Metal_State_Penalty>
-0

> <b_epik_Metal_Only>
0

> <s_lp_Force_Field>
OPLS_2005

> <r_lp_Energy>
17.6035

> <b_lp_Chiralities_Consistent>
1

> <s_lp_Variant>
AV-unprocessed.smi:3066-1

> <Gold.Version>
5.8.1

> <Gold.Id.Protein>
6NUR|6NUR_protein|mol2

> <Gold.PLP.Fitness>
44.6320

> <Gold.PLP.PLP>
-40.6766

> <Gold.PLP.part.hbond>
-3.0000

> <Gold.PLP.part.metal>
0.0000

> <Gold.PLP.part.buried>
-3.4561

> <Gold.PLP.part.nonpolar>
-35.6910

> <Gold.PLP.part.repulsive>
0.3076

> <Gold.PLP.ligand.clash>
0.0000

> <Gold.PLP.ligand.torsion>
0.5557

> <Gold.PLP.Chemscore.Hbond>
1.6842

> <Gold.PLP.Chemscore.CHOScore>
0.0000

> <Gold.PLP.Chemscore.Metal>
0.0000

> <Gold.Chemscore.Hbonds>
donor molecule, donor type, donor heavy atom, donor atom, acceptor molecule, acceptor atom, score
      P1  H  7997  8008       L1    18  0.90
      P1  H  7997  8009       L1     1  0.06
      P1  H 10752 10765       L1     4  0.66

> <Gold.PLP.Chemscore.Internal.Correction>
0.0142

> <Gold.Rescore>
     Score         DG    S(hbond)    S(metal)    S(lipo)     H(rot)  DE(clash)    DE(int)     intcor
     11.98     -14.41       1.27        0.00      82.68       1.95       0.43       2.00       ----

> <Gold.Chemscore.Fitness>
11.9767

> <Gold.Chemscore.DG>
-14.4066

> <Gold.Chemscore.ZeroCoef>
-5.4800

> <Gold.Chemscore.Hbond>
1.2688

> <Gold.Chemscore.Metal>
0.0000

> <Gold.Chemscore.Lipo>
82.6845

> <Gold.Chemscore.Internal_Hbond>
0.0000

> <Gold.Chemscore.DEClash>
0.4320

> <Gold.Chemscore.DEInternal>
1.9979

> <Gold.Chemscore.Rot>
1.9474

> <Gold.Chemscore.Internal.Correction>
   9.000000E+99

> <Gold.Chemscore.Hbonds>
donor molecule, donor type, donor heavy atom, donor atom, acceptor molecule, acceptor atom, score
      P1  H  7997  8008       L1    18  0.18
      P1  H 10752 10765       L1     4  0.64

> <Gold.Chemscore.Hbond.Weighted>
-4.2378

> <Gold.Chemscore.Metal.Weighted>
-0.0000

> <Gold.Chemscore.Lipo.Weighted>
-9.6741

> <Gold.Chemscore.Internal_Hbond.Weighted>
0.0000

> <Gold.Chemscore.DEClash.Weighted>
0.4320

> <Gold.Chemscore.DEInternal.Weighted>
1.9979

> <Gold.Chemscore.Rot.Weighted>
4.9852

> <Gold.Chemscore.Internal.Correction.Weighted>
   9.000000E+99

> <Gold.Protein.RotatedTorsions>
[ 6907 6896 6895 6894 ] final  -57.83 input  -60.11 | X-H torsion
[ 7974 7965 7964 7962 ] final -106.29 input  175.53 | X-H torsion
[ 8008 7997 7996 7995 ] final  -38.58 input   59.86 | X-H torsion
[ 10167 10162 10161 10158 ] final   91.91 input  -65.29 | X-H torsion
[ 10718 10713 10712 10709 ] final   80.84 input   66.30 | X-H torsion
[ 10763 10752 10751 10750 ] final  141.14 input  -60.55 | X-H torsion
[ 11005 11000 10999 10996 ] final  -33.25 input  -57.11 | X-H torsion

> <Gold.Protein.ActiveResidues>
 VAL166  LYS551  ARG553  GLY616  TRP617  ASP618  TYR619  PRO620  LYS621  CYS622 
 ASP623  PHE694  ASN695  SER759  ASP760  ASP761  ALA762  ILE779  LEU786  VAL792 
 PHE793  MET794  SER795  GLU796  ALA797  LYS798  CYS799  TRP800  GLU811  SER814 

> <Gold.Protein.RotatedAtoms>
  150.8054  134.7176  159.6639 H   0  0  0  0  0  0  0  0  0  0  0  0  # atno 6907 bound_to 6896
  152.4173  134.6014  160.0011 H   0  0  0  0  0  0  0  0  0  0  0  0  # atno 6908 bound_to 6896
  151.6240  133.3300  159.3130 H   0  0  0  0  0  0  0  0  0  0  0  0  # atno 6909 bound_to 6896
  145.2197  140.9129  143.3267 H   0  0  0  0  0  0  0  0  0  0  0  0  # atno 7974 bound_to 7965
  154.4035  140.1574  156.2723 H   0  0  0  0  0  0  0  0  0  0  0  0  # atno 8008 bound_to 7997
  155.8942  140.3437  155.5956 H   0  0  0  0  0  0  0  0  0  0  0  0  # atno 8009 bound_to 7997
  155.7523  140.0806  157.2186 H   0  0  0  0  0  0  0  0  0  0  0  0  # atno 8010 bound_to 7997
  139.8328  144.6679  150.9379 H   0  0  0  0  0  0  0  0  0  0  0  0  # atno 10167 bound_to 10162
  157.6817  130.9977  150.2138 H   0  0  0  0  0  0  0  0  0  0  0  0  # atno 10718 bound_to 10713
  153.9343  135.2987  155.3445 H   0  0  0  0  0  0  0  0  0  0  0  0  # atno 10763 bound_to 10752
  154.7510  135.4980  153.9293 H   0  0  0  0  0  0  0  0  0  0  0  0  # atno 10764 bound_to 10752
  153.1075  135.6750  153.9665 H   0  0  0  0  0  0  0  0  0  0  0  0  # atno 10765 bound_to 10752
  140.9619  133.7159  156.1383 H   0  0  0  0  0  0  0  0  0  0  0  0  # atno 11005 bound_to 11000
  144.9777  139.3814  143.6277 LP  0  0  0  0  0  0  0  0  0  0  0  0  # atno 17320 bound_to 7965
  146.3379  139.8904  142.8810 LP  0  0  0  0  0  0  0  0  0  0  0  0  # atno 17321 bound_to 7965
  140.7805  143.3985  151.1189 LP  0  0  0  0  0  0  0  0  0  0  0  0  # atno 17342 bound_to 10162
  139.7637  143.8597  152.3106 LP  0  0  0  0  0  0  0  0  0  0  0  0  # atno 17343 bound_to 10162
  156.2804  130.3732  149.7941 LP  0  0  0  0  0  0  0  0  0  0  0  0  # atno 17370 bound_to 10713
  156.5632  130.8392  151.3335 LP  0  0  0  0  0  0  0  0  0  0  0  0  # atno 17371 bound_to 10713
  140.7455  134.4103  157.5549 LP  0  0  0  0  0  0  0  0  0  0  0  0  # atno 17394 bound_to 11000
  139.8881  134.8865  156.2492 LP  0  0  0  0  0  0  0  0  0  0  0  0  # atno 17395 bound_to 11000

$$$$
