AV-unprocessed.smi:1100|AV-procd|sdf|4764|dock6
  -GOLD-   22720 3303D 1   1.00000     0.00000
 Structure written by MMmdl.
 43 44  0  0  0  0  0  0  0  0  3 V2000
  148.4572  140.9517  154.2900 C   0  0  0  0  0  0  0  0  0  0  0  0
  148.9928  139.6292  153.6847 C   0  0  1  0  0  0  0  0  0  0  0  0
  150.1390  138.9725  154.4991 C   0  0  0  0  0  0  0  0  0  0  0  0
  151.2181  139.9316  154.7330 N   0  5  0  0  0  0  0  0  0  0  0  0
  151.7570  140.2074  155.9517 C   0  0  0  0  0  0  0  0  0  0  0  0
  152.6011  139.5432  156.5636 O   0  0  0  0  0  0  0  0  0  0  0  0
  151.2428  141.3350  156.4818 N   0  0  0  0  0  0  0  0  0  0  0  0
  151.5647  142.0028  157.6741 C   0  0  0  0  0  0  0  0  0  0  0  0
  151.1544  143.3851  157.8011 C   0  0  0  0  0  0  0  0  0  0  0  0
  151.4538  144.1051  158.8996 C   0  0  0  0  0  0  0  0  0  0  0  0
  152.2065  143.5247  160.0140 C   0  0  0  0  0  0  0  0  0  0  0  0
  152.4909  144.1717  161.0226 O   0  0  0  0  0  0  0  0  0  0  0  0
  152.5739  142.2196  159.8602 N   0  0  0  0  0  0  0  0  0  0  0  0
  153.3369  141.5490  160.9163 C   0  0  0  0  0  0  0  0  0  0  0  0
  152.2657  141.4779  158.7034 C   0  0  0  0  0  0  0  0  0  0  0  0
  147.9088  138.6347  153.4102 N   0  3  0  0  0  0  0  0  0  0  0  0
  147.0991  138.1887  154.5786 C   0  0  0  0  0  0  0  0  0  0  0  0
  146.1510  137.0542  154.1594 C   0  0  0  0  0  0  0  0  0  0  0  0
  145.3107  137.5058  153.1043 O   0  0  0  0  0  0  0  0  0  0  0  0
  146.0555  137.8718  151.9490 C   0  0  0  0  0  0  0  0  0  0  0  0
  147.0174  139.0230  152.2889 C   0  0  0  0  0  0  0  0  0  0  0  0
  149.2312  141.7199  154.3359 H   0  0  0  0  0  0  0  0  0  0  0  0
  148.0672  140.8257  155.3015 H   0  0  0  0  0  0  0  0  0  0  0  0
  147.6534  141.3611  153.6780 H   0  0  0  0  0  0  0  0  0  0  0  0
  149.4304  139.8835  152.7177 H   0  0  0  0  0  0  0  0  0  0  0  0
  149.7360  138.5784  155.4326 H   0  0  0  0  0  0  0  0  0  0  0  0
  150.4981  138.1038  153.9447 H   0  0  0  0  0  0  0  0  0  0  0  0
  150.5087  141.7688  155.9419 H   0  0  0  0  0  0  0  0  0  0  0  0
  150.5965  143.8519  157.0024 H   0  0  0  0  0  0  0  0  0  0  0  0
  151.1321  145.1341  158.9616 H   0  0  0  0  0  0  0  0  0  0  0  0
  153.4571  140.4804  160.7354 H   0  0  0  0  0  0  0  0  0  0  0  0
  152.8405  141.6549  161.8821 H   0  0  0  0  0  0  0  0  0  0  0  0
  154.3341  141.9835  160.9965 H   0  0  0  0  0  0  0  0  0  0  0  0
  152.6593  140.4741  158.7182 H   0  0  0  0  0  0  0  0  0  0  0  0
  147.7445  137.8424  155.3863 H   0  0  0  0  0  0  0  0  0  0  0  0
  146.5107  139.0193  154.9704 H   0  0  0  0  0  0  0  0  0  0  0  0
  146.7114  136.1716  153.8464 H   0  0  0  0  0  0  0  0  0  0  0  0
  145.5282  136.7543  155.0024 H   0  0  0  0  0  0  0  0  0  0  0  0
  146.6028  137.0081  151.5679 H   0  0  0  0  0  0  0  0  0  0  0  0
  145.3631  138.1802  151.1654 H   0  0  0  0  0  0  0  0  0  0  0  0
  146.4545  139.9177  152.5585 H   0  0  0  0  0  0  0  0  0  0  0  0
  147.6083  139.2682  151.4056 H   0  0  0  0  0  0  0  0  0  0  0  0
  148.3998  137.8146  153.0832 H   0  0  0  0  0  0  0  0  0  0  0  0
  1  2  1  0  0  0  0
  1 22  1  0  0  0  0
  1 23  1  0  0  0  0
  1 24  1  0  0  0  0
  2  3  1  0  0  0  0
  2 16  1  0  0  0  0
  2 25  1  0  0  0  0
  3  4  1  0  0  0  0
  3 26  1  0  0  0  0
  3 27  1  0  0  0  0
  4  5  1  0  0  0  0
  5  6  2  0  0  0  0
  5  7  1  0  0  0  0
  7  8  1  0  0  0  0
  7 28  1  0  0  0  0
  8 15  2  0  0  0  0
  8  9  1  0  0  0  0
  9 10  2  0  0  0  0
  9 29  1  0  0  0  0
 10 11  1  0  0  0  0
 10 30  1  0  0  0  0
 11 12  2  0  0  0  0
 11 13  1  0  0  0  0
 13 14  1  0  0  0  0
 13 15  1  0  0  0  0
 14 31  1  0  0  0  0
 14 32  1  0  0  0  0
 14 33  1  0  0  0  0
 15 34  1  0  0  0  0
 16 21  1  0  0  0  0
 16 17  1  0  0  0  0
 16 43  1  0  0  0  0
 17 18  1  0  0  0  0
 17 35  1  0  0  0  0
 17 36  1  0  0  0  0
 18 19  1  0  0  0  0
 18 37  1  0  0  0  0
 18 38  1  0  0  0  0
 19 20  1  0  0  0  0
 20 21  1  0  0  0  0
 20 39  1  0  0  0  0
 20 40  1  0  0  0  0
 21 41  1  0  0  0  0
 21 42  1  0  0  0  0
M  CHG  1   4  -1
M  CHG  1  16   1
M  END
> <s_m_source_file>
AV-unprocessed.smi

> <i_m_source_file_index>
1100

> <i_lp_mmshare_version>
43012

> <i_f3d_flags>
0

> <s_epik_input>
W0NIMl0xW0NIMl1PW0NIMl1bQ0gyXU4xW0NASF0oW0NIM10pW0NIMl1bTkhdQyg9TylbTkhdYzJbY0hdW2NIXWMoPU8pbihbQ0gzXSlbY0hdMg==

> <s_epik_cmdline>
J2VwaWtfcHl0aG9uJywgJy1waCcsICc3LjAnLCAnLXRuJywgJzgnLCAnLW1hJywgJzIwMCcsICctbWV0YWxfYmluZGluZycsICctaW1hZScsICc8aW5maWxlLm1hZT4nLCAnLW9tYWUnLCAnPG91dGZpbGUubWFlPic=

> <r_lp_tautomer_probability>
1

> <r_epik_Ionization_Penalty>
6.79272

> <r_epik_Ionization_Penalty_Charging>
6.79272

> <r_epik_Ionization_Penalty_Neutral>
3.37009e-06

> <r_epik_State_Penalty>
7.34577

> <r_epik_Charging_Adjusted_Penalty>
14.1385

> <i_epik_Tot_Q>
0

> <i_epik_Tot_abs_Q>
2

> <r_epik_Metal_State_Penalty>
3.26257

> <b_epik_Metal_Only>
1

> <s_lp_Force_Field>
OPLS_2005

> <r_lp_Energy>
32.2868

> <b_lp_Chiralities_Consistent>
1

> <s_lp_Variant>
AV-unprocessed.smi:1100-6

> <Gold.Version>
5.8.1

> <Gold.Id.Protein>
6NUR|6NUR_protein|mol2

> <Gold.PLP.Fitness>
49.8550

> <Gold.PLP.PLP>
-39.6464

> <Gold.PLP.part.hbond>
-3.7559

> <Gold.PLP.part.metal>
0.0000

> <Gold.PLP.part.buried>
2.3923

> <Gold.PLP.part.nonpolar>
-37.9430

> <Gold.PLP.part.repulsive>
0.5233

> <Gold.PLP.ligand.clash>
0.0000

> <Gold.PLP.ligand.torsion>
0.9743

> <Gold.PLP.Chemscore.Hbond>
4.0000

> <Gold.PLP.Chemscore.CHOScore>
0.0000

> <Gold.PLP.Chemscore.Metal>
0.0000

> <Gold.Chemscore.Hbonds>
donor molecule, donor type, donor heavy atom, donor atom, acceptor molecule, acceptor atom, score
      L1  H    16    43       P1  7948  1.85
      P1  H  7989  7998       L1     4  1.00
      P1  H  7997  8009       L1     6  1.00

> <Gold.PLP.Chemscore.Internal.Correction>
0.1573

> <Gold.Rescore>
     Score         DG    S(hbond)    S(metal)    S(lipo)     H(rot)  DE(clash)    DE(int)     intcor
     17.85     -21.56       2.86        0.00      88.99       1.51       1.48       2.23       ----

> <Gold.Chemscore.Fitness>
17.8518

> <Gold.Chemscore.DG>
-21.5639

> <Gold.Chemscore.ZeroCoef>
-5.4800

> <Gold.Chemscore.Hbond>
2.8577

> <Gold.Chemscore.Metal>
0.0000

> <Gold.Chemscore.Lipo>
88.9888

> <Gold.Chemscore.Internal_Hbond>
0.0000

> <Gold.Chemscore.DEClash>
1.4837

> <Gold.Chemscore.DEInternal>
2.2284

> <Gold.Chemscore.Rot>
1.5128

> <Gold.Chemscore.Internal.Correction>
   9.000000E+99

> <Gold.Chemscore.Hbonds>
donor molecule, donor type, donor heavy atom, donor atom, acceptor molecule, acceptor atom, score
      L1  H    16    43       P1  7948  0.88
      P1  H  7989  7998       L1     4  0.89
      P1  H  7997  8009       L1     6  0.85

> <Gold.Chemscore.Hbond.Weighted>
-9.5449

> <Gold.Chemscore.Metal.Weighted>
-0.0000

> <Gold.Chemscore.Lipo.Weighted>
-10.4117

> <Gold.Chemscore.Internal_Hbond.Weighted>
0.0000

> <Gold.Chemscore.DEClash.Weighted>
1.4837

> <Gold.Chemscore.DEInternal.Weighted>
2.2284

> <Gold.Chemscore.Rot.Weighted>
3.8726

> <Gold.Chemscore.Internal.Correction.Weighted>
   9.000000E+99

> <Gold.Protein.RotatedTorsions>
[ 6907 6896 6895 6894 ] final   16.23 input  -60.11 | X-H torsion
[ 7974 7965 7964 7962 ] final -148.51 input  175.53 | X-H torsion
[ 8008 7997 7996 7995 ] final -157.50 input   59.86 | X-H torsion
[ 10167 10162 10161 10158 ] final    6.56 input  -65.29 | X-H torsion
[ 10718 10713 10712 10709 ] final  -68.82 input   66.30 | X-H torsion
[ 10763 10752 10751 10750 ] final  123.03 input  -60.55 | X-H torsion
[ 11005 11000 10999 10996 ] final   36.75 input  -57.11 | X-H torsion

> <Gold.Protein.ActiveResidues>
 VAL166  LYS551  ARG553  GLY616  TRP617  ASP618  TYR619  PRO620  LYS621  CYS622 
 ASP623  PHE694  ASN695  SER759  ASP760  ASP761  ALA762  ILE779  LEU786  VAL792 
 PHE793  MET794  SER795  GLU796  ALA797  LYS798  CYS799  TRP800  GLU811  SER814 

> <Gold.Protein.RotatedAtoms>
  151.8306  135.0622  160.0436 H   0  0  0  0  0  0  0  0  0  0  0  0  # atno 6907 bound_to 6896
  152.2883  133.5532  159.5549 H   0  0  0  0  0  0  0  0  0  0  0  0  # atno 6908 bound_to 6896
  150.7219  134.0381  159.3798 H   0  0  0  0  0  0  0  0  0  0  0  0  # atno 6909 bound_to 6896
  144.8025  140.5186  143.5698 H   0  0  0  0  0  0  0  0  0  0  0  0  # atno 7974 bound_to 7965
  155.7334  140.0805  157.2278 H   0  0  0  0  0  0  0  0  0  0  0  0  # atno 8008 bound_to 7997
  154.4030  140.1591  156.2589 H   0  0  0  0  0  0  0  0  0  0  0  0  # atno 8009 bound_to 7997
  155.9088  140.3405  155.6085 H   0  0  0  0  0  0  0  0  0  0  0  0  # atno 8010 bound_to 7997
  140.6421  143.7749  150.7443 H   0  0  0  0  0  0  0  0  0  0  0  0  # atno 10167 bound_to 10162
  156.0486  130.4301  150.2056 H   0  0  0  0  0  0  0  0  0  0  0  0  # atno 10718 bound_to 10713
  153.6391  135.3382  155.3066 H   0  0  0  0  0  0  0  0  0  0  0  0  # atno 10763 bound_to 10752
  154.8563  135.4314  154.2024 H   0  0  0  0  0  0  0  0  0  0  0  0  # atno 10764 bound_to 10752
  153.2938  135.7019  153.7341 H   0  0  0  0  0  0  0  0  0  0  0  0  # atno 10765 bound_to 10752
  140.2294  134.3545  155.7970 H   0  0  0  0  0  0  0  0  0  0  0  0  # atno 11005 bound_to 11000
  145.5519  139.1477  143.3389 LP  0  0  0  0  0  0  0  0  0  0  0  0  # atno 17320 bound_to 7965
  146.2309  140.5657  142.8976 LP  0  0  0  0  0  0  0  0  0  0  0  0  # atno 17321 bound_to 7965
  140.1383  143.4464  152.2210 LP  0  0  0  0  0  0  0  0  0  0  0  0  # atno 17342 bound_to 10162
  139.5630  144.7418  151.4100 LP  0  0  0  0  0  0  0  0  0  0  0  0  # atno 17343 bound_to 10162
  157.0142  130.9960  151.3357 LP  0  0  0  0  0  0  0  0  0  0  0  0  # atno 17370 bound_to 10713
  157.5389  130.8107  149.8005 LP  0  0  0  0  0  0  0  0  0  0  0  0  # atno 17371 bound_to 10713
  141.2218  133.7237  156.8707 LP  0  0  0  0  0  0  0  0  0  0  0  0  # atno 17394 bound_to 11000
  140.1766  134.9063  157.2898 LP  0  0  0  0  0  0  0  0  0  0  0  0  # atno 17395 bound_to 11000

$$$$
