AV-unprocessed.smi:1869|AV-procd|sdf|7592|dock4
  -GOLD-   22720 9303D 1   1.00000     0.00000
 Structure written by MMmdl.
 39 40  0  0  0  0  0  0  0  0  1 V2000
  145.5844  136.6296  151.7208 C   0  0  0  0  0  0  0  0  0  0  0  0
  146.0224  137.5692  152.6865 O   0  0  0  0  0  0  0  0  0  0  0  0
  146.6285  138.7089  152.0998 C   0  0  0  0  0  0  0  0  0  0  0  0
  147.2117  139.5934  153.2060 C   0  0  0  0  0  0  0  0  0  0  0  0
  148.4914  139.0861  153.5726 O   0  0  0  0  0  0  0  0  0  0  0  0
  149.2120  139.7527  154.5420 C   0  0  0  0  0  0  0  0  0  0  0  0
  148.5412  140.6873  155.3556 C   0  0  0  0  0  0  0  0  0  0  0  0
  149.2672  141.3699  156.3502 C   0  0  0  0  0  0  0  0  0  0  0  0
  150.6451  141.0878  156.5054 C   0  0  0  0  0  0  0  0  0  0  0  0
  151.4874  141.7226  157.4572 N   0  0  0  0  0  0  0  0  0  0  0  0
  151.1991  142.7448  158.2874 C   0  0  0  0  0  0  0  0  0  0  0  0
  150.0937  143.2859  158.3331 O   0  0  0  0  0  0  0  0  0  0  0  0
  152.2295  143.1200  159.0892 N   0  0  0  0  0  0  0  0  0  0  0  0
  153.3665  142.2765  159.4957 C   0  0  0  0  0  0  0  0  0  0  0  0
  153.0877  141.6971  160.8924 C   0  0  0  0  0  0  0  0  0  0  0  0
  152.9485  143.0241  162.1306 S   0  0  0  0  0  0  0  0  0  0  0  0
  151.7677  144.1170  161.2787 C   0  0  0  0  0  0  0  0  0  0  0  0
  152.2094  144.3874  159.8302 C   0  0  0  0  0  0  0  0  0  0  0  0
  151.2263  140.1492  155.6283 C   0  0  0  0  0  0  0  0  0  0  0  0
  150.5361  139.4907  154.6735 N   0  0  0  0  0  0  0  0  0  0  0  0
  145.1320  135.7738  152.2219 H   0  0  0  0  0  0  0  0  0  0  0  0
  146.4171  136.2650  151.1177 H   0  0  0  0  0  0  0  0  0  0  0  0
  144.8358  137.0656  151.0580 H   0  0  0  0  0  0  0  0  0  0  0  0
  147.4297  138.3848  151.4340 H   0  0  0  0  0  0  0  0  0  0  0  0
  145.9104  139.2707  151.5004 H   0  0  0  0  0  0  0  0  0  0  0  0
  147.2756  140.6282  152.8652 H   0  0  0  0  0  0  0  0  0  0  0  0
  146.5498  139.5653  154.0730 H   0  0  0  0  0  0  0  0  0  0  0  0
  147.4876  140.8802  155.2169 H   0  0  0  0  0  0  0  0  0  0  0  0
  148.7592  142.1007  156.9602 H   0  0  0  0  0  0  0  0  0  0  0  0
  152.3990  141.3052  157.5751 H   0  0  0  0  0  0  0  0  0  0  0  0
  153.5771  141.4714  158.7917 H   0  0  0  0  0  0  0  0  0  0  0  0
  154.2808  142.8715  159.5177 H   0  0  0  0  0  0  0  0  0  0  0  0
  152.1657  141.1145  160.8870 H   0  0  0  0  0  0  0  0  0  0  0  0
  153.8905  141.0232  161.1918 H   0  0  0  0  0  0  0  0  0  0  0  0
  150.7798  143.6549  161.2952 H   0  0  0  0  0  0  0  0  0  0  0  0
  151.6921  145.0515  161.8346 H   0  0  0  0  0  0  0  0  0  0  0  0
  153.1982  144.8480  159.8171 H   0  0  0  0  0  0  0  0  0  0  0  0
  151.5453  145.1213  159.3713 H   0  0  0  0  0  0  0  0  0  0  0  0
  152.2783  139.9131  155.6972 H   0  0  0  0  0  0  0  0  0  0  0  0
  1  2  1  0  0  0  0
  1 21  1  0  0  0  0
  1 22  1  0  0  0  0
  1 23  1  0  0  0  0
  2  3  1  0  0  0  0
  3  4  1  0  0  0  0
  3 24  1  0  0  0  0
  3 25  1  0  0  0  0
  4  5  1  0  0  0  0
  4 26  1  0  0  0  0
  4 27  1  0  0  0  0
  5  6  1  0  0  0  0
  6 20  1  0  0  0  0
  6  7  2  0  0  0  0
  7  8  1  0  0  0  0
  7 28  1  0  0  0  0
  8  9  2  0  0  0  0
  8 29  1  0  0  0  0
  9 10  1  0  0  0  0
  9 19  1  0  0  0  0
 10 11  1  0  0  0  0
 10 30  1  0  0  0  0
 11 12  2  0  0  0  0
 11 13  1  0  0  0  0
 13 18  1  0  0  0  0
 13 14  1  0  0  0  0
 14 15  1  0  0  0  0
 14 31  1  0  0  0  0
 14 32  1  0  0  0  0
 15 16  1  0  0  0  0
 15 33  1  0  0  0  0
 15 34  1  0  0  0  0
 16 17  1  0  0  0  0
 17 18  1  0  0  0  0
 17 35  1  0  0  0  0
 17 36  1  0  0  0  0
 18 37  1  0  0  0  0
 18 38  1  0  0  0  0
 19 20  2  0  0  0  0
 19 39  1  0  0  0  0
M  END
> <s_m_source_file>
AV-unprocessed.smi

> <i_m_source_file_index>
1869

> <i_lp_mmshare_version>
43012

> <i_f3d_flags>
0

> <s_epik_input>
W0NIM11PW0NIMl1bQ0gyXU9jMVtjSF1bY0hdYyhbY0hdbjEpW05IXUMoPU8pTjJbQ0gyXVtDSDJdU1tDSDJdW0NIMl0y

> <s_epik_cmdline>
J2VwaWtfcHl0aG9uJywgJy1waCcsICc3LjAnLCAnLXRuJywgJzgnLCAnLW1hJywgJzIwMCcsICctbWV0YWxfYmluZGluZycsICctaW1hZScsICc8aW5maWxlLm1hZT4nLCAnLW9tYWUnLCAnPG91dGZpbGUubWFlPic=

> <r_lp_tautomer_probability>
1

> <r_epik_Ionization_Penalty>
6.51674e-05

> <r_epik_Ionization_Penalty_Charging>
0

> <r_epik_Ionization_Penalty_Neutral>
6.51674e-05

> <r_epik_State_Penalty>
-0

> <r_epik_Charging_Adjusted_Penalty>
0

> <i_epik_Tot_Q>
0

> <i_epik_Tot_abs_Q>
0

> <r_epik_Metal_State_Penalty>
-0

> <b_epik_Metal_Only>
0

> <s_lp_Force_Field>
OPLS_2005

> <r_lp_Energy>
28.6984

> <b_lp_Chiralities_Consistent>
1

> <s_lp_Variant>
AV-unprocessed.smi:1869-1

> <Gold.Version>
5.8.1

> <Gold.Id.Protein>
6NUR|6NUR_protein|mol2

> <Gold.PLP.Fitness>
42.1427

> <Gold.PLP.PLP>
-43.0815

> <Gold.PLP.part.hbond>
-0.8872

> <Gold.PLP.part.metal>
0.0000

> <Gold.PLP.part.buried>
-4.5795

> <Gold.PLP.part.nonpolar>
-40.6372

> <Gold.PLP.part.repulsive>
2.9779

> <Gold.PLP.ligand.clash>
0.0000

> <Gold.PLP.ligand.torsion>
0.5174

> <Gold.PLP.Chemscore.Hbond>
0.0000

> <Gold.PLP.Chemscore.CHOScore>
0.0000

> <Gold.PLP.Chemscore.Metal>
0.0000

> <Gold.PLP.Chemscore.Internal.Correction>
0.0961

> <Gold.Rescore>
     Score         DG    S(hbond)    S(metal)    S(lipo)     H(rot)  DE(clash)    DE(int)     intcor
     11.30     -13.41       0.00        0.00     102.94       1.61       0.27       1.85       ----

> <Gold.Chemscore.Fitness>
11.2967

> <Gold.Chemscore.DG>
-13.4077

> <Gold.Chemscore.ZeroCoef>
-5.4800

> <Gold.Chemscore.Hbond>
0.0000

> <Gold.Chemscore.Metal>
0.0000

> <Gold.Chemscore.Lipo>
102.9381

> <Gold.Chemscore.Internal_Hbond>
0.0000

> <Gold.Chemscore.DEClash>
0.2653

> <Gold.Chemscore.DEInternal>
1.8457

> <Gold.Chemscore.Rot>
1.6078

> <Gold.Chemscore.Internal.Correction>
   9.000000E+99

> <Gold.Chemscore.Hbond.Weighted>
-0.0000

> <Gold.Chemscore.Metal.Weighted>
-0.0000

> <Gold.Chemscore.Lipo.Weighted>
-12.0438

> <Gold.Chemscore.Internal_Hbond.Weighted>
0.0000

> <Gold.Chemscore.DEClash.Weighted>
0.2653

> <Gold.Chemscore.DEInternal.Weighted>
1.8457

> <Gold.Chemscore.Rot.Weighted>
4.1161

> <Gold.Chemscore.Internal.Correction.Weighted>
   9.000000E+99

> <Gold.Protein.RotatedTorsions>
[ 6907 6896 6895 6894 ] final  -35.76 input  -60.11 | X-H torsion
[ 7974 7965 7964 7962 ] final  161.53 input  175.53 | X-H torsion
[ 8008 7997 7996 7995 ] final -106.57 input   59.86 | X-H torsion
[ 10167 10162 10161 10158 ] final  135.78 input  -65.29 | X-H torsion
[ 10718 10713 10712 10709 ] final   22.27 input   66.30 | X-H torsion
[ 10763 10752 10751 10750 ] final   92.87 input  -60.55 | X-H torsion
[ 11005 11000 10999 10996 ] final -122.51 input  -57.11 | X-H torsion

> <Gold.Protein.ActiveResidues>
 VAL166  LYS551  ARG553  GLY616  TRP617  ASP618  TYR619  PRO620  LYS621  CYS622 
 ASP623  PHE694  ASN695  SER759  ASP760  ASP761  ALA762  ILE779  LEU786  VAL792 
 PHE793  MET794  SER795  GLU796  ALA797  LYS798  CYS799  TRP800  GLU811  SER814 

> <Gold.Protein.RotatedAtoms>
  151.0357  134.9571  159.8134 H   0  0  0  0  0  0  0  0  0  0  0  0  # atno 6907 bound_to 6896
  152.5354  134.2722  159.8986 H   0  0  0  0  0  0  0  0  0  0  0  0  # atno 6908 bound_to 6896
  151.2733  133.4202  159.2656 H   0  0  0  0  0  0  0  0  0  0  0  0  # atno 6909 bound_to 6896
  144.7681  139.7911  143.6307 H   0  0  0  0  0  0  0  0  0  0  0  0  # atno 7974 bound_to 7965
  154.9165  140.0408  157.1975 H   0  0  0  0  0  0  0  0  0  0  0  0  # atno 8008 bound_to 7997
  154.8296  140.2897  155.5710 H   0  0  0  0  0  0  0  0  0  0  0  0  # atno 8009 bound_to 7997
  156.2986  140.2503  156.3218 H   0  0  0  0  0  0  0  0  0  0  0  0  # atno 8010 bound_to 7997
  139.5204  144.6499  151.5332 H   0  0  0  0  0  0  0  0  0  0  0  0  # atno 10167 bound_to 10162
  157.1500  130.6670  149.6009 H   0  0  0  0  0  0  0  0  0  0  0  0  # atno 10718 bound_to 10713
  153.2240  135.4346  155.0521 H   0  0  0  0  0  0  0  0  0  0  0  0  # atno 10763 bound_to 10752
  154.8264  135.3363  154.6885 H   0  0  0  0  0  0  0  0  0  0  0  0  # atno 10764 bound_to 10752
  153.7315  135.7010  153.5044 H   0  0  0  0  0  0  0  0  0  0  0  0  # atno 10765 bound_to 10752
  140.9989  134.0431  157.3562 H   0  0  0  0  0  0  0  0  0  0  0  0  # atno 11005 bound_to 11000
  146.1806  139.4996  142.9869 LP  0  0  0  0  0  0  0  0  0  0  0  0  # atno 17320 bound_to 7965
  145.6407  141.0285  143.1813 LP  0  0  0  0  0  0  0  0  0  0  0  0  # atno 17321 bound_to 7965
  140.6300  143.9095  150.6597 LP  0  0  0  0  0  0  0  0  0  0  0  0  # atno 17342 bound_to 10162
  140.2396  143.3674  152.1498 LP  0  0  0  0  0  0  0  0  0  0  0  0  # atno 17343 bound_to 10162
  155.9772  130.4748  150.6579 LP  0  0  0  0  0  0  0  0  0  0  0  0  # atno 17370 bound_to 10713
  157.4229  131.0839  151.1114 LP  0  0  0  0  0  0  0  0  0  0  0  0  # atno 17371 bound_to 10713
  139.9029  135.0170  156.7351 LP  0  0  0  0  0  0  0  0  0  0  0  0  # atno 17394 bound_to 11000
  140.6921  133.9381  155.7972 LP  0  0  0  0  0  0  0  0  0  0  0  0  # atno 17395 bound_to 11000

$$$$
