#       Name:                AV-unprocessed.smi:2489
#       Creating user name   scv26
#       Creation time:       Fri Mar 27 13:43:27 2020


#       File generated by GOLD software.
#

@<TRIPOS>MOLECULE
AV-unprocessed.smi:2489
    40    41     1
SMALL
NO_CHARGES


@<TRIPOS>ATOM
      1 ****        -5.2943   2.4068   0.1996 C.3            1 S1                 0.0000
      2 ****        -3.8856   2.2619   0.3045 O.3            1 S1                 0.0000
      3 ****        -3.3735   0.9843   0.3699 C.ar           1 S1                 0.0000
      4 ****        -4.1541  -0.1954   0.3358 C.ar           1 S1                 0.0000
      5 ****        -3.4961  -1.4367   0.4111 C.ar           1 S1                 0.0000
      6 ****        -2.1574  -1.5608   0.5142 N.ar           1 S1                 0.0000
      7 ****        -1.3939  -0.4418   0.5488 C.ar           1 S1                 0.0000
      8 ****         0.0216  -0.4563   0.6585 N.am           1 S1                 0.0000
      9 ****         0.8486  -1.5186   0.7086 C.2            1 S1                 0.0000
     10 ****         0.4731  -2.6912   0.6872 O.2            1 S1                 0.0000
     11 ****         2.3526  -1.2123   0.8274 C.3            1 S1                 0.0000
     12 ****         3.2258  -2.0342  -0.1429 C.3            1 S1                 0.0000
     13 ****         3.9979  -0.9870  -0.9253 C.3            1 S1                 0.0000
     14 ****         3.0888   0.2323  -0.8348 C.3            1 S1                 0.0000
     15 ****         3.7989   1.5678  -1.0787 C.3            1 S1                 0.0000
     16 ****         2.6106   0.1555   0.4994 O.3            1 S1                 0.0000
     17 ****        -1.9749   0.8439   0.4783 C.ar           1 S1                 0.0000
     18 ****        -5.5452   3.4666   0.1586 H              1 S1                 0.0000
     19 ****        -5.8044   1.9804   1.0645 H              1 S1                 0.0000
     20 ****        -5.6762   1.9420  -0.7104 H              1 S1                 0.0000
     21 ****        -5.2302  -0.1752   0.2546 H              1 S1                 0.0000
     22 ****        -4.0611  -2.3566   0.3880 H              1 S1                 0.0000
     23 ****         0.4665   0.4496   0.6907 H              1 S1                 0.0000
     24 ****         2.6585  -1.3819   1.8601 H              1 S1                 0.0000
     25 ****         3.8946  -2.7154   0.3839 H              1 S1                 0.0000
     26 ****         2.6249  -2.6325  -0.8297 H              1 S1                 0.0000
     27 ****         4.9498  -0.7867  -0.4312 H              1 S1                 0.0000
     28 ****         4.2053  -1.2887  -1.9524 H              1 S1                 0.0000
     29 ****         2.2462   0.1229  -1.5200 H              1 S1                 0.0000
     30 ****         4.1964   1.6195  -2.0924 H              1 S1                 0.0000
     31 ****         4.6284   1.7082  -0.3849 H              1 S1                 0.0000
     32 ****         3.1105   2.4028  -0.9477 H              1 S1                 0.0000
     33 ****        -1.3519   1.7263   0.5067 H              1 S1                 0.0000
     34 ****        -3.5975   2.7414   1.1334 LP             1 S1                 0.0000
     35 ****        -3.4800   2.7051  -0.4949 LP             1 S1                 0.0000
     36 ****        -1.7342  -2.4654   0.5644 LP             1 S1                 0.0000
     37 ****        -0.5025  -2.9028   0.6293 LP             1 S1                 0.0000
     38 ****         1.1438  -3.4318   0.7277 LP             1 S1                 0.0000
     39 ****         3.2990   0.5252   1.1234 LP             1 S1                 0.0000
     40 ****         1.7663   0.6847   0.5832 LP             1 S1                 0.0000
@<TRIPOS>BOND
    1    1    2 1     
    2    1   18 1     
    3    1   19 1     
    4    1   20 1     
    5    2    3 1     
    6    3   17 ar    
    7    3    4 ar    
    8    4    5 ar    
    9    4   21 1     
   10    5    6 ar    
   11    5   22 1     
   12    6    7 ar    
   13    7    8 1     
   14    7   17 ar    
   15    8    9 am    
   16    8   23 1     
   17    9   10 2     
   18    9   11 1     
   19   11   16 1     
   20   11   12 1     
   21   11   24 1     
   22   12   13 1     
   23   12   25 1     
   24   12   26 1     
   25   13   14 1     
   26   13   27 1     
   27   13   28 1     
   28   14   15 1     
   29   14   16 1     
   30   14   29 1     
   31   15   30 1     
   32   15   31 1     
   33   15   32 1     
   34   17   33 1     
   35    2   34 1     
   36    2   35 1     
   37    6   36 1     
   38   10   37 1     
   39   10   38 1     
   40   16   39 1     
   41   16   40 1     
@<TRIPOS>SUBSTRUCTURE
      1 S1             1
@<TRIPOS>SET
LONE_PAIRS      STATIC     ATOMS    <user>   **** ""
7 34 35 36 37 38 39 40
DONOR_HYDROGENS      STATIC     ATOMS    <user>   **** ""
1 23
ATOM$BLUE        STATIC     ATOMS    COLORGROUP SYSTEM
7 34 35 36 37 38 39 40
ATOM$RED        STATIC     ATOMS    COLORGROUP SYSTEM
1 23
