AV-unprocessed.smi:1720|AV-procd|sdf|6933|dock9
  -GOLD-   22720 8143D 1   1.00000     0.00000
 Structure written by MMmdl.
 32 33  0  0  0  0  0  0  0  0  1 V2000
  150.8997  145.3156  159.4038 C   0  0  0  0  0  0  0  0  0  0  0  0
  151.6431  144.1125  158.8053 C   0  0  2  0  0  0  0  0  0  0  0  0
  150.8822  143.6116  157.6616 N   0  0  0  0  0  0  0  0  0  0  0  0
  151.0034  142.3961  157.1082 C   0  0  0  0  0  0  0  0  0  0  0  0
  151.7830  141.5339  157.5137 O   0  0  0  0  0  0  0  0  0  0  0  0
  150.1648  142.2498  156.0696 N   0  0  0  0  0  0  0  0  0  0  0  0
  150.0079  141.1077  155.2441 C   0  0  0  0  0  0  0  0  0  0  0  0
  150.7783  139.9183  155.3529 C   0  0  0  0  0  0  0  0  0  0  0  0
  150.4112  139.0199  154.4504 N   0  0  0  0  0  0  0  0  0  0  0  0
  149.4123  139.6237  153.7677 N   0  0  0  0  0  0  0  0  0  0  0  0
  149.1318  140.8953  154.2167 C   0  0  0  0  0  0  0  0  0  0  0  0
  151.8563  142.9928  159.8451 C   0  0  1  0  0  0  0  0  0  0  0  0
  153.2126  142.2870  159.7685 C   0  0  0  0  0  0  0  0  0  0  0  0
  153.3624  141.7568  161.1753 C   0  0  0  0  0  0  0  0  0  0  0  0
  152.7804  142.9016  161.9978 C   0  0  0  0  0  0  0  0  0  0  0  0
  151.8018  143.5228  161.1684 O   0  0  0  0  0  0  0  0  0  0  0  0
  148.9375  139.1607  153.0058 H   0  0  0  0  0  0  0  0  0  0  0  0
  151.4588  145.7512  160.2325 H   0  0  0  0  0  0  0  0  0  0  0  0
  149.9166  145.0301  159.7797 H   0  0  0  0  0  0  0  0  0  0  0  0
  150.7577  146.0993  158.6588 H   0  0  0  0  0  0  0  0  0  0  0  0
  152.6219  144.4650  158.4750 H   0  0  0  0  0  0  0  0  0  0  0  0
  150.2110  144.2479  157.2568 H   0  0  0  0  0  0  0  0  0  0  0  0
  149.5733  143.0371  155.8477 H   0  0  0  0  0  0  0  0  0  0  0  0
  151.5759  139.6820  156.0419 H   0  0  0  0  0  0  0  0  0  0  0  0
  148.3592  141.5071  153.7751 H   0  0  0  0  0  0  0  0  0  0  0  0
  151.0657  142.2451  159.7582 H   0  0  0  0  0  0  0  0  0  0  0  0
  153.2440  141.5035  159.0108 H   0  0  0  0  0  0  0  0  0  0  0  0
  154.0085  143.0021  159.5548 H   0  0  0  0  0  0  0  0  0  0  0  0
  152.7600  140.8560  161.3020 H   0  0  0  0  0  0  0  0  0  0  0  0
  154.3935  141.5213  161.4406 H   0  0  0  0  0  0  0  0  0  0  0  0
  152.3480  142.5601  162.9383 H   0  0  0  0  0  0  0  0  0  0  0  0
  153.5530  143.6361  162.2279 H   0  0  0  0  0  0  0  0  0  0  0  0
  1  2  1  0  0  0  0
  1 18  1  0  0  0  0
  1 19  1  0  0  0  0
  1 20  1  0  0  0  0
  2  3  1  0  0  0  0
  2 12  1  0  0  0  0
  2 21  1  0  0  0  0
  3  4  1  0  0  0  0
  3 22  1  0  0  0  0
  4  5  2  0  0  0  0
  4  6  1  0  0  0  0
  6  7  1  0  0  0  0
  6 23  1  0  0  0  0
  7 11  2  0  0  0  0
  7  8  1  0  0  0  0
  8  9  2  0  0  0  0
  8 24  1  0  0  0  0
  9 10  1  0  0  0  0
 10 17  1  0  0  0  0
 10 11  1  0  0  0  0
 11 25  1  0  0  0  0
 12 16  1  0  0  0  0
 12 13  1  0  0  0  0
 12 26  1  0  0  0  0
 13 14  1  0  0  0  0
 13 27  1  0  0  0  0
 13 28  1  0  0  0  0
 14 15  1  0  0  0  0
 14 29  1  0  0  0  0
 14 30  1  0  0  0  0
 15 16  1  0  0  0  0
 15 31  1  0  0  0  0
 15 32  1  0  0  0  0
M  END
> <s_m_source_file>
AV-unprocessed.smi

> <i_m_source_file_index>
1720

> <i_lp_mmshare_version>
43012

> <i_f3d_flags>
0

> <s_epik_input>
TzFbQ0gyXVtDSDJdW0NIMl1bQ0BIXTFbQ0BIXShbQ0gzXSlbTkhdQyg9TylbTkhdYzJbY0hdbltuSF1bY0hdMg==

> <s_epik_cmdline>
J2VwaWtfcHl0aG9uJywgJy1waCcsICc3LjAnLCAnLXRuJywgJzgnLCAnLW1hJywgJzIwMCcsICctbWV0YWxfYmluZGluZycsICctaW1hZScsICc8aW5maWxlLm1hZT4nLCAnLW9tYWUnLCAnPG91dGZpbGUubWFlPic=

> <r_lp_tautomer_probability>
1

> <r_epik_Ionization_Penalty>
4.95841e-05

> <r_epik_Ionization_Penalty_Charging>
0

> <r_epik_Ionization_Penalty_Neutral>
4.95841e-05

> <r_epik_State_Penalty>
-0

> <r_epik_Charging_Adjusted_Penalty>
0

> <i_epik_Tot_Q>
0

> <i_epik_Tot_abs_Q>
0

> <r_epik_Metal_State_Penalty>
-0

> <b_epik_Metal_Only>
0

> <s_lp_Force_Field>
OPLS_2005

> <r_lp_Energy>
20.0516

> <b_lp_Chiralities_Consistent>
1

> <s_lp_Variant>
AV-unprocessed.smi:1720-3

> <Gold.Version>
5.8.1

> <Gold.Id.Protein>
6NUR|6NUR_protein|mol2

> <Gold.PLP.Fitness>
42.7759

> <Gold.PLP.PLP>
-39.5672

> <Gold.PLP.part.hbond>
-3.0000

> <Gold.PLP.part.metal>
0.0000

> <Gold.PLP.part.buried>
-4.1608

> <Gold.PLP.part.nonpolar>
-32.1632

> <Gold.PLP.part.repulsive>
0.5551

> <Gold.PLP.ligand.clash>
0.0000

> <Gold.PLP.ligand.torsion>
1.3237

> <Gold.PLP.Chemscore.Hbond>
1.9489

> <Gold.PLP.Chemscore.CHOScore>
0.0000

> <Gold.PLP.Chemscore.Metal>
0.0000

> <Gold.Chemscore.Hbonds>
donor molecule, donor type, donor heavy atom, donor atom, acceptor molecule, acceptor atom, score
      L1  H     3    22       P1  8028  0.83
      L1  H     6    23       P1  8028  1.00
      L1  H    10    17       P1  7957  0.13

> <Gold.PLP.Chemscore.Internal.Correction>
0.0095

> <Gold.Rescore>
     Score         DG    S(hbond)    S(metal)    S(lipo)     H(rot)  DE(clash)    DE(int)     intcor
     14.57     -19.45       1.94        0.00      92.62       1.31       0.39       4.48       ----

> <Gold.Chemscore.Fitness>
14.5745

> <Gold.Chemscore.DG>
-19.4461

> <Gold.Chemscore.ZeroCoef>
-5.4800

> <Gold.Chemscore.Hbond>
1.9394

> <Gold.Chemscore.Metal>
0.0000

> <Gold.Chemscore.Lipo>
92.6238

> <Gold.Chemscore.Internal_Hbond>
0.0000

> <Gold.Chemscore.DEClash>
0.3926

> <Gold.Chemscore.DEInternal>
4.4791

> <Gold.Chemscore.Rot>
1.3079

> <Gold.Chemscore.Internal.Correction>
   9.000000E+99

> <Gold.Chemscore.Hbonds>
donor molecule, donor type, donor heavy atom, donor atom, acceptor molecule, acceptor atom, score
      L1  H     3    22       P1  8028  0.57
      L1  H     6    23       P1  8028  1.00
      L1  H    10    17       P1  7957  0.13

> <Gold.Chemscore.Hbond.Weighted>
-6.4775

> <Gold.Chemscore.Metal.Weighted>
-0.0000

> <Gold.Chemscore.Lipo.Weighted>
-10.8370

> <Gold.Chemscore.Internal_Hbond.Weighted>
0.0000

> <Gold.Chemscore.DEClash.Weighted>
0.3926

> <Gold.Chemscore.DEInternal.Weighted>
4.4791

> <Gold.Chemscore.Rot.Weighted>
3.3483

> <Gold.Chemscore.Internal.Correction.Weighted>
   9.000000E+99

> <Gold.Protein.RotatedTorsions>
[ 6907 6896 6895 6894 ] final  160.16 input  -60.11 | X-H torsion
[ 7974 7965 7964 7962 ] final -111.16 input  175.53 | X-H torsion
[ 8008 7997 7996 7995 ] final    5.81 input   59.86 | X-H torsion
[ 10167 10162 10161 10158 ] final -132.76 input  -65.29 | X-H torsion
[ 10718 10713 10712 10709 ] final  -99.24 input   66.30 | X-H torsion
[ 10763 10752 10751 10750 ] final  -45.47 input  -60.55 | X-H torsion
[ 11005 11000 10999 10996 ] final   84.23 input  -57.11 | X-H torsion

> <Gold.Protein.ActiveResidues>
 VAL166  LYS551  ARG553  GLY616  TRP617  ASP618  TYR619  PRO620  LYS621  CYS622 
 ASP623  PHE694  ASN695  SER759  ASP760  ASP761  ALA762  ILE779  LEU786  VAL792 
 PHE793  MET794  SER795  GLU796  ALA797  LYS798  CYS799  TRP800  GLU811  SER814 

> <Gold.Protein.RotatedAtoms>
  151.9747  133.3737  159.4084 H   0  0  0  0  0  0  0  0  0  0  0  0  # atno 6907 bound_to 6896
  150.6943  134.4102  159.5167 H   0  0  0  0  0  0  0  0  0  0  0  0  # atno 6908 bound_to 6896
  152.1812  134.8752  160.0577 H   0  0  0  0  0  0  0  0  0  0  0  0  # atno 6909 bound_to 6896
  145.1595  140.8871  143.3599 H   0  0  0  0  0  0  0  0  0  0  0  0  # atno 7974 bound_to 7965
  154.7330  140.2734  155.6439 H   0  0  0  0  0  0  0  0  0  0  0  0  # atno 8008 bound_to 7997
  156.2854  140.2712  156.1961 H   0  0  0  0  0  0  0  0  0  0  0  0  # atno 8009 bound_to 7997
  155.0356  140.0371  157.2480 H   0  0  0  0  0  0  0  0  0  0  0  0  # atno 8010 bound_to 7997
  139.9052  143.6559  152.2587 H   0  0  0  0  0  0  0  0  0  0  0  0  # atno 10167 bound_to 10162
  156.0129  130.5274  150.6641 H   0  0  0  0  0  0  0  0  0  0  0  0  # atno 10718 bound_to 10713
  154.0290  135.6659  153.4779 H   0  0  0  0  0  0  0  0  0  0  0  0  # atno 10763 bound_to 10752
  153.0548  135.5062  154.7951 H   0  0  0  0  0  0  0  0  0  0  0  0  # atno 10764 bound_to 10752
  154.6890  135.3058  154.9471 H   0  0  0  0  0  0  0  0  0  0  0  0  # atno 10765 bound_to 10752
  139.9006  134.8201  156.2417 H   0  0  0  0  0  0  0  0  0  0  0  0  # atno 11005 bound_to 11000
  145.0346  139.3312  143.6007 LP  0  0  0  0  0  0  0  0  0  0  0  0  # atno 17320 bound_to 7965
  146.3484  139.9696  142.8708 LP  0  0  0  0  0  0  0  0  0  0  0  0  # atno 17321 bound_to 7965
  139.6990  144.7637  151.1306 LP  0  0  0  0  0  0  0  0  0  0  0  0  # atno 17342 bound_to 10162
  140.7698  143.5484  150.9233 LP  0  0  0  0  0  0  0  0  0  0  0  0  # atno 17343 bound_to 10162
  157.4378  131.0857  151.0975 LP  0  0  0  0  0  0  0  0  0  0  0  0  # atno 17370 bound_to 10713
  157.1528  130.6191  149.5587 LP  0  0  0  0  0  0  0  0  0  0  0  0  # atno 17371 bound_to 10713
  141.0281  133.7004  156.1382 LP  0  0  0  0  0  0  0  0  0  0  0  0  # atno 17394 bound_to 11000
  140.7137  134.4434  157.5580 LP  0  0  0  0  0  0  0  0  0  0  0  0  # atno 17395 bound_to 11000

$$$$
