AV-unprocessed.smi:1824|AV-procd|sdf|7410|dock9
  -GOLD-   22720 9 83D 1   1.00000     0.00000
 Structure written by MMmdl.
 45 47  0  0  0  0  0  0  0  0  2 V2000
  146.8915  140.9402  153.4748 C   0  0  0  0  0  0  0  0  0  0  0  0
  147.6628  140.1159  154.5111 C   0  0  2  0  0  0  0  0  0  0  0  0
  149.0767  139.7440  154.0254 C   0  0  0  0  0  0  0  0  0  0  0  0
  149.7785  138.8964  154.9824 N   0  0  0  0  0  0  0  0  0  0  0  0
  151.1239  138.5713  154.5070 C   0  0  0  0  0  0  0  0  0  0  0  0
  152.2714  138.9810  155.4505 C   0  0  1  0  0  0  0  0  0  0  0  0
  152.9345  140.0912  154.8813 O   0  0  0  0  0  0  0  0  0  0  0  0
  151.7711  139.3620  156.8586 C   0  0  0  0  0  0  0  0  0  0  0  0
  151.2676  140.7391  156.9290 N   0  0  0  0  0  0  0  0  0  0  0  0
  150.5170  141.4465  156.0412 C   0  0  0  0  0  0  0  0  0  0  0  0
  150.3124  142.6840  156.5725 N   0  3  0  0  0  0  0  0  0  0  0  0
  150.9378  142.7662  157.8193 C   0  0  0  0  0  0  0  0  0  0  0  0
  151.0122  143.8086  158.7374 C   0  0  0  0  0  0  0  0  0  0  0  0
  151.7335  143.5601  159.9242 C   0  0  0  0  0  0  0  0  0  0  0  0
  151.8365  144.5406  160.8522 F   0  0  0  0  0  0  0  0  0  0  0  0
  152.3479  142.3120  160.1626 C   0  0  0  0  0  0  0  0  0  0  0  0
  153.0301  142.1148  161.3155 F   0  0  0  0  0  0  0  0  0  0  0  0
  152.2662  141.2628  159.2236 C   0  0  0  0  0  0  0  0  0  0  0  0
  151.5516  141.5185  158.0545 C   0  0  0  0  0  0  0  0  0  0  0  0
  148.9674  137.7094  155.2431 C   0  0  0  0  0  0  0  0  0  0  0  0
  147.5533  138.0756  155.7325 C   0  0  2  0  0  0  0  0  0  0  0  0
  146.6711  136.8392  155.9333 C   0  0  0  0  0  0  0  0  0  0  0  0
  146.9309  138.9207  154.7691 O   0  0  0  0  0  0  0  0  0  0  0  0
  147.4085  141.8743  153.2529 H   0  0  0  0  0  0  0  0  0  0  0  0
  145.8953  141.1905  153.8400 H   0  0  0  0  0  0  0  0  0  0  0  0
  146.7757  140.3910  152.5399 H   0  0  0  0  0  0  0  0  0  0  0  0
  147.7340  140.6928  155.4348 H   0  0  0  0  0  0  0  0  0  0  0  0
  149.0076  139.2337  153.0632 H   0  0  0  0  0  0  0  0  0  0  0  0
  149.6486  140.6566  153.8531 H   0  0  0  0  0  0  0  0  0  0  0  0
  151.1851  137.5002  154.3063 H   0  0  0  0  0  0  0  0  0  0  0  0
  151.2895  139.0627  153.5469 H   0  0  0  0  0  0  0  0  0  0  0  0
  153.0066  138.1799  155.5178 H   0  0  0  0  0  0  0  0  0  0  0  0
  152.9332  139.9915  153.9418 H   0  0  0  0  0  0  0  0  0  0  0  0
  150.9631  138.6979  157.1692 H   0  0  0  0  0  0  0  0  0  0  0  0
  152.5622  139.2517  157.6014 H   0  0  0  0  0  0  0  0  0  0  0  0
  150.1524  141.0911  155.0878 H   0  0  0  0  0  0  0  0  0  0  0  0
  150.5432  144.7649  158.5599 H   0  0  0  0  0  0  0  0  0  0  0  0
  152.7395  140.3111  159.4148 H   0  0  0  0  0  0  0  0  0  0  0  0
  148.8954  137.1059  154.3368 H   0  0  0  0  0  0  0  0  0  0  0  0
  149.4415  137.0839  155.9982 H   0  0  0  0  0  0  0  0  0  0  0  0
  147.6237  138.6124  156.6803 H   0  0  0  0  0  0  0  0  0  0  0  0
  147.1026  136.1655  156.6738 H   0  0  0  0  0  0  0  0  0  0  0  0
  146.5530  136.2833  155.0027 H   0  0  0  0  0  0  0  0  0  0  0  0
  145.6773  137.1220  156.2808 H   0  0  0  0  0  0  0  0  0  0  0  0
  149.7827  143.4158  156.1158 H   0  0  0  0  0  0  0  0  0  0  0  0
  1  2  1  0  0  0  0
  1 24  1  0  0  0  0
  1 25  1  0  0  0  0
  1 26  1  0  0  0  0
  2 23  1  0  0  0  0
  2  3  1  0  0  0  0
  2 27  1  0  0  0  0
  3  4  1  0  0  0  0
  3 28  1  0  0  0  0
  3 29  1  0  0  0  0
  4  5  1  0  0  0  0
  4 20  1  0  0  0  0
  5  6  1  0  0  0  0
  5 30  1  0  0  0  0
  5 31  1  0  0  0  0
  6  7  1  0  0  0  0
  6  8  1  0  0  0  0
  6 32  1  0  0  0  0
  7 33  1  0  0  0  0
  8  9  1  0  0  0  0
  8 34  1  0  0  0  0
  8 35  1  0  0  0  0
  9 19  1  0  0  0  0
  9 10  1  0  0  0  0
 10 11  2  0  0  0  0
 10 36  1  0  0  0  0
 11 12  1  0  0  0  0
 11 45  1  0  0  0  0
 12 19  2  0  0  0  0
 12 13  1  0  0  0  0
 13 14  2  0  0  0  0
 13 37  1  0  0  0  0
 14 15  1  0  0  0  0
 14 16  1  0  0  0  0
 16 17  1  0  0  0  0
 16 18  2  0  0  0  0
 18 19  1  0  0  0  0
 18 38  1  0  0  0  0
 20 21  1  0  0  0  0
 20 39  1  0  0  0  0
 20 40  1  0  0  0  0
 21 22  1  0  0  0  0
 21 23  1  0  0  0  0
 21 41  1  0  0  0  0
 22 42  1  0  0  0  0
 22 43  1  0  0  0  0
 22 44  1  0  0  0  0
M  CHG  1  11   1
M  END
> <s_m_source_file>
AV-unprocessed.smi

> <i_m_source_file_index>
1824

> <i_lp_mmshare_version>
43012

> <i_f3d_flags>
0

> <s_epik_input>
W0NIM11bQ0BASF0xW0NIMl1OKFtDSDJdW0NASF0oTzEpW0NIM10pW0NIMl1bQ0BIXShbT0hdKVtDSDJdbihbY0hdbjIpYyhjMjMpW2NIXWMoRiljKEYpW2NIXTM=

> <s_epik_cmdline>
J2VwaWtfcHl0aG9uJywgJy1waCcsICc3LjAnLCAnLXRuJywgJzgnLCAnLW1hJywgJzIwMCcsICctbWV0YWxfYmluZGluZycsICctaW1hZScsICc8aW5maWxlLm1hZT4nLCAnLW9tYWUnLCAnPG91dGZpbGUubWFlPic=

> <r_epik_Ionization_Penalty>
2.58709

> <r_epik_Ionization_Penalty_Charging>
2.37273

> <r_epik_Ionization_Penalty_Neutral>
0.214359

> <r_epik_State_Penalty>
2.71799

> <r_epik_Charging_Adjusted_Penalty>
5.09071

> <i_epik_Tot_Q>
1

> <i_epik_Tot_abs_Q>
1

> <r_epik_Metal_State_Penalty>
6.80217

> <b_epik_Metal_Only>
0

> <s_lp_Force_Field>
OPLS_2005

> <r_lp_Energy>
28.8683

> <b_lp_Chiralities_Consistent>
1

> <s_lp_Variant>
AV-unprocessed.smi:1824-18

> <Gold.Version>
5.8.1

> <Gold.Id.Protein>
6NUR|6NUR_protein|mol2

> <Gold.PLP.Fitness>
50.6926

> <Gold.PLP.PLP>
-45.4958

> <Gold.PLP.part.hbond>
-3.0000

> <Gold.PLP.part.metal>
0.0000

> <Gold.PLP.part.buried>
-3.3958

> <Gold.PLP.part.nonpolar>
-38.6976

> <Gold.PLP.part.repulsive>
0.2629

> <Gold.PLP.ligand.clash>
0.0000

> <Gold.PLP.ligand.torsion>
1.9050

> <Gold.PLP.Chemscore.Hbond>
3.0000

> <Gold.PLP.Chemscore.CHOScore>
0.0000

> <Gold.PLP.Chemscore.Metal>
0.0000

> <Gold.Chemscore.Hbonds>
donor molecule, donor type, donor heavy atom, donor atom, acceptor molecule, acceptor atom, score
      L1  H    11    45       P1  8028  2.00
      P1  H  7997  8009       L1     7  1.00

> <Gold.PLP.Chemscore.Internal.Correction>
0.0068

> <Gold.Rescore>
     Score         DG    S(hbond)    S(metal)    S(lipo)     H(rot)  DE(clash)    DE(int)     intcor
     12.18     -17.75       1.93        0.00     100.66       2.32       0.74       4.84       ----

> <Gold.Chemscore.Fitness>
12.1797

> <Gold.Chemscore.DG>
-17.7540

> <Gold.Chemscore.ZeroCoef>
-5.4800

> <Gold.Chemscore.Hbond>
1.9276

> <Gold.Chemscore.Metal>
0.0000

> <Gold.Chemscore.Lipo>
100.6620

> <Gold.Chemscore.Internal_Hbond>
0.0000

> <Gold.Chemscore.DEClash>
0.7386

> <Gold.Chemscore.DEInternal>
4.8357

> <Gold.Chemscore.Rot>
2.3210

> <Gold.Chemscore.Internal.Correction>
   9.000000E+99

> <Gold.Chemscore.Hbonds>
donor molecule, donor type, donor heavy atom, donor atom, acceptor molecule, acceptor atom, score
      L1  H    11    45       P1  8028  1.00
      P1  H  7997  8009       L1     7  0.44

> <Gold.Chemscore.Hbond.Weighted>
-6.4382

> <Gold.Chemscore.Metal.Weighted>
-0.0000

> <Gold.Chemscore.Lipo.Weighted>
-11.7775

> <Gold.Chemscore.Internal_Hbond.Weighted>
0.0000

> <Gold.Chemscore.DEClash.Weighted>
0.7386

> <Gold.Chemscore.DEInternal.Weighted>
4.8357

> <Gold.Chemscore.Rot.Weighted>
5.9416

> <Gold.Chemscore.Internal.Correction.Weighted>
   9.000000E+99

> <Gold.Protein.RotatedTorsions>
[ 6907 6896 6895 6894 ] final   52.96 input  -60.11 | X-H torsion
[ 7974 7965 7964 7962 ] final  105.46 input  175.53 | X-H torsion
[ 8008 7997 7996 7995 ] final -132.55 input   59.86 | X-H torsion
[ 10167 10162 10161 10158 ] final   39.68 input  -65.29 | X-H torsion
[ 10718 10713 10712 10709 ] final -162.59 input   66.30 | X-H torsion
[ 10763 10752 10751 10750 ] final  -98.06 input  -60.55 | X-H torsion
[ 11005 11000 10999 10996 ] final -148.32 input  -57.11 | X-H torsion

> <Gold.Protein.ActiveResidues>
 VAL166  LYS551  ARG553  GLY616  TRP617  ASP618  TYR619  PRO620  LYS621  CYS622 
 ASP623  PHE694  ASN695  SER759  ASP760  ASP761  ALA762  ILE779  LEU786  VAL792 
 PHE793  MET794  SER795  GLU796  ALA797  LYS798  CYS799  TRP800  GLU811  SER814 

> <Gold.Protein.RotatedAtoms>
  152.3287  134.7287  160.0294 H   0  0  0  0  0  0  0  0  0  0  0  0  # atno 6907 bound_to 6896
  151.7711  133.3336  159.3452 H   0  0  0  0  0  0  0  0  0  0  0  0  # atno 6908 bound_to 6896
  150.7411  134.5949  159.6051 H   0  0  0  0  0  0  0  0  0  0  0  0  # atno 6909 bound_to 6896
  145.3194  139.2517  143.3720 H   0  0  0  0  0  0  0  0  0  0  0  0  # atno 7974 bound_to 7965
  155.3307  140.0467  157.3042 H   0  0  0  0  0  0  0  0  0  0  0  0  # atno 8008 bound_to 7997
  154.5330  140.2263  155.8737 H   0  0  0  0  0  0  0  0  0  0  0  0  # atno 8009 bound_to 7997
  156.1807  140.3074  155.9149 H   0  0  0  0  0  0  0  0  0  0  0  0  # atno 8010 bound_to 7997
  140.3816  144.1973  150.6130 H   0  0  0  0  0  0  0  0  0  0  0  0  # atno 10167 bound_to 10162
  156.6126  130.8857  151.2940 H   0  0  0  0  0  0  0  0  0  0  0  0  # atno 10718 bound_to 10713
  154.7381  135.5023  153.9077 H   0  0  0  0  0  0  0  0  0  0  0  0  # atno 10763 bound_to 10752
  153.1016  135.6686  153.9671 H   0  0  0  0  0  0  0  0  0  0  0  0  # atno 10764 bound_to 10752
  153.9455  135.3063  155.3420 H   0  0  0  0  0  0  0  0  0  0  0  0  # atno 10765 bound_to 10752
  140.7625  134.3282  157.5098 H   0  0  0  0  0  0  0  0  0  0  0  0  # atno 11005 bound_to 11000
  146.3088  140.3748  142.8678 LP  0  0  0  0  0  0  0  0  0  0  0  0  # atno 17320 bound_to 7965
  144.8952  140.7573  143.5902 LP  0  0  0  0  0  0  0  0  0  0  0  0  # atno 17321 bound_to 7965
  140.4932  143.2341  151.8788 LP  0  0  0  0  0  0  0  0  0  0  0  0  # atno 17342 bound_to 10162
  139.4795  144.5143  151.8890 LP  0  0  0  0  0  0  0  0  0  0  0  0  # atno 17343 bound_to 10162
  157.7250  130.9610  150.1596 LP  0  0  0  0  0  0  0  0  0  0  0  0  # atno 17370 bound_to 10713
  156.2377  130.3688  149.8373 LP  0  0  0  0  0  0  0  0  0  0  0  0  # atno 17371 bound_to 10713
  139.8768  134.9211  156.3266 LP  0  0  0  0  0  0  0  0  0  0  0  0  # atno 17394 bound_to 11000
  140.9650  133.7364  156.0454 LP  0  0  0  0  0  0  0  0  0  0  0  0  # atno 17395 bound_to 11000

$$$$
