AV-unprocessed.smi:1762|AV-procd|sdf|7100|dock2
  -GOLD-   22720 8323D 1   1.00000     0.00000
 Structure written by MMmdl.
 52 53  0  0  0  0  0  0  0  0  1 V2000
  143.9671  145.5121  153.9986 C   0  0  0  0  0  0  0  0  0  0  0  0
  145.0815  145.2491  155.0177 C   0  0  2  0  0  0  0  0  0  0  0  0
  145.4249  143.7515  155.1382 C   0  0  0  0  0  0  0  0  0  0  0  0
  146.4376  143.4805  156.1659 N   0  0  0  0  0  0  0  0  0  0  0  0
  146.7923  142.0367  156.2677 C   0  0  2  0  0  0  0  0  0  0  0  0
  148.0457  141.7818  157.1383 C   0  0  0  0  0  0  0  0  0  0  0  0
  147.9806  141.0465  158.1241 O   0  0  0  0  0  0  0  0  0  0  0  0
  149.1862  142.3673  156.7395 N   0  0  0  0  0  0  0  0  0  0  0  0
  150.4799  142.2030  157.3912 C   0  0  0  0  0  0  0  0  0  0  0  0
  150.8074  143.4032  158.2958 C   0  0  0  0  0  0  0  0  0  0  0  0
  151.8117  143.0525  159.3769 C   0  0  0  0  0  0  0  0  0  0  0  0
  152.6480  141.9238  159.2431 C   0  0  0  0  0  0  0  0  0  0  0  0
  153.5611  141.6385  160.2765 C   0  0  0  0  0  0  0  0  0  0  0  0
  153.6009  142.4875  161.3992 C   0  0  0  0  0  0  0  0  0  0  0  0
  152.7223  143.5884  161.4384 C   0  0  0  0  0  0  0  0  0  0  0  0
  151.8436  143.8713  160.4525 N   0  0  0  0  0  0  0  0  0  0  0  0
  146.9009  141.2809  154.9006 C   0  0  0  0  0  0  0  0  0  0  0  0
  146.9829  139.7485  155.0531 C   0  0  0  0  0  0  0  0  0  0  0  0
  148.0360  141.7909  153.9908 C   0  0  0  0  0  0  0  0  0  0  0  0
  145.9877  144.0829  157.4335 C   0  0  0  0  0  0  0  0  0  0  0  0
  145.6355  145.5763  157.2956 C   0  0  2  0  0  0  0  0  0  0  0  0
  145.0824  146.1649  158.5984 C   0  0  0  0  0  0  0  0  0  0  0  0
  144.6499  145.7337  156.2828 O   0  0  0  0  0  0  0  0  0  0  0  0
  144.2557  145.1711  153.0041 H   0  0  0  0  0  0  0  0  0  0  0  0
  143.7439  146.5771  153.9325 H   0  0  0  0  0  0  0  0  0  0  0  0
  143.0478  144.9956  154.2766 H   0  0  0  0  0  0  0  0  0  0  0  0
  145.9706  145.8032  154.7106 H   0  0  0  0  0  0  0  0  0  0  0  0
  144.5179  143.1837  155.3523 H   0  0  0  0  0  0  0  0  0  0  0  0
  145.7740  143.4302  154.1591 H   0  0  0  0  0  0  0  0  0  0  0  0
  145.9683  141.5552  156.7989 H   0  0  0  0  0  0  0  0  0  0  0  0
  149.1583  142.9520  155.9167 H   0  0  0  0  0  0  0  0  0  0  0  0
  150.4488  141.2870  157.9819 H   0  0  0  0  0  0  0  0  0  0  0  0
  151.2613  142.0637  156.6421 H   0  0  0  0  0  0  0  0  0  0  0  0
  151.2023  144.2283  157.7011 H   0  0  0  0  0  0  0  0  0  0  0  0
  149.8961  143.7760  158.7660 H   0  0  0  0  0  0  0  0  0  0  0  0
  152.5916  141.2897  158.3703 H   0  0  0  0  0  0  0  0  0  0  0  0
  154.2181  140.7839  160.2094 H   0  0  0  0  0  0  0  0  0  0  0  0
  154.2877  142.2993  162.2110 H   0  0  0  0  0  0  0  0  0  0  0  0
  152.7257  144.2596  162.2842 H   0  0  0  0  0  0  0  0  0  0  0  0
  145.9690  141.4384  154.3603 H   0  0  0  0  0  0  0  0  0  0  0  0
  147.9291  139.4288  155.4906 H   0  0  0  0  0  0  0  0  0  0  0  0
  146.8941  139.2571  154.0839 H   0  0  0  0  0  0  0  0  0  0  0  0
  146.1772  139.3722  155.6839 H   0  0  0  0  0  0  0  0  0  0  0  0
  149.0201  141.5758  154.4063 H   0  0  0  0  0  0  0  0  0  0  0  0
  147.9693  142.8672  153.8311 H   0  0  0  0  0  0  0  0  0  0  0  0
  147.9886  141.3161  153.0106 H   0  0  0  0  0  0  0  0  0  0  0  0
  145.1209  143.5374  157.8111 H   0  0  0  0  0  0  0  0  0  0  0  0
  146.7573  144.0144  158.2016 H   0  0  0  0  0  0  0  0  0  0  0  0
  146.5284  146.1363  157.0121 H   0  0  0  0  0  0  0  0  0  0  0  0
  145.8079  146.0783  159.4076 H   0  0  0  0  0  0  0  0  0  0  0  0
  144.1720  145.6509  158.9084 H   0  0  0  0  0  0  0  0  0  0  0  0
  144.8435  147.2218  158.4782 H   0  0  0  0  0  0  0  0  0  0  0  0
  1  2  1  0  0  0  0
  1 24  1  0  0  0  0
  1 25  1  0  0  0  0
  1 26  1  0  0  0  0
  2 23  1  0  0  0  0
  2  3  1  0  0  0  0
  2 27  1  0  0  0  0
  3  4  1  0  0  0  0
  3 28  1  0  0  0  0
  3 29  1  0  0  0  0
  4  5  1  0  0  0  0
  4 20  1  0  0  0  0
  5  6  1  0  0  0  0
  5 17  1  0  0  0  0
  5 30  1  0  0  0  0
  6  7  2  0  0  0  0
  6  8  1  0  0  0  0
  8  9  1  0  0  0  0
  8 31  1  0  0  0  0
  9 10  1  0  0  0  0
  9 32  1  0  0  0  0
  9 33  1  0  0  0  0
 10 11  1  0  0  0  0
 10 34  1  0  0  0  0
 10 35  1  0  0  0  0
 11 16  1  0  0  0  0
 11 12  2  0  0  0  0
 12 13  1  0  0  0  0
 12 36  1  0  0  0  0
 13 14  2  0  0  0  0
 13 37  1  0  0  0  0
 14 15  1  0  0  0  0
 14 38  1  0  0  0  0
 15 16  2  0  0  0  0
 15 39  1  0  0  0  0
 17 18  1  0  0  0  0
 17 19  1  0  0  0  0
 17 40  1  0  0  0  0
 18 41  1  0  0  0  0
 18 42  1  0  0  0  0
 18 43  1  0  0  0  0
 19 44  1  0  0  0  0
 19 45  1  0  0  0  0
 19 46  1  0  0  0  0
 20 21  1  0  0  0  0
 20 47  1  0  0  0  0
 20 48  1  0  0  0  0
 21 22  1  0  0  0  0
 21 23  1  0  0  0  0
 21 49  1  0  0  0  0
 22 50  1  0  0  0  0
 22 51  1  0  0  0  0
 22 52  1  0  0  0  0
M  END
> <s_m_source_file>
AV-unprocessed.smi

> <i_m_source_file_index>
1762

> <i_lp_mmshare_version>
43012

> <i_f3d_flags>
0

> <s_epik_input>
W0NIM11bQ0BASF0xW0NIMl1OKFtDSDJdW0NASF0oTzEpW0NIM10pW0NAQEhdKFtDSF0oW0NIM10pW0NIM10pQyg9TylbTkhdW0NIMl1bQ0gyXWMyW2NIXVtjSF1bY0hdW2NIXW4y

> <s_epik_cmdline>
J2VwaWtfcHl0aG9uJywgJy1waCcsICc3LjAnLCAnLXRuJywgJzgnLCAnLW1hJywgJzIwMCcsICctbWV0YWxfYmluZGluZycsICctaW1hZScsICc8aW5maWxlLm1hZT4nLCAnLW9tYWUnLCAnPG91dGZpbGUubWFlPic=

> <r_epik_Ionization_Penalty>
0.0399736

> <r_epik_Ionization_Penalty_Charging>
0

> <r_epik_Ionization_Penalty_Neutral>
0.0399736

> <r_epik_State_Penalty>
0.0317634

> <r_epik_Charging_Adjusted_Penalty>
0.0317634

> <i_epik_Tot_Q>
0

> <i_epik_Tot_abs_Q>
0

> <r_epik_Metal_State_Penalty>
0.0307795

> <b_epik_Metal_Only>
0

> <s_lp_Force_Field>
OPLS_2005

> <r_lp_Energy>
25.9705

> <b_lp_Chiralities_Consistent>
1

> <s_lp_Variant>
AV-unprocessed.smi:1762-2

> <Gold.Version>
5.8.1

> <Gold.Id.Protein>
6NUR|6NUR_protein|mol2

> <Gold.PLP.Fitness>
39.9950

> <Gold.PLP.PLP>
-38.4176

> <Gold.PLP.part.hbond>
-2.2136

> <Gold.PLP.part.metal>
0.0000

> <Gold.PLP.part.buried>
-5.6955

> <Gold.PLP.part.nonpolar>
-29.3373

> <Gold.PLP.part.repulsive>
0.3338

> <Gold.PLP.ligand.clash>
0.0000

> <Gold.PLP.ligand.torsion>
0.9215

> <Gold.PLP.Chemscore.Hbond>
1.0000

> <Gold.PLP.Chemscore.CHOScore>
0.0000

> <Gold.PLP.Chemscore.Metal>
0.0000

> <Gold.Chemscore.Hbonds>
donor molecule, donor type, donor heavy atom, donor atom, acceptor molecule, acceptor atom, score
      L1  H     8    31       P1  8028  0.67

> <Gold.PLP.Chemscore.Internal.Correction>
0.4204

> <Gold.Rescore>
     Score         DG    S(hbond)    S(metal)    S(lipo)     H(rot)  DE(clash)    DE(int)     intcor
     16.24     -16.79       0.97        0.00     103.86       1.60       0.01       0.54       ----

> <Gold.Chemscore.Fitness>
16.2375

> <Gold.Chemscore.DG>
-16.7865

> <Gold.Chemscore.ZeroCoef>
-5.4800

> <Gold.Chemscore.Hbond>
0.9726

> <Gold.Chemscore.Metal>
0.0000

> <Gold.Chemscore.Lipo>
103.8631

> <Gold.Chemscore.Internal_Hbond>
0.0000

> <Gold.Chemscore.DEClash>
0.0108

> <Gold.Chemscore.DEInternal>
0.5382

> <Gold.Chemscore.Rot>
1.5993

> <Gold.Chemscore.Internal.Correction>
   9.000000E+99

> <Gold.Chemscore.Hbonds>
donor molecule, donor type, donor heavy atom, donor atom, acceptor molecule, acceptor atom, score
      L1  H     8    31       P1  8028  0.68

> <Gold.Chemscore.Hbond.Weighted>
-3.2486

> <Gold.Chemscore.Metal.Weighted>
-0.0000

> <Gold.Chemscore.Lipo.Weighted>
-12.1520

> <Gold.Chemscore.Internal_Hbond.Weighted>
0.0000

> <Gold.Chemscore.DEClash.Weighted>
0.0108

> <Gold.Chemscore.DEInternal.Weighted>
0.5382

> <Gold.Chemscore.Rot.Weighted>
4.0941

> <Gold.Chemscore.Internal.Correction.Weighted>
   9.000000E+99

> <Gold.Protein.RotatedTorsions>
[ 6907 6896 6895 6894 ] final -127.62 input  -60.11 | X-H torsion
[ 7974 7965 7964 7962 ] final -155.55 input  175.53 | X-H torsion
[ 8008 7997 7996 7995 ] final  -25.08 input   59.86 | X-H torsion
[ 10167 10162 10161 10158 ] final  -18.37 input  -65.29 | X-H torsion
[ 10718 10713 10712 10709 ] final -179.57 input   66.30 | X-H torsion
[ 10763 10752 10751 10750 ] final -109.75 input  -60.55 | X-H torsion
[ 11005 11000 10999 10996 ] final   23.48 input  -57.11 | X-H torsion

> <Gold.Protein.ActiveResidues>
 VAL166  LYS551  ARG553  GLY616  TRP617  ASP618  TYR619  PRO620  LYS621  CYS622 
 ASP623  PHE694  ASN695  SER759  ASP760  ASP761  ALA762  ILE779  LEU786  VAL792 
 PHE793  MET794  SER795  GLU796  ALA797  LYS798  CYS799  TRP800  GLU811  SER814 

> <Gold.Protein.RotatedAtoms>
  150.9092  133.7018  159.2858 H   0  0  0  0  0  0  0  0  0  0  0  0  # atno 6907 bound_to 6896
  151.4511  135.1028  159.9707 H   0  0  0  0  0  0  0  0  0  0  0  0  # atno 6908 bound_to 6896
  152.4920  133.8478  159.7241 H   0  0  0  0  0  0  0  0  0  0  0  0  # atno 6909 bound_to 6896
  144.7635  140.4234  143.5959 H   0  0  0  0  0  0  0  0  0  0  0  0  # atno 7974 bound_to 7965
  154.4494  140.1936  156.0564 H   0  0  0  0  0  0  0  0  0  0  0  0  # atno 8008 bound_to 7997
  156.0616  140.3296  155.7441 H   0  0  0  0  0  0  0  0  0  0  0  0  # atno 8009 bound_to 7997
  155.5403  140.0586  157.2862 H   0  0  0  0  0  0  0  0  0  0  0  0  # atno 8010 bound_to 7997
  140.7258  143.4923  150.9976 H   0  0  0  0  0  0  0  0  0  0  0  0  # atno 10167 bound_to 10162
  156.8610  130.9751  151.3083 H   0  0  0  0  0  0  0  0  0  0  0  0  # atno 10718 bound_to 10713
  154.8211  135.4589  154.0781 H   0  0  0  0  0  0  0  0  0  0  0  0  # atno 10763 bound_to 10752
  153.2134  135.6885  153.8093 H   0  0  0  0  0  0  0  0  0  0  0  0  # atno 10764 bound_to 10752
  153.7536  135.3294  155.3302 H   0  0  0  0  0  0  0  0  0  0  0  0  # atno 10765 bound_to 10752
  140.3691  134.2042  155.7668 H   0  0  0  0  0  0  0  0  0  0  0  0  # atno 11005 bound_to 11000
  145.6544  139.1570  143.2843 LP  0  0  0  0  0  0  0  0  0  0  0  0  # atno 17320 bound_to 7965
  146.1720  140.6630  142.9228 LP  0  0  0  0  0  0  0  0  0  0  0  0  # atno 17321 bound_to 7965
  139.8627  143.7293  152.3172 LP  0  0  0  0  0  0  0  0  0  0  0  0  # atno 17342 bound_to 10162
  139.7514  144.7533  151.0500 LP  0  0  0  0  0  0  0  0  0  0  0  0  # atno 17343 bound_to 10162
  157.6250  130.8684  149.9173 LP  0  0  0  0  0  0  0  0  0  0  0  0  # atno 17370 bound_to 10713
  156.0777  130.3677  150.0645 LP  0  0  0  0  0  0  0  0  0  0  0  0  # atno 17371 bound_to 10713
  141.1960  133.8092  157.0690 LP  0  0  0  0  0  0  0  0  0  0  0  0  # atno 17394 bound_to 11000
  140.0566  134.9777  157.1231 LP  0  0  0  0  0  0  0  0  0  0  0  0  # atno 17395 bound_to 11000

$$$$
