AV-unprocessed.smi:3337|AV-procd|sdf|12865|dock10
  -GOLD-   2272019263D 1   1.00000     0.00000
 Structure written by MMmdl.
 46 47  0  0  0  0  0  0  0  0  2 V2000
  147.9896  132.8671  153.1779 C   0  0  0  0  0  0  0  0  0  0  0  0
  146.7833  133.6741  152.6764 C   0  0  2  0  0  0  0  0  0  0  0  0
  146.5294  133.4309  151.1777 C   0  0  0  0  0  0  0  0  0  0  0  0
  145.3610  134.2849  150.6516 C   0  0  1  0  0  0  0  0  0  0  0  0
  143.9856  133.7644  151.1046 C   0  0  0  0  0  0  0  0  0  0  0  0
  145.5700  135.7694  151.0113 C   0  0  0  0  0  0  0  0  0  0  0  0
  145.7891  135.9594  152.4694 N   0  3  2  0  0  0  0  0  0  0  0  0
  145.8429  137.3954  152.8437 C   0  0  0  0  0  0  0  0  0  0  0  0
  146.5743  138.2523  151.7928 C   0  0  0  0  0  0  0  0  0  0  0  0
  147.5450  139.1454  152.4132 N   0  0  0  0  0  0  0  0  0  0  0  0
  147.3300  139.8577  153.5316 C   0  0  0  0  0  0  0  0  0  0  0  0
  146.2512  139.8511  154.1262 O   0  0  0  0  0  0  0  0  0  0  0  0
  148.5081  140.7084  154.0421 C   0  0  1  0  0  0  0  0  0  0  0  0
  148.1008  141.7023  155.1485 C   0  0  0  0  0  0  0  0  0  0  0  0
  149.6170  139.8633  154.4707 N   0  0  0  0  0  0  0  0  0  0  0  0
  149.7488  138.5355  154.4379 C   0  0  0  0  0  0  0  0  0  0  0  0
  150.8947  138.0958  154.9386 N   0  0  0  0  0  0  0  0  0  0  0  0
  151.4642  139.2877  155.2865 C   0  0  0  0  0  0  0  0  0  0  0  0
  150.7397  140.3772  155.0326 N   0  0  0  0  0  0  0  0  0  0  0  0
  146.9609  135.1800  152.9500 C   0  0  0  0  0  0  0  0  0  0  0  0
  148.9061  133.1608  152.6650 H   0  0  0  0  0  0  0  0  0  0  0  0
  147.8429  131.7992  153.0125 H   0  0  0  0  0  0  0  0  0  0  0  0
  148.1449  133.0147  154.2472 H   0  0  0  0  0  0  0  0  0  0  0  0
  145.9121  133.3296  153.2348 H   0  0  0  0  0  0  0  0  0  0  0  0
  147.4311  133.6801  150.6159 H   0  0  0  0  0  0  0  0  0  0  0  0
  146.3382  132.3736  150.9901 H   0  0  0  0  0  0  0  0  0  0  0  0
  145.3711  134.2093  149.5634 H   0  0  0  0  0  0  0  0  0  0  0  0
  143.8610  133.8244  152.1858 H   0  0  0  0  0  0  0  0  0  0  0  0
  143.8444  132.7238  150.8113 H   0  0  0  0  0  0  0  0  0  0  0  0
  143.1811  134.3430  150.6496 H   0  0  0  0  0  0  0  0  0  0  0  0
  146.4303  136.1652  150.4690 H   0  0  0  0  0  0  0  0  0  0  0  0
  144.7044  136.3467  150.6834 H   0  0  0  0  0  0  0  0  0  0  0  0
  144.8332  137.7713  153.0169 H   0  0  0  0  0  0  0  0  0  0  0  0
  146.3740  137.4923  153.7918 H   0  0  0  0  0  0  0  0  0  0  0  0
  147.0688  137.6162  151.0563 H   0  0  0  0  0  0  0  0  0  0  0  0
  145.8742  138.8777  151.2408 H   0  0  0  0  0  0  0  0  0  0  0  0
  148.4553  139.2054  151.9798 H   0  0  0  0  0  0  0  0  0  0  0  0
  148.8611  141.2939  153.1917 H   0  0  0  0  0  0  0  0  0  0  0  0
  147.3289  142.3891  154.7995 H   0  0  0  0  0  0  0  0  0  0  0  0
  148.9534  142.3050  155.4625 H   0  0  0  0  0  0  0  0  0  0  0  0
  147.7158  141.1914  156.0320 H   0  0  0  0  0  0  0  0  0  0  0  0
  148.9900  137.8761  154.0429 H   0  0  0  0  0  0  0  0  0  0  0  0
  152.4398  139.3539  155.7450 H   0  0  0  0  0  0  0  0  0  0  0  0
  147.0974  135.3266  154.0207 H   0  0  0  0  0  0  0  0  0  0  0  0
  147.8660  135.5498  152.4653 H   0  0  0  0  0  0  0  0  0  0  0  0
  144.9731  135.5774  152.9262 H   0  0  0  0  0  0  0  0  0  0  0  0
  1  2  1  0  0  0  0
  1 21  1  0  0  0  0
  1 22  1  0  0  0  0
  1 23  1  0  0  0  0
  2 20  1  0  0  0  0
  2  3  1  0  0  0  0
  2 24  1  0  0  0  0
  3  4  1  0  0  0  0
  3 25  1  0  0  0  0
  3 26  1  0  0  0  0
  4  5  1  0  0  0  0
  4  6  1  0  0  0  0
  4 27  1  0  0  0  0
  5 28  1  0  0  0  0
  5 29  1  0  0  0  0
  5 30  1  0  0  0  0
  6  7  1  0  0  0  0
  6 31  1  0  0  0  0
  6 32  1  0  0  0  0
  7  8  1  0  0  0  0
  7 20  1  0  0  0  0
  7 46  1  0  0  0  0
  8  9  1  0  0  0  0
  8 33  1  0  0  0  0
  8 34  1  0  0  0  0
  9 10  1  0  0  0  0
  9 35  1  0  0  0  0
  9 36  1  0  0  0  0
 10 11  1  0  0  0  0
 10 37  1  0  0  0  0
 11 12  2  0  0  0  0
 11 13  1  0  0  0  0
 13 14  1  0  0  0  0
 13 15  1  0  0  0  0
 13 38  1  0  0  0  0
 14 39  1  0  0  0  0
 14 40  1  0  0  0  0
 14 41  1  0  0  0  0
 15 19  1  0  0  0  0
 15 16  1  0  0  0  0
 16 17  2  0  0  0  0
 16 42  1  0  0  0  0
 17 18  1  0  0  0  0
 18 19  2  0  0  0  0
 18 43  1  0  0  0  0
 20 44  1  0  0  0  0
 20 45  1  0  0  0  0
M  CHG  1   7   1
M  END
> <s_m_source_file>
AV-unprocessed.smi

> <i_m_source_file_index>
3337

> <i_lp_mmshare_version>
43012

> <i_f3d_flags>
0

> <s_epik_input>
W0NIM11bQ0BASF0xW0NIMl1bQ0BASF0oW0NIM10pW0NIMl1OKFtDSDJdMSlbQ0gyXVtDSDJdW05IXUMoPU8pW0NASF0oW0NIM10pbjJbY0hdbltjSF1uMg==

> <s_epik_cmdline>
J2VwaWtfcHl0aG9uJywgJy1waCcsICc3LjAnLCAnLXRuJywgJzgnLCAnLW1hJywgJzIwMCcsICctbWV0YWxfYmluZGluZycsICctaW1hZScsICc8aW5maWxlLm1hZT4nLCAnLW9tYWUnLCAnPG91dGZpbGUubWFlPic=

> <r_lp_tautomer_probability>
1

> <r_epik_Ionization_Penalty>
0.00175613

> <r_epik_Ionization_Penalty_Charging>
0.00174812

> <r_epik_Ionization_Penalty_Neutral>
8.01354e-06

> <r_epik_State_Penalty>
0.00118332

> <r_epik_Charging_Adjusted_Penalty>
0.00293143

> <i_epik_Tot_Q>
1

> <i_epik_Tot_abs_Q>
1

> <r_epik_Metal_State_Penalty>
-0

> <b_epik_Metal_Only>
0

> <s_lp_Force_Field>
OPLS_2005

> <r_lp_Energy>
24.7209

> <b_lp_Chiralities_Consistent>
1

> <s_lp_Variant>
AV-unprocessed.smi:3337-5

> <Gold.Version>
5.8.1

> <Gold.Id.Protein>
6NUR|6NUR_protein|mol2

> <Gold.PLP.Fitness>
41.9737

> <Gold.PLP.PLP>
-34.8179

> <Gold.PLP.part.hbond>
-2.6795

> <Gold.PLP.part.metal>
0.0000

> <Gold.PLP.part.buried>
0.8914

> <Gold.PLP.part.nonpolar>
-34.1477

> <Gold.PLP.part.repulsive>
0.3962

> <Gold.PLP.ligand.clash>
0.0000

> <Gold.PLP.ligand.torsion>
0.9870

> <Gold.PLP.Chemscore.Hbond>
2.0000

> <Gold.PLP.Chemscore.CHOScore>
0.9997

> <Gold.PLP.Chemscore.Metal>
0.0000

> <Gold.Chemscore.Hbonds>
donor molecule, donor type, donor heavy atom, donor atom, acceptor molecule, acceptor atom, score
      L1  H    10    37       P1  7957  1.00
      P1  H  7989  7998       L1    19  0.81
      L1  C    16    42       P1  7948  0.54

> <Gold.PLP.Chemscore.Internal.Correction>
0.1307

> <Gold.Rescore>
     Score         DG    S(hbond)    S(metal)    S(lipo)     H(rot)  DE(clash)    DE(int)     intcor
      8.58     -12.80       1.82        0.00      65.46       2.51       1.55       2.67       ----

> <Gold.Chemscore.Fitness>
8.5840

> <Gold.Chemscore.DG>
-12.7971

> <Gold.Chemscore.ZeroCoef>
-5.4800

> <Gold.Chemscore.Hbond>
1.8236

> <Gold.Chemscore.Metal>
0.0000

> <Gold.Chemscore.Lipo>
65.4627

> <Gold.Chemscore.Internal_Hbond>
0.0000

> <Gold.Chemscore.DEClash>
1.5460

> <Gold.Chemscore.DEInternal>
2.6671

> <Gold.Chemscore.Rot>
2.5129

> <Gold.Chemscore.Internal.Correction>
   9.000000E+99

> <Gold.Chemscore.Hbonds>
donor molecule, donor type, donor heavy atom, donor atom, acceptor molecule, acceptor atom, score
      L1  H    10    37       P1  7957  0.94
      P1  H  7989  7998       L1    19  0.03

> <Gold.Chemscore.Hbond.Weighted>
-6.0910

> <Gold.Chemscore.Metal.Weighted>
-0.0000

> <Gold.Chemscore.Lipo.Weighted>
-7.6591

> <Gold.Chemscore.Internal_Hbond.Weighted>
0.0000

> <Gold.Chemscore.DEClash.Weighted>
1.5460

> <Gold.Chemscore.DEInternal.Weighted>
2.6671

> <Gold.Chemscore.Rot.Weighted>
6.4331

> <Gold.Chemscore.Internal.Correction.Weighted>
   9.000000E+99

> <Gold.Protein.RotatedTorsions>
[ 6907 6896 6895 6894 ] final -146.39 input  -60.11 | X-H torsion
[ 7974 7965 7964 7962 ] final  157.71 input  175.53 | X-H torsion
[ 8008 7997 7996 7995 ] final  -30.11 input   59.86 | X-H torsion
[ 10167 10162 10161 10158 ] final   -4.58 input  -65.29 | X-H torsion
[ 10718 10713 10712 10709 ] final   92.29 input   66.30 | X-H torsion
[ 10763 10752 10751 10750 ] final  175.48 input  -60.55 | X-H torsion
[ 11005 11000 10999 10996 ] final -117.45 input  -57.11 | X-H torsion

> <Gold.Protein.ActiveResidues>
 VAL166  LYS551  ARG553  GLY616  TRP617  ASP618  TYR619  PRO620  LYS621  CYS622 
 ASP623  PHE694  ASN695  SER759  ASP760  ASP761  ALA762  ILE779  LEU786  VAL792 
 PHE793  MET794  SER795  GLU796  ALA797  LYS798  CYS799  TRP800  GLU811  SER814 

> <Gold.Protein.RotatedAtoms>
  151.1410  133.4971  159.2596 H   0  0  0  0  0  0  0  0  0  0  0  0  # atno 6907 bound_to 6896
  151.1655  135.0293  159.8739 H   0  0  0  0  0  0  0  0  0  0  0  0  # atno 6908 bound_to 6896
  152.5462  134.1279  159.8480 H   0  0  0  0  0  0  0  0  0  0  0  0  # atno 6909 bound_to 6896
  144.7888  139.7377  143.6230 H   0  0  0  0  0  0  0  0  0  0  0  0  # atno 7974 bound_to 7965
  154.4263  140.1800  156.1354 H   0  0  0  0  0  0  0  0  0  0  0  0  # atno 8008 bound_to 7997
  156.0034  140.3358  155.6843 H   0  0  0  0  0  0  0  0  0  0  0  0  # atno 8009 bound_to 7997
  155.6211  140.0660  157.2668 H   0  0  0  0  0  0  0  0  0  0  0  0  # atno 8010 bound_to 7997
  140.6932  143.6407  150.8438 H   0  0  0  0  0  0  0  0  0  0  0  0  # atno 10167 bound_to 10162
  157.6959  131.0438  150.3859 H   0  0  0  0  0  0  0  0  0  0  0  0  # atno 10718 bound_to 10713
  154.4681  135.2770  155.1663 H   0  0  0  0  0  0  0  0  0  0  0  0  # atno 10763 bound_to 10752
  154.3423  135.6167  153.5606 H   0  0  0  0  0  0  0  0  0  0  0  0  # atno 10764 bound_to 10752
  152.9861  135.5791  154.5057 H   0  0  0  0  0  0  0  0  0  0  0  0  # atno 10765 bound_to 10752
  141.0354  133.9918  157.3079 H   0  0  0  0  0  0  0  0  0  0  0  0  # atno 11005 bound_to 11000
  146.2131  139.5501  142.9668 LP  0  0  0  0  0  0  0  0  0  0  0  0  # atno 17320 bound_to 7965
  145.5850  141.0377  143.2101 LP  0  0  0  0  0  0  0  0  0  0  0  0  # atno 17321 bound_to 7965
  140.0122  143.5630  152.2834 LP  0  0  0  0  0  0  0  0  0  0  0  0  # atno 17342 bound_to 10162
  139.6358  144.7650  151.2440 LP  0  0  0  0  0  0  0  0  0  0  0  0  # atno 17343 bound_to 10162
  156.4268  130.3964  149.6787 LP  0  0  0  0  0  0  0  0  0  0  0  0  # atno 17370 bound_to 10713
  156.4019  130.7679  151.2687 LP  0  0  0  0  0  0  0  0  0  0  0  0  # atno 17371 bound_to 10713
  139.9237  135.0201  156.8156 LP  0  0  0  0  0  0  0  0  0  0  0  0  # atno 17394 bound_to 11000
  140.6332  133.9886  155.7672 LP  0  0  0  0  0  0  0  0  0  0  0  0  # atno 17395 bound_to 11000

$$$$
