AV-unprocessed.smi:2154|AV-procd|sdf|8773|dock4
  -GOLD-   2272011553D 1   1.00000     0.00000
 Structure written by MMmdl.
 32 33  0  0  0  0  0  0  0  0  1 V2000
  152.8581  143.5113  162.1956 C   0  0  0  0  0  0  0  0  0  0  0  0
  152.1602  143.1819  160.8938 C   0  0  1  0  0  0  0  0  0  0  0  0
  152.7029  143.6931  159.5790 C   0  0  0  0  0  0  0  0  0  0  0  0
  152.7837  142.2209  159.9064 C   0  0  2  0  0  0  0  0  0  0  0  0
  151.9351  141.2198  159.1451 C   0  0  0  0  0  0  0  0  0  0  0  0
  151.6160  141.6011  157.7755 N   0  0  0  0  0  0  0  0  0  0  0  0
  150.5971  141.1076  157.0557 C   0  0  0  0  0  0  0  0  0  0  0  0
  149.8062  140.2708  157.4939 O   0  0  0  0  0  0  0  0  0  0  0  0
  150.4425  141.6667  155.6341 C   0  0  0  0  0  0  0  0  0  0  0  0
  149.4281  140.9561  154.8418 N   0  0  0  0  0  0  0  0  0  0  0  0
  148.1426  141.4665  154.7300 C   0  0  0  0  0  0  0  0  0  0  0  0
  147.1581  140.8600  154.0254 C   0  0  0  0  0  0  0  0  0  0  0  0
  147.4138  139.6026  153.3313 C   0  0  0  0  0  0  0  0  0  0  0  0
  146.5891  138.9790  152.6668 O   0  0  0  0  0  0  0  0  0  0  0  0
  148.7177  139.1197  153.4702 N   0  0  0  0  0  0  0  0  0  0  0  0
  149.7362  139.7386  154.1963 C   0  0  0  0  0  0  0  0  0  0  0  0
  150.8522  139.2237  154.2580 O   0  0  0  0  0  0  0  0  0  0  0  0
  148.9409  138.2495  153.0094 H   0  0  0  0  0  0  0  0  0  0  0  0
  153.9398  143.5378  162.0601 H   0  0  0  0  0  0  0  0  0  0  0  0
  152.6207  142.7589  162.9476 H   0  0  0  0  0  0  0  0  0  0  0  0
  152.5294  144.4845  162.5607 H   0  0  0  0  0  0  0  0  0  0  0  0
  151.0757  143.1474  160.9790 H   0  0  0  0  0  0  0  0  0  0  0  0
  151.9804  144.0080  158.8285 H   0  0  0  0  0  0  0  0  0  0  0  0
  153.6304  144.2616  159.5986 H   0  0  0  0  0  0  0  0  0  0  0  0
  153.7803  141.8555  160.1478 H   0  0  0  0  0  0  0  0  0  0  0  0
  152.4524  140.2602  159.1164 H   0  0  0  0  0  0  0  0  0  0  0  0
  151.0117  141.0507  159.7011 H   0  0  0  0  0  0  0  0  0  0  0  0
  152.2146  142.2886  157.3416 H   0  0  0  0  0  0  0  0  0  0  0  0
  150.1867  142.7245  155.7124 H   0  0  0  0  0  0  0  0  0  0  0  0
  151.4059  141.6409  155.1204 H   0  0  0  0  0  0  0  0  0  0  0  0
  147.9063  142.3942  155.2316 H   0  0  0  0  0  0  0  0  0  0  0  0
  146.1758  141.3072  153.9762 H   0  0  0  0  0  0  0  0  0  0  0  0
  1  2  1  0  0  0  0
  1 19  1  0  0  0  0
  1 20  1  0  0  0  0
  1 21  1  0  0  0  0
  2  4  1  0  0  0  0
  2  3  1  0  0  0  0
  2 22  1  0  0  0  0
  3  4  1  0  0  0  0
  3 23  1  0  0  0  0
  3 24  1  0  0  0  0
  4  5  1  0  0  0  0
  4 25  1  0  0  0  0
  5  6  1  0  0  0  0
  5 26  1  0  0  0  0
  5 27  1  0  0  0  0
  6  7  1  0  0  0  0
  6 28  1  0  0  0  0
  7  8  2  0  0  0  0
  7  9  1  0  0  0  0
  9 10  1  0  0  0  0
  9 29  1  0  0  0  0
  9 30  1  0  0  0  0
 10 16  1  0  0  0  0
 10 11  1  0  0  0  0
 11 12  2  0  0  0  0
 11 31  1  0  0  0  0
 12 13  1  0  0  0  0
 12 32  1  0  0  0  0
 13 14  2  0  0  0  0
 13 15  1  0  0  0  0
 15 18  1  0  0  0  0
 15 16  1  0  0  0  0
 16 17  2  0  0  0  0
M  END
> <s_m_source_file>
AV-unprocessed.smi

> <i_m_source_file_index>
2154

> <i_lp_mmshare_version>
43012

> <i_f3d_flags>
0

> <s_epik_input>
W0NIM11bQ0BASF0xW0NIMl1bQ0BIXTFbQ0gyXVtOSF1DKD1PKVtDSDJdbjJbY0hdW2NIXWMoPU8pW25IXWMyPU8=

> <s_epik_cmdline>
J2VwaWtfcHl0aG9uJywgJy1waCcsICc3LjAnLCAnLXRuJywgJzgnLCAnLW1hJywgJzIwMCcsICctbWV0YWxfYmluZGluZycsICctaW1hZScsICc8aW5maWxlLm1hZT4nLCAnLW9tYWUnLCAnPG91dGZpbGUubWFlPic=

> <r_lp_tautomer_probability>
0.999537

> <r_epik_Ionization_Penalty>
0.00305319

> <r_epik_Ionization_Penalty_Charging>
0.00305317

> <r_epik_Ionization_Penalty_Neutral>
2.06703e-08

> <r_epik_State_Penalty>
0.00214626

> <r_epik_Charging_Adjusted_Penalty>
0.00519944

> <i_epik_Tot_Q>
0

> <i_epik_Tot_abs_Q>
0

> <r_epik_Metal_State_Penalty>
0.361976

> <b_epik_Metal_Only>
0

> <s_lp_Force_Field>
OPLS_2005

> <r_lp_Energy>
14.6752

> <b_lp_Chiralities_Consistent>
1

> <s_lp_Variant>
AV-unprocessed.smi:2154-4

> <Gold.Version>
5.8.1

> <Gold.Id.Protein>
6NUR|6NUR_protein|mol2

> <Gold.PLP.Fitness>
40.0777

> <Gold.PLP.PLP>
-36.0756

> <Gold.PLP.part.hbond>
-2.1002

> <Gold.PLP.part.metal>
0.0000

> <Gold.PLP.part.buried>
-2.6441

> <Gold.PLP.part.nonpolar>
-30.2150

> <Gold.PLP.part.repulsive>
0.6035

> <Gold.PLP.ligand.clash>
0.0000

> <Gold.PLP.ligand.torsion>
1.0096

> <Gold.PLP.Chemscore.Hbond>
0.8250

> <Gold.PLP.Chemscore.CHOScore>
1.0000

> <Gold.PLP.Chemscore.Metal>
0.0000

> <Gold.Chemscore.Hbonds>
donor molecule, donor type, donor heavy atom, donor atom, acceptor molecule, acceptor atom, score
      L1  H    15    18       P1  7948  0.34
      P1  H  7989  7998       L1    17  0.50
      L1  C    11    31       P1  8028  0.98

> <Gold.PLP.Chemscore.Internal.Correction>
0.5464

> <Gold.Rescore>
     Score         DG    S(hbond)    S(metal)    S(lipo)     H(rot)  DE(clash)    DE(int)     intcor
     11.00     -12.31       0.97        0.00      74.68       2.01       0.31       1.01       ----

> <Gold.Chemscore.Fitness>
10.9978

> <Gold.Chemscore.DG>
-12.3108

> <Gold.Chemscore.ZeroCoef>
-5.4800

> <Gold.Chemscore.Hbond>
0.9671

> <Gold.Chemscore.Metal>
0.0000

> <Gold.Chemscore.Lipo>
74.6788

> <Gold.Chemscore.Internal_Hbond>
0.0000

> <Gold.Chemscore.DEClash>
0.3061

> <Gold.Chemscore.DEInternal>
1.0069

> <Gold.Chemscore.Rot>
2.0065

> <Gold.Chemscore.Internal.Correction>
   9.000000E+99

> <Gold.Chemscore.Hbonds>
donor molecule, donor type, donor heavy atom, donor atom, acceptor molecule, acceptor atom, score
      L1  H    15    18       P1  7948  0.35
      P1  H  7989  7998       L1    17  0.02

> <Gold.Chemscore.Hbond.Weighted>
-3.2300

> <Gold.Chemscore.Metal.Weighted>
-0.0000

> <Gold.Chemscore.Lipo.Weighted>
-8.7374

> <Gold.Chemscore.Internal_Hbond.Weighted>
0.0000

> <Gold.Chemscore.DEClash.Weighted>
0.3061

> <Gold.Chemscore.DEInternal.Weighted>
1.0069

> <Gold.Chemscore.Rot.Weighted>
5.1366

> <Gold.Chemscore.Internal.Correction.Weighted>
   9.000000E+99

> <Gold.Protein.RotatedTorsions>
[ 6907 6896 6895 6894 ] final   33.52 input  -60.11 | X-H torsion
[ 7974 7965 7964 7962 ] final   24.22 input  175.53 | X-H torsion
[ 8008 7997 7996 7995 ] final   51.20 input   59.86 | X-H torsion
[ 10167 10162 10161 10158 ] final -128.08 input  -65.29 | X-H torsion
[ 10718 10713 10712 10709 ] final  111.49 input   66.30 | X-H torsion
[ 10763 10752 10751 10750 ] final  -26.04 input  -60.55 | X-H torsion
[ 11005 11000 10999 10996 ] final  -98.73 input  -57.11 | X-H torsion

> <Gold.Protein.ActiveResidues>
 VAL166  LYS551  ARG553  GLY616  TRP617  ASP618  TYR619  PRO620  LYS621  CYS622 
 ASP623  PHE694  ASN695  SER759  ASP760  ASP761  ALA762  ILE779  LEU786  VAL792 
 PHE793  MET794  SER795  GLU796  ALA797  LYS798  CYS799  TRP800  GLU811  SER814 

> <Gold.Protein.RotatedAtoms>
  152.0897  134.9415  160.0571 H   0  0  0  0  0  0  0  0  0  0  0  0  # atno 6907 bound_to 6896
  152.0672  133.4084  159.4451 H   0  0  0  0  0  0  0  0  0  0  0  0  # atno 6908 bound_to 6896
  150.6836  134.3053  159.4767 H   0  0  0  0  0  0  0  0  0  0  0  0  # atno 6909 bound_to 6896
  146.1948  139.7635  142.8805 H   0  0  0  0  0  0  0  0  0  0  0  0  # atno 7974 bound_to 7965
  155.4314  140.3450  155.4280 H   0  0  0  0  0  0  0  0  0  0  0  0  # atno 8008 bound_to 7997
  156.1334  140.1521  156.9062 H   0  0  0  0  0  0  0  0  0  0  0  0  # atno 8009 bound_to 7997
  154.4913  140.0840  156.7579 H   0  0  0  0  0  0  0  0  0  0  0  0  # atno 8010 bound_to 7997
  139.9541  143.6023  152.2466 H   0  0  0  0  0  0  0  0  0  0  0  0  # atno 10167 bound_to 10162
  157.6441  131.0951  150.6757 H   0  0  0  0  0  0  0  0  0  0  0  0  # atno 10718 bound_to 10713
  153.7095  135.6951  153.5041 H   0  0  0  0  0  0  0  0  0  0  0  0  # atno 10763 bound_to 10752
  153.2283  135.4346  155.0566 H   0  0  0  0  0  0  0  0  0  0  0  0  # atno 10764 bound_to 10752
  154.8319  135.3478  154.6632 H   0  0  0  0  0  0  0  0  0  0  0  0  # atno 10765 bound_to 10752
  141.1334  133.8267  157.0878 H   0  0  0  0  0  0  0  0  0  0  0  0  # atno 11005 bound_to 11000
  145.3679  141.0337  143.3248 LP  0  0  0  0  0  0  0  0  0  0  0  0  # atno 17320 bound_to 7965
  144.8558  139.5252  143.6835 LP  0  0  0  0  0  0  0  0  0  0  0  0  # atno 17321 bound_to 7965
  139.6605  144.7662  151.1972 LP  0  0  0  0  0  0  0  0  0  0  0  0  # atno 17342 bound_to 10162
  140.7574  143.6017  150.8693 LP  0  0  0  0  0  0  0  0  0  0  0  0  # atno 17343 bound_to 10162
  156.7077  130.4642  149.5556 LP  0  0  0  0  0  0  0  0  0  0  0  0  # atno 17370 bound_to 10713
  156.1752  130.6463  151.0885 LP  0  0  0  0  0  0  0  0  0  0  0  0  # atno 17371 bound_to 10713
  140.0411  134.9854  157.0963 LP  0  0  0  0  0  0  0  0  0  0  0  0  # atno 17394 bound_to 11000
  140.4134  134.1957  155.7163 LP  0  0  0  0  0  0  0  0  0  0  0  0  # atno 17395 bound_to 11000

$$$$
