AV-unprocessed.smi:2526|AV-procd|sdf|9939|dock9
  -GOLD-   2272013583D 1   1.00000     0.00000
 Structure written by MMmdl.
 28 29  0  0  0  0  0  0  0  0  1 V2000
  146.0961  138.2247  152.9575 C   0  0  0  0  0  0  0  0  0  0  0  0
  145.7013  137.0641  152.1885 N   0  0  0  0  0  0  0  0  0  0  0  0
  144.8578  136.0374  152.5520 C   0  0  0  0  0  0  0  0  0  0  0  0
  144.7810  135.1688  151.4970 C   0  0  0  0  0  0  0  0  0  0  0  0
  143.9937  133.8796  151.3603 C   0  0  1  0  0  0  0  0  0  0  0  0
  143.7668  133.5594  149.9482 N   0  0  0  0  0  0  0  0  0  0  0  0
  144.4744  132.6942  149.1971 C   0  0  0  0  0  0  0  0  0  0  0  0
  144.2759  132.5852  147.9895 O   0  0  0  0  0  0  0  0  0  0  0  0
  145.5171  131.7872  149.8734 C   0  0  0  0  0  0  0  0  0  0  0  0
  145.8991  132.2155  151.3016 C   0  0  0  0  0  0  0  0  0  0  0  0
  144.6618  132.6815  152.0790 C   0  0  1  0  0  0  0  0  0  0  0  0
  144.9982  132.9769  153.4602 N   0  0  0  0  0  0  0  0  0  0  0  0
  145.6357  135.7674  150.5260 C   0  0  0  0  0  0  0  0  0  0  0  0
  146.1832  136.8979  150.9408 N   0  0  0  0  0  0  0  0  0  0  0  0
  145.5987  138.2173  153.9277 H   0  0  0  0  0  0  0  0  0  0  0  0
  145.8171  139.1337  152.4238 H   0  0  0  0  0  0  0  0  0  0  0  0
  147.1754  138.2156  153.1123 H   0  0  0  0  0  0  0  0  0  0  0  0
  144.3812  136.0114  153.5210 H   0  0  0  0  0  0  0  0  0  0  0  0
  143.0052  134.0183  151.7995 H   0  0  0  0  0  0  0  0  0  0  0  0
  143.0597  134.1052  149.4771 H   0  0  0  0  0  0  0  0  0  0  0  0
  145.0949  130.7822  149.9034 H   0  0  0  0  0  0  0  0  0  0  0  0
  146.4095  131.7288  149.2499 H   0  0  0  0  0  0  0  0  0  0  0  0
  146.3732  131.3778  151.8141 H   0  0  0  0  0  0  0  0  0  0  0  0
  146.6455  133.0103  151.2619 H   0  0  0  0  0  0  0  0  0  0  0  0
  143.9501  131.8549  152.1019 H   0  0  0  0  0  0  0  0  0  0  0  0
  144.1813  132.8621  154.0428 H   0  0  0  0  0  0  0  0  0  0  0  0
  145.6864  132.3164  153.7926 H   0  0  0  0  0  0  0  0  0  0  0  0
  145.8708  135.4135  149.5331 H   0  0  0  0  0  0  0  0  0  0  0  0
  1  2  1  0  0  0  0
  1 15  1  0  0  0  0
  1 16  1  0  0  0  0
  1 17  1  0  0  0  0
  2 14  1  0  0  0  0
  2  3  1  0  0  0  0
  3  4  2  0  0  0  0
  3 18  1  0  0  0  0
  4  5  1  0  0  0  0
  4 13  1  0  0  0  0
  5 11  1  0  0  0  0
  5  6  1  0  0  0  0
  5 19  1  0  0  0  0
  6  7  1  0  0  0  0
  6 20  1  0  0  0  0
  7  8  2  0  0  0  0
  7  9  1  0  0  0  0
  9 10  1  0  0  0  0
  9 21  1  0  0  0  0
  9 22  1  0  0  0  0
 10 11  1  0  0  0  0
 10 23  1  0  0  0  0
 10 24  1  0  0  0  0
 11 12  1  0  0  0  0
 11 25  1  0  0  0  0
 12 26  1  0  0  0  0
 12 27  1  0  0  0  0
 13 14  2  0  0  0  0
 13 28  1  0  0  0  0
M  END
> <s_m_source_file>
AV-unprocessed.smi

> <i_m_source_file_index>
2526

> <i_lp_mmshare_version>
43012

> <i_f3d_flags>
0

> <s_epik_input>
W0NIM11uMVtjSF1jKFtjSF1uMSlbQ0BASF0yW05IXUMoPU8pW0NIMl1bQ0gyXVtDQEhdMltOSDJd

> <s_epik_cmdline>
J2VwaWtfcHl0aG9uJywgJy1waCcsICc3LjAnLCAnLXRuJywgJzgnLCAnLW1hJywgJzIwMCcsICctbWV0YWxfYmluZGluZycsICctaW1hZScsICc8aW5maWxlLm1hZT4nLCAnLW9tYWUnLCAnPG91dGZpbGUubWFlPic=

> <r_lp_tautomer_probability>
1

> <r_epik_Ionization_Penalty>
2.50279

> <r_epik_Ionization_Penalty_Charging>
0

> <r_epik_Ionization_Penalty_Neutral>
2.50279

> <r_epik_State_Penalty>
2.66754

> <r_epik_Charging_Adjusted_Penalty>
2.66754

> <i_epik_Tot_Q>
0

> <i_epik_Tot_abs_Q>
0

> <r_epik_Metal_State_Penalty>
2.66721

> <b_epik_Metal_Only>
0

> <s_lp_Force_Field>
OPLS_2005

> <r_lp_Energy>
9.07018

> <b_lp_Chiralities_Consistent>
1

> <s_lp_Variant>
AV-unprocessed.smi:2526-6

> <Gold.Version>
5.8.1

> <Gold.Id.Protein>
6NUR|6NUR_protein|mol2

> <Gold.PLP.Fitness>
33.0920

> <Gold.PLP.PLP>
-24.8003

> <Gold.PLP.part.hbond>
-3.0000

> <Gold.PLP.part.metal>
0.0000

> <Gold.PLP.part.buried>
-5.1818

> <Gold.PLP.part.nonpolar>
-19.7185

> <Gold.PLP.part.repulsive>
2.5392

> <Gold.PLP.ligand.clash>
0.0000

> <Gold.PLP.ligand.torsion>
0.5783

> <Gold.PLP.Chemscore.Hbond>
2.1435

> <Gold.PLP.Chemscore.CHOScore>
1.0000

> <Gold.PLP.Chemscore.Metal>
0.0000

> <Gold.Chemscore.Hbonds>
donor molecule, donor type, donor heavy atom, donor atom, acceptor molecule, acceptor atom, score
      L1  H     6    20       P1 10186  0.72
      L1  H    12    26       P1 10957  1.00
      P1  H  7918  7932       L1     8  0.15
      L1  C    13    28       P1  7921  0.92

> <Gold.PLP.Chemscore.Internal.Correction>
0.0176

> <Gold.Rescore>
     Score         DG    S(hbond)    S(metal)    S(lipo)     H(rot)  DE(clash)    DE(int)     intcor
     13.75     -14.97       1.84        0.00      50.43       1.00       0.55       0.67       ----

> <Gold.Chemscore.Fitness>
13.7480

> <Gold.Chemscore.DG>
-14.9697

> <Gold.Chemscore.ZeroCoef>
-5.4800

> <Gold.Chemscore.Hbond>
1.8413

> <Gold.Chemscore.Metal>
0.0000

> <Gold.Chemscore.Lipo>
50.4254

> <Gold.Chemscore.Internal_Hbond>
0.0000

> <Gold.Chemscore.DEClash>
0.5523

> <Gold.Chemscore.DEInternal>
0.6694

> <Gold.Chemscore.Rot>
1.0000

> <Gold.Chemscore.Internal.Correction>
   9.000000E+99

> <Gold.Chemscore.Hbonds>
donor molecule, donor type, donor heavy atom, donor atom, acceptor molecule, acceptor atom, score
      L1  H     6    20       P1 10186  0.69
      L1  H    12    26       P1 10957  0.84
      P1  H  7918  7932       L1     8  0.15
      P1  H  7954  7966       L1    14  0.06

> <Gold.Chemscore.Hbond.Weighted>
-6.1499

> <Gold.Chemscore.Metal.Weighted>
-0.0000

> <Gold.Chemscore.Lipo.Weighted>
-5.8998

> <Gold.Chemscore.Internal_Hbond.Weighted>
0.0000

> <Gold.Chemscore.DEClash.Weighted>
0.5523

> <Gold.Chemscore.DEInternal.Weighted>
0.6694

> <Gold.Chemscore.Rot.Weighted>
2.5600

> <Gold.Chemscore.Internal.Correction.Weighted>
   9.000000E+99

> <Gold.Protein.RotatedTorsions>
[ 6907 6896 6895 6894 ] final  -93.81 input  -60.11 | X-H torsion
[ 7974 7965 7964 7962 ] final  -93.67 input  175.53 | X-H torsion
[ 8008 7997 7996 7995 ] final  -71.68 input   59.86 | X-H torsion
[ 10167 10162 10161 10158 ] final  141.39 input  -65.29 | X-H torsion
[ 10718 10713 10712 10709 ] final -101.84 input   66.30 | X-H torsion
[ 10763 10752 10751 10750 ] final  -91.81 input  -60.55 | X-H torsion
[ 11005 11000 10999 10996 ] final  -78.49 input  -57.11 | X-H torsion

> <Gold.Protein.ActiveResidues>
 VAL166  LYS551  ARG553  GLY616  TRP617  ASP618  TYR619  PRO620  LYS621  CYS622 
 ASP623  PHE694  ASN695  SER759  ASP760  ASP761  ALA762  ILE779  LEU786  VAL792 
 PHE793  MET794  SER795  GLU796  ALA797  LYS798  CYS799  TRP800  GLU811  SER814 

> <Gold.Protein.RotatedAtoms>
  150.6929  134.1909  159.4284 H   0  0  0  0  0  0  0  0  0  0  0  0  # atno 6907 bound_to 6896
  151.9880  134.9992  160.0569 H   0  0  0  0  0  0  0  0  0  0  0  0  # atno 6908 bound_to 6896
  152.1694  133.4598  159.4938 H   0  0  0  0  0  0  0  0  0  0  0  0  # atno 6909 bound_to 6896
  145.3835  140.9520  143.2381 H   0  0  0  0  0  0  0  0  0  0  0  0  # atno 7974 bound_to 7965
  154.5106  140.0811  156.7983 H   0  0  0  0  0  0  0  0  0  0  0  0  # atno 8008 bound_to 7997
  155.3793  140.3427  155.4228 H   0  0  0  0  0  0  0  0  0  0  0  0  # atno 8009 bound_to 7997
  156.1569  140.1576  156.8665 H   0  0  0  0  0  0  0  0  0  0  0  0  # atno 8010 bound_to 7997
  139.5022  144.6174  151.6131 H   0  0  0  0  0  0  0  0  0  0  0  0  # atno 10167 bound_to 10162
  156.0208  130.5392  150.7022 H   0  0  0  0  0  0  0  0  0  0  0  0  # atno 10718 bound_to 10713
  154.6798  135.5254  153.8248 H   0  0  0  0  0  0  0  0  0  0  0  0  # atno 10763 bound_to 10752
  153.0557  135.6549  154.0593 H   0  0  0  0  0  0  0  0  0  0  0  0  # atno 10764 bound_to 10752
  154.0482  135.2971  155.3324 H   0  0  0  0  0  0  0  0  0  0  0  0  # atno 10765 bound_to 10752
  141.1665  133.7065  156.7980 H   0  0  0  0  0  0  0  0  0  0  0  0  # atno 11005 bound_to 11000
  144.8491  139.5350  143.6865 LP  0  0  0  0  0  0  0  0  0  0  0  0  # atno 17320 bound_to 7965
  146.2831  139.6931  142.9215 LP  0  0  0  0  0  0  0  0  0  0  0  0  # atno 17321 bound_to 7965
  140.5866  143.9853  150.6299 LP  0  0  0  0  0  0  0  0  0  0  0  0  # atno 17342 bound_to 10162
  140.3020  143.3254  152.0963 LP  0  0  0  0  0  0  0  0  0  0  0  0  # atno 17343 bound_to 10162
  157.4679  131.0890  151.0674 LP  0  0  0  0  0  0  0  0  0  0  0  0  # atno 17370 bound_to 10713
  157.1143  130.6035  149.5489 LP  0  0  0  0  0  0  0  0  0  0  0  0  # atno 17371 bound_to 10713
  140.2277  134.8709  157.3444 LP  0  0  0  0  0  0  0  0  0  0  0  0  # atno 17394 bound_to 11000
  140.1923  134.4357  155.7709 LP  0  0  0  0  0  0  0  0  0  0  0  0  # atno 17395 bound_to 11000

$$$$
