AV-unprocessed.smi:299|AV-procd|sdf|2268|dock2
  -GOLD-   2262022163D 1   1.00000     0.00000
 Structure written by MMmdl.
 42 43  0  0  0  0  0  0  0  0  2 V2000
  152.2024  144.0148  162.5062 C   0  0  0  0  0  0  0  0  0  0  0  0
  151.9714  143.8307  160.9915 C   0  0  1  0  0  0  0  0  0  0  0  0
  151.8082  145.2262  160.3484 C   0  0  0  0  0  0  0  0  0  0  0  0
  151.5634  145.1404  158.8405 C   0  0  0  0  0  0  0  0  0  0  0  0
  152.6963  144.3477  158.1899 C   0  0  0  0  0  0  0  0  0  0  0  0
  152.8315  142.9640  158.8407 C   0  0  0  0  0  0  0  0  0  0  0  0
  153.0622  143.0547  160.3125 N   0  3  2  0  0  0  0  0  0  0  0  0
  153.3188  141.7136  160.9144 C   0  0  0  0  0  0  0  0  0  0  0  0
  154.6870  141.1169  160.5229 C   0  0  0  0  0  0  0  0  0  0  0  0
  155.2790  140.1844  161.5974 C   0  0  0  0  0  0  0  0  0  0  0  0
  154.9749  140.6204  162.9570 N   0  0  0  0  0  0  0  0  0  0  0  0
  155.5166  140.1078  164.0735 C   0  0  0  0  0  0  0  0  0  0  0  0
  156.3221  139.1778  164.0699 O   0  0  0  0  0  0  0  0  0  0  0  0
  155.0784  140.7332  165.3987 C   0  0  0  0  0  0  0  0  0  0  0  0
  155.3263  142.1627  165.4143 N   0  0  0  0  0  0  0  0  0  0  0  0
  154.4924  143.1961  165.5491 C   0  0  0  0  0  0  0  0  0  0  0  0
  155.1346  144.3529  165.4970 N   0  0  0  0  0  0  0  0  0  0  0  0
  156.4542  143.9722  165.3180 N   0  0  0  0  0  0  0  0  0  0  0  0
  156.5742  142.6739  165.2687 N   0  0  0  0  0  0  0  0  0  0  0  0
  151.4911  144.7280  162.9241 H   0  0  0  0  0  0  0  0  0  0  0  0
  153.2041  144.3924  162.7142 H   0  0  0  0  0  0  0  0  0  0  0  0
  152.0595  143.0910  163.0653 H   0  0  0  0  0  0  0  0  0  0  0  0
  151.0370  143.2829  160.8570 H   0  0  0  0  0  0  0  0  0  0  0  0
  150.9782  145.7591  160.8139 H   0  0  0  0  0  0  0  0  0  0  0  0
  152.7007  145.8253  160.5367 H   0  0  0  0  0  0  0  0  0  0  0  0
  150.6062  144.6556  158.6442 H   0  0  0  0  0  0  0  0  0  0  0  0
  151.5044  146.1401  158.4090 H   0  0  0  0  0  0  0  0  0  0  0  0
  152.5075  144.2400  157.1213 H   0  0  0  0  0  0  0  0  0  0  0  0
  153.6354  144.8946  158.2856 H   0  0  0  0  0  0  0  0  0  0  0  0
  151.9348  142.3724  158.6494 H   0  0  0  0  0  0  0  0  0  0  0  0
  153.6551  142.4507  158.3484 H   0  0  0  0  0  0  0  0  0  0  0  0
  153.3235  141.7775  161.9994 H   0  0  0  0  0  0  0  0  0  0  0  0
  152.5072  141.0347  160.6488 H   0  0  0  0  0  0  0  0  0  0  0  0
  154.6168  140.5634  159.5879 H   0  0  0  0  0  0  0  0  0  0  0  0
  155.3932  141.9281  160.3418 H   0  0  0  0  0  0  0  0  0  0  0  0
  154.9162  139.1657  161.4510 H   0  0  0  0  0  0  0  0  0  0  0  0
  156.3631  140.1396  161.4918 H   0  0  0  0  0  0  0  0  0  0  0  0
  154.3241  141.3864  163.0543 H   0  0  0  0  0  0  0  0  0  0  0  0
  154.0143  140.5557  165.5602 H   0  0  0  0  0  0  0  0  0  0  0  0
  155.6121  140.2693  166.2299 H   0  0  0  0  0  0  0  0  0  0  0  0
  153.4247  143.1016  165.6809 H   0  0  0  0  0  0  0  0  0  0  0  0
  153.9081  143.5916  160.4415 H   0  0  0  0  0  0  0  0  0  0  0  0
  1  2  1  0  0  0  0
  1 20  1  0  0  0  0
  1 21  1  0  0  0  0
  1 22  1  0  0  0  0
  2  7  1  0  0  0  0
  2  3  1  0  0  0  0
  2 23  1  0  0  0  0
  3  4  1  0  0  0  0
  3 24  1  0  0  0  0
  3 25  1  0  0  0  0
  4  5  1  0  0  0  0
  4 26  1  0  0  0  0
  4 27  1  0  0  0  0
  5  6  1  0  0  0  0
  5 28  1  0  0  0  0
  5 29  1  0  0  0  0
  6  7  1  0  0  0  0
  6 30  1  0  0  0  0
  6 31  1  0  0  0  0
  7  8  1  0  0  0  0
  7 42  1  0  0  0  0
  8  9  1  0  0  0  0
  8 32  1  0  0  0  0
  8 33  1  0  0  0  0
  9 10  1  0  0  0  0
  9 34  1  0  0  0  0
  9 35  1  0  0  0  0
 10 11  1  0  0  0  0
 10 36  1  0  0  0  0
 10 37  1  0  0  0  0
 11 12  1  0  0  0  0
 11 38  1  0  0  0  0
 12 13  2  0  0  0  0
 12 14  1  0  0  0  0
 14 15  1  0  0  0  0
 14 39  1  0  0  0  0
 14 40  1  0  0  0  0
 15 19  1  0  0  0  0
 15 16  1  0  0  0  0
 16 17  2  0  0  0  0
 16 41  1  0  0  0  0
 17 18  1  0  0  0  0
 18 19  2  0  0  0  0
M  CHG  1   7   1
M  END
> <s_m_source_file>
AV-unprocessed.smi

> <i_m_source_file_index>
299

> <i_lp_mmshare_version>
43012

> <i_f3d_flags>
0

> <s_epik_input>
W0NIM11bQ0BASF0xW0NIMl1bQ0gyXVtDSDJdW0NIMl1OMVtDSDJdW0NIMl1bQ0gyXVtOSF1DKD1PKVtDSDJdbjJbY0hdbm5uMg==

> <s_epik_cmdline>
J2VwaWtfcHl0aG9uJywgJy1waCcsICc3LjAnLCAnLXRuJywgJzgnLCAnLW1hJywgJzIwMCcsICctbWV0YWxfYmluZGluZycsICctaW1hZScsICc8aW5maWxlLm1hZT4nLCAnLW9tYWUnLCAnPG91dGZpbGUubWFlPic=

> <r_lp_tautomer_probability>
1

> <r_epik_Ionization_Penalty>
0.000544863

> <r_epik_Ionization_Penalty_Charging>
0.000543475

> <r_epik_Ionization_Penalty_Neutral>
1.38784e-06

> <r_epik_State_Penalty>
0.000340025

> <r_epik_Charging_Adjusted_Penalty>
0.0008835

> <i_epik_Tot_Q>
1

> <i_epik_Tot_abs_Q>
1

> <r_epik_Metal_State_Penalty>
-0

> <b_epik_Metal_Only>
0

> <s_lp_Force_Field>
OPLS_2005

> <r_lp_Energy>
25.9803

> <b_lp_Chiralities_Consistent>
1

> <s_lp_Variant>
AV-unprocessed.smi:299-4

> <Gold.Version>
5.8.1

> <Gold.Id.Protein>
6NUR|6NUR_protein|mol2

> <Gold.PLP.Fitness>
46.7189

> <Gold.PLP.PLP>
-47.6354

> <Gold.PLP.part.hbond>
-5.0000

> <Gold.PLP.part.metal>
0.0000

> <Gold.PLP.part.buried>
-3.5885

> <Gold.PLP.part.nonpolar>
-39.0510

> <Gold.PLP.part.repulsive>
0.1323

> <Gold.PLP.ligand.clash>
0.0000

> <Gold.PLP.ligand.torsion>
0.4842

> <Gold.PLP.Chemscore.Hbond>
0.0000

> <Gold.PLP.Chemscore.CHOScore>
0.0000

> <Gold.PLP.Chemscore.Metal>
0.0000

> <Gold.PLP.Chemscore.Internal.Correction>
0.0519

> <Gold.Rescore>
     Score         DG    S(hbond)    S(metal)    S(lipo)     H(rot)  DE(clash)    DE(int)     intcor
      9.54     -10.92       0.00        0.00     111.42       2.97       0.86       0.52       ----

> <Gold.Chemscore.Fitness>
9.5372

> <Gold.Chemscore.DG>
-10.9186

> <Gold.Chemscore.ZeroCoef>
-5.4800

> <Gold.Chemscore.Hbond>
0.0000

> <Gold.Chemscore.Metal>
0.0000

> <Gold.Chemscore.Lipo>
111.4237

> <Gold.Chemscore.Internal_Hbond>
0.0000

> <Gold.Chemscore.DEClash>
0.8649

> <Gold.Chemscore.DEInternal>
0.5165

> <Gold.Chemscore.Rot>
2.9680

> <Gold.Chemscore.Internal.Correction>
   9.000000E+99

> <Gold.Chemscore.Hbond.Weighted>
-0.0000

> <Gold.Chemscore.Metal.Weighted>
-0.0000

> <Gold.Chemscore.Lipo.Weighted>
-13.0366

> <Gold.Chemscore.Internal_Hbond.Weighted>
0.0000

> <Gold.Chemscore.DEClash.Weighted>
0.8649

> <Gold.Chemscore.DEInternal.Weighted>
0.5165

> <Gold.Chemscore.Rot.Weighted>
7.5980

> <Gold.Chemscore.Internal.Correction.Weighted>
   9.000000E+99

> <Gold.Protein.RotatedTorsions>
[ 6907 6896 6895 6894 ] final -117.16 input  -60.11 | X-H torsion
[ 7974 7965 7964 7962 ] final   25.64 input  175.53 | X-H torsion
[ 8008 7997 7996 7995 ] final  131.72 input   59.86 | X-H torsion
[ 10167 10162 10161 10158 ] final  -98.43 input  -65.29 | X-H torsion
[ 10718 10713 10712 10709 ] final  178.47 input   66.30 | X-H torsion
[ 10763 10752 10751 10750 ] final  -18.60 input  -60.55 | X-H torsion
[ 11005 11000 10999 10996 ] final -100.07 input  -57.11 | X-H torsion

> <Gold.Protein.ActiveResidues>
 VAL166  LYS551  ARG553  GLY616  TRP617  ASP618  TYR619  PRO620  LYS621  CYS622 
 ASP623  PHE694  ASN695  SER759  ASP760  ASP761  ALA762  ILE779  LEU786  VAL792 
 PHE793  MET794  SER795  GLU796  ALA797  LYS798  CYS799  TRP800  GLU811  SER814 

> <Gold.Protein.RotatedAtoms>
  150.8114  133.8415  159.3180 H   0  0  0  0  0  0  0  0  0  0  0  0  # atno 6907 bound_to 6896
  151.6200  135.1031  160.0109 H   0  0  0  0  0  0  0  0  0  0  0  0  # atno 6908 bound_to 6896
  152.4206  133.7069  159.6513 H   0  0  0  0  0  0  0  0  0  0  0  0  # atno 6909 bound_to 6896
  146.1878  139.7439  142.8853 H   0  0  0  0  0  0  0  0  0  0  0  0  # atno 7974 bound_to 7965
  156.2974  140.2564  156.2972 H   0  0  0  0  0  0  0  0  0  0  0  0  # atno 8008 bound_to 7997
  154.9453  140.0395  157.2136 H   0  0  0  0  0  0  0  0  0  0  0  0  # atno 8009 bound_to 7997
  154.8088  140.2840  155.5873 H   0  0  0  0  0  0  0  0  0  0  0  0  # atno 8010 bound_to 7997
  140.2730  143.3331  152.0516 H   0  0  0  0  0  0  0  0  0  0  0  0  # atno 10167 bound_to 10162
  156.8901  130.9844  151.3050 H   0  0  0  0  0  0  0  0  0  0  0  0  # atno 10718 bound_to 10713
  153.5918  135.7002  153.5420 H   0  0  0  0  0  0  0  0  0  0  0  0  # atno 10763 bound_to 10752
  153.3172  135.4084  155.1385 H   0  0  0  0  0  0  0  0  0  0  0  0  # atno 10764 bound_to 10752
  154.8599  135.3686  154.5450 H   0  0  0  0  0  0  0  0  0  0  0  0  # atno 10765 bound_to 10752
  141.1285  133.8370  157.1055 H   0  0  0  0  0  0  0  0  0  0  0  0  # atno 11005 bound_to 11000
  145.3884  141.0369  143.3138 LP  0  0  0  0  0  0  0  0  0  0  0  0  # atno 17320 bound_to 7965
  144.8430  139.5441  143.6891 LP  0  0  0  0  0  0  0  0  0  0  0  0  # atno 17321 bound_to 7965
  139.4983  144.6643  151.6392 LP  0  0  0  0  0  0  0  0  0  0  0  0  # atno 17342 bound_to 10162
  140.5874  143.9840  150.6304 LP  0  0  0  0  0  0  0  0  0  0  0  0  # atno 17343 bound_to 10162
  157.6089  130.8568  149.8919 LP  0  0  0  0  0  0  0  0  0  0  0  0  # atno 17370 bound_to 10713
  156.0633  130.3696  150.0933 LP  0  0  0  0  0  0  0  0  0  0  0  0  # atno 17371 bound_to 10713
  140.0307  134.9902  157.0775 LP  0  0  0  0  0  0  0  0  0  0  0  0  # atno 17394 bound_to 11000
  140.4289  134.1801  155.7167 LP  0  0  0  0  0  0  0  0  0  0  0  0  # atno 17395 bound_to 11000

$$$$
