AV-unprocessed.smi:3274|AV-procd|sdf|12528|dock10
  -GOLD-   2272018443D 1   1.00000     0.00000
 Structure written by MMmdl.
 43 44  0  0  0  0  0  0  0  0  2 V2000
  153.9466  141.0087  161.2414 C   0  0  0  0  0  0  0  0  0  0  0  0
  153.0984  142.2052  160.8460 C   0  0  0  0  0  0  0  0  0  0  0  0
  152.8177  143.1559  161.7577 C   0  0  0  0  0  0  0  0  0  0  0  0
  152.0453  144.4204  161.4607 C   0  0  0  0  0  0  0  0  0  0  0  0
  152.0544  144.7314  159.9622 C   0  0  0  0  0  0  0  0  0  0  0  0
  151.6599  143.5000  159.1305 C   0  0  1  0  0  0  0  0  0  0  0  0
  151.5886  143.8910  157.6411 C   0  0  0  0  0  0  0  0  0  0  0  0
  152.6065  142.2863  159.3861 C   0  0  2  0  0  0  0  0  0  0  0  0
  151.9341  140.9717  158.9093 C   0  0  0  0  0  0  0  0  0  0  0  0
  151.8905  140.8542  157.4350 N   0  3  0  0  0  0  0  0  0  0  0  0
  151.8116  139.4723  156.9061 C   0  0  1  0  0  0  0  0  0  0  0  0
  150.6728  138.6833  157.5744 C   0  0  0  0  0  0  0  0  0  0  0  0
  151.6304  139.4966  155.3759 C   0  0  0  0  0  0  0  0  0  0  0  0
  150.3591  140.0748  154.9792 N   0  0  0  0  0  0  0  0  0  0  0  0
  149.2959  139.5183  154.3966 C   0  0  0  0  0  0  0  0  0  0  0  0
  148.3043  140.3685  154.1709 N   0  0  0  0  0  0  0  0  0  0  0  0
  148.8577  141.5078  154.6832 C   0  0  0  0  0  0  0  0  0  0  0  0
  150.0910  141.3869  155.1754 N   0  0  0  0  0  0  0  0  0  0  0  0
  154.7735  140.8805  160.5429 H   0  0  0  0  0  0  0  0  0  0  0  0
  153.3499  140.0971  161.2591 H   0  0  0  0  0  0  0  0  0  0  0  0
  154.3738  141.1353  162.2369 H   0  0  0  0  0  0  0  0  0  0  0  0
  153.1637  143.0457  162.7755 H   0  0  0  0  0  0  0  0  0  0  0  0
  151.0252  144.3015  161.8273 H   0  0  0  0  0  0  0  0  0  0  0  0
  152.4901  145.2495  162.0121 H   0  0  0  0  0  0  0  0  0  0  0  0
  151.3764  145.5621  159.7621 H   0  0  0  0  0  0  0  0  0  0  0  0
  153.0493  145.0677  159.6664 H   0  0  0  0  0  0  0  0  0  0  0  0
  150.6545  143.2159  159.4463 H   0  0  0  0  0  0  0  0  0  0  0  0
  152.5711  144.1690  157.2582 H   0  0  0  0  0  0  0  0  0  0  0  0
  150.9276  144.7458  157.4947 H   0  0  0  0  0  0  0  0  0  0  0  0
  151.2054  143.0869  157.0151 H   0  0  0  0  0  0  0  0  0  0  0  0
  153.5039  142.4482  158.7867 H   0  0  0  0  0  0  0  0  0  0  0  0
  152.4629  140.1177  159.3353 H   0  0  0  0  0  0  0  0  0  0  0  0
  150.9102  140.9064  159.2705 H   0  0  0  0  0  0  0  0  0  0  0  0
  151.1116  141.3909  157.0806 H   0  0  0  0  0  0  0  0  0  0  0  0
  152.7547  138.9681  157.1237 H   0  0  0  0  0  0  0  0  0  0  0  0
  150.5900  137.6826  157.1493 H   0  0  0  0  0  0  0  0  0  0  0  0
  149.7114  139.1802  157.4384 H   0  0  0  0  0  0  0  0  0  0  0  0
  150.8379  138.5608  158.6447 H   0  0  0  0  0  0  0  0  0  0  0  0
  152.4220  140.0873  154.9128 H   0  0  0  0  0  0  0  0  0  0  0  0
  151.7108  138.4901  154.9614 H   0  0  0  0  0  0  0  0  0  0  0  0
  149.2481  138.4734  154.1265 H   0  0  0  0  0  0  0  0  0  0  0  0
  148.3395  142.4557  154.6867 H   0  0  0  0  0  0  0  0  0  0  0  0
  152.7438  141.2621  157.0789 H   0  0  0  0  0  0  0  0  0  0  0  0
  1  2  1  0  0  0  0
  1 19  1  0  0  0  0
  1 20  1  0  0  0  0
  1 21  1  0  0  0  0
  2  8  1  0  0  0  0
  2  3  2  0  0  0  0
  3  4  1  0  0  0  0
  3 22  1  0  0  0  0
  4  5  1  0  0  0  0
  4 23  1  0  0  0  0
  4 24  1  0  0  0  0
  5  6  1  0  0  0  0
  5 25  1  0  0  0  0
  5 26  1  0  0  0  0
  6  7  1  0  0  0  0
  6  8  1  0  0  0  0
  6 27  1  0  0  0  0
  7 28  1  0  0  0  0
  7 29  1  0  0  0  0
  7 30  1  0  0  0  0
  8  9  1  0  0  0  0
  8 31  1  0  0  0  0
  9 10  1  0  0  0  0
  9 32  1  0  0  0  0
  9 33  1  0  0  0  0
 10 11  1  0  0  0  0
 10 34  1  0  0  0  0
 10 43  1  0  0  0  0
 11 12  1  0  0  0  0
 11 13  1  0  0  0  0
 11 35  1  0  0  0  0
 12 36  1  0  0  0  0
 12 37  1  0  0  0  0
 12 38  1  0  0  0  0
 13 14  1  0  0  0  0
 13 39  1  0  0  0  0
 13 40  1  0  0  0  0
 14 18  1  0  0  0  0
 14 15  1  0  0  0  0
 15 16  2  0  0  0  0
 15 41  1  0  0  0  0
 16 17  1  0  0  0  0
 17 18  2  0  0  0  0
 17 42  1  0  0  0  0
M  CHG  1  10   1
M  END
> <s_m_source_file>
AV-unprocessed.smi

> <i_m_source_file_index>
3274

> <i_lp_mmshare_version>
43012

> <i_f3d_flags>
0

> <s_epik_input>
W0NIM11DMT1bQ0hdW0NIMl1bQ0gyXVtDQEBIXShbQ0gzXSlbQ0BIXTFbQ0gyXVtOSF1bQ0BIXShbQ0gzXSlbQ0gyXW4yW2NIXW5bY0hdbjI=

> <s_epik_cmdline>
J2VwaWtfcHl0aG9uJywgJy1waCcsICc3LjAnLCAnLXRuJywgJzgnLCAnLW1hJywgJzIwMCcsICctbWV0YWxfYmluZGluZycsICctaW1hZScsICc8aW5maWxlLm1hZT4nLCAnLW9tYWUnLCAnPG91dGZpbGUubWFlPic=

> <r_lp_tautomer_probability>
1

> <r_epik_Ionization_Penalty>
0.0017527

> <r_epik_Ionization_Penalty_Charging>
0.00175191

> <r_epik_Ionization_Penalty_Neutral>
7.94565e-07

> <r_epik_State_Penalty>
0.00118605

> <r_epik_Charging_Adjusted_Penalty>
0.00293796

> <i_epik_Tot_Q>
1

> <i_epik_Tot_abs_Q>
1

> <r_epik_Metal_State_Penalty>
-0

> <b_epik_Metal_Only>
0

> <s_lp_Force_Field>
OPLS_2005

> <r_lp_Energy>
17.2451

> <b_lp_Chiralities_Consistent>
1

> <s_lp_Variant>
AV-unprocessed.smi:3274-7

> <Gold.Version>
5.8.1

> <Gold.Id.Protein>
6NUR|6NUR_protein|mol2

> <Gold.PLP.Fitness>
46.8494

> <Gold.PLP.PLP>
-44.5038

> <Gold.PLP.part.hbond>
-1.0000

> <Gold.PLP.part.metal>
0.0000

> <Gold.PLP.part.buried>
-2.5489

> <Gold.PLP.part.nonpolar>
-41.4629

> <Gold.PLP.part.repulsive>
0.3287

> <Gold.PLP.ligand.clash>
0.0000

> <Gold.PLP.ligand.torsion>
0.3606

> <Gold.PLP.Chemscore.Hbond>
0.0000

> <Gold.PLP.Chemscore.CHOScore>
1.0000

> <Gold.PLP.Chemscore.Metal>
0.0000

> <Gold.Chemscore.Hbonds>
donor molecule, donor type, donor heavy atom, donor atom, acceptor molecule, acceptor atom, score
      L1  C    17    42       P1  8028  1.00

> <Gold.PLP.Chemscore.Internal.Correction>
0.0670

> <Gold.Rescore>
     Score         DG    S(hbond)    S(metal)    S(lipo)     H(rot)  DE(clash)    DE(int)     intcor
     11.44     -12.82       0.00        0.00     114.45       2.36       0.09       1.30       ----

> <Gold.Chemscore.Fitness>
11.4351

> <Gold.Chemscore.DG>
-12.8248

> <Gold.Chemscore.ZeroCoef>
-5.4800

> <Gold.Chemscore.Hbond>
0.0000

> <Gold.Chemscore.Metal>
0.0000

> <Gold.Chemscore.Lipo>
114.4464

> <Gold.Chemscore.Internal_Hbond>
0.0000

> <Gold.Chemscore.DEClash>
0.0911

> <Gold.Chemscore.DEInternal>
1.2986

> <Gold.Chemscore.Rot>
2.3615

> <Gold.Chemscore.Internal.Correction>
   9.000000E+99

> <Gold.Chemscore.Hbond.Weighted>
-0.0000

> <Gold.Chemscore.Metal.Weighted>
-0.0000

> <Gold.Chemscore.Lipo.Weighted>
-13.3902

> <Gold.Chemscore.Internal_Hbond.Weighted>
0.0000

> <Gold.Chemscore.DEClash.Weighted>
0.0911

> <Gold.Chemscore.DEInternal.Weighted>
1.2986

> <Gold.Chemscore.Rot.Weighted>
6.0454

> <Gold.Chemscore.Internal.Correction.Weighted>
   9.000000E+99

> <Gold.Protein.RotatedTorsions>
[ 6907 6896 6895 6894 ] final   21.40 input  -60.11 | X-H torsion
[ 7974 7965 7964 7962 ] final   27.92 input  175.53 | X-H torsion
[ 8008 7997 7996 7995 ] final   13.14 input   59.86 | X-H torsion
[ 10167 10162 10161 10158 ] final   29.72 input  -65.29 | X-H torsion
[ 10718 10713 10712 10709 ] final  167.89 input   66.30 | X-H torsion
[ 10763 10752 10751 10750 ] final  173.65 input  -60.55 | X-H torsion
[ 11005 11000 10999 10996 ] final -117.67 input  -57.11 | X-H torsion

> <Gold.Protein.ActiveResidues>
 VAL166  LYS551  ARG553  GLY616  TRP617  ASP618  TYR619  PRO620  LYS621  CYS622 
 ASP623  PHE694  ASN695  SER759  ASP760  ASP761  ALA762  ILE779  LEU786  VAL792 
 PHE793  MET794  SER795  GLU796  ALA797  LYS798  CYS799  TRP800  GLU811  SER814 

> <Gold.Protein.RotatedAtoms>
  151.9112  135.0338  160.0514 H   0  0  0  0  0  0  0  0  0  0  0  0  # atno 6907 bound_to 6896
  152.2277  133.5029  159.5207 H   0  0  0  0  0  0  0  0  0  0  0  0  # atno 6908 bound_to 6896
  150.7017  134.1174  159.4065 H   0  0  0  0  0  0  0  0  0  0  0  0  # atno 6909 bound_to 6896
  146.1758  139.7126  142.8936 H   0  0  0  0  0  0  0  0  0  0  0  0  # atno 7974 bound_to 7965
  154.8303  140.2898  155.5727 H   0  0  0  0  0  0  0  0  0  0  0  0  # atno 8008 bound_to 7997
  156.3005  140.2533  156.3157 H   0  0  0  0  0  0  0  0  0  0  0  0  # atno 8009 bound_to 7997
  154.9239  140.0385  157.2002 H   0  0  0  0  0  0  0  0  0  0  0  0  # atno 8010 bound_to 7997
  140.4741  144.0717  150.6245 H   0  0  0  0  0  0  0  0  0  0  0  0  # atno 10167 bound_to 10162
  157.0450  131.0297  151.2700 H   0  0  0  0  0  0  0  0  0  0  0  0  # atno 10718 bound_to 10713
  154.4430  135.2762  155.1834 H   0  0  0  0  0  0  0  0  0  0  0  0  # atno 10763 bound_to 10752
  154.3693  135.6112  153.5735 H   0  0  0  0  0  0  0  0  0  0  0  0  # atno 10764 bound_to 10752
  152.9842  135.5853  154.4761 H   0  0  0  0  0  0  0  0  0  0  0  0  # atno 10765 bound_to 10752
  141.0339  133.9939  157.3101 H   0  0  0  0  0  0  0  0  0  0  0  0  # atno 11005 bound_to 11000
  145.4216  141.0407  143.2960 LP  0  0  0  0  0  0  0  0  0  0  0  0  # atno 17320 bound_to 7965
  144.8233  139.5753  143.6977 LP  0  0  0  0  0  0  0  0  0  0  0  0  # atno 17321 bound_to 7965
  140.3940  143.2737  152.0026 LP  0  0  0  0  0  0  0  0  0  0  0  0  # atno 17342 bound_to 10162
  139.4823  144.6053  151.7532 LP  0  0  0  0  0  0  0  0  0  0  0  0  # atno 17343 bound_to 10162
  157.5075  130.7918  149.7669 LP  0  0  0  0  0  0  0  0  0  0  0  0  # atno 17370 bound_to 10713
  156.0026  130.3872  150.2550 LP  0  0  0  0  0  0  0  0  0  0  0  0  # atno 17371 bound_to 10713
  139.9227  135.0201  156.8122 LP  0  0  0  0  0  0  0  0  0  0  0  0  # atno 17394 bound_to 11000
  140.6358  133.9864  155.7683 LP  0  0  0  0  0  0  0  0  0  0  0  0  # atno 17395 bound_to 11000

$$$$
