AV-unprocessed.smi:1021|AV-procd|sdf|4456|dock7
  -GOLD-   22720 2423D 1   1.00000     0.00000
 Structure written by MMmdl.
 43 45  0  0  0  0  0  0  0  0  2 V2000
  146.5480  138.0695  150.0965 O   0  0  0  0  0  0  0  0  0  0  0  0
  146.5414  138.7956  151.3071 C   0  0  0  0  0  0  0  0  0  0  0  0
  146.1151  137.8926  152.4729 C   0  0  0  0  0  0  0  0  0  0  0  0
  146.1084  138.6195  153.8267 C   0  0  0  0  0  0  0  0  0  0  0  0
  147.4887  138.9992  154.2536 C   0  0  0  0  0  0  0  0  0  0  0  0
  148.6166  138.2654  154.0381 N   0  3  0  0  0  0  0  0  0  0  0  0
  149.7201  138.9228  154.5830 C   0  0  0  0  0  0  0  0  0  0  0  0
  151.0671  138.5749  154.6107 C   0  0  0  0  0  0  0  0  0  0  0  0
  151.9404  139.4762  155.2542 C   0  0  0  0  0  0  0  0  0  0  0  0
  151.4654  140.6682  155.8392 C   0  0  0  0  0  0  0  0  0  0  0  0
  150.0973  141.0098  155.8055 C   0  0  0  0  0  0  0  0  0  0  0  0
  149.2414  140.1137  155.1656 C   0  0  0  0  0  0  0  0  0  0  0  0
  147.8612  140.1205  154.9377 N   0  0  0  0  0  0  0  0  0  0  0  0
  147.0614  141.2546  155.4272 C   0  0  0  0  0  0  0  0  0  0  0  0
  146.8838  142.3617  154.3681 C   0  0  2  0  0  0  0  0  0  0  0  0
  148.1512  142.9275  154.1067 O   0  0  0  0  0  0  0  0  0  0  0  0
  145.8572  143.4038  154.7902 C   0  0  0  0  0  0  0  0  0  0  0  0
  145.2462  144.2210  153.8147 C   0  0  0  0  0  0  0  0  0  0  0  0
  144.2747  145.1691  154.1893 C   0  0  0  0  0  0  0  0  0  0  0  0
  143.9090  145.3068  155.5420 C   0  0  0  0  0  0  0  0  0  0  0  0
  142.9734  146.2169  155.9014 F   0  0  0  0  0  0  0  0  0  0  0  0
  144.5158  144.4958  156.5201 C   0  0  0  0  0  0  0  0  0  0  0  0
  145.4866  143.5466  156.1460 C   0  0  0  0  0  0  0  0  0  0  0  0
  145.6965  138.1493  149.6937 H   0  0  0  0  0  0  0  0  0  0  0  0
  147.5303  139.2192  151.4843 H   0  0  0  0  0  0  0  0  0  0  0  0
  145.8468  139.6296  151.2056 H   0  0  0  0  0  0  0  0  0  0  0  0
  145.1128  137.5153  152.2677 H   0  0  0  0  0  0  0  0  0  0  0  0
  146.7654  137.0182  152.5204 H   0  0  0  0  0  0  0  0  0  0  0  0
  145.4967  139.5205  153.7716 H   0  0  0  0  0  0  0  0  0  0  0  0
  145.6581  137.9874  154.5909 H   0  0  0  0  0  0  0  0  0  0  0  0
  151.4329  137.6618  154.1641 H   0  0  0  0  0  0  0  0  0  0  0  0
  152.9955  139.2485  155.3002 H   0  0  0  0  0  0  0  0  0  0  0  0
  152.1643  141.3343  156.3241 H   0  0  0  0  0  0  0  0  0  0  0  0
  149.7425  141.9248  156.2563 H   0  0  0  0  0  0  0  0  0  0  0  0
  146.0919  140.8739  155.7507 H   0  0  0  0  0  0  0  0  0  0  0  0
  147.5486  141.6463  156.3212 H   0  0  0  0  0  0  0  0  0  0  0  0
  146.5528  141.9146  153.4301 H   0  0  0  0  0  0  0  0  0  0  0  0
  148.2575  143.6912  154.6534 H   0  0  0  0  0  0  0  0  0  0  0  0
  145.5144  144.1162  152.7736 H   0  0  0  0  0  0  0  0  0  0  0  0
  143.8082  145.7899  153.4387 H   0  0  0  0  0  0  0  0  0  0  0  0
  144.2343  144.5995  157.5576 H   0  0  0  0  0  0  0  0  0  0  0  0
  145.9380  142.9228  156.9037 H   0  0  0  0  0  0  0  0  0  0  0  0
  148.6270  137.3777  153.5522 H   0  0  0  0  0  0  0  0  0  0  0  0
  1  2  1  0  0  0  0
  1 24  1  0  0  0  0
  2  3  1  0  0  0  0
  2 25  1  0  0  0  0
  2 26  1  0  0  0  0
  3  4  1  0  0  0  0
  3 27  1  0  0  0  0
  3 28  1  0  0  0  0
  4  5  1  0  0  0  0
  4 29  1  0  0  0  0
  4 30  1  0  0  0  0
  5 13  1  0  0  0  0
  5  6  2  0  0  0  0
  6  7  1  0  0  0  0
  6 43  1  0  0  0  0
  7 12  2  0  0  0  0
  7  8  1  0  0  0  0
  8  9  2  0  0  0  0
  8 31  1  0  0  0  0
  9 10  1  0  0  0  0
  9 32  1  0  0  0  0
 10 11  2  0  0  0  0
 10 33  1  0  0  0  0
 11 12  1  0  0  0  0
 11 34  1  0  0  0  0
 12 13  1  0  0  0  0
 13 14  1  0  0  0  0
 14 15  1  0  0  0  0
 14 35  1  0  0  0  0
 14 36  1  0  0  0  0
 15 16  1  0  0  0  0
 15 17  1  0  0  0  0
 15 37  1  0  0  0  0
 16 38  1  0  0  0  0
 17 23  1  0  0  0  0
 17 18  2  0  0  0  0
 18 19  1  0  0  0  0
 18 39  1  0  0  0  0
 19 20  2  0  0  0  0
 19 40  1  0  0  0  0
 20 21  1  0  0  0  0
 20 22  1  0  0  0  0
 22 23  2  0  0  0  0
 22 41  1  0  0  0  0
 23 42  1  0  0  0  0
M  CHG  1   6   1
M  END
> <s_m_source_file>
AV-unprocessed.smi

> <i_m_source_file_index>
1021

> <i_lp_mmshare_version>
43012

> <i_f3d_flags>
0

> <s_epik_input>
W09IXVtDSDJdW0NIMl1bQ0gyXWMobjEpbihjKGMxMilbY0hdW2NIXVtjSF1bY0hdMilbQ0gyXVtDQEhdKFtPSF0pYzNbY0hdW2NIXWMoRilbY0hdW2NIXTM=

> <s_epik_cmdline>
J2VwaWtfcHl0aG9uJywgJy1waCcsICc3LjAnLCAnLXRuJywgJzgnLCAnLW1hJywgJzIwMCcsICctbWV0YWxfYmluZGluZycsICctaW1hZScsICc8aW5maWxlLm1hZT4nLCAnLW9tYWUnLCAnPG91dGZpbGUubWFlPic=

> <r_epik_Ionization_Penalty>
0.786441

> <r_epik_Ionization_Penalty_Charging>
0.786439

> <r_epik_Ionization_Penalty_Neutral>
1.96029e-06

> <r_epik_State_Penalty>
0.816472

> <r_epik_Charging_Adjusted_Penalty>
1.60291

> <i_epik_Tot_Q>
1

> <i_epik_Tot_abs_Q>
1

> <r_epik_Metal_State_Penalty>
4.73733

> <b_epik_Metal_Only>
0

> <s_lp_Force_Field>
OPLS_2005

> <r_lp_Energy>
17.0058

> <b_lp_Chiralities_Consistent>
1

> <s_lp_Variant>
AV-unprocessed.smi:1021-3

> <Gold.Version>
5.8.1

> <Gold.Id.Protein>
6NUR|6NUR_protein|mol2

> <Gold.PLP.Fitness>
57.6068

> <Gold.PLP.PLP>
-46.1222

> <Gold.PLP.part.hbond>
-5.7195

> <Gold.PLP.part.metal>
0.0000

> <Gold.PLP.part.buried>
-2.8018

> <Gold.PLP.part.nonpolar>
-38.5701

> <Gold.PLP.part.repulsive>
0.0011

> <Gold.PLP.ligand.clash>
0.0000

> <Gold.PLP.ligand.torsion>
1.2806

> <Gold.PLP.Chemscore.Hbond>
4.6640

> <Gold.PLP.Chemscore.CHOScore>
0.0000

> <Gold.PLP.Chemscore.Metal>
0.0000

> <Gold.Chemscore.Hbonds>
donor molecule, donor type, donor heavy atom, donor atom, acceptor molecule, acceptor atom, score
      L1  H     1    24       P1 10171  1.00
      L1  H     6    43       P1  7948  1.85
      L1  H    16    38       P1  8028  0.99
      P1  H  7954  7966       L1     1  0.67

> <Gold.PLP.Chemscore.Internal.Correction>
0.0537

> <Gold.Rescore>
     Score         DG    S(hbond)    S(metal)    S(lipo)     H(rot)  DE(clash)    DE(int)     intcor
     18.02     -19.27       3.32        0.00      92.17       3.16       0.66       0.59       ----

> <Gold.Chemscore.Fitness>
18.0194

> <Gold.Chemscore.DG>
-19.2730

> <Gold.Chemscore.ZeroCoef>
-5.4800

> <Gold.Chemscore.Hbond>
3.3232

> <Gold.Chemscore.Metal>
0.0000

> <Gold.Chemscore.Lipo>
92.1722

> <Gold.Chemscore.Internal_Hbond>
0.0000

> <Gold.Chemscore.DEClash>
0.6608

> <Gold.Chemscore.DEInternal>
0.5927

> <Gold.Chemscore.Rot>
3.1604

> <Gold.Chemscore.Internal.Correction>
   9.000000E+99

> <Gold.Chemscore.Hbonds>
donor molecule, donor type, donor heavy atom, donor atom, acceptor molecule, acceptor atom, score
      L1  H     1    24       P1 10171  0.95
      L1  H     6    43       P1  7948  0.84
      L1  H    16    38       P1  8028  0.84
      P1  H  7954  7966       L1     1  0.20

> <Gold.Chemscore.Hbond.Weighted>
-11.0996

> <Gold.Chemscore.Metal.Weighted>
-0.0000

> <Gold.Chemscore.Lipo.Weighted>
-10.7841

> <Gold.Chemscore.Internal_Hbond.Weighted>
0.0000

> <Gold.Chemscore.DEClash.Weighted>
0.6608

> <Gold.Chemscore.DEInternal.Weighted>
0.5927

> <Gold.Chemscore.Rot.Weighted>
8.0907

> <Gold.Chemscore.Internal.Correction.Weighted>
   9.000000E+99

> <Gold.Protein.RotatedTorsions>
[ 6907 6896 6895 6894 ] final -105.31 input  -60.11 | X-H torsion
[ 7974 7965 7964 7962 ] final   94.58 input  175.53 | X-H torsion
[ 8008 7997 7996 7995 ] final -165.29 input   59.86 | X-H torsion
[ 10167 10162 10161 10158 ] final   67.79 input  -65.29 | X-H torsion
[ 10718 10713 10712 10709 ] final -126.66 input   66.30 | X-H torsion
[ 10763 10752 10751 10750 ] final  157.67 input  -60.55 | X-H torsion
[ 11005 11000 10999 10996 ] final -145.05 input  -57.11 | X-H torsion

> <Gold.Protein.ActiveResidues>
 VAL166  LYS551  ARG553  GLY616  TRP617  ASP618  TYR619  PRO620  LYS621  CYS622 
 ASP623  PHE694  ASN695  SER759  ASP760  ASP761  ALA762  ILE779  LEU786  VAL792 
 PHE793  MET794  SER795  GLU796  ALA797  LYS798  CYS799  TRP800  GLU811  SER814 

> <Gold.Protein.RotatedAtoms>
  150.7330  134.0146  159.3680 H   0  0  0  0  0  0  0  0  0  0  0  0  # atno 6907 bound_to 6896
  151.8108  135.0679  160.0422 H   0  0  0  0  0  0  0  0  0  0  0  0  # atno 6908 bound_to 6896
  152.3074  133.5681  159.5694 H   0  0  0  0  0  0  0  0  0  0  0  0  # atno 6909 bound_to 6896
  145.4637  139.2285  143.2973 H   0  0  0  0  0  0  0  0  0  0  0  0  # atno 7974 bound_to 7965
  155.8477  140.0958  157.1695 H   0  0  0  0  0  0  0  0  0  0  0  0  # atno 8008 bound_to 7997
  154.3984  140.1389  156.3867 H   0  0  0  0  0  0  0  0  0  0  0  0  # atno 8009 bound_to 7997
  155.7996  140.3453  155.5397 H   0  0  0  0  0  0  0  0  0  0  0  0  # atno 8010 bound_to 7997
  140.0858  144.5032  150.7132 H   0  0  0  0  0  0  0  0  0  0  0  0  # atno 10167 bound_to 10162
  156.1786  130.6716  151.0274 H   0  0  0  0  0  0  0  0  0  0  0  0  # atno 10718 bound_to 10713
  154.2039  135.2789  155.2981 H   0  0  0  0  0  0  0  0  0  0  0  0  # atno 10763 bound_to 10752
  154.5832  135.5583  153.7209 H   0  0  0  0  0  0  0  0  0  0  0  0  # atno 10764 bound_to 10752
  153.0081  135.6350  154.2177 H   0  0  0  0  0  0  0  0  0  0  0  0  # atno 10765 bound_to 10752
  140.7962  134.2910  157.4995 H   0  0  0  0  0  0  0  0  0  0  0  0  # atno 11005 bound_to 11000
  146.2437  140.5408  142.8923 LP  0  0  0  0  0  0  0  0  0  0  0  0  # atno 17320 bound_to 7965
  144.7987  140.6172  143.6492 LP  0  0  0  0  0  0  0  0  0  0  0  0  # atno 17321 bound_to 7965
  140.7054  143.2464  151.4741 LP  0  0  0  0  0  0  0  0  0  0  0  0  # atno 17342 bound_to 10162
  139.5753  144.1833  152.1895 LP  0  0  0  0  0  0  0  0  0  0  0  0  # atno 17343 bound_to 10162
  157.6852  131.0826  150.7261 LP  0  0  0  0  0  0  0  0  0  0  0  0  # atno 17370 bound_to 10713
  156.7318  130.4712  149.5498 LP  0  0  0  0  0  0  0  0  0  0  0  0  # atno 17371 bound_to 10713
  139.8726  134.9403  156.3766 LP  0  0  0  0  0  0  0  0  0  0  0  0  # atno 17394 bound_to 11000
  140.9340  133.7559  156.0061 LP  0  0  0  0  0  0  0  0  0  0  0  0  # atno 17395 bound_to 11000

$$$$
