AV-unprocessed.smi:283|AV-procd|sdf|2141|dock2
  -GOLD-   2262021473D 1   1.00000     0.00000
 Structure written by MMmdl.
 48 51  0  0  0  0  0  0  0  0  1 V2000
  149.4837  142.0333  157.8597 C   0  0  0  0  0  0  0  0  0  0  0  0
  150.8495  141.7455  157.2226 C   0  0  2  0  0  0  0  0  0  0  0  0
  150.7130  140.7119  156.1977 N   0  0  0  0  0  0  0  0  0  0  0  0
  149.5595  140.5615  155.5090 C   0  0  0  0  0  0  0  0  0  0  0  0
  148.9129  141.6315  154.9765 N   0  0  0  0  0  0  0  0  0  0  0  0
  147.7749  141.4560  154.2989 C   0  0  0  0  0  0  0  0  0  0  0  0
  147.1220  140.3199  154.0461 N   0  0  0  0  0  0  0  0  0  0  0  0
  147.7657  139.2422  154.5830 C   0  0  0  0  0  0  0  0  0  0  0  0
  148.9783  139.2806  155.3253 C   0  0  0  0  0  0  0  0  0  0  0  0
  149.3314  137.9954  155.7166 N   0  0  0  0  0  0  0  0  0  0  0  0
  148.3780  137.2445  155.2331 C   0  0  0  0  0  0  0  0  0  0  0  0
  147.3958  137.9129  154.5370 N   0  0  0  0  0  0  0  0  0  0  0  0
  146.1914  137.3317  153.8649 C   0  0  2  0  0  0  0  0  0  0  0  0
  146.2968  135.9488  153.8999 O   0  0  0  0  0  0  0  0  0  0  0  0
  145.5035  135.4203  152.8516 C   0  0  2  0  0  0  0  0  0  0  0  0
  145.9804  134.0016  152.4936 C   0  0  0  0  0  0  0  0  0  0  0  0
  147.0976  134.0253  151.6286 O   0  0  0  0  0  0  0  0  0  0  0  0
  145.5247  136.4650  151.7184 C   0  0  1  0  0  0  0  0  0  0  0  0
  144.2095  136.6686  151.2394 O   0  0  0  0  0  0  0  0  0  0  0  0
  146.0479  137.7402  152.3841 C   0  0  2  0  0  0  0  0  0  0  0  0
  147.2584  138.1634  151.7837 O   0  0  0  0  0  0  0  0  0  0  0  0
  151.8881  141.4319  158.3023 C   0  0  0  0  0  0  0  0  0  0  0  0
  152.3801  140.1129  158.4408 C   0  0  0  0  0  0  0  0  0  0  0  0
  153.3331  139.8022  159.4289 C   0  0  0  0  0  0  0  0  0  0  0  0
  153.8005  140.8071  160.2948 C   0  0  0  0  0  0  0  0  0  0  0  0
  153.3103  142.1203  160.1728 C   0  0  0  0  0  0  0  0  0  0  0  0
  152.3563  142.4374  159.1851 C   0  0  0  0  0  0  0  0  0  0  0  0
  151.7813  144.0656  159.0907 Cl  0  0  0  0  0  0  0  0  0  0  0  0
  145.3417  137.6477  154.4721 H   0  0  0  0  0  0  0  0  0  0  0  0
  144.4942  135.3491  153.2624 H   0  0  0  0  0  0  0  0  0  0  0  0
  146.1619  136.1637  150.8861 H   0  0  0  0  0  0  0  0  0  0  0  0
  145.3383  138.5665  152.3220 H   0  0  0  0  0  0  0  0  0  0  0  0
  149.5487  142.8598  158.5682 H   0  0  0  0  0  0  0  0  0  0  0  0
  149.1042  141.1633  158.3968 H   0  0  0  0  0  0  0  0  0  0  0  0
  148.7470  142.3069  157.1039 H   0  0  0  0  0  0  0  0  0  0  0  0
  151.1525  142.6491  156.6946 H   0  0  0  0  0  0  0  0  0  0  0  0
  151.5618  140.2230  155.9526 H   0  0  0  0  0  0  0  0  0  0  0  0
  147.3227  142.3535  153.9034 H   0  0  0  0  0  0  0  0  0  0  0  0
  148.3653  136.1733  155.3716 H   0  0  0  0  0  0  0  0  0  0  0  0
  146.2320  133.4435  153.3958 H   0  0  0  0  0  0  0  0  0  0  0  0
  145.1784  133.4577  151.9940 H   0  0  0  0  0  0  0  0  0  0  0  0
  147.6945  134.6945  151.9268 H   0  0  0  0  0  0  0  0  0  0  0  0
  144.1192  137.5761  150.9909 H   0  0  0  0  0  0  0  0  0  0  0  0
  147.9721  137.7026  152.1996 H   0  0  0  0  0  0  0  0  0  0  0  0
  152.0285  139.3287  157.7869 H   0  0  0  0  0  0  0  0  0  0  0  0
  153.7044  138.7921  159.5224 H   0  0  0  0  0  0  0  0  0  0  0  0
  154.5317  140.5712  161.0539 H   0  0  0  0  0  0  0  0  0  0  0  0
  153.6679  142.8884  160.8425 H   0  0  0  0  0  0  0  0  0  0  0  0
  1  2  1  0  0  0  0
  1 33  1  0  0  0  0
  1 34  1  0  0  0  0
  1 35  1  0  0  0  0
  2  3  1  0  0  0  0
  2 22  1  0  0  0  0
  2 36  1  0  0  0  0
  3  4  1  0  0  0  0
  3 37  1  0  0  0  0
  4  9  1  0  0  0  0
  4  5  2  0  0  0  0
  5  6  1  0  0  0  0
  6  7  2  0  0  0  0
  6 38  1  0  0  0  0
  7  8  1  0  0  0  0
  8 12  1  0  0  0  0
  8  9  2  0  0  0  0
  9 10  1  0  0  0  0
 10 11  2  0  0  0  0
 11 12  1  0  0  0  0
 11 39  1  0  0  0  0
 12 13  1  0  0  0  0
 13 29  1  0  0  0  0
 13 20  1  0  0  0  0
 13 14  1  0  0  0  0
 14 15  1  0  0  0  0
 15 30  1  0  0  0  0
 15 16  1  0  0  0  0
 15 18  1  0  0  0  0
 16 17  1  0  0  0  0
 16 40  1  0  0  0  0
 16 41  1  0  0  0  0
 17 42  1  0  0  0  0
 18 31  1  0  0  0  0
 18 19  1  0  0  0  0
 18 20  1  0  0  0  0
 19 43  1  0  0  0  0
 20 32  1  0  0  0  0
 20 21  1  0  0  0  0
 21 44  1  0  0  0  0
 22 27  1  0  0  0  0
 22 23  2  0  0  0  0
 23 24  1  0  0  0  0
 23 45  1  0  0  0  0
 24 25  2  0  0  0  0
 24 46  1  0  0  0  0
 25 26  1  0  0  0  0
 25 47  1  0  0  0  0
 26 27  2  0  0  0  0
 26 48  1  0  0  0  0
 27 28  1  0  0  0  0
M  END
> <s_m_source_file>
AV-unprocessed.smi

> <i_m_source_file_index>
283

> <i_lp_mmshare_version>
43012

> <i_f3d_flags>
0

> <s_epik_input>
Q2xjMVtjSF1bY0hdW2NIXVtjSF1jMVtDQEhdKFtDSDNdKVtOSF1jKG5bY0hdbjIpYyhjMjMpbltjSF1uM1tDQEBIXTRPW0NASF0oW0NIMl1bT0hdKVtDQEBIXShbT0hdKVtDQEhdNFtPSF0=

> <s_epik_cmdline>
J2VwaWtfcHl0aG9uJywgJy1waCcsICc3LjAnLCAnLXRuJywgJzgnLCAnLW1hJywgJzIwMCcsICctbWV0YWxfYmluZGluZycsICctaW1hZScsICc8aW5maWxlLm1hZT4nLCAnLW9tYWUnLCAnPG91dGZpbGUubWFlPic=

> <r_lp_tautomer_probability>
1

> <r_epik_Ionization_Penalty>
0.000266407

> <r_epik_Ionization_Penalty_Charging>
0

> <r_epik_Ionization_Penalty_Neutral>
0.000266407

> <r_epik_State_Penalty>
-0

> <r_epik_Charging_Adjusted_Penalty>
0

> <i_epik_Tot_Q>
0

> <i_epik_Tot_abs_Q>
0

> <r_epik_Metal_State_Penalty>
-0

> <b_epik_Metal_Only>
0

> <s_epik_Chemistry_Notes>
This compound contains an acetal/aminal-like group ( X-CH(R)-Y where X, Y are N, S, or O) that may be acid/base labile, releasing an aldehyde.

> <s_lp_Force_Field>
OPLS_2005

> <r_lp_Energy>
47.2056

> <b_lp_Chiralities_Consistent>
1

> <s_lp_Variant>
AV-unprocessed.smi:283-17

> <Gold.Version>
5.8.1

> <Gold.Id.Protein>
6NUR|6NUR_protein|mol2

> <Gold.PLP.Fitness>
52.8508

> <Gold.PLP.PLP>
-44.7414

> <Gold.PLP.part.hbond>
-4.1751

> <Gold.PLP.part.metal>
0.0000

> <Gold.PLP.part.buried>
-7.0456

> <Gold.PLP.part.nonpolar>
-35.8589

> <Gold.PLP.part.repulsive>
0.5362

> <Gold.PLP.ligand.clash>
0.0000

> <Gold.PLP.ligand.torsion>
1.3640

> <Gold.PLP.Chemscore.Hbond>
3.5431

> <Gold.PLP.Chemscore.CHOScore>
0.0000

> <Gold.PLP.Chemscore.Metal>
0.0000

> <Gold.Chemscore.Hbonds>
donor molecule, donor type, donor heavy atom, donor atom, acceptor molecule, acceptor atom, score
      L1  H    17    42       P1  7948  1.00
      L1  H    19    43       P1 10171  0.91
      L1  H    21    44       P1  7948  0.72
      P1  H  7954  7966       L1    21  0.40

> <Gold.PLP.Chemscore.Internal.Correction>
0.2082

> <Gold.Rescore>
     Score         DG    S(hbond)    S(metal)    S(lipo)     H(rot)  DE(clash)    DE(int)     intcor
     12.38     -15.15       2.38        0.00     104.27       4.10       0.39       2.39       ----

> <Gold.Chemscore.Fitness>
12.3762

> <Gold.Chemscore.DG>
-15.1535

> <Gold.Chemscore.ZeroCoef>
-5.4800

> <Gold.Chemscore.Hbond>
2.3837

> <Gold.Chemscore.Metal>
0.0000

> <Gold.Chemscore.Lipo>
104.2717

> <Gold.Chemscore.Internal_Hbond>
0.0000

> <Gold.Chemscore.DEClash>
0.3891

> <Gold.Chemscore.DEInternal>
2.3881

> <Gold.Chemscore.Rot>
4.0968

> <Gold.Chemscore.Internal.Correction>
   9.000000E+99

> <Gold.Chemscore.Hbonds>
donor molecule, donor type, donor heavy atom, donor atom, acceptor molecule, acceptor atom, score
      L1  H    17    42       P1  7948  0.49
      L1  H    19    43       P1 10171  0.87
      L1  H    21    44       P1  7948  0.72
      P1  H  7954  7966       L1    21  0.02

> <Gold.Chemscore.Hbond.Weighted>
-7.9616

> <Gold.Chemscore.Metal.Weighted>
-0.0000

> <Gold.Chemscore.Lipo.Weighted>
-12.1998

> <Gold.Chemscore.Internal_Hbond.Weighted>
0.0000

> <Gold.Chemscore.DEClash.Weighted>
0.3891

> <Gold.Chemscore.DEInternal.Weighted>
2.3881

> <Gold.Chemscore.Rot.Weighted>
10.4879

> <Gold.Chemscore.Internal.Correction.Weighted>
   9.000000E+99

> <Gold.Protein.RotatedTorsions>
[ 6907 6896 6895 6894 ] final  101.37 input  -60.11 | X-H torsion
[ 7974 7965 7964 7962 ] final   65.28 input  175.53 | X-H torsion
[ 8008 7997 7996 7995 ] final  -66.83 input   59.86 | X-H torsion
[ 10167 10162 10161 10158 ] final   76.99 input  -65.29 | X-H torsion
[ 10718 10713 10712 10709 ] final -135.25 input   66.30 | X-H torsion
[ 10763 10752 10751 10750 ] final -113.52 input  -60.55 | X-H torsion
[ 11005 11000 10999 10996 ] final  -75.90 input  -57.11 | X-H torsion

> <Gold.Protein.ActiveResidues>
 VAL166  LYS551  ARG553  GLY616  TRP617  ASP618  TYR619  PRO620  LYS621  CYS622 
 ASP623  PHE694  ASN695  SER759  ASP760  ASP761  ALA762  ILE779  LEU786  VAL792 
 PHE793  MET794  SER795  GLU796  ALA797  LYS798  CYS799  TRP800  GLU811  SER814 

> <Gold.Protein.RotatedAtoms>
  152.5351  134.0136  159.7949 H   0  0  0  0  0  0  0  0  0  0  0  0  # atno 6907 bound_to 6896
  151.0334  133.5762  159.2665 H   0  0  0  0  0  0  0  0  0  0  0  0  # atno 6908 bound_to 6896
  151.2758  135.0706  159.9204 H   0  0  0  0  0  0  0  0  0  0  0  0  # atno 6909 bound_to 6896
  145.8403  139.3191  143.0935 H   0  0  0  0  0  0  0  0  0  0  0  0  # atno 7974 bound_to 7965
  154.4760  140.0905  156.7262 H   0  0  0  0  0  0  0  0  0  0  0  0  # atno 8008 bound_to 7997
  155.4596  140.3460  155.4293 H   0  0  0  0  0  0  0  0  0  0  0  0  # atno 8009 bound_to 7997
  156.1116  140.1449  156.9318 H   0  0  0  0  0  0  0  0  0  0  0  0  # atno 8010 bound_to 7997
  139.9863  144.5790  150.7856 H   0  0  0  0  0  0  0  0  0  0  0  0  # atno 10167 bound_to 10162
  156.2641  130.7227  151.1171 H   0  0  0  0  0  0  0  0  0  0  0  0  # atno 10718 bound_to 10713
  154.8400  135.4451  154.1362 H   0  0  0  0  0  0  0  0  0  0  0  0  # atno 10763 bound_to 10752
  153.2559  135.6931  153.7635 H   0  0  0  0  0  0  0  0  0  0  0  0  # atno 10764 bound_to 10752
  153.6930  135.3384  155.3182 H   0  0  0  0  0  0  0  0  0  0  0  0  # atno 10765 bound_to 10752
  141.1649  133.6963  156.7587 H   0  0  0  0  0  0  0  0  0  0  0  0  # atno 11005 bound_to 11000
  145.9473  140.8935  143.0277 LP  0  0  0  0  0  0  0  0  0  0  0  0  # atno 17320 bound_to 7965
  144.6734  140.1631  143.7421 LP  0  0  0  0  0  0  0  0  0  0  0  0  # atno 17321 bound_to 7965
  140.7471  143.2901  151.3355 LP  0  0  0  0  0  0  0  0  0  0  0  0  # atno 17342 bound_to 10162
  139.6373  144.0607  152.2526 LP  0  0  0  0  0  0  0  0  0  0  0  0  # atno 17343 bound_to 10162
  157.7261  131.0648  150.5924 LP  0  0  0  0  0  0  0  0  0  0  0  0  # atno 17370 bound_to 10713
  156.6014  130.4355  149.5895 LP  0  0  0  0  0  0  0  0  0  0  0  0  # atno 17371 bound_to 10713
  140.2550  134.8511  157.3704 LP  0  0  0  0  0  0  0  0  0  0  0  0  # atno 17394 bound_to 11000
  140.1666  134.4662  155.7859 LP  0  0  0  0  0  0  0  0  0  0  0  0  # atno 17395 bound_to 11000

$$$$
