AV-unprocessed.smi:1385|AV-procd|sdf|5630|dock6
  -GOLD-   22720 5243D 1   1.00000     0.00000
 Structure written by MMmdl.
 39 40  0  0  0  0  0  0  0  0  2 V2000
  143.2985  137.7460  158.4724 C   0  0  0  0  0  0  0  0  0  0  0  0
  143.4102  136.4283  157.7848 C   0  0  0  0  0  0  0  0  0  0  0  0
  142.6238  135.3870  158.0832 N   0  0  0  0  0  0  0  0  0  0  0  0
  142.9146  134.2700  157.3120 N   0  0  0  0  0  0  0  0  0  0  0  0
  143.9138  134.5043  156.4504 C   0  0  0  0  0  0  0  0  0  0  0  0
  144.4163  133.5347  155.5425 N   0  0  0  0  0  0  0  0  0  0  0  0
  145.6777  133.3802  155.1035 C   0  0  0  0  0  0  0  0  0  0  0  0
  146.6381  134.0763  155.4328 O   0  0  0  0  0  0  0  0  0  0  0  0
  145.7691  132.3586  154.2394 N   0  0  0  0  0  0  0  0  0  0  0  0
  146.9969  131.9243  153.5733 C   0  0  2  0  0  0  0  0  0  0  0  0
  147.5569  133.0140  152.6375 C   0  0  0  0  0  0  0  0  0  0  0  0
  146.6763  133.2101  151.3912 C   0  0  0  0  0  0  0  0  0  0  0  0
  146.4972  131.9302  150.6550 N   0  3  2  0  0  0  0  0  0  0  0  0
  145.7690  132.0943  149.3702 C   0  0  0  0  0  0  0  0  0  0  0  0
  144.2934  132.4602  149.5609 C   0  0  0  0  0  0  0  0  0  0  0  0
  143.9200  133.6808  149.1702 N   0  0  0  0  0  0  0  0  0  0  0  0
  143.5043  131.6638  150.0663 O   0  0  0  0  0  0  0  0  0  0  0  0
  145.8948  130.8824  151.5184 C   0  0  0  0  0  0  0  0  0  0  0  0
  146.7501  130.6328  152.7745 C   0  0  0  0  0  0  0  0  0  0  0  0
  144.5854  136.1249  156.5109 S   0  0  0  0  0  0  0  0  0  0  0  0
  142.8407  137.6274  159.4549 H   0  0  0  0  0  0  0  0  0  0  0  0
  142.6853  138.4241  157.8790 H   0  0  0  0  0  0  0  0  0  0  0  0
  144.2867  138.1881  158.6005 H   0  0  0  0  0  0  0  0  0  0  0  0
  143.7319  132.8877  155.1800 H   0  0  0  0  0  0  0  0  0  0  0  0
  144.9295  131.8369  154.0345 H   0  0  0  0  0  0  0  0  0  0  0  0
  147.7383  131.7074  154.3447 H   0  0  0  0  0  0  0  0  0  0  0  0
  147.6679  133.9594  153.1698 H   0  0  0  0  0  0  0  0  0  0  0  0
  148.5613  132.7302  152.3204 H   0  0  0  0  0  0  0  0  0  0  0  0
  145.7015  133.6090  151.6762 H   0  0  0  0  0  0  0  0  0  0  0  0
  147.1400  133.9539  150.7428 H   0  0  0  0  0  0  0  0  0  0  0  0
  146.2176  132.9048  148.7945 H   0  0  0  0  0  0  0  0  0  0  0  0
  145.8660  131.1905  148.7660 H   0  0  0  0  0  0  0  0  0  0  0  0
  142.9587  133.9749  149.2689 H   0  0  0  0  0  0  0  0  0  0  0  0
  144.6025  134.3100  148.7712 H   0  0  0  0  0  0  0  0  0  0  0  0
  144.8822  131.1771  151.7982 H   0  0  0  0  0  0  0  0  0  0  0  0
  145.8083  129.9504  150.9584 H   0  0  0  0  0  0  0  0  0  0  0  0
  147.7104  130.2127  152.4718 H   0  0  0  0  0  0  0  0  0  0  0  0
  146.2780  129.8800  153.4071 H   0  0  0  0  0  0  0  0  0  0  0  0
  147.4207  131.6002  150.4112 H   0  0  0  0  0  0  0  0  0  0  0  0
  1  2  1  0  0  0  0
  1 21  1  0  0  0  0
  1 22  1  0  0  0  0
  1 23  1  0  0  0  0
  2 20  1  0  0  0  0
  2  3  2  0  0  0  0
  3  4  1  0  0  0  0
  4  5  2  0  0  0  0
  5  6  1  0  0  0  0
  5 20  1  0  0  0  0
  6  7  1  0  0  0  0
  6 24  1  0  0  0  0
  7  8  2  0  0  0  0
  7  9  1  0  0  0  0
  9 10  1  0  0  0  0
  9 25  1  0  0  0  0
 10 19  1  0  0  0  0
 10 11  1  0  0  0  0
 10 26  1  0  0  0  0
 11 12  1  0  0  0  0
 11 27  1  0  0  0  0
 11 28  1  0  0  0  0
 12 13  1  0  0  0  0
 12 29  1  0  0  0  0
 12 30  1  0  0  0  0
 13 14  1  0  0  0  0
 13 18  1  0  0  0  0
 13 39  1  0  0  0  0
 14 15  1  0  0  0  0
 14 31  1  0  0  0  0
 14 32  1  0  0  0  0
 15 16  1  0  0  0  0
 15 17  2  0  0  0  0
 16 33  1  0  0  0  0
 16 34  1  0  0  0  0
 18 19  1  0  0  0  0
 18 35  1  0  0  0  0
 18 36  1  0  0  0  0
 19 37  1  0  0  0  0
 19 38  1  0  0  0  0
M  CHG  1  13   1
M  END
> <s_m_source_file>
AV-unprocessed.smi

> <i_m_source_file_index>
1385

> <i_lp_mmshare_version>
43012

> <i_f3d_flags>
0

> <s_epik_input>
W0NIM11jMW5uYyhzMSlbTkhdQyg9TylbTkhdW0NIXTJbQ0gyXVtDSDJdTihbQ0gyXVtDSDJdMilbQ0gyXUMoPU8pW05IMl0=

> <s_epik_cmdline>
J2VwaWtfcHl0aG9uJywgJy1waCcsICc3LjAnLCAnLXRuJywgJzgnLCAnLW1hJywgJzIwMCcsICctbWV0YWxfYmluZGluZycsICctaW1hZScsICc8aW5maWxlLm1hZT4nLCAnLW9tYWUnLCAnPG91dGZpbGUubWFlPic=

> <r_lp_tautomer_probability>
1

> <r_epik_Ionization_Penalty>
0.866317

> <r_epik_Ionization_Penalty_Charging>
0.862349

> <r_epik_Ionization_Penalty_Neutral>
0.00396799

> <r_epik_State_Penalty>
0.898939

> <r_epik_Charging_Adjusted_Penalty>
1.76129

> <i_epik_Tot_Q>
1

> <i_epik_Tot_abs_Q>
1

> <r_epik_Metal_State_Penalty>
1.25402

> <b_epik_Metal_Only>
0

> <s_lp_Force_Field>
OPLS_2005

> <r_lp_Energy>
11.903

> <b_lp_Chiralities_Consistent>
1

> <s_lp_Variant>
AV-unprocessed.smi:1385-3

> <Gold.Version>
5.8.1

> <Gold.Id.Protein>
6NUR|6NUR_protein|mol2

> <Gold.PLP.Fitness>
44.6785

> <Gold.PLP.PLP>
-27.8223

> <Gold.PLP.part.hbond>
-7.4956

> <Gold.PLP.part.metal>
0.0000

> <Gold.PLP.part.buried>
-5.9245

> <Gold.PLP.part.nonpolar>
-16.9590

> <Gold.PLP.part.repulsive>
1.1233

> <Gold.PLP.ligand.clash>
0.0000

> <Gold.PLP.ligand.torsion>
0.3218

> <Gold.PLP.Chemscore.Hbond>
5.8263

> <Gold.PLP.Chemscore.CHOScore>
0.0000

> <Gold.PLP.Chemscore.Metal>
0.0000

> <Gold.Chemscore.Hbonds>
donor molecule, donor type, donor heavy atom, donor atom, acceptor molecule, acceptor atom, score
      L1  H     6    24       P1 10957  1.00
      L1  H     9    25       P1 10957  0.07
      L1  H    13    39       P1 10747  1.00
      L1  H    16    33       P1 10186  1.00
      L1  H    16    34       P1  7921  1.00
      P1  H 10785 10796       L1    17  0.97
      P1  H 11000 11005       L1     4  0.78

> <Gold.PLP.Chemscore.Internal.Correction>
0.0209

> <Gold.Rescore>
     Score         DG    S(hbond)    S(metal)    S(lipo)     H(rot)  DE(clash)    DE(int)     intcor
     20.17     -21.83       4.85        0.00      46.60       2.07       0.07       1.59       ----

> <Gold.Chemscore.Fitness>
20.1680

> <Gold.Chemscore.DG>
-21.8285

> <Gold.Chemscore.ZeroCoef>
-5.4800

> <Gold.Chemscore.Hbond>
4.8452

> <Gold.Chemscore.Metal>
0.0000

> <Gold.Chemscore.Lipo>
46.5973

> <Gold.Chemscore.Internal_Hbond>
0.0000

> <Gold.Chemscore.DEClash>
0.0691

> <Gold.Chemscore.DEInternal>
1.5915

> <Gold.Chemscore.Rot>
2.0650

> <Gold.Chemscore.Internal.Correction>
   9.000000E+99

> <Gold.Chemscore.Hbonds>
donor molecule, donor type, donor heavy atom, donor atom, acceptor molecule, acceptor atom, score
      L1  H     6    24       P1 10957  0.98
      L1  H    13    39       P1 10747  1.00
      L1  H    16    33       P1 10186  0.94
      L1  H    16    34       P1  7921  0.96
      P1  H 10785 10796       L1    17  0.56
      P1  H 11000 11005       L1     4  0.20

> <Gold.Chemscore.Hbond.Weighted>
-16.1831

> <Gold.Chemscore.Metal.Weighted>
-0.0000

> <Gold.Chemscore.Lipo.Weighted>
-5.4519

> <Gold.Chemscore.Internal_Hbond.Weighted>
0.0000

> <Gold.Chemscore.DEClash.Weighted>
0.0691

> <Gold.Chemscore.DEInternal.Weighted>
1.5915

> <Gold.Chemscore.Rot.Weighted>
5.2864

> <Gold.Chemscore.Internal.Correction.Weighted>
   9.000000E+99

> <Gold.Protein.RotatedTorsions>
[ 6907 6896 6895 6894 ] final   81.67 input  -60.11 | X-H torsion
[ 7974 7965 7964 7962 ] final   -6.82 input  175.53 | X-H torsion
[ 8008 7997 7996 7995 ] final  -81.21 input   59.86 | X-H torsion
[ 10167 10162 10161 10158 ] final   49.79 input  -65.29 | X-H torsion
[ 10718 10713 10712 10709 ] final -159.83 input   66.30 | X-H torsion
[ 10763 10752 10751 10750 ] final  -52.18 input  -60.55 | X-H torsion
[ 11005 11000 10999 10996 ] final  -81.87 input  -57.11 | X-H torsion

> <Gold.Protein.ActiveResidues>
 VAL166  LYS551  ARG553  GLY616  TRP617  ASP618  TYR619  PRO620  LYS621  CYS622 
 ASP623  PHE694  ASN695  SER759  ASP760  ASP761  ALA762  ILE779  LEU786  VAL792 
 PHE793  MET794  SER795  GLU796  ALA797  LYS798  CYS799  TRP800  GLU811  SER814 

> <Gold.Protein.RotatedAtoms>
  152.5275  134.3168  159.9133 H   0  0  0  0  0  0  0  0  0  0  0  0  # atno 6907 bound_to 6896
  151.3117  133.4071  159.2655 H   0  0  0  0  0  0  0  0  0  0  0  0  # atno 6908 bound_to 6896
  151.0033  134.9356  159.8023 H   0  0  0  0  0  0  0  0  0  0  0  0  # atno 6909 bound_to 6896
  146.2322  140.2228  142.8338 H   0  0  0  0  0  0  0  0  0  0  0  0  # atno 7974 bound_to 7965
  154.5960  140.0651  156.9304 H   0  0  0  0  0  0  0  0  0  0  0  0  # atno 8008 bound_to 7997
  155.2213  140.3330  155.4297 H   0  0  0  0  0  0  0  0  0  0  0  0  # atno 8009 bound_to 7997
  156.2288  140.1831  156.7280 H   0  0  0  0  0  0  0  0  0  0  0  0  # atno 8010 bound_to 7997
  140.2792  144.3176  150.6269 H   0  0  0  0  0  0  0  0  0  0  0  0  # atno 10167 bound_to 10162
  156.5735  130.8699  151.2844 H   0  0  0  0  0  0  0  0  0  0  0  0  # atno 10718 bound_to 10713
  154.1386  135.6509  153.4937 H   0  0  0  0  0  0  0  0  0  0  0  0  # atno 10763 bound_to 10752
  153.0173  135.5310  154.6928 H   0  0  0  0  0  0  0  0  0  0  0  0  # atno 10764 bound_to 10752
  154.6183  135.2961  155.0326 H   0  0  0  0  0  0  0  0  0  0  0  0  # atno 10765 bound_to 10752
  141.1665  133.7217  156.8487 H   0  0  0  0  0  0  0  0  0  0  0  0  # atno 11005 bound_to 11000
  144.9619  140.8283  143.5508 LP  0  0  0  0  0  0  0  0  0  0  0  0  # atno 17320 bound_to 7965
  145.2199  139.2164  143.5098 LP  0  0  0  0  0  0  0  0  0  0  0  0  # atno 17321 bound_to 7965
  140.5825  143.2172  151.7401 LP  0  0  0  0  0  0  0  0  0  0  0  0  # atno 17342 bound_to 10162
  139.4967  144.4059  152.0133 LP  0  0  0  0  0  0  0  0  0  0  0  0  # atno 17343 bound_to 10162
  157.7343  130.9743  150.2020 LP  0  0  0  0  0  0  0  0  0  0  0  0  # atno 17370 bound_to 10713
  156.2693  130.3720  149.8048 LP  0  0  0  0  0  0  0  0  0  0  0  0  # atno 17371 bound_to 10713
  140.1931  134.8951  157.3084 LP  0  0  0  0  0  0  0  0  0  0  0  0  # atno 17394 bound_to 11000
  140.2268  134.3957  155.7540 LP  0  0  0  0  0  0  0  0  0  0  0  0  # atno 17395 bound_to 11000

$$$$
