AV-unprocessed.smi:2538|AV-procd|sdf|9984|dock10
  -GOLD-   2272014 33D 1   1.00000     0.00000
 Structure written by MMmdl.
 49 50  0  0  0  0  0  0  0  0  2 V2000
  152.1951  144.3059  161.0735 C   0  0  0  0  0  0  0  0  0  0  0  0
  151.9939  143.3240  159.9321 C   0  0  0  0  0  0  0  0  0  0  0  0
  151.1714  143.7083  158.8489 C   0  0  0  0  0  0  0  0  0  0  0  0
  151.0063  142.7887  157.8201 C   0  0  0  0  0  0  0  0  0  0  0  0
  150.2714  142.8615  156.6345 N   0  3  0  0  0  0  0  0  0  0  0  0
  150.4154  141.6998  155.9382 C   0  0  0  0  0  0  0  0  0  0  0  0
  151.2315  140.8870  156.6627 N   0  0  0  0  0  0  0  0  0  0  0  0
  151.7051  139.5253  156.3822 C   0  0  0  0  0  0  0  0  0  0  0  0
  150.7304  138.7292  155.4914 C   0  0  1  0  0  0  0  0  0  0  0  0
  150.7736  139.2836  154.1913 O   0  0  0  0  0  0  0  0  0  0  0  0
  151.1115  137.2348  155.4117 C   0  0  0  0  0  0  0  0  0  0  0  0
  150.1375  136.3490  156.0778 N   0  0  0  0  0  0  0  0  0  0  0  0
  148.7204  136.6275  155.8069 C   0  0  0  0  0  0  0  0  0  0  0  0
  150.5937  134.7400  156.5496 S   0  0  0  0  0  0  0  0  0  0  0  0
  152.0432  134.7472  156.8029 O   0  0  0  0  0  0  0  0  0  0  0  0
  149.6695  134.3313  157.6190 O   0  0  0  0  0  0  0  0  0  0  0  0
  150.2398  133.7188  155.0361 C   0  0  0  0  0  0  0  0  0  0  0  0
  148.7725  133.8682  154.6093 C   0  0  0  0  0  0  0  0  0  0  0  0
  150.6081  132.2480  155.2790 C   0  0  0  0  0  0  0  0  0  0  0  0
  151.6262  141.5248  157.8430 C   0  0  0  0  0  0  0  0  0  0  0  0
  152.4405  141.1296  158.9014 C   0  0  0  0  0  0  0  0  0  0  0  0
  152.6202  142.0508  159.9579 C   0  0  0  0  0  0  0  0  0  0  0  0
  153.5013  141.6473  161.1280 C   0  0  0  0  0  0  0  0  0  0  0  0
  151.6377  145.2286  160.9094 H   0  0  0  0  0  0  0  0  0  0  0  0
  153.2490  144.5667  161.1728 H   0  0  0  0  0  0  0  0  0  0  0  0
  151.8542  143.8746  162.0147 H   0  0  0  0  0  0  0  0  0  0  0  0
  150.6911  144.6757  158.8227 H   0  0  0  0  0  0  0  0  0  0  0  0
  149.9600  141.4641  154.9869 H   0  0  0  0  0  0  0  0  0  0  0  0
  152.6827  139.6058  155.9044 H   0  0  0  0  0  0  0  0  0  0  0  0
  151.8659  139.0194  157.3352 H   0  0  0  0  0  0  0  0  0  0  0  0
  149.7240  138.8536  155.8879 H   0  0  0  0  0  0  0  0  0  0  0  0
  149.9278  139.1672  153.7864 H   0  0  0  0  0  0  0  0  0  0  0  0
  151.2708  136.9168  154.3808 H   0  0  0  0  0  0  0  0  0  0  0  0
  152.0733  137.0802  155.9024 H   0  0  0  0  0  0  0  0  0  0  0  0
  148.5447  137.6993  155.7121 H   0  0  0  0  0  0  0  0  0  0  0  0
  148.1002  136.2561  156.6226 H   0  0  0  0  0  0  0  0  0  0  0  0
  148.4025  136.1384  154.8863 H   0  0  0  0  0  0  0  0  0  0  0  0
  150.8667  134.0927  154.2300 H   0  0  0  0  0  0  0  0  0  0  0  0
  148.5707  133.3066  153.6968 H   0  0  0  0  0  0  0  0  0  0  0  0
  148.5253  134.9121  154.4139 H   0  0  0  0  0  0  0  0  0  0  0  0
  148.0949  133.5014  155.3809 H   0  0  0  0  0  0  0  0  0  0  0  0
  150.4082  131.6425  154.3946 H   0  0  0  0  0  0  0  0  0  0  0  0
  150.0344  131.8295  156.1066 H   0  0  0  0  0  0  0  0  0  0  0  0
  151.6662  132.1376  155.5170 H   0  0  0  0  0  0  0  0  0  0  0  0
  152.9155  140.1598  158.9200 H   0  0  0  0  0  0  0  0  0  0  0  0
  153.9188  140.6497  160.9880 H   0  0  0  0  0  0  0  0  0  0  0  0
  152.9268  141.6409  162.0545 H   0  0  0  0  0  0  0  0  0  0  0  0
  154.3331  142.3430  161.2400 H   0  0  0  0  0  0  0  0  0  0  0  0
  149.7106  143.6439  156.3219 H   0  0  0  0  0  0  0  0  0  0  0  0
  1  2  1  0  0  0  0
  1 24  1  0  0  0  0
  1 25  1  0  0  0  0
  1 26  1  0  0  0  0
  2 22  1  0  0  0  0
  2  3  2  0  0  0  0
  3  4  1  0  0  0  0
  3 27  1  0  0  0  0
  4 20  2  0  0  0  0
  4  5  1  0  0  0  0
  5  6  2  0  0  0  0
  5 49  1  0  0  0  0
  6  7  1  0  0  0  0
  6 28  1  0  0  0  0
  7  8  1  0  0  0  0
  7 20  1  0  0  0  0
  8  9  1  0  0  0  0
  8 29  1  0  0  0  0
  8 30  1  0  0  0  0
  9 10  1  0  0  0  0
  9 11  1  0  0  0  0
  9 31  1  0  0  0  0
 10 32  1  0  0  0  0
 11 12  1  0  0  0  0
 11 33  1  0  0  0  0
 11 34  1  0  0  0  0
 12 13  1  0  0  0  0
 12 14  1  0  0  0  0
 13 35  1  0  0  0  0
 13 36  1  0  0  0  0
 13 37  1  0  0  0  0
 14 15  2  0  0  0  0
 14 16  2  0  0  0  0
 14 17  1  0  0  0  0
 17 18  1  0  0  0  0
 17 19  1  0  0  0  0
 17 38  1  0  0  0  0
 18 39  1  0  0  0  0
 18 40  1  0  0  0  0
 18 41  1  0  0  0  0
 19 42  1  0  0  0  0
 19 43  1  0  0  0  0
 19 44  1  0  0  0  0
 20 21  1  0  0  0  0
 21 22  2  0  0  0  0
 21 45  1  0  0  0  0
 22 23  1  0  0  0  0
 23 46  1  0  0  0  0
 23 47  1  0  0  0  0
 23 48  1  0  0  0  0
M  CHG  1   5   1
M  END
> <s_m_source_file>
AV-unprocessed.smi

> <i_m_source_file_index>
2538

> <i_lp_mmshare_version>
43012

> <i_f3d_flags>
0

> <s_epik_input>
W0NIM11jKFtjSF0xKWMoW0NIM10pW2NIXWMoYzEyKW4oW2NIXW4yKVtDSDJdW0NASF0oW09IXSlbQ0gyXU4oW0NIM10pUyg9TykoPU8pW0NIXShbQ0gzXSlbQ0gzXQ==

> <s_epik_cmdline>
J2VwaWtfcHl0aG9uJywgJy1waCcsICc3LjAnLCAnLXRuJywgJzgnLCAnLW1hJywgJzIwMCcsICctbWV0YWxfYmluZGluZycsICctaW1hZScsICc8aW5maWxlLm1hZT4nLCAnLW9tYWUnLCAnPG91dGZpbGUubWFlPic=

> <r_epik_Ionization_Penalty>
1.07686

> <r_epik_Ionization_Penalty_Charging>
1.07685

> <r_epik_Ionization_Penalty_Neutral>
1.40866e-06

> <r_epik_State_Penalty>
1.13193

> <r_epik_Charging_Adjusted_Penalty>
2.20879

> <i_epik_Tot_Q>
1

> <i_epik_Tot_abs_Q>
1

> <r_epik_Metal_State_Penalty>
5.12988

> <b_epik_Metal_Only>
0

> <s_lp_Force_Field>
OPLS_2005

> <r_lp_Energy>
10.053

> <b_lp_Chiralities_Consistent>
1

> <s_lp_Variant>
AV-unprocessed.smi:2538-4

> <Gold.Version>
5.8.1

> <Gold.Id.Protein>
6NUR|6NUR_protein|mol2

> <Gold.PLP.Fitness>
58.5343

> <Gold.PLP.PLP>
-46.2672

> <Gold.PLP.part.hbond>
-4.3359

> <Gold.PLP.part.metal>
0.0000

> <Gold.PLP.part.buried>
-5.9708

> <Gold.PLP.part.nonpolar>
-35.1664

> <Gold.PLP.part.repulsive>
0.0599

> <Gold.PLP.ligand.clash>
0.0000

> <Gold.PLP.ligand.torsion>
2.4911

> <Gold.PLP.Chemscore.Hbond>
4.8940

> <Gold.PLP.Chemscore.CHOScore>
0.0000

> <Gold.PLP.Chemscore.Metal>
0.0000

> <Gold.Chemscore.Hbonds>
donor molecule, donor type, donor heavy atom, donor atom, acceptor molecule, acceptor atom, score
      L1  H     5    49       P1  8028  1.89
      P1  H  6896  6907       L1    16  0.95
      P1  H  7989  7998       L1    10  1.00
      P1  H 10752 10764       L1    15  0.75

> <Gold.PLP.Chemscore.Internal.Correction>
2.5674

> <Gold.Rescore>
     Score         DG    S(hbond)    S(metal)    S(lipo)     H(rot)  DE(clash)    DE(int)     intcor
     21.59     -24.82       3.70        0.00     111.21       2.36       0.01       3.22       ----

> <Gold.Chemscore.Fitness>
21.5944

> <Gold.Chemscore.DG>
-24.8190

> <Gold.Chemscore.ZeroCoef>
-5.4800

> <Gold.Chemscore.Hbond>
3.7030

> <Gold.Chemscore.Metal>
0.0000

> <Gold.Chemscore.Lipo>
111.2070

> <Gold.Chemscore.Internal_Hbond>
0.0000

> <Gold.Chemscore.DEClash>
0.0050

> <Gold.Chemscore.DEInternal>
3.2196

> <Gold.Chemscore.Rot>
2.3595

> <Gold.Chemscore.Internal.Correction>
   9.000000E+99

> <Gold.Chemscore.Hbonds>
donor molecule, donor type, donor heavy atom, donor atom, acceptor molecule, acceptor atom, score
      L1  H     5    49       P1  8028  0.90
      P1  H  6896  6907       L1    16  0.56
      P1  H  7989  7998       L1    10  0.74
      P1  H 10752 10764       L1    15  0.67

> <Gold.Chemscore.Hbond.Weighted>
-12.3680

> <Gold.Chemscore.Metal.Weighted>
-0.0000

> <Gold.Chemscore.Lipo.Weighted>
-13.0112

> <Gold.Chemscore.Internal_Hbond.Weighted>
0.0000

> <Gold.Chemscore.DEClash.Weighted>
0.0050

> <Gold.Chemscore.DEInternal.Weighted>
3.2196

> <Gold.Chemscore.Rot.Weighted>
6.0403

> <Gold.Chemscore.Internal.Correction.Weighted>
   9.000000E+99

> <Gold.Protein.RotatedTorsions>
[ 6907 6896 6895 6894 ] final -117.18 input  -60.11 | X-H torsion
[ 7974 7965 7964 7962 ] final -107.58 input  175.53 | X-H torsion
[ 8008 7997 7996 7995 ] final  142.80 input   59.86 | X-H torsion
[ 10167 10162 10161 10158 ] final   89.07 input  -65.29 | X-H torsion
[ 10718 10713 10712 10709 ] final    3.03 input   66.30 | X-H torsion
[ 10763 10752 10751 10750 ] final  -13.50 input  -60.55 | X-H torsion
[ 11005 11000 10999 10996 ] final  110.78 input  -57.11 | X-H torsion

> <Gold.Protein.ActiveResidues>
 VAL166  LYS551  ARG553  GLY616  TRP617  ASP618  TYR619  PRO620  LYS621  CYS622 
 ASP623  PHE694  ASN695  SER759  ASP760  ASP761  ALA762  ILE779  LEU786  VAL792 
 PHE793  MET794  SER795  GLU796  ALA797  LYS798  CYS799  TRP800  GLU811  SER814 

> <Gold.Protein.RotatedAtoms>
  150.8116  133.8412  159.3179 H   0  0  0  0  0  0  0  0  0  0  0  0  # atno 6907 bound_to 6896
  151.6196  135.1031  160.0108 H   0  0  0  0  0  0  0  0  0  0  0  0  # atno 6908 bound_to 6896
  152.4207  133.7072  159.6515 H   0  0  0  0  0  0  0  0  0  0  0  0  # atno 6909 bound_to 6896
  145.2035  140.9066  143.3355 H   0  0  0  0  0  0  0  0  0  0  0  0  # atno 7974 bound_to 7965
  156.2942  140.2279  156.4787 H   0  0  0  0  0  0  0  0  0  0  0  0  # atno 8008 bound_to 7997
  154.7872  140.0456  157.1194 H   0  0  0  0  0  0  0  0  0  0  0  0  # atno 8009 bound_to 7997
  154.9689  140.3064  155.5000 H   0  0  0  0  0  0  0  0  0  0  0  0  # atno 8010 bound_to 7997
  139.8609  144.6544  150.9059 H   0  0  0  0  0  0  0  0  0  0  0  0  # atno 10167 bound_to 10162
  156.8718  130.5623  149.5657 H   0  0  0  0  0  0  0  0  0  0  0  0  # atno 10718 bound_to 10713
  153.5142  135.7016  153.5765 H   0  0  0  0  0  0  0  0  0  0  0  0  # atno 10763 bound_to 10752
  153.3842  135.3912  155.1878 H   0  0  0  0  0  0  0  0  0  0  0  0  # atno 10764 bound_to 10752
  154.8700  135.3842  154.4625 H   0  0  0  0  0  0  0  0  0  0  0  0  # atno 10765 bound_to 10752
  139.8889  134.9492  156.6332 H   0  0  0  0  0  0  0  0  0  0  0  0  # atno 11005 bound_to 11000
  144.9924  139.3676  143.6208 LP  0  0  0  0  0  0  0  0  0  0  0  0  # atno 17320 bound_to 7965
  146.3412  139.9113  142.8780 LP  0  0  0  0  0  0  0  0  0  0  0  0  # atno 17321 bound_to 7965
  140.7775  143.3745  151.1589 LP  0  0  0  0  0  0  0  0  0  0  0  0  # atno 17342 bound_to 10162
  139.7374  143.8977  152.3039 LP  0  0  0  0  0  0  0  0  0  0  0  0  # atno 17343 bound_to 10162
  156.0722  130.5752  150.9406 LP  0  0  0  0  0  0  0  0  0  0  0  0  # atno 17370 bound_to 10713
  157.6191  131.0931  150.8655 LP  0  0  0  0  0  0  0  0  0  0  0  0  # atno 17371 bound_to 10713
  140.7651  133.8785  155.8448 LP  0  0  0  0  0  0  0  0  0  0  0  0  # atno 17394 bound_to 11000
  140.9889  134.1305  157.4426 LP  0  0  0  0  0  0  0  0  0  0  0  0  # atno 17395 bound_to 11000

$$$$
