AV-unprocessed.smi:2510|AV-procd|sdf|9871|dock5
  -GOLD-   2272013503D 1   1.00000     0.00000
 Structure written by MMmdl.
 48 49  0  0  0  0  0  0  0  0  1 V2000
  149.0658  138.8074  157.5875 C   0  0  0  0  0  0  0  0  0  0  0  0
  150.2435  138.6190  156.6209 C   0  0  0  0  0  0  0  0  0  0  0  0
  149.8798  138.5910  155.1197 C   0  0  0  0  0  0  0  0  0  0  0  0
  151.1194  138.0622  154.3334 C   0  0  0  0  0  0  0  0  0  0  0  0
  152.4763  138.6908  154.6962 C   0  0  0  0  0  0  0  0  0  0  0  0
  148.5209  137.8934  154.8204 C   0  0  2  0  0  0  0  0  0  0  0  0
  148.6185  136.5216  154.3337 N   0  0  0  0  0  0  0  0  0  0  0  0
  148.1653  135.4486  154.9984 C   0  0  0  0  0  0  0  0  0  0  0  0
  147.5533  135.5198  156.0640 O   0  0  0  0  0  0  0  0  0  0  0  0
  148.4687  134.0848  154.3782 C   0  0  0  0  0  0  0  0  0  0  0  0
  147.2373  133.5531  153.6944 C   0  0  0  0  0  0  0  0  0  0  0  0
  147.0421  133.3037  152.3029 C   0  0  0  0  0  0  0  0  0  0  0  0
  145.7690  132.8146  152.2213 C   0  0  0  0  0  0  0  0  0  0  0  0
  144.9624  132.3522  151.0560 C   0  0  0  0  0  0  0  0  0  0  0  0
  145.2777  132.8072  153.5062 N   0  0  0  0  0  0  0  0  0  0  0  0
  146.1635  133.2573  154.4138 N   0  0  0  0  0  0  0  0  0  0  0  0
  148.2807  138.9160  153.7049 C   0  0  1  0  0  0  0  0  0  0  0  0
  146.8563  139.3079  153.3332 C   0  0  0  0  0  0  0  0  0  0  0  0
  149.1714  139.8543  154.5439 C   0  0  1  0  0  0  0  0  0  0  0  0
  148.4397  140.5546  155.5462 O   0  0  0  0  0  0  0  0  0  0  0  0
  147.7062  141.6561  155.0379 C   0  0  0  0  0  0  0  0  0  0  0  0
  144.3531  132.5012  153.7751 H   0  0  0  0  0  0  0  0  0  0  0  0
  149.3860  138.6360  158.6151 H   0  0  0  0  0  0  0  0  0  0  0  0
  148.2553  138.1101  157.3748 H   0  0  0  0  0  0  0  0  0  0  0  0
  148.6703  139.8212  157.5454 H   0  0  0  0  0  0  0  0  0  0  0  0
  150.9900  139.3894  156.8162 H   0  0  0  0  0  0  0  0  0  0  0  0
  150.7397  137.6865  156.8917 H   0  0  0  0  0  0  0  0  0  0  0  0
  151.2009  136.9796  154.4383 H   0  0  0  0  0  0  0  0  0  0  0  0
  151.0007  138.2194  153.2624 H   0  0  0  0  0  0  0  0  0  0  0  0
  153.2871  138.1425  154.2162 H   0  0  0  0  0  0  0  0  0  0  0  0
  152.6705  138.6905  155.7666 H   0  0  0  0  0  0  0  0  0  0  0  0
  152.5427  139.7208  154.3467 H   0  0  0  0  0  0  0  0  0  0  0  0
  147.7949  138.0131  155.6288 H   0  0  0  0  0  0  0  0  0  0  0  0
  149.1067  136.3753  153.4622 H   0  0  0  0  0  0  0  0  0  0  0  0
  149.2962  134.1871  153.6745 H   0  0  0  0  0  0  0  0  0  0  0  0
  148.8034  133.3921  155.1513 H   0  0  0  0  0  0  0  0  0  0  0  0
  147.7374  133.4528  151.4903 H   0  0  0  0  0  0  0  0  0  0  0  0
  145.5965  132.1881  150.1845 H   0  0  0  0  0  0  0  0  0  0  0  0
  144.2076  133.0925  150.7903 H   0  0  0  0  0  0  0  0  0  0  0  0
  144.4534  131.4147  151.2820 H   0  0  0  0  0  0  0  0  0  0  0  0
  148.8303  138.6252  152.8071 H   0  0  0  0  0  0  0  0  0  0  0  0
  146.2743  139.5876  154.2116 H   0  0  0  0  0  0  0  0  0  0  0  0
  146.3373  138.4811  152.8483 H   0  0  0  0  0  0  0  0  0  0  0  0
  146.8456  140.1521  152.6441 H   0  0  0  0  0  0  0  0  0  0  0  0
  149.8139  140.5102  153.9571 H   0  0  0  0  0  0  0  0  0  0  0  0
  147.1390  142.1208  155.8442 H   0  0  0  0  0  0  0  0  0  0  0  0
  147.0021  141.3495  154.2646 H   0  0  0  0  0  0  0  0  0  0  0  0
  148.3750  142.4098  154.6208 H   0  0  0  0  0  0  0  0  0  0  0  0
  1  2  1  0  0  0  0
  1 23  1  0  0  0  0
  1 24  1  0  0  0  0
  1 25  1  0  0  0  0
  2  3  1  0  0  0  0
  2 26  1  0  0  0  0
  2 27  1  0  0  0  0
  3 19  1  0  0  0  0
  3  4  1  0  0  0  0
  3  6  1  0  0  0  0
  4  5  1  0  0  0  0
  4 28  1  0  0  0  0
  4 29  1  0  0  0  0
  5 30  1  0  0  0  0
  5 31  1  0  0  0  0
  5 32  1  0  0  0  0
  6  7  1  0  0  0  0
  6 17  1  0  0  0  0
  6 33  1  0  0  0  0
  7  8  1  0  0  0  0
  7 34  1  0  0  0  0
  8  9  2  0  0  0  0
  8 10  1  0  0  0  0
 10 11  1  0  0  0  0
 10 35  1  0  0  0  0
 10 36  1  0  0  0  0
 11 16  2  0  0  0  0
 11 12  1  0  0  0  0
 12 13  2  0  0  0  0
 12 37  1  0  0  0  0
 13 14  1  0  0  0  0
 13 15  1  0  0  0  0
 14 38  1  0  0  0  0
 14 39  1  0  0  0  0
 14 40  1  0  0  0  0
 15 22  1  0  0  0  0
 15 16  1  0  0  0  0
 17 18  1  0  0  0  0
 17 19  1  0  0  0  0
 17 41  1  0  0  0  0
 18 42  1  0  0  0  0
 18 43  1  0  0  0  0
 18 44  1  0  0  0  0
 19 20  1  0  0  0  0
 19 45  1  0  0  0  0
 20 21  1  0  0  0  0
 21 46  1  0  0  0  0
 21 47  1  0  0  0  0
 21 48  1  0  0  0  0
M  END
> <s_m_source_file>
AV-unprocessed.smi

> <i_m_source_file_index>
2510

> <i_lp_mmshare_version>
43012

> <i_f3d_flags>
0

> <s_epik_input>
W0NIM11PW0NAQEhdMVtDQEhdKFtDSDNdKVtDQEBIXShDMShbQ0gyXVtDSDNdKVtDSDJdW0NIM10pW05IXUMoPU8pW0NIMl1jMltjSF1jKFtDSDNdKVtuSF1uMg==

> <s_epik_cmdline>
J2VwaWtfcHl0aG9uJywgJy1waCcsICc3LjAnLCAnLXRuJywgJzgnLCAnLW1hJywgJzIwMCcsICctbWV0YWxfYmluZGluZycsICctaW1hZScsICc8aW5maWxlLm1hZT4nLCAnLW9tYWUnLCAnPG91dGZpbGUubWFlPic=

> <r_lp_tautomer_probability>
0.5

> <r_epik_Ionization_Penalty>
9.73156e-05

> <r_epik_Ionization_Penalty_Charging>
0

> <r_epik_Ionization_Penalty_Neutral>
9.73156e-05

> <r_epik_State_Penalty>
0.41068

> <r_epik_Charging_Adjusted_Penalty>
0.41068

> <i_epik_Tot_Q>
0

> <i_epik_Tot_abs_Q>
0

> <r_epik_Metal_State_Penalty>
0.410699

> <b_epik_Metal_Only>
0

> <s_lp_Force_Field>
OPLS_2005

> <r_lp_Energy>
28.8176

> <b_lp_Chiralities_Consistent>
1

> <s_lp_Variant>
AV-unprocessed.smi:2510-2

> <Gold.Version>
5.8.1

> <Gold.Id.Protein>
6NUR|6NUR_protein|mol2

> <Gold.PLP.Fitness>
32.7606

> <Gold.PLP.PLP>
-28.0990

> <Gold.PLP.part.hbond>
-1.9361

> <Gold.PLP.part.metal>
0.0000

> <Gold.PLP.part.buried>
-4.3546

> <Gold.PLP.part.nonpolar>
-24.1308

> <Gold.PLP.part.repulsive>
0.1708

> <Gold.PLP.ligand.clash>
0.0000

> <Gold.PLP.ligand.torsion>
0.9095

> <Gold.PLP.Chemscore.Hbond>
1.9350

> <Gold.PLP.Chemscore.CHOScore>
0.0000

> <Gold.PLP.Chemscore.Metal>
0.0000

> <Gold.Chemscore.Hbonds>
donor molecule, donor type, donor heavy atom, donor atom, acceptor molecule, acceptor atom, score
      L1  H     7    34       P1  7948  0.94
      L1  H    15    22       P1 10957  0.86

> <Gold.PLP.Chemscore.Internal.Correction>
0.6757

> <Gold.Rescore>
     Score         DG    S(hbond)    S(metal)    S(lipo)     H(rot)  DE(clash)    DE(int)     intcor
     14.02     -16.59       1.94        0.00      79.09       1.81       0.19       2.39       ----

> <Gold.Chemscore.Fitness>
14.0175

> <Gold.Chemscore.DG>
-16.5920

> <Gold.Chemscore.ZeroCoef>
-5.4800

> <Gold.Chemscore.Hbond>
1.9438

> <Gold.Chemscore.Metal>
0.0000

> <Gold.Chemscore.Lipo>
79.0930

> <Gold.Chemscore.Internal_Hbond>
0.0000

> <Gold.Chemscore.DEClash>
0.1864

> <Gold.Chemscore.DEInternal>
2.3881

> <Gold.Chemscore.Rot>
1.8102

> <Gold.Chemscore.Internal.Correction>
   9.000000E+99

> <Gold.Chemscore.Hbonds>
donor molecule, donor type, donor heavy atom, donor atom, acceptor molecule, acceptor atom, score
      L1  H     7    34       P1  7948  0.87
      L1  H    15    22       P1 10957  0.33

> <Gold.Chemscore.Hbond.Weighted>
-6.4922

> <Gold.Chemscore.Metal.Weighted>
-0.0000

> <Gold.Chemscore.Lipo.Weighted>
-9.2539

> <Gold.Chemscore.Internal_Hbond.Weighted>
0.0000

> <Gold.Chemscore.DEClash.Weighted>
0.1864

> <Gold.Chemscore.DEInternal.Weighted>
2.3881

> <Gold.Chemscore.Rot.Weighted>
4.6341

> <Gold.Chemscore.Internal.Correction.Weighted>
   9.000000E+99

> <Gold.Protein.RotatedTorsions>
[ 6907 6896 6895 6894 ] final   55.53 input  -60.11 | X-H torsion
[ 7974 7965 7964 7962 ] final -129.62 input  175.53 | X-H torsion
[ 8008 7997 7996 7995 ] final   47.65 input   59.86 | X-H torsion
[ 10167 10162 10161 10158 ] final  -12.38 input  -65.29 | X-H torsion
[ 10718 10713 10712 10709 ] final  -89.49 input   66.30 | X-H torsion
[ 10763 10752 10751 10750 ] final   93.98 input  -60.55 | X-H torsion
[ 11005 11000 10999 10996 ] final  -30.60 input  -57.11 | X-H torsion

> <Gold.Protein.ActiveResidues>
 VAL166  LYS551  ARG553  GLY616  TRP617  ASP618  TYR619  PRO620  LYS621  CYS622 
 ASP623  PHE694  ASN695  SER759  ASP760  ASP761  ALA762  ILE779  LEU786  VAL792 
 PHE793  MET794  SER795  GLU796  ALA797  LYS798  CYS799  TRP800  GLU811  SER814 

> <Gold.Protein.RotatedAtoms>
  152.3548  134.6955  160.0225 H   0  0  0  0  0  0  0  0  0  0  0  0  # atno 6907 bound_to 6896
  151.7298  133.3312  159.3345 H   0  0  0  0  0  0  0  0  0  0  0  0  # atno 6908 bound_to 6896
  150.7564  134.6307  159.6229 H   0  0  0  0  0  0  0  0  0  0  0  0  # atno 6909 bound_to 6896
  144.9554  140.7390  143.4762 H   0  0  0  0  0  0  0  0  0  0  0  0  # atno 7974 bound_to 7965
  155.3726  140.3424  155.4244 H   0  0  0  0  0  0  0  0  0  0  0  0  # atno 8008 bound_to 7997
  156.1654  140.1614  156.8574 H   0  0  0  0  0  0  0  0  0  0  0  0  # atno 8009 bound_to 7997
  154.5180  140.0774  156.8100 H   0  0  0  0  0  0  0  0  0  0  0  0  # atno 8010 bound_to 7997
  140.7160  143.5539  150.9271 H   0  0  0  0  0  0  0  0  0  0  0  0  # atno 10167 bound_to 10162
  155.9984  130.4874  150.5180 H   0  0  0  0  0  0  0  0  0  0  0  0  # atno 10718 bound_to 10713
  153.2364  135.4306  155.0651 H   0  0  0  0  0  0  0  0  0  0  0  0  # atno 10763 bound_to 10752
  154.8321  135.3392  154.6712 H   0  0  0  0  0  0  0  0  0  0  0  0  # atno 10764 bound_to 10752
  153.7137  135.7021  153.5087 H   0  0  0  0  0  0  0  0  0  0  0  0  # atno 10765 bound_to 10752
  140.9397  133.7286  156.1057 H   0  0  0  0  0  0  0  0  0  0  0  0  # atno 11005 bound_to 11000
  145.2780  139.1929  143.4806 LP  0  0  0  0  0  0  0  0  0  0  0  0  # atno 17320 bound_to 7965
  146.3335  140.2737  142.8607 LP  0  0  0  0  0  0  0  0  0  0  0  0  # atno 17321 bound_to 7965
  139.9263  143.6546  152.3086 LP  0  0  0  0  0  0  0  0  0  0  0  0  # atno 17342 bound_to 10162
  139.6981  144.7639  151.1321 LP  0  0  0  0  0  0  0  0  0  0  0  0  # atno 17343 bound_to 10162
  157.3145  131.0670  151.1977 LP  0  0  0  0  0  0  0  0  0  0  0  0  # atno 17370 bound_to 10713
  157.2912  130.6797  149.6115 LP  0  0  0  0  0  0  0  0  0  0  0  0  # atno 17371 bound_to 10713
  140.7751  134.3789  157.5499 LP  0  0  0  0  0  0  0  0  0  0  0  0  # atno 17394 bound_to 11000
  139.8817  134.9046  156.2882 LP  0  0  0  0  0  0  0  0  0  0  0  0  # atno 17395 bound_to 11000

$$$$
