#       Name:                AV-unprocessed.smi:1774
#       Creating user name   scv26
#       Creation time:       Fri Mar 27 08:40:42 2020


#       File generated by GOLD software.
#

@<TRIPOS>MOLECULE
AV-unprocessed.smi:1774
    51    52     1
SMALL
NO_CHARGES


@<TRIPOS>ATOM
      1 ****        -2.6218   5.2906  -1.1280 C.3            1 S1                 0.0000
      2 ****        -2.8986   4.8994   0.3147 C.ar           1 S1                 0.0000
      3 ****        -3.5406   5.8212   1.1688 C.ar           1 S1                 0.0000
      4 ****        -3.7949   5.4584   2.5024 C.ar           1 S1                 0.0000
      5 ****        -3.3932   4.1809   2.9286 C.ar           1 S1                 0.0000
      6 ****        -2.7797   3.2934   2.1193 N.ar           1 S1                 0.0000
      7 ****        -2.5280   3.6276   0.8286 C.ar           1 S1                 0.0000
      8 ****        -1.8839   2.7423  -0.0816 N.am           1 S1                 0.0000
      9 ****        -1.4687   1.4812   0.1313 C.2            1 S1                 0.0000
     10 ****        -1.5801   0.8600   1.1887 O.2            1 S1                 0.0000
     11 ****        -0.9040   0.9624  -0.9688 N.am           1 S1                 0.0000
     12 ****        -0.3646  -0.3889  -1.0662 C.3            1 S1                 0.0000
     13 ****         1.0186  -0.4957  -0.3965 C.3            1 S1                 0.0000
     14 ****         1.5913  -1.8599  -0.5066 N.4            1 S1                 1.0000
     15 ****         3.0685  -1.8656  -0.3855 C.3            1 S1                 0.0000
     16 ****         3.6372  -3.2870  -0.5674 C.3            1 S1                 0.0000
     17 ****         3.6051  -3.7810  -2.0249 C.3            1 S1                 0.0000
     18 ****         2.9899  -4.1946   0.3243 O.3            1 S1                 0.0000
     19 ****         1.5697  -4.2365   0.2105 C.3            1 S1                 0.0000
     20 ****         1.0452  -5.2495   1.2342 C.3            1 S1                 0.0000
     21 ****         0.9949  -2.8280   0.4451 C.3            1 S1                 0.0000
     22 ****        -3.0165   6.2819  -1.3533 H              1 S1                 0.0000
     23 ****        -3.0881   4.5823  -1.8133 H              1 S1                 0.0000
     24 ****        -1.5484   5.3044  -1.3198 H              1 S1                 0.0000
     25 ****        -3.8362   6.7961   0.8097 H              1 S1                 0.0000
     26 ****        -4.2850   6.1412   3.1807 H              1 S1                 0.0000
     27 ****        -3.5691   3.8624   3.9455 H              1 S1                 0.0000
     28 ****        -1.7288   3.1148  -1.0065 H              1 S1                 0.0000
     29 ****        -0.8529   1.5378  -1.7970 H              1 S1                 0.0000
     30 ****        -1.0763  -1.0896  -0.6291 H              1 S1                 0.0000
     31 ****        -0.2857  -0.6465  -2.1227 H              1 S1                 0.0000
     32 ****         1.6851   0.2150  -0.8877 H              1 S1                 0.0000
     33 ****         0.9753  -0.2011   0.6533 H              1 S1                 0.0000
     34 ****         3.5108  -1.1927  -1.1214 H              1 S1                 0.0000
     35 ****         3.3443  -1.4822   0.5983 H              1 S1                 0.0000
     36 ****         4.6850  -3.2656  -0.2663 H              1 S1                 0.0000
     37 ****         4.2270  -3.1499  -2.6605 H              1 S1                 0.0000
     38 ****         2.5995  -3.7704  -2.4445 H              1 S1                 0.0000
     39 ****         3.9876  -4.7992  -2.0986 H              1 S1                 0.0000
     40 ****         1.2890  -4.5864  -0.7832 H              1 S1                 0.0000
     41 ****        -0.0409  -5.3329   1.1842 H              1 S1                 0.0000
     42 ****         1.3120  -4.9591   2.2508 H              1 S1                 0.0000
     43 ****         1.4628  -6.2400   1.0511 H              1 S1                 0.0000
     44 ****         1.1952  -2.5040   1.4679 H              1 S1                 0.0000
     45 ****        -0.0880  -2.8582   0.3285 H              1 S1                 0.0000
     46 ****         1.3814  -2.1878  -1.4386 H              1 S1                 0.0000
     47 ****        -2.5122   2.3952   2.4682 LP             1 S1                 0.0000
     48 ****        -2.0099   1.2938   1.9806 LP             1 S1                 0.0000
     49 ****        -1.2408  -0.0783   1.2555 LP             1 S1                 0.0000
     50 ****         3.2189  -3.9272   1.2603 LP             1 S1                 0.0000
     51 ****         3.3433  -5.1126   0.1441 LP             1 S1                 0.0000
@<TRIPOS>BOND
    1    1    2 1     
    2    1   22 1     
    3    1   23 1     
    4    1   24 1     
    5    2    7 ar    
    6    2    3 ar    
    7    3    4 ar    
    8    3   25 1     
    9    4    5 ar    
   10    4   26 1     
   11    5    6 ar    
   12    5   27 1     
   13    6    7 ar    
   14    7    8 1     
   15    8    9 am    
   16    8   28 1     
   17    9   10 2     
   18    9   11 am    
   19   11   12 1     
   20   11   29 1     
   21   12   13 1     
   22   12   30 1     
   23   12   31 1     
   24   13   14 1     
   25   13   32 1     
   26   13   33 1     
   27   14   21 1     
   28   14   15 1     
   29   14   46 1     
   30   15   16 1     
   31   15   34 1     
   32   15   35 1     
   33   16   17 1     
   34   16   18 1     
   35   16   36 1     
   36   17   37 1     
   37   17   38 1     
   38   17   39 1     
   39   18   19 1     
   40   19   20 1     
   41   19   21 1     
   42   19   40 1     
   43   20   41 1     
   44   20   42 1     
   45   20   43 1     
   46   21   44 1     
   47   21   45 1     
   48    6   47 1     
   49   10   48 1     
   50   10   49 1     
   51   18   50 1     
   52   18   51 1     
@<TRIPOS>SUBSTRUCTURE
      1 S1             1
@<TRIPOS>SET
LONE_PAIRS      STATIC     ATOMS    <user>   **** ""
5 47 48 49 50 51
DONOR_HYDROGENS      STATIC     ATOMS    <user>   **** ""
3 28 29 46
ATOM$BLUE        STATIC     ATOMS    COLORGROUP SYSTEM
5 47 48 49 50 51
ATOM$RED        STATIC     ATOMS    COLORGROUP SYSTEM
3 28 29 46
