AV-unprocessed.smi:3303|AV-procd|sdf|12676|dock1
  -GOLD-   2272019 13D 1   1.00000     0.00000
 Structure written by MMmdl.
 44 45  0  0  0  0  0  0  0  0  2 V2000
  150.6265  145.2990  159.4676 C   0  0  0  0  0  0  0  0  0  0  0  0
  151.8298  144.3657  159.6793 C   0  0  1  0  0  0  0  0  0  0  0  0
  151.8772  143.7928  161.1086 C   0  0  0  0  0  0  0  0  0  0  0  0
  153.0999  143.0140  161.3257 N   0  0  0  0  0  0  0  0  0  0  0  0
  153.1011  142.5932  162.7246 C   0  0  0  0  0  0  0  0  0  0  0  0
  153.1651  141.8652  160.4046 C   0  0  2  0  0  0  0  0  0  0  0  0
  154.4355  141.0198  160.6267 C   0  0  0  0  0  0  0  0  0  0  0  0
  153.1342  142.3660  158.9413 C   0  0  0  0  0  0  0  0  0  0  0  0
  151.9047  143.2338  158.6371 C   0  0  1  0  0  0  0  0  0  0  0  0
  150.6762  142.4047  158.6314 N   0  3  0  0  0  0  0  0  0  0  0  0
  150.8281  141.0712  158.0161 C   0  0  0  0  0  0  0  0  0  0  0  0
  151.3232  141.1869  156.5683 C   0  0  0  0  0  0  0  0  0  0  0  0
  151.2570  139.8624  155.8321 C   0  0  0  0  0  0  0  0  0  0  0  0
  151.9574  138.7348  156.3110 C   0  0  0  0  0  0  0  0  0  0  0  0
  151.8570  137.5280  155.5915 C   0  0  0  0  0  0  0  0  0  0  0  0
  151.0640  137.4959  154.4283 C   0  0  0  0  0  0  0  0  0  0  0  0
  150.4023  138.6763  154.0350 C   0  0  0  0  0  0  0  0  0  0  0  0
  150.4905  139.8382  154.7188 N   0  0  0  0  0  0  0  0  0  0  0  0
  149.6797  144.7806  159.6205 H   0  0  0  0  0  0  0  0  0  0  0  0
  150.6229  145.7116  158.4584 H   0  0  0  0  0  0  0  0  0  0  0  0
  150.6568  146.1373  160.1641 H   0  0  0  0  0  0  0  0  0  0  0  0
  152.7217  144.9822  159.5511 H   0  0  0  0  0  0  0  0  0  0  0  0
  151.8501  144.6192  161.8205 H   0  0  0  0  0  0  0  0  0  0  0  0
  150.9976  143.1778  161.3055 H   0  0  0  0  0  0  0  0  0  0  0  0
  154.0449  142.1241  163.0001 H   0  0  0  0  0  0  0  0  0  0  0  0
  152.2923  141.8898  162.9287 H   0  0  0  0  0  0  0  0  0  0  0  0
  152.9782  143.4520  163.3855 H   0  0  0  0  0  0  0  0  0  0  0  0
  152.2962  141.2283  160.5777 H   0  0  0  0  0  0  0  0  0  0  0  0
  154.5343  140.2575  159.8533 H   0  0  0  0  0  0  0  0  0  0  0  0
  154.4180  140.4905  161.5791 H   0  0  0  0  0  0  0  0  0  0  0  0
  155.3353  141.6355  160.5968 H   0  0  0  0  0  0  0  0  0  0  0  0
  154.0365  142.9468  158.7422 H   0  0  0  0  0  0  0  0  0  0  0  0
  153.1652  141.5204  158.2527 H   0  0  0  0  0  0  0  0  0  0  0  0
  152.0394  143.6784  157.6495 H   0  0  0  0  0  0  0  0  0  0  0  0
  150.3712  142.2826  159.5865 H   0  0  0  0  0  0  0  0  0  0  0  0
  151.5347  140.4822  158.6028 H   0  0  0  0  0  0  0  0  0  0  0  0
  149.8684  140.5533  158.0464 H   0  0  0  0  0  0  0  0  0  0  0  0
  150.7263  141.9217  156.0258 H   0  0  0  0  0  0  0  0  0  0  0  0
  152.3502  141.5545  156.5534 H   0  0  0  0  0  0  0  0  0  0  0  0
  152.5579  138.7895  157.2073 H   0  0  0  0  0  0  0  0  0  0  0  0
  152.3793  136.6435  155.9253 H   0  0  0  0  0  0  0  0  0  0  0  0
  150.9652  136.5886  153.8506 H   0  0  0  0  0  0  0  0  0  0  0  0
  149.7858  138.6877  153.1485 H   0  0  0  0  0  0  0  0  0  0  0  0
  149.9598  142.9087  158.1290 H   0  0  0  0  0  0  0  0  0  0  0  0
  1  2  1  0  0  0  0
  1 19  1  0  0  0  0
  1 20  1  0  0  0  0
  1 21  1  0  0  0  0
  2  9  1  0  0  0  0
  2  3  1  0  0  0  0
  2 22  1  0  0  0  0
  3  4  1  0  0  0  0
  3 23  1  0  0  0  0
  3 24  1  0  0  0  0
  4  5  1  0  0  0  0
  4  6  1  0  0  0  0
  5 25  1  0  0  0  0
  5 26  1  0  0  0  0
  5 27  1  0  0  0  0
  6  7  1  0  0  0  0
  6  8  1  0  0  0  0
  6 28  1  0  0  0  0
  7 29  1  0  0  0  0
  7 30  1  0  0  0  0
  7 31  1  0  0  0  0
  8  9  1  0  0  0  0
  8 32  1  0  0  0  0
  8 33  1  0  0  0  0
  9 10  1  0  0  0  0
  9 34  1  0  0  0  0
 10 11  1  0  0  0  0
 10 35  1  0  0  0  0
 10 44  1  0  0  0  0
 11 12  1  0  0  0  0
 11 36  1  0  0  0  0
 11 37  1  0  0  0  0
 12 13  1  0  0  0  0
 12 38  1  0  0  0  0
 12 39  1  0  0  0  0
 13 18  1  0  0  0  0
 13 14  2  0  0  0  0
 14 15  1  0  0  0  0
 14 40  1  0  0  0  0
 15 16  2  0  0  0  0
 15 41  1  0  0  0  0
 16 17  1  0  0  0  0
 16 42  1  0  0  0  0
 17 18  2  0  0  0  0
 17 43  1  0  0  0  0
M  CHG  1  10   1
M  END
> <s_m_source_file>
AV-unprocessed.smi

> <i_m_source_file_index>
3303

> <i_lp_mmshare_version>
43012

> <i_f3d_flags>
0

> <s_epik_input>
W0NIM11bQ0BASF0xW0NIMl1OKFtDSDNdKVtDQEBIXShbQ0gzXSlbQ0gyXVtDQEhdMVtOSF1bQ0gyXVtDSDJdYzJbY0hdW2NIXVtjSF1bY0hdbjI=

> <s_epik_cmdline>
J2VwaWtfcHl0aG9uJywgJy1waCcsICc3LjAnLCAnLXRuJywgJzgnLCAnLW1hJywgJzIwMCcsICctbWV0YWxfYmluZGluZycsICctaW1hZScsICc8aW5maWxlLm1hZT4nLCAnLW9tYWUnLCAnPG91dGZpbGUubWFlPic=

> <r_epik_Ionization_Penalty>
1.37325

> <r_epik_Ionization_Penalty_Charging>
0.000251572

> <r_epik_Ionization_Penalty_Neutral>
1.373

> <r_epik_State_Penalty>
1.46343

> <r_epik_Charging_Adjusted_Penalty>
1.46368

> <i_epik_Tot_Q>
1

> <i_epik_Tot_abs_Q>
1

> <r_epik_Metal_State_Penalty>
1.46331

> <b_epik_Metal_Only>
0

> <s_lp_Force_Field>
OPLS_2005

> <r_lp_Energy>
25.9316

> <b_lp_Chiralities_Consistent>
1

> <s_lp_Variant>
AV-unprocessed.smi:3303-20

> <Gold.Version>
5.8.1

> <Gold.Id.Protein>
6NUR|6NUR_protein|mol2

> <Gold.PLP.Fitness>
50.3506

> <Gold.PLP.PLP>
-44.2689

> <Gold.PLP.part.hbond>
-1.0000

> <Gold.PLP.part.metal>
0.0000

> <Gold.PLP.part.buried>
-5.3780

> <Gold.PLP.part.nonpolar>
-38.4645

> <Gold.PLP.part.repulsive>
0.2304

> <Gold.PLP.ligand.clash>
0.0000

> <Gold.PLP.ligand.torsion>
0.2158

> <Gold.PLP.Chemscore.Hbond>
1.0000

> <Gold.PLP.Chemscore.CHOScore>
1.1655

> <Gold.PLP.Chemscore.Metal>
0.0000

> <Gold.Chemscore.Hbonds>
donor molecule, donor type, donor heavy atom, donor atom, acceptor molecule, acceptor atom, score
      P1  H  7989  7998       L1    18  1.00
      L1  C    17    43       P1  7948  0.17
      L1  C    17    43       P1  7957  1.00

> <Gold.PLP.Chemscore.Internal.Correction>
0.0169

> <Gold.Rescore>
     Score         DG    S(hbond)    S(metal)    S(lipo)     H(rot)  DE(clash)    DE(int)     intcor
     19.61     -20.15       0.75        0.00     132.99       1.33       0.28       0.26       ----

> <Gold.Chemscore.Fitness>
19.6083

> <Gold.Chemscore.DG>
-20.1490

> <Gold.Chemscore.ZeroCoef>
-5.4800

> <Gold.Chemscore.Hbond>
0.7524

> <Gold.Chemscore.Metal>
0.0000

> <Gold.Chemscore.Lipo>
132.9938

> <Gold.Chemscore.Internal_Hbond>
0.0000

> <Gold.Chemscore.DEClash>
0.2790

> <Gold.Chemscore.DEInternal>
0.2618

> <Gold.Chemscore.Rot>
1.3298

> <Gold.Chemscore.Internal.Correction>
   9.000000E+99

> <Gold.Chemscore.Hbonds>
donor molecule, donor type, donor heavy atom, donor atom, acceptor molecule, acceptor atom, score
      P1  H  7989  7998       L1    18  0.06

> <Gold.Chemscore.Hbond.Weighted>
-2.5131

> <Gold.Chemscore.Metal.Weighted>
-0.0000

> <Gold.Chemscore.Lipo.Weighted>
-15.5603

> <Gold.Chemscore.Internal_Hbond.Weighted>
0.0000

> <Gold.Chemscore.DEClash.Weighted>
0.2790

> <Gold.Chemscore.DEInternal.Weighted>
0.2618

> <Gold.Chemscore.Rot.Weighted>
3.4043

> <Gold.Chemscore.Internal.Correction.Weighted>
   9.000000E+99

> <Gold.Protein.RotatedTorsions>
[ 6907 6896 6895 6894 ] final  -59.51 input  -60.11 | X-H torsion
[ 7974 7965 7964 7962 ] final   94.38 input  175.53 | X-H torsion
[ 8008 7997 7996 7995 ] final    4.86 input   59.86 | X-H torsion
[ 10167 10162 10161 10158 ] final -145.45 input  -65.29 | X-H torsion
[ 10718 10713 10712 10709 ] final   87.52 input   66.30 | X-H torsion
[ 10763 10752 10751 10750 ] final -145.12 input  -60.55 | X-H torsion
[ 11005 11000 10999 10996 ] final  150.45 input  -57.11 | X-H torsion

> <Gold.Protein.ActiveResidues>
 VAL166  LYS551  ARG553  GLY616  TRP617  ASP618  TYR619  PRO620  LYS621  CYS622 
 ASP623  PHE694  ASN695  SER759  ASP760  ASP761  ALA762  ILE779  LEU786  VAL792 
 PHE793  MET794  SER795  GLU796  ALA797  LYS798  CYS799  TRP800  GLU811  SER814 

> <Gold.Protein.RotatedAtoms>
  150.7925  134.6959  159.6522 H   0  0  0  0  0  0  0  0  0  0  0  0  # atno 6907 bound_to 6896
  152.4033  134.6247  160.0069 H   0  0  0  0  0  0  0  0  0  0  0  0  # atno 6908 bound_to 6896
  151.6512  133.3284  159.3188 H   0  0  0  0  0  0  0  0  0  0  0  0  # atno 6909 bound_to 6896
  145.4663  139.2284  143.2960 H   0  0  0  0  0  0  0  0  0  0  0  0  # atno 7974 bound_to 7965
  154.7212  140.2712  155.6540 H   0  0  0  0  0  0  0  0  0  0  0  0  # atno 8008 bound_to 7997
  156.2824  140.2734  156.1808 H   0  0  0  0  0  0  0  0  0  0  0  0  # atno 8009 bound_to 7997
  155.0505  140.0371  157.2532 H   0  0  0  0  0  0  0  0  0  0  0  0  # atno 8010 bound_to 7997
  139.7805  143.8108  152.2638 H   0  0  0  0  0  0  0  0  0  0  0  0  # atno 10167 bound_to 10162
  157.6941  131.0258  150.3135 H   0  0  0  0  0  0  0  0  0  0  0  0  # atno 10718 bound_to 10713
  154.8398  135.3422  154.6454 H   0  0  0  0  0  0  0  0  0  0  0  0  # atno 10763 bound_to 10752
  153.7066  135.6966  153.5053 H   0  0  0  0  0  0  0  0  0  0  0  0  # atno 10764 bound_to 10752
  153.2483  135.4362  155.0725 H   0  0  0  0  0  0  0  0  0  0  0  0  # atno 10765 bound_to 10752
  140.1132  134.8911  157.1966 H   0  0  0  0  0  0  0  0  0  0  0  0  # atno 11005 bound_to 11000
  146.2422  140.5437  142.8929 LP  0  0  0  0  0  0  0  0  0  0  0  0  # atno 17320 bound_to 7965
  144.7972  140.6145  143.6502 LP  0  0  0  0  0  0  0  0  0  0  0  0  # atno 17321 bound_to 7965
  139.8169  144.7312  150.9623 LP  0  0  0  0  0  0  0  0  0  0  0  0  # atno 17342 bound_to 10162
  140.7818  143.4196  151.0862 LP  0  0  0  0  0  0  0  0  0  0  0  0  # atno 17343 bound_to 10162
  156.3633  130.3851  149.7234 LP  0  0  0  0  0  0  0  0  0  0  0  0  # atno 17370 bound_to 10713
  156.4673  130.7980  151.2999 LP  0  0  0  0  0  0  0  0  0  0  0  0  # atno 17371 bound_to 10713
  140.3063  134.3074  155.7277 LP  0  0  0  0  0  0  0  0  0  0  0  0  # atno 17394 bound_to 11000
  141.2135  133.7623  156.9713 LP  0  0  0  0  0  0  0  0  0  0  0  0  # atno 17395 bound_to 11000

$$$$
