AV-unprocessed.smi:4|AV-procd|sdf|34|dock5
  -GOLD-   2262015143D 1   1.00000     0.00000
 Structure written by MMmdl.
 43 44  0  0  0  0  0  0  0  0  1 V2000
  149.9174  138.5950  156.5268 C   0  0  0  0  0  0  0  0  0  0  0  0
  150.7680  137.6725  155.6151 C   0  0  0  0  0  0  0  0  0  0  0  0
  150.5018  138.1677  154.1692 C   0  0  0  0  0  0  0  0  0  0  0  0
  152.2412  137.9306  156.0226 C   0  0  0  0  0  0  0  0  0  0  0  0
  150.4179  136.2442  155.7674 N   0  0  0  0  0  0  0  0  0  0  0  0
  149.9594  135.4366  154.7228 C   0  0  0  0  0  0  0  0  0  0  0  0
  149.6373  134.1232  154.8435 C   0  0  0  0  0  0  0  0  0  0  0  0
  149.1096  133.3132  153.6673 C   0  0  0  0  0  0  0  0  0  0  0  0
  147.8923  133.9020  153.1159 N   0  0  0  0  0  0  0  0  0  0  0  0
  147.3626  133.1598  151.9751 C   0  0  0  0  0  0  0  0  0  0  0  0
  146.0585  133.7775  151.4628 C   0  0  0  0  0  0  0  0  0  0  0  0
  146.3359  135.1545  151.2967 O   0  0  0  0  0  0  0  0  0  0  0  0
  145.4160  133.1265  150.2243 C   0  0  0  0  0  0  0  0  0  0  0  0
  144.0407  133.2962  150.8711 C   0  0  0  0  0  0  0  0  0  0  0  0
  144.7521  133.4597  152.2146 C   0  0  0  0  0  0  0  0  0  0  0  0
  149.7450  133.4749  156.1509 C   0  0  0  0  0  0  0  0  0  0  0  0
  149.4702  132.3008  156.3932 O   0  0  0  0  0  0  0  0  0  0  0  0
  150.2006  134.3004  157.1761 N   0  0  0  0  0  0  0  0  0  0  0  0
  150.5412  135.6457  157.0541 C   0  0  0  0  0  0  0  0  0  0  0  0
  150.9233  136.2385  158.0616 O   0  0  0  0  0  0  0  0  0  0  0  0
  150.2912  133.8856  158.0921 H   0  0  0  0  0  0  0  0  0  0  0  0
  150.1858  139.6434  156.3907 H   0  0  0  0  0  0  0  0  0  0  0  0
  150.0678  138.3760  157.5849 H   0  0  0  0  0  0  0  0  0  0  0  0
  148.8521  138.5181  156.3048 H   0  0  0  0  0  0  0  0  0  0  0  0
  149.4863  137.9280  153.8515 H   0  0  0  0  0  0  0  0  0  0  0  0
  151.1852  137.7506  153.4321 H   0  0  0  0  0  0  0  0  0  0  0  0
  150.6154  139.2500  154.0972 H   0  0  0  0  0  0  0  0  0  0  0  0
  152.4630  138.9982  156.0395 H   0  0  0  0  0  0  0  0  0  0  0  0
  152.9645  137.4859  155.3415 H   0  0  0  0  0  0  0  0  0  0  0  0
  152.4467  137.5426  157.0209 H   0  0  0  0  0  0  0  0  0  0  0  0
  149.8372  135.8398  153.7315 H   0  0  0  0  0  0  0  0  0  0  0  0
  149.8844  133.2568  152.9017 H   0  0  0  0  0  0  0  0  0  0  0  0
  148.9151  132.2887  153.9867 H   0  0  0  0  0  0  0  0  0  0  0  0
  148.0857  134.8543  152.8204 H   0  0  0  0  0  0  0  0  0  0  0  0
  148.1037  133.1194  151.1751 H   0  0  0  0  0  0  0  0  0  0  0  0
  147.1907  132.1251  152.2742 H   0  0  0  0  0  0  0  0  0  0  0  0
  147.2729  135.2383  151.2075 H   0  0  0  0  0  0  0  0  0  0  0  0
  145.5438  133.6819  149.2944 H   0  0  0  0  0  0  0  0  0  0  0  0
  145.6924  132.0783  150.0996 H   0  0  0  0  0  0  0  0  0  0  0  0
  143.5322  134.2064  150.5499 H   0  0  0  0  0  0  0  0  0  0  0  0
  143.3926  132.4220  150.8021 H   0  0  0  0  0  0  0  0  0  0  0  0
  144.8025  132.5263  152.7780 H   0  0  0  0  0  0  0  0  0  0  0  0
  144.3679  134.2741  152.8295 H   0  0  0  0  0  0  0  0  0  0  0  0
  1  2  1  0  0  0  0
  1 22  1  0  0  0  0
  1 23  1  0  0  0  0
  1 24  1  0  0  0  0
  2  3  1  0  0  0  0
  2  4  1  0  0  0  0
  2  5  1  0  0  0  0
  3 25  1  0  0  0  0
  3 26  1  0  0  0  0
  3 27  1  0  0  0  0
  4 28  1  0  0  0  0
  4 29  1  0  0  0  0
  4 30  1  0  0  0  0
  5 19  1  0  0  0  0
  5  6  1  0  0  0  0
  6  7  2  0  0  0  0
  6 31  1  0  0  0  0
  7  8  1  0  0  0  0
  7 16  1  0  0  0  0
  8  9  1  0  0  0  0
  8 32  1  0  0  0  0
  8 33  1  0  0  0  0
  9 10  1  0  0  0  0
  9 34  1  0  0  0  0
 10 11  1  0  0  0  0
 10 35  1  0  0  0  0
 10 36  1  0  0  0  0
 11 15  1  0  0  0  0
 11 12  1  0  0  0  0
 11 13  1  0  0  0  0
 12 37  1  0  0  0  0
 13 14  1  0  0  0  0
 13 38  1  0  0  0  0
 13 39  1  0  0  0  0
 14 15  1  0  0  0  0
 14 40  1  0  0  0  0
 14 41  1  0  0  0  0
 15 42  1  0  0  0  0
 15 43  1  0  0  0  0
 16 17  2  0  0  0  0
 16 18  1  0  0  0  0
 18 21  1  0  0  0  0
 18 19  1  0  0  0  0
 19 20  2  0  0  0  0
M  END
> <s_m_source_file>
AV-unprocessed.smi

> <i_m_source_file_index>
4

> <i_lp_mmshare_version>
43012

> <i_f3d_flags>
0

> <s_epik_input>
W0NIM11DKFtDSDNdKShbQ0gzXSluMVtjSF1jKGMoPU8pW25IXWMxPU8pW0NIMl1bTkhdW0NIMl1DMihbT0hdKVtDSDJdW0NIMl1bQ0gyXTI=

> <s_epik_cmdline>
J2VwaWtfcHl0aG9uJywgJy1waCcsICc3LjAnLCAnLXRuJywgJzgnLCAnLW1hJywgJzIwMCcsICctbWV0YWxfYmluZGluZycsICctaW1hZScsICc8aW5maWxlLm1hZT4nLCAnLW9tYWUnLCAnPG91dGZpbGUubWFlPic=

> <r_lp_tautomer_probability>
0.999537

> <r_epik_Ionization_Penalty>
2.11381

> <r_epik_Ionization_Penalty_Charging>
0.000786845

> <r_epik_Ionization_Penalty_Neutral>
2.11303

> <r_epik_State_Penalty>
2.25008

> <r_epik_Charging_Adjusted_Penalty>
2.25087

> <i_epik_Tot_Q>
0

> <i_epik_Tot_abs_Q>
0

> <r_epik_Metal_State_Penalty>
2.75188

> <b_epik_Metal_Only>
0

> <s_lp_Force_Field>
OPLS_2005

> <r_lp_Energy>
31.2144

> <b_lp_Chiralities_Consistent>
1

> <s_lp_Variant>
AV-unprocessed.smi:4-2

> <Gold.Version>
5.8.1

> <Gold.Id.Protein>
6NUR|6NUR_protein|mol2

> <Gold.PLP.Fitness>
38.2284

> <Gold.PLP.PLP>
-28.6980

> <Gold.PLP.part.hbond>
-3.0000

> <Gold.PLP.part.metal>
0.0000

> <Gold.PLP.part.buried>
-3.8461

> <Gold.PLP.part.nonpolar>
-23.9584

> <Gold.PLP.part.repulsive>
0.8121

> <Gold.PLP.ligand.clash>
0.0000

> <Gold.PLP.ligand.torsion>
0.1328

> <Gold.PLP.Chemscore.Hbond>
2.4340

> <Gold.PLP.Chemscore.CHOScore>
0.7910

> <Gold.PLP.Chemscore.Metal>
0.0000

> <Gold.Chemscore.Hbonds>
donor molecule, donor type, donor heavy atom, donor atom, acceptor molecule, acceptor atom, score
      L1  H     9    34       P1  7948  1.00
      L1  H    12    37       P1  7948  0.94
      P1  H  6896  6907       L1    20  0.49
      L1  C     6    31       P1  7948  0.78

> <Gold.PLP.Chemscore.Internal.Correction>
0.1209

> <Gold.Rescore>
     Score         DG    S(hbond)    S(metal)    S(lipo)     H(rot)  DE(clash)    DE(int)     intcor
     11.26     -13.69       1.89        0.00      70.09       2.46       0.74       1.70       ----

> <Gold.Chemscore.Fitness>
11.2595

> <Gold.Chemscore.DG>
-13.6924

> <Gold.Chemscore.ZeroCoef>
-5.4800

> <Gold.Chemscore.Hbond>
1.8898

> <Gold.Chemscore.Metal>
0.0000

> <Gold.Chemscore.Lipo>
70.0934

> <Gold.Chemscore.Internal_Hbond>
0.0000

> <Gold.Chemscore.DEClash>
0.7361

> <Gold.Chemscore.DEInternal>
1.6968

> <Gold.Chemscore.Rot>
2.4612

> <Gold.Chemscore.Internal.Correction>
   9.000000E+99

> <Gold.Chemscore.Hbonds>
donor molecule, donor type, donor heavy atom, donor atom, acceptor molecule, acceptor atom, score
      L1  H     9    34       P1  7948  0.81
      L1  H    12    37       P1  7948  0.61
      P1  H  6896  6907       L1    20  0.43

> <Gold.Chemscore.Hbond.Weighted>
-6.3121

> <Gold.Chemscore.Metal.Weighted>
-0.0000

> <Gold.Chemscore.Lipo.Weighted>
-8.2009

> <Gold.Chemscore.Internal_Hbond.Weighted>
0.0000

> <Gold.Chemscore.DEClash.Weighted>
0.7361

> <Gold.Chemscore.DEInternal.Weighted>
1.6968

> <Gold.Chemscore.Rot.Weighted>
6.3006

> <Gold.Chemscore.Internal.Correction.Weighted>
   9.000000E+99

> <Gold.Protein.RotatedTorsions>
[ 6907 6896 6895 6894 ] final  -36.88 input  -60.11 | X-H torsion
[ 7974 7965 7964 7962 ] final   92.22 input  175.53 | X-H torsion
[ 8008 7997 7996 7995 ] final  -24.95 input   59.86 | X-H torsion
[ 10167 10162 10161 10158 ] final   83.08 input  -65.29 | X-H torsion
[ 10718 10713 10712 10709 ] final  -66.91 input   66.30 | X-H torsion
[ 10763 10752 10751 10750 ] final -164.80 input  -60.55 | X-H torsion
[ 11005 11000 10999 10996 ] final -165.06 input  -57.11 | X-H torsion

> <Gold.Protein.ActiveResidues>
 VAL166  LYS551  ARG553  GLY616  TRP617  ASP618  TYR619  PRO620  LYS621  CYS622 
 ASP623  PHE694  ASN695  SER759  ASP760  ASP761  ALA762  ILE779  LEU786  VAL792 
 PHE793  MET794  SER795  GLU796  ALA797  LYS798  CYS799  TRP800  GLU811  SER814 

> <Gold.Protein.RotatedAtoms>
  151.0216  134.9473  159.8062 H   0  0  0  0  0  0  0  0  0  0  0  0  # atno 6907 bound_to 6896
  152.5326  134.2896  159.9048 H   0  0  0  0  0  0  0  0  0  0  0  0  # atno 6908 bound_to 6896
  151.2903  133.4126  159.2667 H   0  0  0  0  0  0  0  0  0  0  0  0  # atno 6909 bound_to 6896
  145.4952  139.2276  143.2807 H   0  0  0  0  0  0  0  0  0  0  0  0  # atno 7974 bound_to 7965
  154.4502  140.1940  156.0543 H   0  0  0  0  0  0  0  0  0  0  0  0  # atno 8008 bound_to 7997
  156.0631  140.3294  155.7457 H   0  0  0  0  0  0  0  0  0  0  0  0  # atno 8009 bound_to 7997
  155.5381  140.0584  157.2866 H   0  0  0  0  0  0  0  0  0  0  0  0  # atno 8010 bound_to 7997
  139.9221  144.6206  150.8429 H   0  0  0  0  0  0  0  0  0  0  0  0  # atno 10167 bound_to 10162
  156.0586  130.4269  150.1778 H   0  0  0  0  0  0  0  0  0  0  0  0  # atno 10718 bound_to 10713
  154.6994  135.2985  154.9364 H   0  0  0  0  0  0  0  0  0  0  0  0  # atno 10763 bound_to 10752
  154.0301  135.6671  153.4784 H   0  0  0  0  0  0  0  0  0  0  0  0  # atno 10764 bound_to 10752
  153.0670  135.5082  154.8129 H   0  0  0  0  0  0  0  0  0  0  0  0  # atno 10765 bound_to 10752
  140.5800  134.5151  157.5177 H   0  0  0  0  0  0  0  0  0  0  0  0  # atno 11005 bound_to 11000
  146.2259  140.5749  142.8996 LP  0  0  0  0  0  0  0  0  0  0  0  0  # atno 17320 bound_to 7965
  144.7811  140.5842  143.6605 LP  0  0  0  0  0  0  0  0  0  0  0  0  # atno 17321 bound_to 7965
  140.7659  143.3289  151.2454 LP  0  0  0  0  0  0  0  0  0  0  0  0  # atno 17342 bound_to 10162
  139.6852  143.9785  152.2830 LP  0  0  0  0  0  0  0  0  0  0  0  0  # atno 17343 bound_to 10162
  156.9850  130.9876  151.3428 LP  0  0  0  0  0  0  0  0  0  0  0  0  # atno 17370 bound_to 10713
  157.5577  130.8224  149.8225 LP  0  0  0  0  0  0  0  0  0  0  0  0  # atno 17371 bound_to 10713
  139.9322  134.7943  156.0900 LP  0  0  0  0  0  0  0  0  0  0  0  0  # atno 17394 bound_to 11000
  141.1002  133.6680  156.2737 LP  0  0  0  0  0  0  0  0  0  0  0  0  # atno 17395 bound_to 11000

$$$$
