AV-unprocessed.smi:227|AV-procd|sdf|1738|dock6
  -GOLD-   2262020243D 1   1.00000     0.00000
 Structure written by MMmdl.
 54 58  0  0  0  0  0  0  0  0  1 V2000
  151.2484  145.6308  158.9677 O   0  0  0  0  0  0  0  0  0  0  0  0
  152.1341  144.7362  159.6096 C   0  0  0  0  0  0  0  0  0  0  0  0
  151.6801  143.2670  159.4307 C   0  0  1  0  0  0  0  0  0  0  0  0
  151.8130  142.8750  157.9322 C   0  0  0  0  0  0  0  0  0  0  0  0
  151.1063  141.6648  157.5522 N   0  0  0  0  0  0  0  0  0  0  0  0
  150.0078  141.5776  156.7284 C   0  0  0  0  0  0  0  0  0  0  0  0
  149.5475  140.3708  156.5451 N   0  0  0  0  0  0  0  0  0  0  0  0
  150.3796  139.5627  157.3119 C   0  0  0  0  0  0  0  0  0  0  0  0
  150.4508  138.1627  157.5712 C   0  0  0  0  0  0  0  0  0  0  0  0
  149.6062  137.2463  157.0234 N   0  0  0  0  0  0  0  0  0  0  0  0
  149.7079  135.8435  157.3920 C   0  0  1  0  0  0  0  0  0  0  0  0
  149.1086  135.7848  158.8109 C   0  0  0  0  0  0  0  0  0  0  0  0
  148.0026  136.8474  158.7140 C   0  0  0  0  0  0  0  0  0  0  0  0
  148.1690  137.3236  157.2543 C   0  0  2  0  0  0  0  0  0  0  0  0
  147.6111  136.2331  156.3129 C   0  0  1  0  0  0  0  0  0  0  0  0
  147.3680  136.7268  154.8750 C   0  0  0  0  0  0  0  0  0  0  0  0
  148.5486  137.2886  154.3422 O   0  0  0  0  0  0  0  0  0  0  0  0
  148.7350  135.1807  156.4027 C   0  0  0  0  0  0  0  0  0  0  0  0
  151.4080  137.7408  158.4403 N   0  0  0  0  0  0  0  0  0  0  0  0
  152.2553  138.6121  158.9942 C   0  0  0  0  0  0  0  0  0  0  0  0
  152.3190  139.9334  158.8271 N   0  0  0  0  0  0  0  0  0  0  0  0
  151.3517  140.3691  157.9713 C   0  0  0  0  0  0  0  0  0  0  0  0
  152.4534  142.3071  160.3849 C   0  0  1  0  0  0  0  0  0  0  0  0
  153.8848  141.9967  159.9707 C   0  0  0  0  0  0  0  0  0  0  0  0
  154.4922  141.4742  161.2634 C   0  0  0  0  0  0  0  0  0  0  0  0
  153.9280  142.2976  162.2702 O   0  0  0  0  0  0  0  0  0  0  0  0
  152.6882  142.8306  161.8137 C   0  0  0  0  0  0  0  0  0  0  0  0
  150.3837  145.5107  159.3293 H   0  0  0  0  0  0  0  0  0  0  0  0
  153.1422  144.8823  159.2202 H   0  0  0  0  0  0  0  0  0  0  0  0
  152.1512  145.0264  160.6591 H   0  0  0  0  0  0  0  0  0  0  0  0
  150.6261  143.2262  159.7090 H   0  0  0  0  0  0  0  0  0  0  0  0
  151.4332  143.6720  157.2927 H   0  0  0  0  0  0  0  0  0  0  0  0
  152.8660  142.7555  157.6739 H   0  0  0  0  0  0  0  0  0  0  0  0
  149.5628  142.4401  156.2539 H   0  0  0  0  0  0  0  0  0  0  0  0
  150.7038  135.4086  157.3309 H   0  0  0  0  0  0  0  0  0  0  0  0
  148.7264  134.7957  159.0657 H   0  0  0  0  0  0  0  0  0  0  0  0
  149.8488  136.0669  159.5609 H   0  0  0  0  0  0  0  0  0  0  0  0
  147.0091  136.4471  158.9182 H   0  0  0  0  0  0  0  0  0  0  0  0
  148.1869  137.6586  159.4192 H   0  0  0  0  0  0  0  0  0  0  0  0
  147.7280  138.3044  157.0728 H   0  0  0  0  0  0  0  0  0  0  0  0
  146.6784  135.8232  156.7037 H   0  0  0  0  0  0  0  0  0  0  0  0
  147.0319  135.9138  154.2306 H   0  0  0  0  0  0  0  0  0  0  0  0
  146.5903  137.4911  154.8643 H   0  0  0  0  0  0  0  0  0  0  0  0
  148.8369  136.7521  153.6197 H   0  0  0  0  0  0  0  0  0  0  0  0
  149.2191  135.0326  155.4364 H   0  0  0  0  0  0  0  0  0  0  0  0
  148.3789  134.2104  156.7503 H   0  0  0  0  0  0  0  0  0  0  0  0
  152.9879  138.1892  159.6654 H   0  0  0  0  0  0  0  0  0  0  0  0
  151.9161  141.3593  160.4468 H   0  0  0  0  0  0  0  0  0  0  0  0
  153.9523  141.2664  159.1638 H   0  0  0  0  0  0  0  0  0  0  0  0
  154.3996  142.9062  159.6575 H   0  0  0  0  0  0  0  0  0  0  0  0
  154.1907  140.4405  161.4385 H   0  0  0  0  0  0  0  0  0  0  0  0
  155.5813  141.5200  161.2688 H   0  0  0  0  0  0  0  0  0  0  0  0
  152.7651  143.9181  161.8320 H   0  0  0  0  0  0  0  0  0  0  0  0
  151.8903  142.5368  162.4941 H   0  0  0  0  0  0  0  0  0  0  0  0
  1  2  1  0  0  0  0
  1 28  1  0  0  0  0
  2  3  1  0  0  0  0
  2 29  1  0  0  0  0
  2 30  1  0  0  0  0
  3  4  1  0  0  0  0
  3 23  1  0  0  0  0
  3 31  1  0  0  0  0
  4  5  1  0  0  0  0
  4 32  1  0  0  0  0
  4 33  1  0  0  0  0
  5 22  1  0  0  0  0
  5  6  1  0  0  0  0
  6  7  2  0  0  0  0
  6 34  1  0  0  0  0
  7  8  1  0  0  0  0
  8 22  2  0  0  0  0
  8  9  1  0  0  0  0
  9 10  1  0  0  0  0
  9 19  2  0  0  0  0
 10 14  1  0  0  0  0
 10 11  1  0  0  0  0
 11 18  1  0  0  0  0
 11 12  1  0  0  0  0
 11 35  1  0  0  0  0
 12 13  1  0  0  0  0
 12 36  1  0  0  0  0
 12 37  1  0  0  0  0
 13 14  1  0  0  0  0
 13 38  1  0  0  0  0
 13 39  1  0  0  0  0
 14 15  1  0  0  0  0
 14 40  1  0  0  0  0
 15 16  1  0  0  0  0
 15 18  1  0  0  0  0
 15 41  1  0  0  0  0
 16 17  1  0  0  0  0
 16 42  1  0  0  0  0
 16 43  1  0  0  0  0
 17 44  1  0  0  0  0
 18 45  1  0  0  0  0
 18 46  1  0  0  0  0
 19 20  1  0  0  0  0
 20 21  2  0  0  0  0
 20 47  1  0  0  0  0
 21 22  1  0  0  0  0
 23 27  1  0  0  0  0
 23 24  1  0  0  0  0
 23 48  1  0  0  0  0
 24 25  1  0  0  0  0
 24 49  1  0  0  0  0
 24 50  1  0  0  0  0
 25 26  1  0  0  0  0
 25 51  1  0  0  0  0
 25 52  1  0  0  0  0
 26 27  1  0  0  0  0
 27 53  1  0  0  0  0
 27 54  1  0  0  0  0
M  END
> <s_m_source_file>
AV-unprocessed.smi

> <i_m_source_file_index>
227

> <i_lp_mmshare_version>
43012

> <i_f3d_flags>
0

> <s_epik_input>
W0NIMl0xT1tDSDJdW0NIMl1bQ0BIXTFbQ0BIXShbQ0gyXVtPSF0pW0NIMl1uKFtjSF1uMiljKGMyMyluW2NIXW5jM04oW0NASF00NSlbQ0BASF0oW0NIMl1bQ0gyXTQpW0NASF0oW0NIMl01KVtDSDJdW09IXQ==

> <s_epik_cmdline>
J2VwaWtfcHl0aG9uJywgJy1waCcsICc3LjAnLCAnLXRuJywgJzgnLCAnLW1hJywgJzIwMCcsICctbWV0YWxfYmluZGluZycsICctaW1hZScsICc8aW5maWxlLm1hZT4nLCAnLW9tYWUnLCAnPG91dGZpbGUubWFlPic=

> <r_lp_tautomer_probability>
1

> <r_epik_Ionization_Penalty>
0.0055791

> <r_epik_Ionization_Penalty_Charging>
0

> <r_epik_Ionization_Penalty_Neutral>
0.0055791

> <r_epik_State_Penalty>
0.00401299

> <r_epik_Charging_Adjusted_Penalty>
0.00401299

> <i_epik_Tot_Q>
0

> <i_epik_Tot_abs_Q>
0

> <r_epik_Metal_State_Penalty>
-0

> <b_epik_Metal_Only>
0

> <s_lp_Force_Field>
OPLS_2005

> <r_lp_Energy>
89.2194

> <b_lp_Chiralities_Consistent>
1

> <s_lp_Variant>
AV-unprocessed.smi:227-12

> <Gold.Version>
5.8.1

> <Gold.Id.Protein>
6NUR|6NUR_protein|mol2

> <Gold.PLP.Fitness>
44.6238

> <Gold.PLP.PLP>
-39.3392

> <Gold.PLP.part.hbond>
-2.5306

> <Gold.PLP.part.metal>
0.0000

> <Gold.PLP.part.buried>
-5.0949

> <Gold.PLP.part.nonpolar>
-31.1851

> <Gold.PLP.part.repulsive>
0.0616

> <Gold.PLP.ligand.clash>
0.0000

> <Gold.PLP.ligand.torsion>
0.4460

> <Gold.PLP.Chemscore.Hbond>
1.0000

> <Gold.PLP.Chemscore.CHOScore>
1.0000

> <Gold.PLP.Chemscore.Metal>
0.0000

> <Gold.Chemscore.Hbonds>
donor molecule, donor type, donor heavy atom, donor atom, acceptor molecule, acceptor atom, score
      L1  H    17    44       P1  7948  1.00
      L1  C     6    34       P1  8028  1.00

> <Gold.PLP.Chemscore.Internal.Correction>
0.1766

> <Gold.Rescore>
     Score         DG    S(hbond)    S(metal)    S(lipo)     H(rot)  DE(clash)    DE(int)     intcor
      9.13      -9.76       1.00        0.00      86.97       3.61       0.01       0.62       ----

> <Gold.Chemscore.Fitness>
9.1336

> <Gold.Chemscore.DG>
-9.7609

> <Gold.Chemscore.ZeroCoef>
-5.4800

> <Gold.Chemscore.Hbond>
0.9998

> <Gold.Chemscore.Metal>
0.0000

> <Gold.Chemscore.Lipo>
86.9707

> <Gold.Chemscore.Internal_Hbond>
0.0000

> <Gold.Chemscore.DEClash>
0.0075

> <Gold.Chemscore.DEInternal>
0.6198

> <Gold.Chemscore.Rot>
3.6071

> <Gold.Chemscore.Internal.Correction>
   9.000000E+99

> <Gold.Chemscore.Hbonds>
donor molecule, donor type, donor heavy atom, donor atom, acceptor molecule, acceptor atom, score
      L1  H    17    44       P1  7948  0.99

> <Gold.Chemscore.Hbond.Weighted>
-3.3395

> <Gold.Chemscore.Metal.Weighted>
-0.0000

> <Gold.Chemscore.Lipo.Weighted>
-10.1756

> <Gold.Chemscore.Internal_Hbond.Weighted>
0.0000

> <Gold.Chemscore.DEClash.Weighted>
0.0075

> <Gold.Chemscore.DEInternal.Weighted>
0.6198

> <Gold.Chemscore.Rot.Weighted>
9.2342

> <Gold.Chemscore.Internal.Correction.Weighted>
   9.000000E+99

> <Gold.Protein.RotatedTorsions>
[ 6907 6896 6895 6894 ] final  -20.36 input  -60.11 | X-H torsion
[ 7974 7965 7964 7962 ] final -130.48 input  175.53 | X-H torsion
[ 8008 7997 7996 7995 ] final  -96.40 input   59.86 | X-H torsion
[ 10167 10162 10161 10158 ] final    8.91 input  -65.29 | X-H torsion
[ 10718 10713 10712 10709 ] final   74.69 input   66.30 | X-H torsion
[ 10763 10752 10751 10750 ] final  135.99 input  -60.55 | X-H torsion
[ 11005 11000 10999 10996 ] final  149.58 input  -57.11 | X-H torsion

> <Gold.Protein.ActiveResidues>
 VAL166  LYS551  ARG553  GLY616  TRP617  ASP618  TYR619  PRO620  LYS621  CYS622 
 ASP623  PHE694  ASN695  SER759  ASP760  ASP761  ALA762  ILE779  LEU786  VAL792 
 PHE793  MET794  SER795  GLU796  ALA797  LYS798  CYS799  TRP800  GLU811  SER814 

> <Gold.Protein.RotatedAtoms>
  151.2493  135.0616  159.9055 H   0  0  0  0  0  0  0  0  0  0  0  0  # atno 6907 bound_to 6896
  152.5382  134.0349  159.8052 H   0  0  0  0  0  0  0  0  0  0  0  0  # atno 6908 bound_to 6896
  151.0555  133.5539  159.2670 H   0  0  0  0  0  0  0  0  0  0  0  0  # atno 6909 bound_to 6896
  144.9470  140.7303  143.4811 H   0  0  0  0  0  0  0  0  0  0  0  0  # atno 7974 bound_to 7965
  154.7740  140.0471  157.1074 H   0  0  0  0  0  0  0  0  0  0  0  0  # atno 8008 bound_to 7997
  154.9786  140.3098  155.4937 H   0  0  0  0  0  0  0  0  0  0  0  0  # atno 8009 bound_to 7997
  156.2926  140.2240  156.4883 H   0  0  0  0  0  0  0  0  0  0  0  0  # atno 8010 bound_to 7997
  140.6286  143.8045  150.7265 H   0  0  0  0  0  0  0  0  0  0  0  0  # atno 10167 bound_to 10162
  157.6603  130.9690  150.1246 H   0  0  0  0  0  0  0  0  0  0  0  0  # atno 10718 bound_to 10713
  153.8491  135.3081  155.3431 H   0  0  0  0  0  0  0  0  0  0  0  0  # atno 10763 bound_to 10752
  154.7899  135.4788  154.0032 H   0  0  0  0  0  0  0  0  0  0  0  0  # atno 10764 bound_to 10752
  153.1529  135.6846  153.8948 H   0  0  0  0  0  0  0  0  0  0  0  0  # atno 10765 bound_to 10752
  140.1057  134.8955  157.1862 H   0  0  0  0  0  0  0  0  0  0  0  0  # atno 11005 bound_to 11000
  145.2902  139.1886  143.4744 LP  0  0  0  0  0  0  0  0  0  0  0  0  # atno 17320 bound_to 7965
  146.3307  140.2878  142.8613 LP  0  0  0  0  0  0  0  0  0  0  0  0  # atno 17321 bound_to 7965
  140.1651  143.4242  152.2040 LP  0  0  0  0  0  0  0  0  0  0  0  0  # atno 17342 bound_to 10162
  139.5503  144.7332  151.4456 LP  0  0  0  0  0  0  0  0  0  0  0  0  # atno 17343 bound_to 10162
  156.2109  130.3666  149.8672 LP  0  0  0  0  0  0  0  0  0  0  0  0  # atno 17370 bound_to 10713
  156.6551  130.8759  151.3538 LP  0  0  0  0  0  0  0  0  0  0  0  0  # atno 17371 bound_to 10713
  140.3159  134.2971  155.7256 LP  0  0  0  0  0  0  0  0  0  0  0  0  # atno 17394 bound_to 11000
  141.2117  133.7679  156.9842 LP  0  0  0  0  0  0  0  0  0  0  0  0  # atno 17395 bound_to 11000

$$$$
