AV-unprocessed.smi:148|AV-procd|sdf|1215|dock3
  -GOLD-   2262018393D 1   1.00000     0.00000
 Structure written by MMmdl.
 63 67  0  0  0  0  0  0  0  0  1 V2000
  149.9163  134.4014  157.1459 O   0  0  0  0  0  0  0  0  0  0  0  0
  149.8367  133.4292  156.1243 C   0  0  0  0  0  0  0  0  0  0  0  0
  149.1378  134.0093  154.8724 C   0  0  1  0  0  0  0  0  0  0  0  0
  150.0243  135.0974  154.2163 C   0  0  0  0  0  0  0  0  0  0  0  0
  149.9102  136.3975  154.8537 N   0  0  0  0  0  0  0  0  0  0  0  0
  148.8911  136.8303  155.6715 C   0  0  0  0  0  0  0  0  0  0  0  0
  149.0246  138.0451  156.1291 N   0  0  0  0  0  0  0  0  0  0  0  0
  150.2198  138.4879  155.5749 C   0  0  0  0  0  0  0  0  0  0  0  0
  150.9655  139.6994  155.6475 C   0  0  0  0  0  0  0  0  0  0  0  0
  150.6121  140.7882  156.3690 N   0  0  0  0  0  0  0  0  0  0  0  0
  151.5232  140.9304  157.5057 C   0  0  0  0  0  0  0  0  0  0  0  0
  151.3212  142.2669  158.2309 C   0  0  0  0  0  0  0  0  0  0  0  0
  149.8570  142.4289  158.6503 C   0  0  0  0  0  0  0  0  0  0  0  0
  148.9494  142.3002  157.4207 C   0  0  0  0  0  0  0  0  0  0  0  0
  149.1795  140.9557  156.6777 C   0  0  1  0  0  0  0  0  0  0  0  0
  148.2487  140.7761  155.4358 C   0  0  1  0  0  0  0  0  0  0  0  0
  146.7467  140.7432  155.7919 C   0  0  0  0  0  0  0  0  0  0  0  0
  146.1231  141.9713  155.1277 C   0  0  0  0  0  0  0  0  0  0  0  0
  146.9648  142.1735  153.8726 C   0  0  0  0  0  0  0  0  0  0  0  0
  148.3900  141.8539  154.3310 C   0  0  2  0  0  0  0  0  0  0  0  0
  149.1712  141.4079  153.2418 O   0  0  0  0  0  0  0  0  0  0  0  0
  152.1394  139.7640  154.9717 N   0  0  0  0  0  0  0  0  0  0  0  0
  152.5520  138.7203  154.2459 C   0  0  0  0  0  0  0  0  0  0  0  0
  151.9600  137.5365  154.0740 N   0  0  0  0  0  0  0  0  0  0  0  0
  150.7884  137.4627  154.7682 C   0  0  0  0  0  0  0  0  0  0  0  0
  148.6783  132.9225  153.8603 C   0  0  2  0  0  0  0  0  0  0  0  0
  148.2051  133.4394  152.5007 C   0  0  0  0  0  0  0  0  0  0  0  0
  146.8924  132.6946  152.2523 C   0  0  0  0  0  0  0  0  0  0  0  0
  146.9612  131.5657  153.1091 O   0  0  0  0  0  0  0  0  0  0  0  0
  147.5324  132.0159  154.3255 C   0  0  0  0  0  0  0  0  0  0  0  0
  149.5338  135.2050  156.8278 H   0  0  0  0  0  0  0  0  0  0  0  0
  150.8441  133.0852  155.8888 H   0  0  0  0  0  0  0  0  0  0  0  0
  149.2971  132.5737  156.5280 H   0  0  0  0  0  0  0  0  0  0  0  0
  148.2251  134.5000  155.2150 H   0  0  0  0  0  0  0  0  0  0  0  0
  151.0746  134.8056  154.2476 H   0  0  0  0  0  0  0  0  0  0  0  0
  149.7667  135.2068  153.1621 H   0  0  0  0  0  0  0  0  0  0  0  0
  148.0448  136.2097  155.9280 H   0  0  0  0  0  0  0  0  0  0  0  0
  151.3599  140.1066  158.2025 H   0  0  0  0  0  0  0  0  0  0  0  0
  152.5582  140.8577  157.1677 H   0  0  0  0  0  0  0  0  0  0  0  0
  151.9708  142.3195  159.1049 H   0  0  0  0  0  0  0  0  0  0  0  0
  151.6116  143.0888  157.5751 H   0  0  0  0  0  0  0  0  0  0  0  0
  149.5944  141.6682  159.3867 H   0  0  0  0  0  0  0  0  0  0  0  0
  149.7072  143.3963  159.1302 H   0  0  0  0  0  0  0  0  0  0  0  0
  147.9125  142.3976  157.7396 H   0  0  0  0  0  0  0  0  0  0  0  0
  149.1448  143.1464  156.7638 H   0  0  0  0  0  0  0  0  0  0  0  0
  148.9177  140.1698  157.3863 H   0  0  0  0  0  0  0  0  0  0  0  0
  148.4510  139.8012  154.9906 H   0  0  0  0  0  0  0  0  0  0  0  0
  146.2978  139.8452  155.3647 H   0  0  0  0  0  0  0  0  0  0  0  0
  146.5485  140.7051  156.8630 H   0  0  0  0  0  0  0  0  0  0  0  0
  145.0637  141.8368  154.9067 H   0  0  0  0  0  0  0  0  0  0  0  0
  146.2218  142.8382  155.7825 H   0  0  0  0  0  0  0  0  0  0  0  0
  146.6419  141.4658  153.1068 H   0  0  0  0  0  0  0  0  0  0  0  0
  146.8720  143.1777  153.4584 H   0  0  0  0  0  0  0  0  0  0  0  0
  148.8456  142.7627  154.7192 H   0  0  0  0  0  0  0  0  0  0  0  0
  148.5995  140.9927  152.6132 H   0  0  0  0  0  0  0  0  0  0  0  0
  153.4923  138.8516  153.7311 H   0  0  0  0  0  0  0  0  0  0  0  0
  149.5244  132.2718  153.6374 H   0  0  0  0  0  0  0  0  0  0  0  0
  148.0639  134.5191  152.4604 H   0  0  0  0  0  0  0  0  0  0  0  0
  148.9377  133.1850  151.7334 H   0  0  0  0  0  0  0  0  0  0  0  0
  146.0398  133.3121  152.5395 H   0  0  0  0  0  0  0  0  0  0  0  0
  146.7656  132.4006  151.2101 H   0  0  0  0  0  0  0  0  0  0  0  0
  147.8787  131.1825  154.9370 H   0  0  0  0  0  0  0  0  0  0  0  0
  146.7734  132.5593  154.8885 H   0  0  0  0  0  0  0  0  0  0  0  0
  1  2  1  0  0  0  0
  1 31  1  0  0  0  0
  2  3  1  0  0  0  0
  2 32  1  0  0  0  0
  2 33  1  0  0  0  0
  3  4  1  0  0  0  0
  3 26  1  0  0  0  0
  3 34  1  0  0  0  0
  4  5  1  0  0  0  0
  4 35  1  0  0  0  0
  4 36  1  0  0  0  0
  5 25  1  0  0  0  0
  5  6  1  0  0  0  0
  6  7  2  0  0  0  0
  6 37  1  0  0  0  0
  7  8  1  0  0  0  0
  8 25  2  0  0  0  0
  8  9  1  0  0  0  0
  9 10  1  0  0  0  0
  9 22  2  0  0  0  0
 10 15  1  0  0  0  0
 10 11  1  0  0  0  0
 11 12  1  0  0  0  0
 11 38  1  0  0  0  0
 11 39  1  0  0  0  0
 12 13  1  0  0  0  0
 12 40  1  0  0  0  0
 12 41  1  0  0  0  0
 13 14  1  0  0  0  0
 13 42  1  0  0  0  0
 13 43  1  0  0  0  0
 14 15  1  0  0  0  0
 14 44  1  0  0  0  0
 14 45  1  0  0  0  0
 15 16  1  0  0  0  0
 15 46  1  0  0  0  0
 16 20  1  0  0  0  0
 16 17  1  0  0  0  0
 16 47  1  0  0  0  0
 17 18  1  0  0  0  0
 17 48  1  0  0  0  0
 17 49  1  0  0  0  0
 18 19  1  0  0  0  0
 18 50  1  0  0  0  0
 18 51  1  0  0  0  0
 19 20  1  0  0  0  0
 19 52  1  0  0  0  0
 19 53  1  0  0  0  0
 20 21  1  0  0  0  0
 20 54  1  0  0  0  0
 21 55  1  0  0  0  0
 22 23  1  0  0  0  0
 23 24  2  0  0  0  0
 23 56  1  0  0  0  0
 24 25  1  0  0  0  0
 26 30  1  0  0  0  0
 26 27  1  0  0  0  0
 26 57  1  0  0  0  0
 27 28  1  0  0  0  0
 27 58  1  0  0  0  0
 27 59  1  0  0  0  0
 28 29  1  0  0  0  0
 28 60  1  0  0  0  0
 28 61  1  0  0  0  0
 29 30  1  0  0  0  0
 30 62  1  0  0  0  0
 30 63  1  0  0  0  0
M  END
> <s_m_source_file>
AV-unprocessed.smi

> <i_m_source_file_index>
148

> <i_lp_mmshare_version>
43012

> <i_f3d_flags>
0

> <s_epik_input>
W0NIMl0xT1tDSDJdW0NIMl1bQ0BIXTFbQ0BIXShbQ0gyXVtPSF0pW0NIMl1uKFtjSF1uMiljKGMyMyluW2NIXW5jM040W0NIMl1bQ0gyXVtDSDJdW0NIMl1bQ0BIXTRbQ0BASF01W0NIMl1bQ0gyXVtDSDJdW0NASF01W09IXQ==

> <s_epik_cmdline>
J2VwaWtfcHl0aG9uJywgJy1waCcsICc3LjAnLCAnLXRuJywgJzgnLCAnLW1hJywgJzIwMCcsICctbWV0YWxfYmluZGluZycsICctaW1hZScsICc8aW5maWxlLm1hZT4nLCAnLW9tYWUnLCAnPG91dGZpbGUubWFlPic=

> <r_lp_tautomer_probability>
1

> <r_epik_Ionization_Penalty>
0.00556303

> <r_epik_Ionization_Penalty_Charging>
0

> <r_epik_Ionization_Penalty_Neutral>
0.00556303

> <r_epik_State_Penalty>
0.00401767

> <r_epik_Charging_Adjusted_Penalty>
0.00401767

> <i_epik_Tot_Q>
0

> <i_epik_Tot_abs_Q>
0

> <r_epik_Metal_State_Penalty>
-0

> <b_epik_Metal_Only>
0

> <s_lp_Force_Field>
OPLS_2005

> <r_lp_Energy>
68.8828

> <b_lp_Chiralities_Consistent>
1

> <s_lp_Variant>
AV-unprocessed.smi:148-14

> <Gold.Version>
5.8.1

> <Gold.Id.Protein>
6NUR|6NUR_protein|mol2

> <Gold.PLP.Fitness>
54.2424

> <Gold.PLP.PLP>
-45.2955

> <Gold.PLP.part.hbond>
-5.4084

> <Gold.PLP.part.metal>
0.0000

> <Gold.PLP.part.buried>
-6.8527

> <Gold.PLP.part.nonpolar>
-34.1914

> <Gold.PLP.part.repulsive>
0.3087

> <Gold.PLP.ligand.clash>
0.0000

> <Gold.PLP.ligand.torsion>
1.2402

> <Gold.PLP.Chemscore.Hbond>
3.6930

> <Gold.PLP.Chemscore.CHOScore>
0.0000

> <Gold.PLP.Chemscore.Metal>
0.0000

> <Gold.Chemscore.Hbonds>
donor molecule, donor type, donor heavy atom, donor atom, acceptor molecule, acceptor atom, score
      L1  H    21    55       P1  7957  0.26
      P1  H  6896  6908       L1     1  0.21
      P1  H  7989  7998       L1    22  0.65
      P1  H  8011  8017       L1    21  0.82
      P1  H 10752 10764       L1    24  0.77

> <Gold.PLP.Chemscore.Internal.Correction>
0.3483

> <Gold.Rescore>
     Score         DG    S(hbond)    S(metal)    S(lipo)     H(rot)  DE(clash)    DE(int)     intcor
     11.67     -16.54       2.82        0.00      86.75       3.32       0.11       4.76       ----

> <Gold.Chemscore.Fitness>
11.6737

> <Gold.Chemscore.DG>
-16.5366

> <Gold.Chemscore.ZeroCoef>
-5.4800

> <Gold.Chemscore.Hbond>
2.8163

> <Gold.Chemscore.Metal>
0.0000

> <Gold.Chemscore.Lipo>
86.7532

> <Gold.Chemscore.Internal_Hbond>
0.0000

> <Gold.Chemscore.DEClash>
0.1070

> <Gold.Chemscore.DEInternal>
4.7559

> <Gold.Chemscore.Rot>
3.3203

> <Gold.Chemscore.Internal.Correction>
   9.000000E+99

> <Gold.Chemscore.Hbonds>
donor molecule, donor type, donor heavy atom, donor atom, acceptor molecule, acceptor atom, score
      L1  H    21    55       P1  7957  0.25
      P1  H  6896  6908       L1     1  0.21
      P1  H  7989  7998       L1    22  0.03
      P1  H  8011  8017       L1    21  0.14
      P1  H 10752 10764       L1    24  0.60

> <Gold.Chemscore.Hbond.Weighted>
-9.4065

> <Gold.Chemscore.Metal.Weighted>
-0.0000

> <Gold.Chemscore.Lipo.Weighted>
-10.1501

> <Gold.Chemscore.Internal_Hbond.Weighted>
0.0000

> <Gold.Chemscore.DEClash.Weighted>
0.1070

> <Gold.Chemscore.DEInternal.Weighted>
4.7559

> <Gold.Chemscore.Rot.Weighted>
8.5000

> <Gold.Chemscore.Internal.Correction.Weighted>
   9.000000E+99

> <Gold.Protein.RotatedTorsions>
[ 6907 6896 6895 6894 ] final  128.83 input  -60.11 | X-H torsion
[ 7974 7965 7964 7962 ] final  117.92 input  175.53 | X-H torsion
[ 8008 7997 7996 7995 ] final   15.47 input   59.86 | X-H torsion
[ 10167 10162 10161 10158 ] final  -53.20 input  -65.29 | X-H torsion
[ 10718 10713 10712 10709 ] final  -37.00 input   66.30 | X-H torsion
[ 10763 10752 10751 10750 ] final  -89.75 input  -60.55 | X-H torsion
[ 11005 11000 10999 10996 ] final  -50.41 input  -57.11 | X-H torsion

> <Gold.Protein.ActiveResidues>
 VAL166  LYS551  ARG553  GLY616  TRP617  ASP618  TYR619  PRO620  LYS621  CYS622 
 ASP623  PHE694  ASN695  SER759  ASP760  ASP761  ALA762  ILE779  LEU786  VAL792 
 PHE793  MET794  SER795  GLU796  ALA797  LYS798  CYS799  TRP800  GLU811  SER814 

> <Gold.Protein.RotatedAtoms>
  152.3682  133.6384  159.6066 H   0  0  0  0  0  0  0  0  0  0  0  0  # atno 6907 bound_to 6896
  150.7649  133.9314  159.3437 H   0  0  0  0  0  0  0  0  0  0  0  0  # atno 6908 bound_to 6896
  151.7141  135.0908  160.0324 H   0  0  0  0  0  0  0  0  0  0  0  0  # atno 6909 bound_to 6896
  145.1615  139.3152  143.4515 H   0  0  0  0  0  0  0  0  0  0  0  0  # atno 7974 bound_to 7965
  154.8631  140.2947  155.5527 H   0  0  0  0  0  0  0  0  0  0  0  0  # atno 8008 bound_to 7997
  156.3020  140.2474  156.3541 H   0  0  0  0  0  0  0  0  0  0  0  0  # atno 8009 bound_to 7997
  154.8897  140.0395  157.1820 H   0  0  0  0  0  0  0  0  0  0  0  0  # atno 8010 bound_to 7997
  140.6497  143.2558  151.4757 H   0  0  0  0  0  0  0  0  0  0  0  0  # atno 10167 bound_to 10162
  156.3202  130.4264  149.7967 H   0  0  0  0  0  0  0  0  0  0  0  0  # atno 10718 bound_to 10713
  154.6586  135.5329  153.7989 H   0  0  0  0  0  0  0  0  0  0  0  0  # atno 10763 bound_to 10752
  153.0428  135.6500  154.0907 H   0  0  0  0  0  0  0  0  0  0  0  0  # atno 10764 bound_to 10752
  154.0818  135.2946  155.3269 H   0  0  0  0  0  0  0  0  0  0  0  0  # atno 10765 bound_to 10752
  141.0814  133.6652  156.3727 H   0  0  0  0  0  0  0  0  0  0  0  0  # atno 11005 bound_to 11000
  146.3482  140.1726  142.8589 LP  0  0  0  0  0  0  0  0  0  0  0  0  # atno 17320 bound_to 7965
  145.0326  140.8883  143.5100 LP  0  0  0  0  0  0  0  0  0  0  0  0  # atno 17321 bound_to 7965
  139.5711  144.1926  152.1838 LP  0  0  0  0  0  0  0  0  0  0  0  0  # atno 17342 bound_to 10162
  140.1222  144.5363  150.6855 LP  0  0  0  0  0  0  0  0  0  0  0  0  # atno 17343 bound_to 10162
  156.5278  130.8244  151.3226 LP  0  0  0  0  0  0  0  0  0  0  0  0  # atno 17370 bound_to 10713
  157.7410  130.9861  150.2416 LP  0  0  0  0  0  0  0  0  0  0  0  0  # atno 17371 bound_to 10713
  140.5459  134.6075  157.5394 LP  0  0  0  0  0  0  0  0  0  0  0  0  # atno 17394 bound_to 11000
  139.9629  134.7423  156.0200 LP  0  0  0  0  0  0  0  0  0  0  0  0  # atno 17395 bound_to 11000

$$$$
