AV-unprocessed.smi:1242|AV-procd|sdf|5216|dock5
  -GOLD-   22720 4313D 1   1.00000     0.00000
 Structure written by MMmdl.
 39 40  0  0  0  0  0  0  0  0  1 V2000
  148.7285  140.0935  156.0216 O   0  0  0  0  0  0  0  0  0  0  0  0
  149.1337  141.2532  155.9275 C   0  0  0  0  0  0  0  0  0  0  0  0
  150.6319  141.5631  155.7952 C   0  0  0  0  0  0  0  0  0  0  0  0
  151.3118  141.7701  157.0851 N   0  0  0  0  0  0  0  0  0  0  0  0
  151.0265  142.9647  157.7752 C   0  0  0  0  0  0  0  0  0  0  0  0
  151.5749  143.2725  158.9661 C   0  0  0  0  0  0  0  0  0  0  0  0
  151.2879  144.5963  159.6575 C   0  0  0  0  0  0  0  0  0  0  0  0
  151.8216  144.6276  160.8791 F   0  0  0  0  0  0  0  0  0  0  0  0
  151.7826  145.6185  158.9586 F   0  0  0  0  0  0  0  0  0  0  0  0
  149.9722  144.7719  159.7735 F   0  0  0  0  0  0  0  0  0  0  0  0
  152.5185  142.3145  159.5086 C   0  0  0  0  0  0  0  0  0  0  0  0
  152.8067  141.1697  158.8592 C   0  0  0  0  0  0  0  0  0  0  0  0
  152.1848  140.8391  157.5750 C   0  0  0  0  0  0  0  0  0  0  0  0
  152.4338  139.7923  156.9764 O   0  0  0  0  0  0  0  0  0  0  0  0
  148.3202  142.3200  155.9390 N   0  0  0  0  0  0  0  0  0  0  0  0
  146.8625  142.2874  156.0590 C   0  0  2  0  0  0  0  0  0  0  0  0
  146.4419  141.6474  157.4084 C   0  0  0  0  0  0  0  0  0  0  0  0
  145.0599  140.9611  157.4367 C   0  0  0  0  0  0  0  0  0  0  0  0
  143.8714  141.8397  156.9972 C   0  0  0  0  0  0  0  0  0  0  0  0
  143.9936  142.5294  155.6183 C   0  0  0  0  0  0  0  0  0  0  0  0
  144.8644  141.8298  154.6749 N   0  0  0  0  0  0  0  0  0  0  0  0
  146.1955  141.6922  154.8026 C   0  0  0  0  0  0  0  0  0  0  0  0
  146.8619  141.0952  153.9579 O   0  0  0  0  0  0  0  0  0  0  0  0
  151.1137  140.7541  155.2426 H   0  0  0  0  0  0  0  0  0  0  0  0
  150.7421  142.4435  155.1605 H   0  0  0  0  0  0  0  0  0  0  0  0
  150.3276  143.6185  157.2737 H   0  0  0  0  0  0  0  0  0  0  0  0
  153.0002  142.5154  160.4543 H   0  0  0  0  0  0  0  0  0  0  0  0
  153.5130  140.4781  159.2943 H   0  0  0  0  0  0  0  0  0  0  0  0
  148.7412  143.2353  155.8669 H   0  0  0  0  0  0  0  0  0  0  0  0
  146.5392  143.3288  156.0789 H   0  0  0  0  0  0  0  0  0  0  0  0
  147.1804  140.8981  157.6974 H   0  0  0  0  0  0  0  0  0  0  0  0
  146.4807  142.4100  158.1872 H   0  0  0  0  0  0  0  0  0  0  0  0
  145.0909  140.0622  156.8192 H   0  0  0  0  0  0  0  0  0  0  0  0
  144.8710  140.5999  158.4481 H   0  0  0  0  0  0  0  0  0  0  0  0
  142.9829  141.2075  156.9869 H   0  0  0  0  0  0  0  0  0  0  0  0
  143.6791  142.5994  157.7555 H   0  0  0  0  0  0  0  0  0  0  0  0
  143.0042  142.6224  155.1699 H   0  0  0  0  0  0  0  0  0  0  0  0
  144.3483  143.5531  155.7422 H   0  0  0  0  0  0  0  0  0  0  0  0
  144.4252  141.4288  153.8587 H   0  0  0  0  0  0  0  0  0  0  0  0
  1  2  2  0  0  0  0
  2  3  1  0  0  0  0
  2 15  1  0  0  0  0
  3  4  1  0  0  0  0
  3 24  1  0  0  0  0
  3 25  1  0  0  0  0
  4 13  1  0  0  0  0
  4  5  1  0  0  0  0
  5  6  2  0  0  0  0
  5 26  1  0  0  0  0
  6  7  1  0  0  0  0
  6 11  1  0  0  0  0
  7  8  1  0  0  0  0
  7  9  1  0  0  0  0
  7 10  1  0  0  0  0
 11 12  2  0  0  0  0
 11 27  1  0  0  0  0
 12 13  1  0  0  0  0
 12 28  1  0  0  0  0
 13 14  2  0  0  0  0
 15 16  1  0  0  0  0
 15 29  1  0  0  0  0
 16 22  1  0  0  0  0
 16 17  1  0  0  0  0
 16 30  1  0  0  0  0
 17 18  1  0  0  0  0
 17 31  1  0  0  0  0
 17 32  1  0  0  0  0
 18 19  1  0  0  0  0
 18 33  1  0  0  0  0
 18 34  1  0  0  0  0
 19 20  1  0  0  0  0
 19 35  1  0  0  0  0
 19 36  1  0  0  0  0
 20 21  1  0  0  0  0
 20 37  1  0  0  0  0
 20 38  1  0  0  0  0
 21 22  1  0  0  0  0
 21 39  1  0  0  0  0
 22 23  2  0  0  0  0
M  END
> <s_m_source_file>
AV-unprocessed.smi

> <i_m_source_file_index>
1242

> <i_lp_mmshare_version>
43012

> <i_f3d_flags>
0

> <s_epik_input>
Tz1jMVtjSF1bY0hdYyhDKEYpKEYpRilbY0hdbjFbQ0gyXUMoPU8pW05IXVtDQEBIXTJbQ0gyXVtDSDJdW0NIMl1bQ0gyXVtOSF1DMj1P

> <s_epik_cmdline>
J2VwaWtfcHl0aG9uJywgJy1waCcsICc3LjAnLCAnLXRuJywgJzgnLCAnLW1hJywgJzIwMCcsICctbWV0YWxfYmluZGluZycsICctaW1hZScsICc8aW5maWxlLm1hZT4nLCAnLW9tYWUnLCAnPG91dGZpbGUubWFlPic=

> <r_lp_tautomer_probability>
1

> <r_epik_Ionization_Penalty>
6.92876e-08

> <r_epik_Ionization_Penalty_Charging>
1.59659e-08

> <r_epik_Ionization_Penalty_Neutral>
5.33217e-08

> <r_epik_State_Penalty>
-0

> <r_epik_Charging_Adjusted_Penalty>
1.59659e-08

> <i_epik_Tot_Q>
0

> <i_epik_Tot_abs_Q>
0

> <r_epik_Metal_State_Penalty>
-0

> <b_epik_Metal_Only>
0

> <s_lp_Force_Field>
OPLS_2005

> <r_lp_Energy>
26.9049

> <b_lp_Chiralities_Consistent>
1

> <s_lp_Variant>
AV-unprocessed.smi:1242-1

> <Gold.Version>
5.8.1

> <Gold.Id.Protein>
6NUR|6NUR_protein|mol2

> <Gold.PLP.Fitness>
49.9073

> <Gold.PLP.PLP>
-39.4663

> <Gold.PLP.part.hbond>
-2.8466

> <Gold.PLP.part.metal>
0.0000

> <Gold.PLP.part.buried>
-4.4304

> <Gold.PLP.part.nonpolar>
-31.1611

> <Gold.PLP.part.repulsive>
0.2327

> <Gold.PLP.ligand.clash>
0.0000

> <Gold.PLP.ligand.torsion>
0.7460

> <Gold.PLP.Chemscore.Hbond>
2.9500

> <Gold.PLP.Chemscore.CHOScore>
1.0000

> <Gold.PLP.Chemscore.Metal>
0.0000

> <Gold.Chemscore.Hbonds>
donor molecule, donor type, donor heavy atom, donor atom, acceptor molecule, acceptor atom, score
      L1  H    15    29       P1  8028  0.93
      L1  H    21    39       P1 10175  0.95
      P1  H  7997  8010       L1    14  1.00
      L1  C     5    26       P1  8028  1.00

> <Gold.PLP.Chemscore.Internal.Correction>
0.0830

> <Gold.Rescore>
     Score         DG    S(hbond)    S(metal)    S(lipo)     H(rot)  DE(clash)    DE(int)     intcor
     13.98     -18.03       2.76        0.00      66.07       1.72       0.84       3.21       ----

> <Gold.Chemscore.Fitness>
13.9792

> <Gold.Chemscore.DG>
-18.0297

> <Gold.Chemscore.ZeroCoef>
-5.4800

> <Gold.Chemscore.Hbond>
2.7621

> <Gold.Chemscore.Metal>
0.0000

> <Gold.Chemscore.Lipo>
66.0734

> <Gold.Chemscore.Internal_Hbond>
0.0000

> <Gold.Chemscore.DEClash>
0.8396

> <Gold.Chemscore.DEInternal>
3.2109

> <Gold.Chemscore.Rot>
1.7212

> <Gold.Chemscore.Internal.Correction>
   9.000000E+99

> <Gold.Chemscore.Hbonds>
donor molecule, donor type, donor heavy atom, donor atom, acceptor molecule, acceptor atom, score
      L1  H    15    29       P1  8028  0.88
      L1  H    21    39       P1 10175  0.22
      P1  H  7997  8010       L1    14  0.25

> <Gold.Chemscore.Hbond.Weighted>
-9.2253

> <Gold.Chemscore.Metal.Weighted>
-0.0000

> <Gold.Chemscore.Lipo.Weighted>
-7.7306

> <Gold.Chemscore.Internal_Hbond.Weighted>
0.0000

> <Gold.Chemscore.DEClash.Weighted>
0.8396

> <Gold.Chemscore.DEInternal.Weighted>
3.2109

> <Gold.Chemscore.Rot.Weighted>
4.4062

> <Gold.Chemscore.Internal.Correction.Weighted>
   9.000000E+99

> <Gold.Protein.RotatedTorsions>
[ 6907 6896 6895 6894 ] final  145.25 input  -60.11 | X-H torsion
[ 7974 7965 7964 7962 ] final  108.47 input  175.53 | X-H torsion
[ 8008 7997 7996 7995 ] final   66.96 input   59.86 | X-H torsion
[ 10167 10162 10161 10158 ] final -168.51 input  -65.29 | X-H torsion
[ 10718 10713 10712 10709 ] final -115.68 input   66.30 | X-H torsion
[ 10763 10752 10751 10750 ] final  -54.36 input  -60.55 | X-H torsion
[ 11005 11000 10999 10996 ] final -113.19 input  -57.11 | X-H torsion

> <Gold.Protein.ActiveResidues>
 VAL166  LYS551  ARG553  GLY616  TRP617  ASP618  TYR619  PRO620  LYS621  CYS622 
 ASP623  PHE694  ASN695  SER759  ASP760  ASP761  ALA762  ILE779  LEU786  VAL792 
 PHE793  MET794  SER795  GLU796  ALA797  LYS798  CYS799  TRP800  GLU811  SER814 

> <Gold.Protein.RotatedAtoms>
  152.1832  133.4722  159.4968 H   0  0  0  0  0  0  0  0  0  0  0  0  # atno 6907 bound_to 6896
  150.6938  134.1806  159.4256 H   0  0  0  0  0  0  0  0  0  0  0  0  # atno 6908 bound_to 6896
  151.9718  135.0072  160.0604 H   0  0  0  0  0  0  0  0  0  0  0  0  # atno 6909 bound_to 6896
  145.2803  139.2635  143.3919 H   0  0  0  0  0  0  0  0  0  0  0  0  # atno 7974 bound_to 7965
  155.6855  140.3496  155.4872 H   0  0  0  0  0  0  0  0  0  0  0  0  # atno 8008 bound_to 7997
  155.9570  140.1130  157.0951 H   0  0  0  0  0  0  0  0  0  0  0  0  # atno 8009 bound_to 7997
  154.4134  140.1183  156.5114 H   0  0  0  0  0  0  0  0  0  0  0  0  # atno 8010 bound_to 7997
  139.5980  144.1070  152.1711 H   0  0  0  0  0  0  0  0  0  0  0  0  # atno 10167 bound_to 10162
  156.0912  130.6094  150.8938 H   0  0  0  0  0  0  0  0  0  0  0  0  # atno 10718 bound_to 10713
  154.1736  135.6455  153.5016 H   0  0  0  0  0  0  0  0  0  0  0  0  # atno 10763 bound_to 10752
  153.0078  135.5389  154.6587 H   0  0  0  0  0  0  0  0  0  0  0  0  # atno 10764 bound_to 10752
  154.5933  135.2936  155.0585 H   0  0  0  0  0  0  0  0  0  0  0  0  # atno 10765 bound_to 10752
  141.0629  133.9505  157.2632 H   0  0  0  0  0  0  0  0  0  0  0  0  # atno 11005 bound_to 11000
  146.3218  140.3269  142.8637 LP  0  0  0  0  0  0  0  0  0  0  0  0  # atno 17320 bound_to 7965
  144.9259  140.7920  143.5719 LP  0  0  0  0  0  0  0  0  0  0  0  0  # atno 17321 bound_to 7965
  140.0660  144.5818  150.7227 LP  0  0  0  0  0  0  0  0  0  0  0  0  # atno 17342 bound_to 10162
  140.7227  143.2605  151.4223 LP  0  0  0  0  0  0  0  0  0  0  0  0  # atno 17343 bound_to 10162
  157.6061  131.0939  150.8876 LP  0  0  0  0  0  0  0  0  0  0  0  0  # atno 17370 bound_to 10713
  156.9024  130.5251  149.5282 LP  0  0  0  0  0  0  0  0  0  0  0  0  # atno 17371 bound_to 10713
  139.9449  135.0185  156.8823 LP  0  0  0  0  0  0  0  0  0  0  0  0  # atno 17394 bound_to 11000
  140.5831  134.0333  155.7471 LP  0  0  0  0  0  0  0  0  0  0  0  0  # atno 17395 bound_to 11000

$$$$
