#       Name:                AV-unprocessed.smi:2069
#       Creating user name   scv26
#       Creation time:       Fri Mar 27 11:13:11 2020


#       File generated by GOLD software.
#

@<TRIPOS>MOLECULE
AV-unprocessed.smi:2069
    45    46     1
SMALL
NO_CHARGES


@<TRIPOS>ATOM
      1 ****        -7.4623   2.5520  -0.8731 C.3            1 S1                 0.0000
      2 ****        -6.0499   2.0765  -0.8894 C.2            1 S1                 0.0000
      3 ****        -5.0060   2.9070  -0.7787 N.2            1 S1                 0.0000
      4 ****        -3.7925   2.2345  -0.8146 N.2            1 S1                 0.0000
      5 ****        -3.9582   0.9117  -0.9502 C.2            1 S1                 0.0000
      6 ****        -2.8846  -0.0159  -1.0084 N.am           1 S1                 0.0000
      7 ****        -1.5647   0.2342  -0.9541 C.2            1 S1                 0.0000
      8 ****        -1.0521   1.3501  -0.8629 O.2            1 S1                 0.0000
      9 ****        -0.8514  -0.8996  -1.0086 N.am           1 S1                 0.0000
     10 ****         0.6061  -0.9675  -0.9572 C.3            1 S1                 0.0000
     11 ****         1.1757  -0.7434   0.4692 C.3            1 S1                 0.0000
     12 ****         0.5848  -1.7876   1.4478 C.3            1 S1                 0.0000
     13 ****         2.6747  -0.7372   0.4331 N.4            1 S1                 1.0000
     14 ****         3.2255   0.5339  -0.1123 C.3            1 S1                 0.0000
     15 ****         4.7567   0.4687  -0.2285 C.3            1 S1                 0.0000
     16 ****         5.3156   0.1984   1.0483 O.3            1 S1                 0.0000
     17 ****         4.8833  -1.0570   1.5513 C.3            1 S1                 0.0000
     18 ****         3.3538  -1.0582   1.7189 C.3            1 S1                 0.0000
     19 ****        -5.6268   0.3759  -1.0465 S.3            1 S1                 0.0000
     20 ****        -7.5324   3.5516  -1.3032 H              1 S1                 0.0000
     21 ****        -7.8320   2.5834   0.1519 H              1 S1                 0.0000
     22 ****        -8.0933   1.8789  -1.4535 H              1 S1                 0.0000
     23 ****        -3.1553  -0.9847  -1.0922 H              1 S1                 0.0000
     24 ****        -1.3484  -1.7750  -1.0859 H              1 S1                 0.0000
     25 ****         0.9068  -1.9501  -1.3220 H              1 S1                 0.0000
     26 ****         1.0013  -0.2488  -1.6741 H              1 S1                 0.0000
     27 ****         0.8559   0.2362   0.8284 H              1 S1                 0.0000
     28 ****        -0.5048  -1.7864   1.4302 H              1 S1                 0.0000
     29 ****         0.8610  -1.5815   2.4819 H              1 S1                 0.0000
     30 ****         0.9132  -2.7975   1.1999 H              1 S1                 0.0000
     31 ****         2.8136   0.7551  -1.0951 H              1 S1                 0.0000
     32 ****         2.9424   1.3623   0.5391 H              1 S1                 0.0000
     33 ****         5.0638  -0.2932  -0.9470 H              1 S1                 0.0000
     34 ****         5.1461   1.4212  -0.5886 H              1 S1                 0.0000
     35 ****         5.2014  -1.8591   0.8830 H              1 S1                 0.0000
     36 ****         5.3655  -1.2358   2.5125 H              1 S1                 0.0000
     37 ****         3.0591  -0.3349   2.4810 H              1 S1                 0.0000
     38 ****         3.0664  -2.0468   2.0753 H              1 S1                 0.0000
     39 ****         2.9425  -1.4717  -0.2062 H              1 S1                 0.0000
     40 ****        -5.0908   3.8986  -0.6813 LP             1 S1                 0.0000
     41 ****        -2.9014   2.6833  -0.7473 LP             1 S1                 0.0000
     42 ****        -1.6310   2.1645  -0.8231 LP             1 S1                 0.0000
     43 ****        -0.0569   1.4419  -0.8286 LP             1 S1                 0.0000
     44 ****         5.0351   0.9172   1.6844 LP             1 S1                 0.0000
     45 ****         6.3126   0.1917   0.9716 LP             1 S1                 0.0000
@<TRIPOS>BOND
    1    1    2 1     
    2    1   20 1     
    3    1   21 1     
    4    1   22 1     
    5    2   19 1     
    6    2    3 2     
    7    3    4 1     
    8    4    5 2     
    9    5    6 1     
   10    5   19 1     
   11    6    7 am    
   12    6   23 1     
   13    7    8 2     
   14    7    9 am    
   15    9   10 1     
   16    9   24 1     
   17   10   11 1     
   18   10   25 1     
   19   10   26 1     
   20   11   12 1     
   21   11   13 1     
   22   11   27 1     
   23   12   28 1     
   24   12   29 1     
   25   12   30 1     
   26   13   18 1     
   27   13   14 1     
   28   13   39 1     
   29   14   15 1     
   30   14   31 1     
   31   14   32 1     
   32   15   16 1     
   33   15   33 1     
   34   15   34 1     
   35   16   17 1     
   36   17   18 1     
   37   17   35 1     
   38   17   36 1     
   39   18   37 1     
   40   18   38 1     
   41    3   40 1     
   42    4   41 1     
   43    8   42 1     
   44    8   43 1     
   45   16   44 1     
   46   16   45 1     
@<TRIPOS>SUBSTRUCTURE
      1 S1             1
@<TRIPOS>SET
LONE_PAIRS      STATIC     ATOMS    <user>   **** ""
6 40 41 42 43 44 45
DONOR_HYDROGENS      STATIC     ATOMS    <user>   **** ""
3 23 24 39
ATOM$BLUE        STATIC     ATOMS    COLORGROUP SYSTEM
6 40 41 42 43 44 45
ATOM$RED        STATIC     ATOMS    COLORGROUP SYSTEM
3 23 24 39
