AV-unprocessed.smi:2061|AV-procd|sdf|8387|dock3
  -GOLD-   2272011 63D 1   1.00000     0.00000
 Structure written by MMmdl.
 45 46  0  0  0  0  0  0  0  0  3 V2000
  145.4960  135.2687  162.6489 C   0  0  0  0  0  0  0  0  0  0  0  0
  146.5860  135.7923  161.7772 C   0  0  0  0  0  0  0  0  0  0  0  0
  147.8837  135.4109  161.5847 C   0  0  0  0  0  0  0  0  0  0  0  0
  148.3570  136.3435  160.6215 C   0  0  0  0  0  0  0  0  0  0  0  0
  149.5885  136.3741  160.0888 N   0  5  0  0  0  0  0  0  0  0  0  0
  149.8810  137.2431  159.0948 C   0  0  0  0  0  0  0  0  0  0  0  0
  150.7107  138.1543  159.1361 O   0  0  0  0  0  0  0  0  0  0  0  0
  149.1651  137.0429  157.9808 N   0  0  0  0  0  0  0  0  0  0  0  0
  149.2610  137.8353  156.7600 C   0  0  0  0  0  0  0  0  0  0  0  0
  149.0127  136.9836  155.4877 C   0  0  1  0  0  0  0  0  0  0  0  0
  147.5126  136.6149  155.3795 C   0  0  0  0  0  0  0  0  0  0  0  0
  149.4892  137.6689  154.2363 N   0  3  1  0  0  0  0  0  0  0  0  0
  148.8307  138.9609  153.9010 C   0  0  0  0  0  0  0  0  0  0  0  0
  149.3111  140.0882  154.8387 C   0  0  2  0  0  0  0  0  0  0  0  0
  148.6824  141.4399  154.4846 C   0  0  0  0  0  0  0  0  0  0  0  0
  150.7249  140.2133  154.7129 O   0  0  0  0  0  0  0  0  0  0  0  0
  151.4287  139.0247  155.0622 C   0  0  2  0  0  0  0  0  0  0  0  0
  152.9288  139.3021  154.9148 C   0  0  0  0  0  0  0  0  0  0  0  0
  150.9618  137.8707  154.1474 C   0  0  0  0  0  0  0  0  0  0  0  0
  147.4241  137.2040  160.2501 N   0  0  0  0  0  0  0  0  0  0  0  0
  146.2872  136.8620  160.9918 O   0  0  0  0  0  0  0  0  0  0  0  0
  145.3377  134.2049  162.4716 H   0  0  0  0  0  0  0  0  0  0  0  0
  144.5555  135.7857  162.4572 H   0  0  0  0  0  0  0  0  0  0  0  0
  145.7469  135.4029  163.7013 H   0  0  0  0  0  0  0  0  0  0  0  0
  148.4116  134.5972  162.0589 H   0  0  0  0  0  0  0  0  0  0  0  0
  148.4971  136.2860  157.9892 H   0  0  0  0  0  0  0  0  0  0  0  0
  148.5529  138.6650  156.7965 H   0  0  0  0  0  0  0  0  0  0  0  0
  150.2648  138.2581  156.7674 H   0  0  0  0  0  0  0  0  0  0  0  0
  149.5711  136.0563  155.6127 H   0  0  0  0  0  0  0  0  0  0  0  0
  147.1256  136.1845  156.3026 H   0  0  0  0  0  0  0  0  0  0  0  0
  147.3208  135.8630  154.6162 H   0  0  0  0  0  0  0  0  0  0  0  0
  146.9063  137.4921  155.1520 H   0  0  0  0  0  0  0  0  0  0  0  0
  149.1022  139.2175  152.8758 H   0  0  0  0  0  0  0  0  0  0  0  0
  147.7456  138.8868  153.8811 H   0  0  0  0  0  0  0  0  0  0  0  0
  149.0587  139.8546  155.8739 H   0  0  0  0  0  0  0  0  0  0  0  0
  147.5963  141.4023  154.5730 H   0  0  0  0  0  0  0  0  0  0  0  0
  148.9258  141.7346  153.4633 H   0  0  0  0  0  0  0  0  0  0  0  0
  149.0424  142.2234  155.1518 H   0  0  0  0  0  0  0  0  0  0  0  0
  151.2305  138.7859  156.1077 H   0  0  0  0  0  0  0  0  0  0  0  0
  153.5182  138.4259  155.1858 H   0  0  0  0  0  0  0  0  0  0  0  0
  153.2389  140.1229  155.5620 H   0  0  0  0  0  0  0  0  0  0  0  0
  153.1828  139.5725  153.8894 H   0  0  0  0  0  0  0  0  0  0  0  0
  151.5204  136.9602  154.3511 H   0  0  0  0  0  0  0  0  0  0  0  0
  151.2026  138.1196  153.1127 H   0  0  0  0  0  0  0  0  0  0  0  0
  149.2450  137.0356  153.4881 H   0  0  0  0  0  0  0  0  0  0  0  0
  1  2  1  0  0  0  0
  1 22  1  0  0  0  0
  1 23  1  0  0  0  0
  1 24  1  0  0  0  0
  2 21  1  0  0  0  0
  2  3  2  0  0  0  0
  3  4  1  0  0  0  0
  3 25  1  0  0  0  0
  4  5  1  0  0  0  0
  4 20  2  0  0  0  0
  5  6  1  0  0  0  0
  6  7  2  0  0  0  0
  6  8  1  0  0  0  0
  8  9  1  0  0  0  0
  8 26  1  0  0  0  0
  9 10  1  0  0  0  0
  9 27  1  0  0  0  0
  9 28  1  0  0  0  0
 10 11  1  0  0  0  0
 10 12  1  0  0  0  0
 10 29  1  0  0  0  0
 11 30  1  0  0  0  0
 11 31  1  0  0  0  0
 11 32  1  0  0  0  0
 12 19  1  0  0  0  0
 12 13  1  0  0  0  0
 12 45  1  0  0  0  0
 13 14  1  0  0  0  0
 13 33  1  0  0  0  0
 13 34  1  0  0  0  0
 14 15  1  0  0  0  0
 14 16  1  0  0  0  0
 14 35  1  0  0  0  0
 15 36  1  0  0  0  0
 15 37  1  0  0  0  0
 15 38  1  0  0  0  0
 16 17  1  0  0  0  0
 17 18  1  0  0  0  0
 17 19  1  0  0  0  0
 17 39  1  0  0  0  0
 18 40  1  0  0  0  0
 18 41  1  0  0  0  0
 18 42  1  0  0  0  0
 19 43  1  0  0  0  0
 19 44  1  0  0  0  0
 20 21  1  0  0  0  0
M  CHG  1   5  -1
M  CHG  1  12   1
M  END
> <s_m_source_file>
AV-unprocessed.smi

> <i_m_source_file_index>
2061

> <i_lp_mmshare_version>
43012

> <i_f3d_flags>
0

> <s_epik_input>
W0NIM11jMVtjSF1jKG5vMSlbTkhdQyg9TylbTkhdW0NIMl1bQ0BIXShbQ0gzXSlOMltDSDJdW0NAQEhdKFtDSDNdKU9bQ0BASF0oW0NIM10pW0NIMl0y

> <s_epik_cmdline>
J2VwaWtfcHl0aG9uJywgJy1waCcsICc3LjAnLCAnLXRuJywgJzgnLCAnLW1hJywgJzIwMCcsICctbWV0YWxfYmluZGluZycsICctaW1hZScsICc8aW5maWxlLm1hZT4nLCAnLW9tYWUnLCAnPG91dGZpbGUubWFlPic=

> <r_epik_Ionization_Penalty>
6.73511

> <r_epik_Ionization_Penalty_Charging>
6.73502

> <r_epik_Ionization_Penalty_Neutral>
9.50841e-05

> <r_epik_State_Penalty>
6.93549

> <r_epik_Charging_Adjusted_Penalty>
13.6705

> <i_epik_Tot_Q>
0

> <i_epik_Tot_abs_Q>
2

> <r_epik_Metal_State_Penalty>
2.87211

> <b_epik_Metal_Only>
1

> <s_lp_Force_Field>
OPLS_2005

> <r_lp_Energy>
11.5912

> <b_lp_Chiralities_Consistent>
1

> <s_lp_Variant>
AV-unprocessed.smi:2061-28

> <Gold.Version>
5.8.1

> <Gold.Id.Protein>
6NUR|6NUR_protein|mol2

> <Gold.PLP.Fitness>
44.3201

> <Gold.PLP.PLP>
-31.0216

> <Gold.PLP.part.hbond>
-4.2017

> <Gold.PLP.part.metal>
0.0000

> <Gold.PLP.part.buried>
-0.5418

> <Gold.PLP.part.nonpolar>
-26.3416

> <Gold.PLP.part.repulsive>
0.1573

> <Gold.PLP.ligand.clash>
1.3021

> <Gold.PLP.ligand.torsion>
0.9129

> <Gold.PLP.Chemscore.Hbond>
5.4500

> <Gold.PLP.Chemscore.CHOScore>
0.0000

> <Gold.PLP.Chemscore.Metal>
0.0000

> <Gold.Chemscore.Hbonds>
donor molecule, donor type, donor heavy atom, donor atom, acceptor molecule, acceptor atom, score
      L1  H    12    45       P1  7948  2.00
      P1  H  6896  6907       L1     5  2.00
      P1  H  6934  6947       L1    20  0.35
      P1  H  7989  7998       L1    16  1.00

> <Gold.PLP.Chemscore.Internal.Correction>
0.0764

> <Gold.Rescore>
     Score         DG    S(hbond)    S(metal)    S(lipo)     H(rot)  DE(clash)    DE(int)     intcor
     13.66     -18.56       2.46        0.00      75.57       1.56       0.47       4.43       ----

> <Gold.Chemscore.Fitness>
13.6646

> <Gold.Chemscore.DG>
-18.5642

> <Gold.Chemscore.ZeroCoef>
-5.4800

> <Gold.Chemscore.Hbond>
2.4620

> <Gold.Chemscore.Metal>
0.0000

> <Gold.Chemscore.Lipo>
75.5734

> <Gold.Chemscore.Internal_Hbond>
0.0000

> <Gold.Chemscore.DEClash>
0.4656

> <Gold.Chemscore.DEInternal>
4.4340

> <Gold.Chemscore.Rot>
1.5550

> <Gold.Chemscore.Internal.Correction>
   9.000000E+99

> <Gold.Chemscore.Hbonds>
donor molecule, donor type, donor heavy atom, donor atom, acceptor molecule, acceptor atom, score
      L1  H    12    45       P1  7948  0.98
      P1  H  6896  6907       L1     5  0.37
      P1  H  6934  6947       L1    20  0.01
      P1  H  7989  7998       L1    16  0.45

> <Gold.Chemscore.Hbond.Weighted>
-8.2230

> <Gold.Chemscore.Metal.Weighted>
-0.0000

> <Gold.Chemscore.Lipo.Weighted>
-8.8421

> <Gold.Chemscore.Internal_Hbond.Weighted>
0.0000

> <Gold.Chemscore.DEClash.Weighted>
0.4656

> <Gold.Chemscore.DEInternal.Weighted>
4.4340

> <Gold.Chemscore.Rot.Weighted>
3.9809

> <Gold.Chemscore.Internal.Correction.Weighted>
   9.000000E+99

> <Gold.Protein.RotatedTorsions>
[ 6907 6896 6895 6894 ] final  -53.63 input  -60.11 | X-H torsion
[ 7974 7965 7964 7962 ] final  100.32 input  175.53 | X-H torsion
[ 8008 7997 7996 7995 ] final   93.46 input   59.86 | X-H torsion
[ 10167 10162 10161 10158 ] final  -49.33 input  -65.29 | X-H torsion
[ 10718 10713 10712 10709 ] final -136.30 input   66.30 | X-H torsion
[ 10763 10752 10751 10750 ] final -176.18 input  -60.55 | X-H torsion
[ 11005 11000 10999 10996 ] final -121.97 input  -57.11 | X-H torsion

> <Gold.Protein.ActiveResidues>
 VAL166  LYS551  ARG553  GLY616  TRP617  ASP618  TYR619  PRO620  LYS621  CYS622 
 ASP623  PHE694  ASN695  SER759  ASP760  ASP761  ALA762  ILE779  LEU786  VAL792 
 PHE793  MET794  SER795  GLU796  ALA797  LYS798  CYS799  TRP800  GLU811  SER814 

> <Gold.Protein.RotatedAtoms>
  150.8409  134.7701  159.6931 H   0  0  0  0  0  0  0  0  0  0  0  0  # atno 6907 bound_to 6896
  152.4497  134.5417  159.9851 H   0  0  0  0  0  0  0  0  0  0  0  0  # atno 6908 bound_to 6896
  151.5557  133.3373  159.2997 H   0  0  0  0  0  0  0  0  0  0  0  0  # atno 6909 bound_to 6896
  145.3871  139.2369  143.3372 H   0  0  0  0  0  0  0  0  0  0  0  0  # atno 7974 bound_to 7965
  156.0470  140.3312  155.7307 H   0  0  0  0  0  0  0  0  0  0  0  0  # atno 8008 bound_to 7997
  155.5659  140.0623  157.2835 H   0  0  0  0  0  0  0  0  0  0  0  0  # atno 8009 bound_to 7997
  154.4418  140.1869  156.0818 H   0  0  0  0  0  0  0  0  0  0  0  0  # atno 8010 bound_to 7997
  140.6690  143.2702  151.4200 H   0  0  0  0  0  0  0  0  0  0  0  0  # atno 10167 bound_to 10162
  156.2755  130.7290  151.1271 H   0  0  0  0  0  0  0  0  0  0  0  0  # atno 10718 bound_to 10713
  154.5755  135.2831  155.0785 H   0  0  0  0  0  0  0  0  0  0  0  0  # atno 10763 bound_to 10752
  154.2141  135.6402  153.5128 H   0  0  0  0  0  0  0  0  0  0  0  0  # atno 10764 bound_to 10752
  153.0071  135.5499  154.6392 H   0  0  0  0  0  0  0  0  0  0  0  0  # atno 10765 bound_to 10752
  141.0030  134.0375  157.3513 H   0  0  0  0  0  0  0  0  0  0  0  0  # atno 11005 bound_to 11000
  146.2815  140.4548  142.8774 LP  0  0  0  0  0  0  0  0  0  0  0  0  # atno 17320 bound_to 7965
  144.8466  140.6939  143.6195 LP  0  0  0  0  0  0  0  0  0  0  0  0  # atno 17321 bound_to 7965
  139.5950  144.1417  152.2133 LP  0  0  0  0  0  0  0  0  0  0  0  0  # atno 17342 bound_to 10162
  140.0783  144.5722  150.7141 LP  0  0  0  0  0  0  0  0  0  0  0  0  # atno 17343 bound_to 10162
  157.7298  131.0621  150.5757 LP  0  0  0  0  0  0  0  0  0  0  0  0  # atno 17370 bound_to 10713
  156.5858  130.4316  149.5958 LP  0  0  0  0  0  0  0  0  0  0  0  0  # atno 17371 bound_to 10713
  139.9049  135.0176  156.7438 LP  0  0  0  0  0  0  0  0  0  0  0  0  # atno 17394 bound_to 11000
  140.6858  133.9434  155.7937 LP  0  0  0  0  0  0  0  0  0  0  0  0  # atno 17395 bound_to 11000

$$$$
