AV-unprocessed.smi:261|AV-procd|sdf|1994|dock2
  -GOLD-   2262021183D 1   1.00000     0.00000
 Structure written by MMmdl.
 51 54  0  0  0  0  0  0  0  0  1 V2000
  147.3979  133.1795  153.7695 C   0  0  0  0  0  0  0  0  0  0  0  0
  148.0577  133.3896  155.0075 O   0  0  0  0  0  0  0  0  0  0  0  0
  149.4761  133.4215  154.9066 C   0  0  2  0  0  0  0  0  0  0  0  0
  150.1496  133.4722  156.2847 C   0  0  0  0  0  0  0  0  0  0  0  0
  150.1377  134.9580  156.6798 C   0  0  2  0  0  0  0  0  0  0  0  0
  148.8788  135.3194  157.4975 C   0  0  0  0  0  0  0  0  0  0  0  0
  147.6810  135.2435  156.9077 N   0  0  0  0  0  0  0  0  0  0  0  0
  148.9962  135.6795  158.6666 O   0  0  0  0  0  0  0  0  0  0  0  0
  150.2340  135.6373  155.3869 N   0  0  0  0  0  0  0  0  0  0  0  0
  150.6502  136.9207  155.1969 C   0  0  0  0  0  0  0  0  0  0  0  0
  151.5548  137.1525  154.2086 N   0  0  0  0  0  0  0  0  0  0  0  0
  152.0010  138.3867  153.9633 C   0  0  0  0  0  0  0  0  0  0  0  0
  151.6797  139.5248  154.5773 N   0  0  0  0  0  0  0  0  0  0  0  0
  150.7745  139.3089  155.5729 C   0  0  0  0  0  0  0  0  0  0  0  0
  150.2110  138.0537  155.9490 C   0  0  0  0  0  0  0  0  0  0  0  0
  149.3271  138.2476  157.0058 N   0  0  0  0  0  0  0  0  0  0  0  0
  149.3634  139.5303  157.2360 C   0  0  0  0  0  0  0  0  0  0  0  0
  150.2139  140.2440  156.4249 N   0  0  0  0  0  0  0  0  0  0  0  0
  150.4514  141.6786  156.4652 C   0  0  0  0  0  0  0  0  0  0  0  0
  150.2442  142.3065  157.8617 C   0  0  2  0  0  0  0  0  0  0  0  0
  149.0130  143.0014  157.8767 O   0  0  0  0  0  0  0  0  0  0  0  0
  151.3621  143.2812  158.2859 C   0  0  1  0  0  0  0  0  0  0  0  0
  150.9871  144.2160  159.4365 C   0  0  0  0  0  0  0  0  0  0  0  0
  152.3264  144.5605  160.0699 C   0  0  0  0  0  0  0  0  0  0  0  0
  153.2919  143.5228  159.4906 C   0  0  0  0  0  0  0  0  0  0  0  0
  152.4633  142.5741  158.8344 O   0  0  0  0  0  0  0  0  0  0  0  0
  149.8797  134.7584  154.2761 C   0  0  0  0  0  0  0  0  0  0  0  0
  149.8312  132.5857  154.3013 H   0  0  0  0  0  0  0  0  0  0  0  0
  151.0188  135.1567  157.2895 H   0  0  0  0  0  0  0  0  0  0  0  0
  146.3200  133.1687  153.9305 H   0  0  0  0  0  0  0  0  0  0  0  0
  147.6752  132.2280  153.3160 H   0  0  0  0  0  0  0  0  0  0  0  0
  147.6221  133.9805  153.0641 H   0  0  0  0  0  0  0  0  0  0  0  0
  149.6852  132.8184  157.0232 H   0  0  0  0  0  0  0  0  0  0  0  0
  151.1848  133.1428  156.1846 H   0  0  0  0  0  0  0  0  0  0  0  0
  146.8500  135.4847  157.4279 H   0  0  0  0  0  0  0  0  0  0  0  0
  147.6136  134.9534  155.9431 H   0  0  0  0  0  0  0  0  0  0  0  0
  152.7170  138.4745  153.1593 H   0  0  0  0  0  0  0  0  0  0  0  0
  148.7731  139.9927  158.0142 H   0  0  0  0  0  0  0  0  0  0  0  0
  151.4613  141.8766  156.1035 H   0  0  0  0  0  0  0  0  0  0  0  0
  149.7768  142.1503  155.7500 H   0  0  0  0  0  0  0  0  0  0  0  0
  150.1731  141.4997  158.5919 H   0  0  0  0  0  0  0  0  0  0  0  0
  149.0648  143.7163  157.2604 H   0  0  0  0  0  0  0  0  0  0  0  0
  151.7103  143.8707  157.4354 H   0  0  0  0  0  0  0  0  0  0  0  0
  150.4381  145.0960  159.1005 H   0  0  0  0  0  0  0  0  0  0  0  0
  150.3661  143.6907  160.1634 H   0  0  0  0  0  0  0  0  0  0  0  0
  152.6455  145.5702  159.8092 H   0  0  0  0  0  0  0  0  0  0  0  0
  152.2695  144.4964  161.1571 H   0  0  0  0  0  0  0  0  0  0  0  0
  153.9570  143.9834  158.7586 H   0  0  0  0  0  0  0  0  0  0  0  0
  153.9050  143.0463  160.2556 H   0  0  0  0  0  0  0  0  0  0  0  0
  150.7570  134.6233  153.6419 H   0  0  0  0  0  0  0  0  0  0  0  0
  149.0797  135.1753  153.6625 H   0  0  0  0  0  0  0  0  0  0  0  0
  1  2  1  0  0  0  0
  1 30  1  0  0  0  0
  1 31  1  0  0  0  0
  1 32  1  0  0  0  0
  2  3  1  0  0  0  0
  3 28  1  0  0  0  0
  3 27  1  0  0  0  0
  3  4  1  0  0  0  0
  4  5  1  0  0  0  0
  4 33  1  0  0  0  0
  4 34  1  0  0  0  0
  5 29  1  0  0  0  0
  5  6  1  0  0  0  0
  5  9  1  0  0  0  0
  6  7  1  0  0  0  0
  6  8  2  0  0  0  0
  7 35  1  0  0  0  0
  7 36  1  0  0  0  0
  9 10  1  0  0  0  0
  9 27  1  0  0  0  0
 10 15  1  0  0  0  0
 10 11  2  0  0  0  0
 11 12  1  0  0  0  0
 12 13  2  0  0  0  0
 12 37  1  0  0  0  0
 13 14  1  0  0  0  0
 14 18  1  0  0  0  0
 14 15  2  0  0  0  0
 15 16  1  0  0  0  0
 16 17  2  0  0  0  0
 17 18  1  0  0  0  0
 17 38  1  0  0  0  0
 18 19  1  0  0  0  0
 19 20  1  0  0  0  0
 19 39  1  0  0  0  0
 19 40  1  0  0  0  0
 20 21  1  0  0  0  0
 20 22  1  0  0  0  0
 20 41  1  0  0  0  0
 21 42  1  0  0  0  0
 22 26  1  0  0  0  0
 22 23  1  0  0  0  0
 22 43  1  0  0  0  0
 23 24  1  0  0  0  0
 23 44  1  0  0  0  0
 23 45  1  0  0  0  0
 24 25  1  0  0  0  0
 24 46  1  0  0  0  0
 24 47  1  0  0  0  0
 25 26  1  0  0  0  0
 25 48  1  0  0  0  0
 25 49  1  0  0  0  0
 27 50  1  0  0  0  0
 27 51  1  0  0  0  0
M  END
> <s_m_source_file>
AV-unprocessed.smi

> <i_m_source_file_index>
261

> <i_lp_mmshare_version>
43012

> <i_f3d_flags>
0

> <s_epik_input>
W0NIM11PW0NASF0xW0NIMl1bQ0BASF0oQyg9TylbTkgyXSlOKFtDSDJdMSljKG5bY0hdbjIpYyhjMjMpbltjSF1uM1tDSDJdW0NASF0oW09IXSlbQ0BASF00W0NIMl1bQ0gyXVtDSDJdTzQ=

> <s_epik_cmdline>
J2VwaWtfcHl0aG9uJywgJy1waCcsICc3LjAnLCAnLXRuJywgJzgnLCAnLW1hJywgJzIwMCcsICctbWV0YWxfYmluZGluZycsICctaW1hZScsICc8aW5maWxlLm1hZT4nLCAnLW9tYWUnLCAnPG91dGZpbGUubWFlPic=

> <r_lp_tautomer_probability>
1

> <r_epik_Ionization_Penalty>
0.000713824

> <r_epik_Ionization_Penalty_Charging>
0

> <r_epik_Ionization_Penalty_Neutral>
0.000713824

> <r_epik_State_Penalty>
0.000402132

> <r_epik_Charging_Adjusted_Penalty>
0.000402132

> <i_epik_Tot_Q>
0

> <i_epik_Tot_abs_Q>
0

> <r_epik_Metal_State_Penalty>
-0

> <b_epik_Metal_Only>
0

> <s_lp_Force_Field>
OPLS_2005

> <r_lp_Energy>
42.3495

> <b_lp_Chiralities_Consistent>
1

> <s_lp_Variant>
AV-unprocessed.smi:261-12

> <Gold.Version>
5.8.1

> <Gold.Id.Protein>
6NUR|6NUR_protein|mol2

> <Gold.PLP.Fitness>
47.1111

> <Gold.PLP.PLP>
-39.7439

> <Gold.PLP.part.hbond>
-4.4843

> <Gold.PLP.part.metal>
0.0000

> <Gold.PLP.part.buried>
-7.2796

> <Gold.PLP.part.nonpolar>
-28.1866

> <Gold.PLP.part.repulsive>
0.2580

> <Gold.PLP.ligand.clash>
0.0000

> <Gold.PLP.ligand.torsion>
2.3609

> <Gold.PLP.Chemscore.Hbond>
3.9760

> <Gold.PLP.Chemscore.CHOScore>
0.0000

> <Gold.PLP.Chemscore.Metal>
0.0000

> <Gold.Chemscore.Hbonds>
donor molecule, donor type, donor heavy atom, donor atom, acceptor molecule, acceptor atom, score
      L1  H    21    42       P1  8028  1.00
      P1  H  6896  6907       L1     8  0.55
      P1  H  7989  7998       L1    13  1.00
      P1  H 10752 10763       L1    11  0.99

> <Gold.PLP.Chemscore.Internal.Correction>
0.1610

> <Gold.Rescore>
     Score         DG    S(hbond)    S(metal)    S(lipo)     H(rot)  DE(clash)    DE(int)     intcor
     13.53     -17.03       2.93        0.00      84.84       3.18       0.30       3.20       ----

> <Gold.Chemscore.Fitness>
13.5298

> <Gold.Chemscore.DG>
-17.0276

> <Gold.Chemscore.ZeroCoef>
-5.4800

> <Gold.Chemscore.Hbond>
2.9252

> <Gold.Chemscore.Metal>
0.0000

> <Gold.Chemscore.Lipo>
84.8388

> <Gold.Chemscore.Internal_Hbond>
0.0000

> <Gold.Chemscore.DEClash>
0.2984

> <Gold.Chemscore.DEInternal>
3.1994

> <Gold.Chemscore.Rot>
3.1831

> <Gold.Chemscore.Internal.Correction>
   9.000000E+99

> <Gold.Chemscore.Hbonds>
donor molecule, donor type, donor heavy atom, donor atom, acceptor molecule, acceptor atom, score
      L1  H    21    42       P1  8028  0.30
      P1  H  6896  6907       L1     8  0.27
      P1  H  7989  7998       L1    13  0.80
      P1  H 10752 10763       L1    11  0.63

> <Gold.Chemscore.Hbond.Weighted>
-9.7701

> <Gold.Chemscore.Metal.Weighted>
-0.0000

> <Gold.Chemscore.Lipo.Weighted>
-9.9261

> <Gold.Chemscore.Internal_Hbond.Weighted>
0.0000

> <Gold.Chemscore.DEClash.Weighted>
0.2984

> <Gold.Chemscore.DEInternal.Weighted>
3.1994

> <Gold.Chemscore.Rot.Weighted>
8.1486

> <Gold.Chemscore.Internal.Correction.Weighted>
   9.000000E+99

> <Gold.Protein.RotatedTorsions>
[ 6907 6896 6895 6894 ] final  -78.80 input  -60.11 | X-H torsion
[ 7974 7965 7964 7962 ] final -146.86 input  175.53 | X-H torsion
[ 8008 7997 7996 7995 ] final -154.40 input   59.86 | X-H torsion
[ 10167 10162 10161 10158 ] final -120.15 input  -65.29 | X-H torsion
[ 10718 10713 10712 10709 ] final -139.10 input   66.30 | X-H torsion
[ 10763 10752 10751 10750 ] final   35.85 input  -60.55 | X-H torsion
[ 11005 11000 10999 10996 ] final  160.26 input  -57.11 | X-H torsion

> <Gold.Protein.ActiveResidues>
 VAL166  LYS551  ARG553  GLY616  TRP617  ASP618  TYR619  PRO620  LYS621  CYS622 
 ASP623  PHE694  ASN695  SER759  ASP760  ASP761  ALA762  ILE779  LEU786  VAL792 
 PHE793  MET794  SER795  GLU796  ALA797  LYS798  CYS799  TRP800  GLU811  SER814 

> <Gold.Protein.RotatedAtoms>
  150.6964  134.4218  159.5208 H   0  0  0  0  0  0  0  0  0  0  0  0  # atno 6907 bound_to 6896
  152.1959  134.8628  160.0522 H   0  0  0  0  0  0  0  0  0  0  0  0  # atno 6908 bound_to 6896
  151.9566  133.3647  159.4056 H   0  0  0  0  0  0  0  0  0  0  0  0  # atno 6909 bound_to 6896
  144.8131  140.5401  143.5629 H   0  0  0  0  0  0  0  0  0  0  0  0  # atno 7974 bound_to 7965
  155.6857  140.0749  157.2467 H   0  0  0  0  0  0  0  0  0  0  0  0  # atno 8008 bound_to 7997
  154.4097  140.1673  156.2084 H   0  0  0  0  0  0  0  0  0  0  0  0  # atno 8009 bound_to 7997
  155.9495  140.3378  155.6399 H   0  0  0  0  0  0  0  0  0  0  0  0  # atno 8010 bound_to 7997
  140.0389  143.5173  152.2140 H   0  0  0  0  0  0  0  0  0  0  0  0  # atno 10167 bound_to 10162
  156.3069  130.7460  151.1526 H   0  0  0  0  0  0  0  0  0  0  0  0  # atno 10718 bound_to 10713
  153.0101  135.6322  154.1892 H   0  0  0  0  0  0  0  0  0  0  0  0  # atno 10763 bound_to 10752
  154.1635  135.2822  155.3103 H   0  0  0  0  0  0  0  0  0  0  0  0  # atno 10764 bound_to 10752
  154.5964  135.5601  153.7390 H   0  0  0  0  0  0  0  0  0  0  0  0  # atno 10765 bound_to 10752
  140.2042  134.8315  157.3051 H   0  0  0  0  0  0  0  0  0  0  0  0  # atno 11005 bound_to 11000
  145.5277  139.1475  143.3517 LP  0  0  0  0  0  0  0  0  0  0  0  0  # atno 17320 bound_to 7965
  146.2432  140.5418  142.8925 LP  0  0  0  0  0  0  0  0  0  0  0  0  # atno 17321 bound_to 7965
  139.6027  144.7587  151.3135 LP  0  0  0  0  0  0  0  0  0  0  0  0  # atno 17342 bound_to 10162
  140.7269  143.6978  150.7869 LP  0  0  0  0  0  0  0  0  0  0  0  0  # atno 17343 bound_to 10162
  157.7382  131.0544  150.5311 LP  0  0  0  0  0  0  0  0  0  0  0  0  # atno 17370 bound_to 10713
  156.5446  130.4216  149.6137 LP  0  0  0  0  0  0  0  0  0  0  0  0  # atno 17371 bound_to 10713
  140.2021  134.4242  155.7657 LP  0  0  0  0  0  0  0  0  0  0  0  0  # atno 17394 bound_to 11000
  141.2227  133.7077  156.8200 LP  0  0  0  0  0  0  0  0  0  0  0  0  # atno 17395 bound_to 11000

$$$$
