#       Name:                AV-unprocessed.smi:2919
#       Creating user name   scv26
#       Creation time:       Fri Mar 27 16:08:31 2020


#       File generated by GOLD software.
#

@<TRIPOS>MOLECULE
AV-unprocessed.smi:2919
    39    41     1
SMALL
NO_CHARGES


@<TRIPOS>ATOM
      1 ****        -4.8383  -0.0723  -0.1467 C.3            1 S1                 0.0000
      2 ****        -3.3483  -0.3057   0.0301 C.ar           1 S1                 0.0000
      3 ****        -2.5995   0.8169   0.0978 N.ar           1 S1                 0.0000
      4 ****        -1.2770   0.7391   0.2525 N.ar           1 S1                 0.0000
      5 ****        -0.6548  -0.4614   0.3427 C.ar           1 S1                 0.0000
      6 ****         0.7432  -0.4614   0.5046 N.pl3          1 S1                 0.0000
      7 ****         1.5308   0.7590   0.3659 C.3            1 S1                 0.0000
      8 ****         1.6504   1.2370  -1.0872 C.3            1 S1                 0.0000
      9 ****         3.1709   1.3030  -1.2757 C.3            1 S1                 0.0000
     10 ****         3.8115   2.4298  -0.4537 C.3            1 S1                 0.0000
     11 ****         3.7269   1.8681   0.9653 C.3            1 S1                 0.0000
     12 ****         3.0071   0.5328   0.7343 C.3            1 S1                 0.0000
     13 ****         3.5620   0.1706  -0.5201 O.3            1 S1                 0.0000
     14 ****        -1.3794  -1.6801   0.2813 C.ar           1 S1                 0.0000
     15 ****        -0.7041  -2.9726   0.3804 C.1            1 S1                 0.0000
     16 ****        -0.1696  -3.9959   0.4588 N.1            1 S1                 0.0000
     17 ****        -2.7855  -1.6020   0.1176 C.ar           1 S1                 0.0000
     18 ****        -3.6454  -2.8610   0.0394 C.3            1 S1                 0.0000
     19 ****        -5.3926  -0.4952   0.6914 H              1 S1                 0.0000
     20 ****        -5.1904  -0.5348  -1.0689 H              1 S1                 0.0000
     21 ****        -5.0733   0.9918  -0.1976 H              1 S1                 0.0000
     22 ****         1.2354  -1.3430   0.5340 H              1 S1                 0.0000
     23 ****         1.1074   1.5328   1.0082 H              1 S1                 0.0000
     24 ****         1.2175   0.5182  -1.7846 H              1 S1                 0.0000
     25 ****         1.1674   2.2005  -1.2530 H              1 S1                 0.0000
     26 ****         3.4885   1.2785  -2.3184 H              1 S1                 0.0000
     27 ****         4.8519   2.5813  -0.7435 H              1 S1                 0.0000
     28 ****         3.2824   3.3766  -0.5677 H              1 S1                 0.0000
     29 ****         4.7259   1.7021   1.3701 H              1 S1                 0.0000
     30 ****         3.1854   2.5220   1.6499 H              1 S1                 0.0000
     31 ****         3.1703  -0.1935   1.5315 H              1 S1                 0.0000
     32 ****        -3.3390  -3.4733  -0.8093 H              1 S1                 0.0000
     33 ****        -4.7075  -2.6533  -0.0770 H              1 S1                 0.0000
     34 ****        -3.5289  -3.4537   0.9474 H              1 S1                 0.0000
     35 ****        -3.0399   1.7122   0.0315 LP             1 S1                 0.0000
     36 ****        -0.7367   1.5790   0.3027 LP             1 S1                 0.0000
     37 ****         4.5564   0.0754  -0.4760 LP             1 S1                 0.0000
     38 ****         3.1618  -0.6737  -0.8766 LP             1 S1                 0.0000
     39 ****         0.2923  -4.8803   0.5266 LP             1 S1                 0.0000
@<TRIPOS>BOND
    1    1    2 1     
    2    1   19 1     
    3    1   20 1     
    4    1   21 1     
    5    2   17 ar    
    6    2    3 ar    
    7    3    4 ar    
    8    4    5 ar    
    9    5    6 1     
   10    5   14 ar    
   11    6    7 1     
   12    6   22 1     
   13    7   12 1     
   14    7    8 1     
   15    7   23 1     
   16    8    9 1     
   17    8   24 1     
   18    8   25 1     
   19    9   13 1     
   20    9   10 1     
   21    9   26 1     
   22   10   11 1     
   23   10   27 1     
   24   10   28 1     
   25   11   12 1     
   26   11   29 1     
   27   11   30 1     
   28   12   13 1     
   29   12   31 1     
   30   14   15 1     
   31   14   17 ar    
   32   15   16 3     
   33   17   18 1     
   34   18   32 1     
   35   18   33 1     
   36   18   34 1     
   37    3   35 1     
   38    4   36 1     
   39   13   37 1     
   40   13   38 1     
   41   16   39 1     
@<TRIPOS>SUBSTRUCTURE
      1 S1             1
@<TRIPOS>SET
LONE_PAIRS      STATIC     ATOMS    <user>   **** ""
5 35 36 37 38 39
DONOR_HYDROGENS      STATIC     ATOMS    <user>   **** ""
1 22
ATOM$BLUE        STATIC     ATOMS    COLORGROUP SYSTEM
5 35 36 37 38 39
ATOM$RED        STATIC     ATOMS    COLORGROUP SYSTEM
1 22
