AV-unprocessed.smi:2585|AV-procd|sdf|10144|dock3
  -GOLD-   2272014153D 1   1.00000     0.00000
 Structure written by MMmdl.
 34 35  0  0  0  0  0  0  0  0  1 V2000
  153.2901  142.0236  161.3359 C   0  0  0  0  0  0  0  0  0  0  0  0
  152.3979  142.7963  160.4109 C   0  0  0  0  0  0  0  0  0  0  0  0
  152.1555  144.0677  160.6527 N   0  0  0  0  0  0  0  0  0  0  0  0
  151.1358  144.6766  159.4653 S   0  0  0  0  0  0  0  0  0  0  0  0
  150.9990  143.1849  158.5746 C   0  0  0  0  0  0  0  0  0  0  0  0
  150.2830  142.9682  157.4406 N   0  0  0  0  0  0  0  0  0  0  0  0
  149.7361  141.8236  156.9965 C   0  0  0  0  0  0  0  0  0  0  0  0
  149.8016  140.7355  157.5677 O   0  0  0  0  0  0  0  0  0  0  0  0
  149.0992  142.0218  155.8300 N   0  0  0  0  0  0  0  0  0  0  0  0
  148.3764  141.0438  155.0026 C   0  0  0  0  0  0  0  0  0  0  0  0
  149.3559  139.9692  154.4829 C   0  0  0  0  0  0  0  0  0  0  0  0
  147.3085  140.3703  155.8919 C   0  0  0  0  0  0  0  0  0  0  0  0
  146.1773  141.3424  156.2779 C   0  0  0  0  0  0  0  0  0  0  0  0
  145.5798  141.8866  155.1071 O   0  0  0  0  0  0  0  0  0  0  0  0
  146.4940  142.6365  154.3162 C   0  0  0  0  0  0  0  0  0  0  0  0
  147.6328  141.7238  153.8270 C   0  0  0  0  0  0  0  0  0  0  0  0
  151.7593  142.2646  159.2434 C   0  0  0  0  0  0  0  0  0  0  0  0
  151.9800  140.6348  158.8023 Cl  0  0  0  0  0  0  0  0  0  0  0  0
  152.7692  141.1621  161.7541 H   0  0  0  0  0  0  0  0  0  0  0  0
  153.6369  142.6330  162.1716 H   0  0  0  0  0  0  0  0  0  0  0  0
  154.1725  141.6546  160.8123 H   0  0  0  0  0  0  0  0  0  0  0  0
  150.1441  143.7820  156.8596 H   0  0  0  0  0  0  0  0  0  0  0  0
  149.1175  142.9624  155.4637 H   0  0  0  0  0  0  0  0  0  0  0  0
  148.8282  139.1806  153.9455 H   0  0  0  0  0  0  0  0  0  0  0  0
  149.8989  139.4981  155.3031 H   0  0  0  0  0  0  0  0  0  0  0  0
  150.0922  140.3841  153.7944 H   0  0  0  0  0  0  0  0  0  0  0  0
  146.8684  139.5258  155.3596 H   0  0  0  0  0  0  0  0  0  0  0  0
  147.7656  139.9556  156.7916 H   0  0  0  0  0  0  0  0  0  0  0  0
  145.4121  140.8147  156.8471 H   0  0  0  0  0  0  0  0  0  0  0  0
  146.5461  142.1459  156.9173 H   0  0  0  0  0  0  0  0  0  0  0  0
  145.9577  143.0520  153.4630 H   0  0  0  0  0  0  0  0  0  0  0  0
  146.8818  143.4814  154.8871 H   0  0  0  0  0  0  0  0  0  0  0  0
  148.3171  142.2891  153.1946 H   0  0  0  0  0  0  0  0  0  0  0  0
  147.2035  140.9567  153.1812 H   0  0  0  0  0  0  0  0  0  0  0  0
  1  2  1  0  0  0  0
  1 19  1  0  0  0  0
  1 20  1  0  0  0  0
  1 21  1  0  0  0  0
  2 17  1  0  0  0  0
  2  3  2  0  0  0  0
  3  4  1  0  0  0  0
  4  5  1  0  0  0  0
  5  6  1  0  0  0  0
  5 17  2  0  0  0  0
  6  7  1  0  0  0  0
  6 22  1  0  0  0  0
  7  8  2  0  0  0  0
  7  9  1  0  0  0  0
  9 10  1  0  0  0  0
  9 23  1  0  0  0  0
 10 16  1  0  0  0  0
 10 11  1  0  0  0  0
 10 12  1  0  0  0  0
 11 24  1  0  0  0  0
 11 25  1  0  0  0  0
 11 26  1  0  0  0  0
 12 13  1  0  0  0  0
 12 27  1  0  0  0  0
 12 28  1  0  0  0  0
 13 14  1  0  0  0  0
 13 29  1  0  0  0  0
 13 30  1  0  0  0  0
 14 15  1  0  0  0  0
 15 16  1  0  0  0  0
 15 31  1  0  0  0  0
 15 32  1  0  0  0  0
 16 33  1  0  0  0  0
 16 34  1  0  0  0  0
 17 18  1  0  0  0  0
M  END
> <s_m_source_file>
AV-unprocessed.smi

> <i_m_source_file_index>
2585

> <i_lp_mmshare_version>
43012

> <i_f3d_flags>
0

> <s_epik_input>
W0NIM11jMW5zYyhjMUNsKVtOSF1DKD1PKVtOSF1DMihbQ0gzXSlbQ0gyXVtDSDJdT1tDSDJdW0NIMl0y

> <s_epik_cmdline>
J2VwaWtfcHl0aG9uJywgJy1waCcsICc3LjAnLCAnLXRuJywgJzgnLCAnLW1hJywgJzIwMCcsICctbWV0YWxfYmluZGluZycsICctaW1hZScsICc8aW5maWxlLm1hZT4nLCAnLW9tYWUnLCAnPG91dGZpbGUubWFlPic=

> <r_lp_tautomer_probability>
1

> <r_epik_Ionization_Penalty>
3.55893e-05

> <r_epik_Ionization_Penalty_Charging>
0

> <r_epik_Ionization_Penalty_Neutral>
3.55893e-05

> <r_epik_State_Penalty>
-0

> <r_epik_Charging_Adjusted_Penalty>
0

> <i_epik_Tot_Q>
0

> <i_epik_Tot_abs_Q>
0

> <r_epik_Metal_State_Penalty>
-0

> <b_epik_Metal_Only>
0

> <s_lp_Force_Field>
OPLS_2005

> <r_lp_Energy>
7.47922

> <b_lp_Chiralities_Consistent>
1

> <s_lp_Variant>
AV-unprocessed.smi:2585-1

> <Gold.Version>
5.8.1

> <Gold.Id.Protein>
6NUR|6NUR_protein|mol2

> <Gold.PLP.Fitness>
40.8971

> <Gold.PLP.PLP>
-35.8296

> <Gold.PLP.part.hbond>
-2.0000

> <Gold.PLP.part.metal>
0.0000

> <Gold.PLP.part.buried>
-5.9437

> <Gold.PLP.part.nonpolar>
-28.5571

> <Gold.PLP.part.repulsive>
0.3517

> <Gold.PLP.ligand.clash>
0.0000

> <Gold.PLP.ligand.torsion>
0.2055

> <Gold.PLP.Chemscore.Hbond>
1.8240

> <Gold.PLP.Chemscore.CHOScore>
0.0000

> <Gold.PLP.Chemscore.Metal>
0.0000

> <Gold.Chemscore.Hbonds>
donor molecule, donor type, donor heavy atom, donor atom, acceptor molecule, acceptor atom, score
      L1  H     6    22       P1  8028  0.93
      L1  H     9    23       P1  8028  1.00

> <Gold.PLP.Chemscore.Internal.Correction>
0.0065

> <Gold.Rescore>
     Score         DG    S(hbond)    S(metal)    S(lipo)     H(rot)  DE(clash)    DE(int)     intcor
     16.11     -19.73       1.94        0.00      88.29       1.00       0.02       3.60       ----

> <Gold.Chemscore.Fitness>
16.1131

> <Gold.Chemscore.DG>
-19.7338

> <Gold.Chemscore.ZeroCoef>
-5.4800

> <Gold.Chemscore.Hbond>
1.9411

> <Gold.Chemscore.Metal>
0.0000

> <Gold.Chemscore.Lipo>
88.2940

> <Gold.Chemscore.Internal_Hbond>
0.0000

> <Gold.Chemscore.DEClash>
0.0168

> <Gold.Chemscore.DEInternal>
3.6039

> <Gold.Chemscore.Rot>
1.0000

> <Gold.Chemscore.Internal.Correction>
   9.000000E+99

> <Gold.Chemscore.Hbonds>
donor molecule, donor type, donor heavy atom, donor atom, acceptor molecule, acceptor atom, score
      L1  H     6    22       P1  8028  0.88
      L1  H     9    23       P1  8028  0.96

> <Gold.Chemscore.Hbond.Weighted>
-6.4834

> <Gold.Chemscore.Metal.Weighted>
-0.0000

> <Gold.Chemscore.Lipo.Weighted>
-10.3304

> <Gold.Chemscore.Internal_Hbond.Weighted>
0.0000

> <Gold.Chemscore.DEClash.Weighted>
0.0168

> <Gold.Chemscore.DEInternal.Weighted>
3.6039

> <Gold.Chemscore.Rot.Weighted>
2.5600

> <Gold.Chemscore.Internal.Correction.Weighted>
   9.000000E+99

> <Gold.Protein.RotatedTorsions>
[ 6907 6896 6895 6894 ] final   46.14 input  -60.11 | X-H torsion
[ 7974 7965 7964 7962 ] final -152.64 input  175.53 | X-H torsion
[ 8008 7997 7996 7995 ] final -106.16 input   59.86 | X-H torsion
[ 10167 10162 10161 10158 ] final    8.55 input  -65.29 | X-H torsion
[ 10718 10713 10712 10709 ] final  -15.80 input   66.30 | X-H torsion
[ 10763 10752 10751 10750 ] final  164.42 input  -60.55 | X-H torsion
[ 11005 11000 10999 10996 ] final  104.79 input  -57.11 | X-H torsion

> <Gold.Protein.ActiveResidues>
 VAL166  LYS551  ARG553  GLY616  TRP617  ASP618  TYR619  PRO620  LYS621  CYS622 
 ASP623  PHE694  ASN695  SER759  ASP760  ASP761  ALA762  ILE779  LEU786  VAL792 
 PHE793  MET794  SER795  GLU796  ALA797  LYS798  CYS799  TRP800  GLU811  SER814 

> <Gold.Protein.RotatedAtoms>
  152.2529  134.8114  160.0442 H   0  0  0  0  0  0  0  0  0  0  0  0  # atno 6907 bound_to 6896
  151.8787  133.3485  159.3767 H   0  0  0  0  0  0  0  0  0  0  0  0  # atno 6908 bound_to 6896
  150.7090  134.4967  159.5586 H   0  0  0  0  0  0  0  0  0  0  0  0  # atno 6909 bound_to 6896
  144.7783  140.4635  143.5857 H   0  0  0  0  0  0  0  0  0  0  0  0  # atno 7974 bound_to 7965
  154.9104  140.0410  157.1943 H   0  0  0  0  0  0  0  0  0  0  0  0  # atno 8008 bound_to 7997
  154.8353  140.2906  155.5673 H   0  0  0  0  0  0  0  0  0  0  0  0  # atno 8009 bound_to 7997
  156.2989  140.2493  156.3286 H   0  0  0  0  0  0  0  0  0  0  0  0  # atno 8010 bound_to 7997
  140.6307  143.7999  150.7292 H   0  0  0  0  0  0  0  0  0  0  0  0  # atno 10167 bound_to 10162
  156.5965  130.4813  149.6257 H   0  0  0  0  0  0  0  0  0  0  0  0  # atno 10718 bound_to 10713
  154.3086  135.2757  155.2576 H   0  0  0  0  0  0  0  0  0  0  0  0  # atno 10763 bound_to 10752
  154.4981  135.5815  153.6514 H   0  0  0  0  0  0  0  0  0  0  0  0  # atno 10764 bound_to 10752
  152.9891  135.6151  154.3262 H   0  0  0  0  0  0  0  0  0  0  0  0  # atno 10765 bound_to 10752
  139.8795  134.9313  156.5415 H   0  0  0  0  0  0  0  0  0  0  0  0  # atno 11005 bound_to 11000
  145.6122  139.1514  143.3069 LP  0  0  0  0  0  0  0  0  0  0  0  0  # atno 17320 bound_to 7965
  146.1977  140.6237  142.9117 LP  0  0  0  0  0  0  0  0  0  0  0  0  # atno 17321 bound_to 7965
  140.1610  143.4275  152.2067 LP  0  0  0  0  0  0  0  0  0  0  0  0  # atno 17342 bound_to 10162
  139.5522  144.7346  151.4401 LP  0  0  0  0  0  0  0  0  0  0  0  0  # atno 17343 bound_to 10162
  156.2505  130.6904  151.1640 LP  0  0  0  0  0  0  0  0  0  0  0  0  # atno 17370 bound_to 10713
  157.7290  131.0627  150.5793 LP  0  0  0  0  0  0  0  0  0  0  0  0  # atno 17371 bound_to 10713
  140.8307  133.8281  155.8981 LP  0  0  0  0  0  0  0  0  0  0  0  0  # atno 17394 bound_to 11000
  140.9331  134.1996  157.4850 LP  0  0  0  0  0  0  0  0  0  0  0  0  # atno 17395 bound_to 11000

$$$$
