AV-unprocessed.smi:249|AV-procd|sdf|1905|dock9
  -GOLD-   2262020583D 1   1.00000     0.00000
 Structure written by MMmdl.
 64 67  0  0  0  0  0  0  0  0  2 V2000
  145.3926  134.2663  151.0488 C   0  0  0  0  0  0  0  0  0  0  0  0
  146.3999  133.2045  151.5151 C   0  0  0  0  0  0  0  0  0  0  0  0
  147.3164  133.6930  152.5805 N   0  3  1  0  0  0  0  0  0  0  0  0
  146.5797  134.2646  153.7397 C   0  0  0  0  0  0  0  0  0  0  0  0
  147.5310  134.9870  154.7069 C   0  0  0  0  0  0  0  0  0  0  0  0
  148.6585  134.0456  155.1756 C   0  0  2  0  0  0  0  0  0  0  0  0
  149.5705  134.6504  156.1557 N   0  0  0  0  0  0  0  0  0  0  0  0
  149.3345  134.3960  157.5714 C   0  0  0  0  0  0  0  0  0  0  0  0
  150.1884  135.8352  155.9207 C   0  0  0  0  0  0  0  0  0  0  0  0
  150.9264  136.0129  154.7939 N   0  0  0  0  0  0  0  0  0  0  0  0
  151.5213  137.1857  154.5551 C   0  0  0  0  0  0  0  0  0  0  0  0
  151.5072  138.2944  155.2972 N   0  0  0  0  0  0  0  0  0  0  0  0
  150.7636  138.1223  156.4271 C   0  0  0  0  0  0  0  0  0  0  0  0
  150.0737  136.9383  156.8109 C   0  0  0  0  0  0  0  0  0  0  0  0
  149.4286  137.1381  158.0255 N   0  0  0  0  0  0  0  0  0  0  0  0
  149.7199  138.3709  158.3419 C   0  0  0  0  0  0  0  0  0  0  0  0
  150.5143  139.0356  157.4350 N   0  0  0  0  0  0  0  0  0  0  0  0
  150.9915  140.4035  157.5300 C   0  0  0  0  0  0  0  0  0  0  0  0
  151.5954  140.7424  158.9150 C   0  0  1  0  0  0  0  0  0  0  0  0
  152.6998  139.7459  159.3436 C   0  0  0  0  0  0  0  0  0  0  0  0
  153.5679  139.4428  158.2707 O   0  0  0  0  0  0  0  0  0  0  0  0
  152.0680  142.2165  158.9822 C   0  0  2  0  0  0  0  0  0  0  0  0
  152.4531  142.7029  160.3682 C   0  0  0  0  0  0  0  0  0  0  0  0
  152.4017  144.2164  160.1994 C   0  0  0  0  0  0  0  0  0  0  0  0
  151.3448  144.4570  159.2785 O   0  0  0  0  0  0  0  0  0  0  0  0
  150.9944  143.2471  158.6127 C   0  0  0  0  0  0  0  0  0  0  0  0
  149.3794  133.4332  153.9550 C   0  0  0  0  0  0  0  0  0  0  0  0
  148.3978  132.7418  152.9872 C   0  0  1  0  0  0  0  0  0  0  0  0
  147.8711  131.4011  153.5434 C   0  0  0  0  0  0  0  0  0  0  0  0
  144.6587  133.8258  150.3737 H   0  0  0  0  0  0  0  0  0  0  0  0
  145.8757  135.0794  150.5075 H   0  0  0  0  0  0  0  0  0  0  0  0
  144.8498  134.6938  151.8925 H   0  0  0  0  0  0  0  0  0  0  0  0
  145.8294  132.3638  151.9118 H   0  0  0  0  0  0  0  0  0  0  0  0
  146.9636  132.8103  150.6698 H   0  0  0  0  0  0  0  0  0  0  0  0
  145.8367  134.9792  153.3839 H   0  0  0  0  0  0  0  0  0  0  0  0
  146.0279  133.4810  154.2597 H   0  0  0  0  0  0  0  0  0  0  0  0
  147.9376  135.8643  154.2059 H   0  0  0  0  0  0  0  0  0  0  0  0
  146.9654  135.3567  155.5627 H   0  0  0  0  0  0  0  0  0  0  0  0
  148.1842  133.2204  155.7074 H   0  0  0  0  0  0  0  0  0  0  0  0
  150.2688  134.1666  158.0838 H   0  0  0  0  0  0  0  0  0  0  0  0
  148.6633  133.5482  157.7111 H   0  0  0  0  0  0  0  0  0  0  0  0
  148.8825  135.2648  158.0520 H   0  0  0  0  0  0  0  0  0  0  0  0
  152.0872  137.2457  153.6372 H   0  0  0  0  0  0  0  0  0  0  0  0
  149.3575  138.8342  159.2483 H   0  0  0  0  0  0  0  0  0  0  0  0
  151.7291  140.5686  156.7436 H   0  0  0  0  0  0  0  0  0  0  0  0
  150.1512  141.0606  157.3052 H   0  0  0  0  0  0  0  0  0  0  0  0
  150.7907  140.6343  159.6440 H   0  0  0  0  0  0  0  0  0  0  0  0
  153.2888  140.1494  160.1668 H   0  0  0  0  0  0  0  0  0  0  0  0
  152.2665  138.8178  159.7167 H   0  0  0  0  0  0  0  0  0  0  0  0
  153.2836  138.6335  157.8736 H   0  0  0  0  0  0  0  0  0  0  0  0
  152.9228  142.3576  158.3184 H   0  0  0  0  0  0  0  0  0  0  0  0
  151.7151  142.3831  161.1051 H   0  0  0  0  0  0  0  0  0  0  0  0
  153.4344  142.3544  160.6911 H   0  0  0  0  0  0  0  0  0  0  0  0
  152.2391  144.7383  161.1424 H   0  0  0  0  0  0  0  0  0  0  0  0
  153.3327  144.5817  159.7642 H   0  0  0  0  0  0  0  0  0  0  0  0
  150.9208  143.4016  157.5360 H   0  0  0  0  0  0  0  0  0  0  0  0
  150.0143  142.9335  158.9747 H   0  0  0  0  0  0  0  0  0  0  0  0
  149.9113  134.2053  153.3995 H   0  0  0  0  0  0  0  0  0  0  0  0
  150.1393  132.7242  154.2862 H   0  0  0  0  0  0  0  0  0  0  0  0
  148.9821  132.5046  152.0989 H   0  0  0  0  0  0  0  0  0  0  0  0
  148.7000  130.7580  153.8406 H   0  0  0  0  0  0  0  0  0  0  0  0
  147.3010  130.8490  152.7969 H   0  0  0  0  0  0  0  0  0  0  0  0
  147.2352  131.5319  154.4181 H   0  0  0  0  0  0  0  0  0  0  0  0
  147.7988  134.4788  152.1681 H   0  0  0  0  0  0  0  0  0  0  0  0
  1  2  1  0  0  0  0
  1 30  1  0  0  0  0
  1 31  1  0  0  0  0
  1 32  1  0  0  0  0
  2  3  1  0  0  0  0
  2 33  1  0  0  0  0
  2 34  1  0  0  0  0
  3 28  1  0  0  0  0
  3  4  1  0  0  0  0
  3 64  1  0  0  0  0
  4  5  1  0  0  0  0
  4 35  1  0  0  0  0
  4 36  1  0  0  0  0
  5  6  1  0  0  0  0
  5 37  1  0  0  0  0
  5 38  1  0  0  0  0
  6  7  1  0  0  0  0
  6 27  1  0  0  0  0
  6 39  1  0  0  0  0
  7  8  1  0  0  0  0
  7  9  1  0  0  0  0
  8 40  1  0  0  0  0
  8 41  1  0  0  0  0
  8 42  1  0  0  0  0
  9 14  1  0  0  0  0
  9 10  2  0  0  0  0
 10 11  1  0  0  0  0
 11 12  2  0  0  0  0
 11 43  1  0  0  0  0
 12 13  1  0  0  0  0
 13 17  1  0  0  0  0
 13 14  2  0  0  0  0
 14 15  1  0  0  0  0
 15 16  2  0  0  0  0
 16 17  1  0  0  0  0
 16 44  1  0  0  0  0
 17 18  1  0  0  0  0
 18 19  1  0  0  0  0
 18 45  1  0  0  0  0
 18 46  1  0  0  0  0
 19 20  1  0  0  0  0
 19 22  1  0  0  0  0
 19 47  1  0  0  0  0
 20 21  1  0  0  0  0
 20 48  1  0  0  0  0
 20 49  1  0  0  0  0
 21 50  1  0  0  0  0
 22 26  1  0  0  0  0
 22 23  1  0  0  0  0
 22 51  1  0  0  0  0
 23 24  1  0  0  0  0
 23 52  1  0  0  0  0
 23 53  1  0  0  0  0
 24 25  1  0  0  0  0
 24 54  1  0  0  0  0
 24 55  1  0  0  0  0
 25 26  1  0  0  0  0
 26 56  1  0  0  0  0
 26 57  1  0  0  0  0
 27 28  1  0  0  0  0
 27 58  1  0  0  0  0
 27 59  1  0  0  0  0
 28 29  1  0  0  0  0
 28 60  1  0  0  0  0
 29 61  1  0  0  0  0
 29 62  1  0  0  0  0
 29 63  1  0  0  0  0
M  CHG  1   3   1
M  END
> <s_m_source_file>
AV-unprocessed.smi

> <i_m_source_file_index>
249

> <i_lp_mmshare_version>
43012

> <i_f3d_flags>
0

> <s_epik_input>
W0NIM11bQ0gyXU4xW0NIMl1bQ0gyXVtDQEhdKFtDSDJdW0NASF0xW0NIM10pTihbQ0gzXSljKG5bY0hdbjIpYyhjMjMpbltjSF1uM1tDSDJdW0NASF0oW0NIMl1bT0hdKVtDQEBIXTRbQ0gyXVtDSDJdT1tDSDJdNA==

> <s_epik_cmdline>
J2VwaWtfcHl0aG9uJywgJy1waCcsICc3LjAnLCAnLXRuJywgJzgnLCAnLW1hJywgJzIwMCcsICctbWV0YWxfYmluZGluZycsICctaW1hZScsICc8aW5maWxlLm1hZT4nLCAnLW9tYWUnLCAnPG91dGZpbGUubWFlPic=

> <r_lp_tautomer_probability>
1

> <r_epik_Ionization_Penalty>
0.00294688

> <r_epik_Ionization_Penalty_Charging>
0.00169971

> <r_epik_Ionization_Penalty_Neutral>
0.00124717

> <r_epik_State_Penalty>
-0

> <r_epik_Charging_Adjusted_Penalty>
0.00169971

> <i_epik_Tot_Q>
1

> <i_epik_Tot_abs_Q>
1

> <r_epik_Metal_State_Penalty>
-0

> <b_epik_Metal_Only>
0

> <s_lp_Force_Field>
OPLS_2005

> <r_lp_Energy>
52.9117

> <b_lp_Chiralities_Consistent>
1

> <s_lp_Variant>
AV-unprocessed.smi:249-8

> <Gold.Version>
5.8.1

> <Gold.Id.Protein>
6NUR|6NUR_protein|mol2

> <Gold.PLP.Fitness>
51.3753

> <Gold.PLP.PLP>
-41.7868

> <Gold.PLP.part.hbond>
-2.7778

> <Gold.PLP.part.metal>
0.0000

> <Gold.PLP.part.buried>
-5.0778

> <Gold.PLP.part.nonpolar>
-35.3818

> <Gold.PLP.part.repulsive>
0.3443

> <Gold.PLP.ligand.clash>
0.0000

> <Gold.PLP.ligand.torsion>
1.4222

> <Gold.PLP.Chemscore.Hbond>
3.0000

> <Gold.PLP.Chemscore.CHOScore>
0.7187

> <Gold.PLP.Chemscore.Metal>
0.0000

> <Gold.Chemscore.Hbonds>
donor molecule, donor type, donor heavy atom, donor atom, acceptor molecule, acceptor atom, score
      L1  H     3    64       P1  7948  1.79
      P1  H  7997  8009       L1    21  0.90
      L1  C    11    43       P1  7949  0.55

> <Gold.PLP.Chemscore.Internal.Correction>
1.2770

> <Gold.Rescore>
     Score         DG    S(hbond)    S(metal)    S(lipo)     H(rot)  DE(clash)    DE(int)     intcor
     13.48     -16.63       1.84        0.00     100.73       2.65       0.16       2.99       ----

> <Gold.Chemscore.Fitness>
13.4809

> <Gold.Chemscore.DG>
-16.6328

> <Gold.Chemscore.ZeroCoef>
-5.4800

> <Gold.Chemscore.Hbond>
1.8429

> <Gold.Chemscore.Metal>
0.0000

> <Gold.Chemscore.Lipo>
100.7320

> <Gold.Chemscore.Internal_Hbond>
0.0000

> <Gold.Chemscore.DEClash>
0.1628

> <Gold.Chemscore.DEInternal>
2.9891

> <Gold.Chemscore.Rot>
2.6515

> <Gold.Chemscore.Internal.Correction>
   9.000000E+99

> <Gold.Chemscore.Hbonds>
donor molecule, donor type, donor heavy atom, donor atom, acceptor molecule, acceptor atom, score
      L1  H     3    64       P1  7948  0.35
      P1  H  7997  8009       L1    21  0.18

> <Gold.Chemscore.Hbond.Weighted>
-6.1552

> <Gold.Chemscore.Metal.Weighted>
-0.0000

> <Gold.Chemscore.Lipo.Weighted>
-11.7856

> <Gold.Chemscore.Internal_Hbond.Weighted>
0.0000

> <Gold.Chemscore.DEClash.Weighted>
0.1628

> <Gold.Chemscore.DEInternal.Weighted>
2.9891

> <Gold.Chemscore.Rot.Weighted>
6.7880

> <Gold.Chemscore.Internal.Correction.Weighted>
   9.000000E+99

> <Gold.Protein.RotatedTorsions>
[ 6907 6896 6895 6894 ] final  -67.01 input  -60.11 | X-H torsion
[ 7974 7965 7964 7962 ] final  140.12 input  175.53 | X-H torsion
[ 8008 7997 7996 7995 ] final  163.32 input   59.86 | X-H torsion
[ 10167 10162 10161 10158 ] final    3.84 input  -65.29 | X-H torsion
[ 10718 10713 10712 10709 ] final  -60.60 input   66.30 | X-H torsion
[ 10763 10752 10751 10750 ] final -166.57 input  -60.55 | X-H torsion
[ 11005 11000 10999 10996 ] final  -10.09 input  -57.11 | X-H torsion

> <Gold.Protein.ActiveResidues>
 VAL166  LYS551  ARG553  GLY616  TRP617  ASP618  TYR619  PRO620  LYS621  CYS622 
 ASP623  PHE694  ASN695  SER759  ASP760  ASP761  ALA762  ILE779  LEU786  VAL792 
 PHE793  MET794  SER795  GLU796  ALA797  LYS798  CYS799  TRP800  GLU811  SER814 

> <Gold.Protein.RotatedAtoms>
  150.7433  134.5941  159.6002 H   0  0  0  0  0  0  0  0  0  0  0  0  # atno 6907 bound_to 6896
  152.3321  134.7243  160.0296 H   0  0  0  0  0  0  0  0  0  0  0  0  # atno 6908 bound_to 6896
  151.7723  133.3306  159.3484 H   0  0  0  0  0  0  0  0  0  0  0  0  # atno 6909 bound_to 6896
  144.9215  139.5161  143.5661 H   0  0  0  0  0  0  0  0  0  0  0  0  # atno 7974 bound_to 7965
  156.1966  140.1727  156.7985 H   0  0  0  0  0  0  0  0  0  0  0  0  # atno 8008 bound_to 7997
  154.5537  140.0712  156.8741 H   0  0  0  0  0  0  0  0  0  0  0  0  # atno 8009 bound_to 7997
  155.2979  140.3359  155.4251 H   0  0  0  0  0  0  0  0  0  0  0  0  # atno 8010 bound_to 7997
  140.6565  143.7413  150.7663 H   0  0  0  0  0  0  0  0  0  0  0  0  # atno 10167 bound_to 10162
  156.0979  130.4190  150.0877 H   0  0  0  0  0  0  0  0  0  0  0  0  # atno 10718 bound_to 10713
  154.6819  135.2956  154.9601 H   0  0  0  0  0  0  0  0  0  0  0  0  # atno 10763 bound_to 10752
  154.0593  135.6633  153.4814 H   0  0  0  0  0  0  0  0  0  0  0  0  # atno 10764 bound_to 10752
  153.0553  135.5148  154.7867 H   0  0  0  0  0  0  0  0  0  0  0  0  # atno 10765 bound_to 10752
  140.7411  133.8669  155.8968 H   0  0  0  0  0  0  0  0  0  0  0  0  # atno 11005 bound_to 11000
  146.3207  139.8099  142.8948 LP  0  0  0  0  0  0  0  0  0  0  0  0  # atno 17320 bound_to 7965
  145.3288  141.0261  143.3458 LP  0  0  0  0  0  0  0  0  0  0  0  0  # atno 17321 bound_to 7965
  140.1074  143.4731  152.2390 LP  0  0  0  0  0  0  0  0  0  0  0  0  # atno 17342 bound_to 10162
  139.5789  144.7501  151.3691 LP  0  0  0  0  0  0  0  0  0  0  0  0  # atno 17343 bound_to 10162
  156.8872  130.9576  151.3593 LP  0  0  0  0  0  0  0  0  0  0  0  0  # atno 17370 bound_to 10713
  157.6144  130.8607  149.9003 LP  0  0  0  0  0  0  0  0  0  0  0  0  # atno 17371 bound_to 10713
  140.9836  134.1373  157.4472 LP  0  0  0  0  0  0  0  0  0  0  0  0  # atno 17394 bound_to 11000
  139.8806  135.0018  156.6090 LP  0  0  0  0  0  0  0  0  0  0  0  0  # atno 17395 bound_to 11000

$$$$
