AV-unprocessed.smi:2564|AV-procd|sdf|10062|dock2
  -GOLD-   2272014103D 1   1.00000     0.00000
 Structure written by MMmdl.
 29 30  0  0  0  0  0  0  0  0  2 V2000
  149.8105  131.4251  154.3451 C   0  0  0  0  0  0  0  0  0  0  0  0
  149.0064  130.2947  154.1102 C   0  0  0  0  0  0  0  0  0  0  0  0
  147.8396  130.3602  153.4303 N   0  0  0  0  0  0  0  0  0  0  0  0
  147.4087  131.5323  152.9510 N   0  0  0  0  0  0  0  0  0  0  0  0
  148.1339  132.6636  153.1395 C   0  0  0  0  0  0  0  0  0  0  0  0
  147.6526  133.8757  152.6272 N   0  0  0  0  0  0  0  0  0  0  0  0
  146.2226  134.0876  152.4523 C   0  0  0  0  0  0  0  0  0  0  0  0
  145.7813  133.8147  151.0080 C   0  0  2  0  0  0  0  0  0  0  0  0
  144.3252  134.2591  150.7645 C   0  0  0  0  0  0  0  0  0  0  0  0
  143.9059  133.9040  149.3945 N   0  3  0  0  0  0  0  0  0  0  0  0
  144.0988  132.4664  149.1230 C   0  0  0  0  0  0  0  0  0  0  0  0
  145.5522  132.0646  149.4242 C   0  0  0  0  0  0  0  0  0  0  0  0
  145.8717  132.4118  150.7675 O   0  0  0  0  0  0  0  0  0  0  0  0
  149.3564  132.6558  153.8402 C   0  0  0  0  0  0  0  0  0  0  0  0
  150.7389  131.3494  154.8915 H   0  0  0  0  0  0  0  0  0  0  0  0
  149.3019  129.3218  154.4735 H   0  0  0  0  0  0  0  0  0  0  0  0
  148.2996  134.5521  152.2483 H   0  0  0  0  0  0  0  0  0  0  0  0
  145.6680  133.4514  153.1436 H   0  0  0  0  0  0  0  0  0  0  0  0
  145.9938  135.1220  152.7119 H   0  0  0  0  0  0  0  0  0  0  0  0
  146.4429  134.3495  150.3234 H   0  0  0  0  0  0  0  0  0  0  0  0
  143.6549  133.7794  151.4792 H   0  0  0  0  0  0  0  0  0  0  0  0
  144.2235  135.3360  150.9010 H   0  0  0  0  0  0  0  0  0  0  0  0
  142.9328  134.1432  149.2670 H   0  0  0  0  0  0  0  0  0  0  0  0
  143.4120  131.8888  149.7430 H   0  0  0  0  0  0  0  0  0  0  0  0
  143.8486  132.2567  148.0828 H   0  0  0  0  0  0  0  0  0  0  0  0
  145.6801  130.9897  149.2951 H   0  0  0  0  0  0  0  0  0  0  0  0
  146.2438  132.5528  148.7357 H   0  0  0  0  0  0  0  0  0  0  0  0
  149.9279  133.5605  153.9873 H   0  0  0  0  0  0  0  0  0  0  0  0
  144.4637  134.4339  148.7398 H   0  0  0  0  0  0  0  0  0  0  0  0
  1 14  1  0  0  0  0
  1  2  2  0  0  0  0
  1 15  1  0  0  0  0
  2  3  1  0  0  0  0
  2 16  1  0  0  0  0
  3  4  2  0  0  0  0
  4  5  1  0  0  0  0
  5  6  1  0  0  0  0
  5 14  2  0  0  0  0
  6  7  1  0  0  0  0
  6 17  1  0  0  0  0
  7  8  1  0  0  0  0
  7 18  1  0  0  0  0
  7 19  1  0  0  0  0
  8 13  1  0  0  0  0
  8  9  1  0  0  0  0
  8 20  1  0  0  0  0
  9 10  1  0  0  0  0
  9 21  1  0  0  0  0
  9 22  1  0  0  0  0
 10 11  1  0  0  0  0
 10 23  1  0  0  0  0
 10 29  1  0  0  0  0
 11 12  1  0  0  0  0
 11 24  1  0  0  0  0
 11 25  1  0  0  0  0
 12 13  1  0  0  0  0
 12 26  1  0  0  0  0
 12 27  1  0  0  0  0
 14 28  1  0  0  0  0
M  CHG  1  10   1
M  END
> <s_m_source_file>
AV-unprocessed.smi

> <i_m_source_file_index>
2564

> <i_lp_mmshare_version>
43012

> <i_f3d_flags>
0

> <s_epik_input>
W2NIXTFbY0hdW2NIXW5uYzFbTkhdW0NIMl1bQ0BASF0yW0NIMl1bTkhdW0NIMl1bQ0gyXU8y

> <s_epik_cmdline>
J2VwaWtfcHl0aG9uJywgJy1waCcsICc3LjAnLCAnLXRuJywgJzgnLCAnLW1hJywgJzIwMCcsICctbWV0YWxfYmluZGluZycsICctaW1hZScsICc8aW5maWxlLm1hZT4nLCAnLW9tYWUnLCAnPG91dGZpbGUubWFlPic=

> <r_lp_tautomer_probability>
0.999978

> <r_epik_Ionization_Penalty>
0.0278973

> <r_epik_Ionization_Penalty_Charging>
0.00959556

> <r_epik_Ionization_Penalty_Neutral>
0.0183017

> <r_epik_State_Penalty>
0.0323017

> <r_epik_Charging_Adjusted_Penalty>
0.0418973

> <i_epik_Tot_Q>
1

> <i_epik_Tot_abs_Q>
1

> <r_epik_Metal_State_Penalty>
0.0301524

> <b_epik_Metal_Only>
0

> <s_lp_Force_Field>
OPLS_2005

> <r_lp_Energy>
19.9275

> <b_lp_Chiralities_Consistent>
1

> <s_lp_Variant>
AV-unprocessed.smi:2564-1

> <Gold.Version>
5.8.1

> <Gold.Id.Protein>
6NUR|6NUR_protein|mol2

> <Gold.PLP.Fitness>
39.0362

> <Gold.PLP.PLP>
-28.0803

> <Gold.PLP.part.hbond>
-3.0000

> <Gold.PLP.part.metal>
0.0000

> <Gold.PLP.part.buried>
-5.1548

> <Gold.PLP.part.nonpolar>
-21.0654

> <Gold.PLP.part.repulsive>
0.4312

> <Gold.PLP.ligand.clash>
0.0000

> <Gold.PLP.ligand.torsion>
0.3728

> <Gold.PLP.Chemscore.Hbond>
3.9000

> <Gold.PLP.Chemscore.CHOScore>
0.0000

> <Gold.PLP.Chemscore.Metal>
0.0000

> <Gold.Chemscore.Hbonds>
donor molecule, donor type, donor heavy atom, donor atom, acceptor molecule, acceptor atom, score
      L1  H     6    17       P1  7948  0.75
      L1  H    10    23       P1 10186  2.00
      L1  H    10    29       P1  7921  0.99

> <Gold.PLP.Chemscore.Internal.Correction>
0.0015

> <Gold.Rescore>
     Score         DG    S(hbond)    S(metal)    S(lipo)     H(rot)  DE(clash)    DE(int)     intcor
     16.64     -17.20       2.49        0.00      58.03       1.33       0.26       0.30       ----

> <Gold.Chemscore.Fitness>
16.6393

> <Gold.Chemscore.DG>
-17.1993

> <Gold.Chemscore.ZeroCoef>
-5.4800

> <Gold.Chemscore.Hbond>
2.4915

> <Gold.Chemscore.Metal>
0.0000

> <Gold.Chemscore.Lipo>
58.0336

> <Gold.Chemscore.Internal_Hbond>
0.0000

> <Gold.Chemscore.DEClash>
0.2602

> <Gold.Chemscore.DEInternal>
0.2999

> <Gold.Chemscore.Rot>
1.3251

> <Gold.Chemscore.Internal.Correction>
   9.000000E+99

> <Gold.Chemscore.Hbonds>
donor molecule, donor type, donor heavy atom, donor atom, acceptor molecule, acceptor atom, score
      L1  H     6    17       P1  7948  0.09
      L1  H    10    23       P1 10186  0.99
      L1  H    10    29       P1  7921  0.91

> <Gold.Chemscore.Hbond.Weighted>
-8.3218

> <Gold.Chemscore.Metal.Weighted>
-0.0000

> <Gold.Chemscore.Lipo.Weighted>
-6.7899

> <Gold.Chemscore.Internal_Hbond.Weighted>
0.0000

> <Gold.Chemscore.DEClash.Weighted>
0.2602

> <Gold.Chemscore.DEInternal.Weighted>
0.2999

> <Gold.Chemscore.Rot.Weighted>
3.3924

> <Gold.Chemscore.Internal.Correction.Weighted>
   9.000000E+99

> <Gold.Protein.RotatedTorsions>
[ 6907 6896 6895 6894 ] final -131.26 input  -60.11 | X-H torsion
[ 7974 7965 7964 7962 ] final  130.63 input  175.53 | X-H torsion
[ 8008 7997 7996 7995 ] final   -4.43 input   59.86 | X-H torsion
[ 10167 10162 10161 10158 ] final  162.50 input  -65.29 | X-H torsion
[ 10718 10713 10712 10709 ] final  -71.29 input   66.30 | X-H torsion
[ 10763 10752 10751 10750 ] final   41.55 input  -60.55 | X-H torsion
[ 11005 11000 10999 10996 ] final   83.32 input  -57.11 | X-H torsion

> <Gold.Protein.ActiveResidues>
 VAL166  LYS551  ARG553  GLY616  TRP617  ASP618  TYR619  PRO620  LYS621  CYS622 
 ASP623  PHE694  ASN695  SER759  ASP760  ASP761  ALA762  ILE779  LEU786  VAL792 
 PHE793  MET794  SER795  GLU796  ALA797  LYS798  CYS799  TRP800  GLU811  SER814 

> <Gold.Protein.RotatedAtoms>
  150.9489  133.6571  159.2775 H   0  0  0  0  0  0  0  0  0  0  0  0  # atno 6907 bound_to 6896
  151.3934  135.0958  159.9543 H   0  0  0  0  0  0  0  0  0  0  0  0  # atno 6908 bound_to 6896
  152.5102  133.8999  159.7490 H   0  0  0  0  0  0  0  0  0  0  0  0  # atno 6909 bound_to 6896
  145.0158  139.4177  143.5222 H   0  0  0  0  0  0  0  0  0  0  0  0  # atno 7974 bound_to 7965
  154.6144  140.2484  155.7628 H   0  0  0  0  0  0  0  0  0  0  0  0  # atno 8008 bound_to 7997
  156.2390  140.2939  156.0341 H   0  0  0  0  0  0  0  0  0  0  0  0  # atno 8009 bound_to 7997
  155.1999  140.0394  157.2906 H   0  0  0  0  0  0  0  0  0  0  0  0  # atno 8010 bound_to 7997
  139.4861  144.4432  151.8926 H   0  0  0  0  0  0  0  0  0  0  0  0  # atno 10167 bound_to 10162
  156.0369  130.4348  150.2422 H   0  0  0  0  0  0  0  0  0  0  0  0  # atno 10718 bound_to 10713
  152.9905  135.6158  154.2805 H   0  0  0  0  0  0  0  0  0  0  0  0  # atno 10763 bound_to 10752
  154.2535  135.2784  155.2809 H   0  0  0  0  0  0  0  0  0  0  0  0  # atno 10764 bound_to 10752
  154.5268  135.5799  153.6783 H   0  0  0  0  0  0  0  0  0  0  0  0  # atno 10765 bound_to 10752
  139.9035  134.8136  156.2293 H   0  0  0  0  0  0  0  0  0  0  0  0  # atno 11005 bound_to 11000
  146.3477  139.9628  142.8715 LP  0  0  0  0  0  0  0  0  0  0  0  0  # atno 17320 bound_to 7965
  145.1961  140.9834  143.4182 LP  0  0  0  0  0  0  0  0  0  0  0  0  # atno 17321 bound_to 7965
  140.3884  144.2646  150.5902 LP  0  0  0  0  0  0  0  0  0  0  0  0  # atno 17342 bound_to 10162
  140.5168  143.2276  151.8450 LP  0  0  0  0  0  0  0  0  0  0  0  0  # atno 17343 bound_to 10162
  157.0520  131.0065  151.3250 LP  0  0  0  0  0  0  0  0  0  0  0  0  # atno 17370 bound_to 10713
  157.5133  130.7952  149.7729 LP  0  0  0  0  0  0  0  0  0  0  0  0  # atno 17371 bound_to 10713
  141.0356  133.6965  156.1506 LP  0  0  0  0  0  0  0  0  0  0  0  0  # atno 17394 bound_to 11000
  140.7032  134.4541  157.5585 LP  0  0  0  0  0  0  0  0  0  0  0  0  # atno 17395 bound_to 11000

$$$$
