AV-unprocessed.smi:160|AV-procd|sdf|1357|dock7
  -GOLD-   2262019 63D 1   1.00000     0.00000
 Structure written by MMmdl.
 29 30  0  0  0  0  0  0  0  0  1 V2000
  152.0518  137.8894  155.9071 N   0  0  0  0  0  0  0  0  0  0  0  0
  152.2395  138.9787  156.6593 C   0  0  0  0  0  0  0  0  0  0  0  0
  153.2005  139.0980  157.4177 O   0  0  0  0  0  0  0  0  0  0  0  0
  151.2041  140.0613  156.5303 C   0  0  0  0  0  0  0  0  0  0  0  0
  151.3663  141.2707  157.1445 N   0  0  0  0  0  0  0  0  0  0  0  0
  150.2412  141.8555  156.7534 C   0  0  0  0  0  0  0  0  0  0  0  0
  149.4680  141.0914  155.9753 N   0  0  0  0  0  0  0  0  0  0  0  0
  148.1405  141.3974  155.3470 C   0  0  2  0  0  0  0  0  0  0  0  0
  147.2443  140.3844  155.6974 O   0  0  0  0  0  0  0  0  0  0  0  0
  147.0624  139.5010  154.5951 C   0  0  1  0  0  0  0  0  0  0  0  0
  145.7403  138.7343  154.7507 C   0  0  0  0  0  0  0  0  0  0  0  0
  145.2715  138.3163  153.4864 O   0  0  0  0  0  0  0  0  0  0  0  0
  147.0725  140.4819  153.4218 C   0  0  2  0  0  0  0  0  0  0  0  0
  147.2737  139.8473  152.1727 O   0  0  0  0  0  0  0  0  0  0  0  0
  148.1871  141.4565  153.8005 C   0  0  2  0  0  0  0  0  0  0  0  0
  149.4416  141.0991  153.2388 O   0  0  0  0  0  0  0  0  0  0  0  0
  150.0892  139.8952  155.8172 N   0  0  0  0  0  0  0  0  0  0  0  0
  147.8343  142.3381  155.8062 H   0  0  0  0  0  0  0  0  0  0  0  0
  147.9083  138.8160  154.5125 H   0  0  0  0  0  0  0  0  0  0  0  0
  146.1243  141.0212  153.3939 H   0  0  0  0  0  0  0  0  0  0  0  0
  147.9447  142.4678  153.4725 H   0  0  0  0  0  0  0  0  0  0  0  0
  152.7125  137.1276  155.9496 H   0  0  0  0  0  0  0  0  0  0  0  0
  151.2466  137.8370  155.2996 H   0  0  0  0  0  0  0  0  0  0  0  0
  149.9767  142.8633  157.0378 H   0  0  0  0  0  0  0  0  0  0  0  0
  145.8515  137.8792  155.4180 H   0  0  0  0  0  0  0  0  0  0  0  0
  144.9783  139.3847  155.1813 H   0  0  0  0  0  0  0  0  0  0  0  0
  144.6030  138.9191  153.1989 H   0  0  0  0  0  0  0  0  0  0  0  0
  148.1188  140.1056  151.8383 H   0  0  0  0  0  0  0  0  0  0  0  0
  149.2995  140.4449  152.5719 H   0  0  0  0  0  0  0  0  0  0  0  0
  1  2  1  0  0  0  0
  1 22  1  0  0  0  0
  1 23  1  0  0  0  0
  2  3  2  0  0  0  0
  2  4  1  0  0  0  0
  4 17  2  0  0  0  0
  4  5  1  0  0  0  0
  5  6  2  0  0  0  0
  6  7  1  0  0  0  0
  6 24  1  0  0  0  0
  7  8  1  0  0  0  0
  7 17  1  0  0  0  0
  8 18  1  0  0  0  0
  8 15  1  0  0  0  0
  8  9  1  0  0  0  0
  9 10  1  0  0  0  0
 10 19  1  0  0  0  0
 10 11  1  0  0  0  0
 10 13  1  0  0  0  0
 11 12  1  0  0  0  0
 11 25  1  0  0  0  0
 11 26  1  0  0  0  0
 12 27  1  0  0  0  0
 13 20  1  0  0  0  0
 13 14  1  0  0  0  0
 13 15  1  0  0  0  0
 14 28  1  0  0  0  0
 15 21  1  0  0  0  0
 15 16  1  0  0  0  0
 16 29  1  0  0  0  0
M  END
> <s_m_source_file>
AV-unprocessed.smi

> <i_m_source_file_index>
160

> <i_lp_mmshare_version>
43012

> <i_f3d_flags>
0

> <s_epik_input>
W05IMl1DKD1PKWMxbltjSF1uKG4xKVtDQEBIXTJPW0NASF0oW0NIMl1bT0hdKVtDQEBIXShbT0hdKVtDQEhdMltPSF0=

> <s_epik_cmdline>
J2VwaWtfcHl0aG9uJywgJy1waCcsICc3LjAnLCAnLXRuJywgJzgnLCAnLW1hJywgJzIwMCcsICctbWV0YWxfYmluZGluZycsICctaW1hZScsICc8aW5maWxlLm1hZT4nLCAnLW9tYWUnLCAnPG91dGZpbGUubWFlPic=

> <r_lp_tautomer_probability>
1

> <r_epik_Ionization_Penalty>
1.06932e-05

> <r_epik_Ionization_Penalty_Charging>
0

> <r_epik_Ionization_Penalty_Neutral>
1.06932e-05

> <r_epik_State_Penalty>
-0

> <r_epik_Charging_Adjusted_Penalty>
0

> <i_epik_Tot_Q>
0

> <i_epik_Tot_abs_Q>
0

> <r_epik_Metal_State_Penalty>
0.0142097

> <b_epik_Metal_Only>
0

> <s_epik_Chemistry_Notes>
This compound contains an acetal/aminal-like group ( X-CH(R)-Y where X, Y are N, S, or O) that may be acid/base labile, releasing an aldehyde.

> <s_lp_Force_Field>
OPLS_2005

> <r_lp_Energy>
46.1783

> <b_lp_Chiralities_Consistent>
1

> <s_lp_Variant>
AV-unprocessed.smi:160-15

> <Gold.Version>
5.8.1

> <Gold.Id.Protein>
6NUR|6NUR_protein|mol2

> <Gold.PLP.Fitness>
39.8469

> <Gold.PLP.PLP>
-22.7860

> <Gold.PLP.part.hbond>
-5.2715

> <Gold.PLP.part.metal>
0.0000

> <Gold.PLP.part.buried>
-4.0176

> <Gold.PLP.part.nonpolar>
-13.9154

> <Gold.PLP.part.repulsive>
0.1957

> <Gold.PLP.ligand.clash>
0.0000

> <Gold.PLP.ligand.torsion>
0.3156

> <Gold.PLP.Chemscore.Hbond>
4.8964

> <Gold.PLP.Chemscore.CHOScore>
0.9956

> <Gold.PLP.Chemscore.Metal>
0.0000

> <Gold.Chemscore.Hbonds>
donor molecule, donor type, donor heavy atom, donor atom, acceptor molecule, acceptor atom, score
      L1  H    12    27       P1 10175  1.00
      L1  H    14    28       P1  7957  1.00
      L1  H    16    29       P1  7957  0.83
      P1  H  7989  7998       L1    16  0.08
      P1  H  7997  8008       L1     3  1.00
      P1  H  8011  8017       L1    16  1.00
      L1  C     6    24       P1  8028  0.94

> <Gold.PLP.Chemscore.Internal.Correction>
0.0161

> <Gold.Rescore>
     Score         DG    S(hbond)    S(metal)    S(lipo)     H(rot)  DE(clash)    DE(int)     intcor
      9.84     -11.36       4.20        0.00      19.19       4.06       0.02       1.50       ----

> <Gold.Chemscore.Fitness>
9.8373

> <Gold.Chemscore.DG>
-11.3609

> <Gold.Chemscore.ZeroCoef>
-5.4800

> <Gold.Chemscore.Hbond>
4.2005

> <Gold.Chemscore.Metal>
0.0000

> <Gold.Chemscore.Lipo>
19.1862

> <Gold.Chemscore.Internal_Hbond>
0.0000

> <Gold.Chemscore.DEClash>
0.0199

> <Gold.Chemscore.DEInternal>
1.5037

> <Gold.Chemscore.Rot>
4.0600

> <Gold.Chemscore.Internal.Correction>
   9.000000E+99

> <Gold.Chemscore.Hbonds>
donor molecule, donor type, donor heavy atom, donor atom, acceptor molecule, acceptor atom, score
      L1  H    12    27       P1 10175  0.99
      L1  H    14    28       P1  7957  0.99
      L1  H    16    29       P1  7957  0.77
      P1  H  7989  7998       L1    16  0.02
      P1  H  7997  8008       L1     3  0.88
      P1  H  8011  8017       L1    16  0.10

> <Gold.Chemscore.Hbond.Weighted>
-14.0298

> <Gold.Chemscore.Metal.Weighted>
-0.0000

> <Gold.Chemscore.Lipo.Weighted>
-2.2448

> <Gold.Chemscore.Internal_Hbond.Weighted>
0.0000

> <Gold.Chemscore.DEClash.Weighted>
0.0199

> <Gold.Chemscore.DEInternal.Weighted>
1.5037

> <Gold.Chemscore.Rot.Weighted>
10.3936

> <Gold.Chemscore.Internal.Correction.Weighted>
   9.000000E+99

> <Gold.Protein.RotatedTorsions>
[ 6907 6896 6895 6894 ] final  137.36 input  -60.11 | X-H torsion
[ 7974 7965 7964 7962 ] final  149.13 input  175.53 | X-H torsion
[ 8008 7997 7996 7995 ] final  -69.75 input   59.86 | X-H torsion
[ 10167 10162 10161 10158 ] final   26.28 input  -65.29 | X-H torsion
[ 10718 10713 10712 10709 ] final   90.84 input   66.30 | X-H torsion
[ 10763 10752 10751 10750 ] final -158.24 input  -60.55 | X-H torsion
[ 11005 11000 10999 10996 ] final  117.60 input  -57.11 | X-H torsion

> <Gold.Protein.ActiveResidues>
 VAL166  LYS551  ARG553  GLY616  TRP617  ASP618  TYR619  PRO620  LYS621  CYS622 
 ASP623  PHE694  ASN695  SER759  ASP760  ASP761  ALA762  ILE779  LEU786  VAL792 
 PHE793  MET794  SER795  GLU796  ALA797  LYS798  CYS799  TRP800  GLU811  SER814 

> <Gold.Protein.RotatedAtoms>
  152.2789  133.5452  159.5485 H   0  0  0  0  0  0  0  0  0  0  0  0  # atno 6907 bound_to 6896
  150.7188  134.0592  159.3834 H   0  0  0  0  0  0  0  0  0  0  0  0  # atno 6908 bound_to 6896
  151.8503  135.0560  160.0509 H   0  0  0  0  0  0  0  0  0  0  0  0  # atno 6909 bound_to 6896
  144.8461  139.6242  143.5995 H   0  0  0  0  0  0  0  0  0  0  0  0  # atno 7974 bound_to 7965
  154.4961  140.0847  156.7700 H   0  0  0  0  0  0  0  0  0  0  0  0  # atno 8008 bound_to 7997
  155.4112  140.3441  155.4245 H   0  0  0  0  0  0  0  0  0  0  0  0  # atno 8009 bound_to 7997
  156.1396  140.1525  156.8929 H   0  0  0  0  0  0  0  0  0  0  0  0  # atno 8010 bound_to 7997
  140.5036  144.0275  150.6343 H   0  0  0  0  0  0  0  0  0  0  0  0  # atno 10167 bound_to 10162
  157.6959  131.0385  150.3638 H   0  0  0  0  0  0  0  0  0  0  0  0  # atno 10718 bound_to 10713
  154.7572  135.3108  154.8447 H   0  0  0  0  0  0  0  0  0  0  0  0  # atno 10763 bound_to 10752
  153.9218  135.6795  153.4752 H   0  0  0  0  0  0  0  0  0  0  0  0  # atno 10764 bound_to 10752
  153.1170  135.4840  154.9062 H   0  0  0  0  0  0  0  0  0  0  0  0  # atno 10765 bound_to 10752
  139.9080  134.9612  156.7375 H   0  0  0  0  0  0  0  0  0  0  0  0  # atno 11005 bound_to 11000
  146.2745  139.6718  142.9273 LP  0  0  0  0  0  0  0  0  0  0  0  0  # atno 17320 bound_to 7965
  145.4594  141.0432  143.2760 LP  0  0  0  0  0  0  0  0  0  0  0  0  # atno 17321 bound_to 7965
  140.3577  143.2926  152.0417 LP  0  0  0  0  0  0  0  0  0  0  0  0  # atno 17342 bound_to 10162
  139.4878  144.6326  151.7039 LP  0  0  0  0  0  0  0  0  0  0  0  0  # atno 17343 bound_to 10162
  156.4071  130.3927  149.6918 LP  0  0  0  0  0  0  0  0  0  0  0  0  # atno 17370 bound_to 10713
  156.4215  130.7771  151.2788 LP  0  0  0  0  0  0  0  0  0  0  0  0  # atno 17371 bound_to 10713
  140.6876  133.9419  155.7947 LP  0  0  0  0  0  0  0  0  0  0  0  0  # atno 17394 bound_to 11000
  141.0465  134.0546  157.3837 LP  0  0  0  0  0  0  0  0  0  0  0  0  # atno 17395 bound_to 11000

$$$$
