AV-unprocessed.smi:3028|AV-procd|sdf|11520|dock7
  -GOLD-   2272016463D 1   1.00000     0.00000
 Structure written by MMmdl.
 48 49  0  0  0  0  0  0  0  0  2 V2000
  139.9105  136.7076  153.8194 C   0  0  0  0  0  0  0  0  0  0  0  0
  141.2226  136.1156  153.3921 C   0  0  0  0  0  0  0  0  0  0  0  0
  141.5222  134.7478  153.1352 C   0  0  0  0  0  0  0  0  0  0  0  0
  142.7801  134.5567  152.7733 N   0  0  0  0  0  0  0  0  0  0  0  0
  143.3290  135.7918  152.7848 N   0  0  0  0  0  0  0  0  0  0  0  0
  144.7326  135.9750  152.4370 C   0  0  1  0  0  0  0  0  0  0  0  0
  144.9653  135.5807  150.9653 C   0  0  0  0  0  0  0  0  0  0  0  0
  145.2382  137.4079  152.7541 C   0  0  1  0  0  0  0  0  0  0  0  0
  145.5075  137.6333  154.2567 C   0  0  0  0  0  0  0  0  0  0  0  0
  146.4644  137.6874  151.9731 N   0  3  0  0  0  0  0  0  0  0  0  0
  146.9662  139.0764  152.0534 C   0  0  0  0  0  0  0  0  0  0  0  0
  147.8130  139.3125  153.3119 C   0  0  0  0  0  0  0  0  0  0  0  0
  147.4798  140.1731  154.1254 O   0  0  0  0  0  0  0  0  0  0  0  0
  148.9151  138.5702  153.5111 N   0  0  0  0  0  0  0  0  0  0  0  0
  149.8487  138.6373  154.6338 C   0  0  0  0  0  0  0  0  0  0  0  0
  150.0842  140.1057  155.0192 C   0  0  0  0  0  0  0  0  0  0  0  0
  151.1755  140.2182  156.0962 C   0  0  0  0  0  0  0  0  0  0  0  0
  152.3763  139.6085  155.6354 O   0  0  0  0  0  0  0  0  0  0  0  0
  152.2296  138.2158  155.3805 C   0  0  0  0  0  0  0  0  0  0  0  0
  151.1951  137.9901  154.2655 C   0  0  0  0  0  0  0  0  0  0  0  0
  142.4093  136.7503  153.1575 C   0  0  0  0  0  0  0  0  0  0  0  0
  139.2434  135.9541  154.2386 H   0  0  0  0  0  0  0  0  0  0  0  0
  139.3873  137.1701  152.9823 H   0  0  0  0  0  0  0  0  0  0  0  0
  140.0433  137.4766  154.5806 H   0  0  0  0  0  0  0  0  0  0  0  0
  140.8654  133.8928  153.2013 H   0  0  0  0  0  0  0  0  0  0  0  0
  145.2976  135.2769  153.0569 H   0  0  0  0  0  0  0  0  0  0  0  0
  146.0251  135.5843  150.7105 H   0  0  0  0  0  0  0  0  0  0  0  0
  144.4588  136.2632  150.2817 H   0  0  0  0  0  0  0  0  0  0  0  0
  144.5897  134.5764  150.7669 H   0  0  0  0  0  0  0  0  0  0  0  0
  144.4658  138.1114  152.4379 H   0  0  0  0  0  0  0  0  0  0  0  0
  144.6054  137.5046  154.8546 H   0  0  0  0  0  0  0  0  0  0  0  0
  145.8688  138.6418  154.4558 H   0  0  0  0  0  0  0  0  0  0  0  0
  146.2555  136.9342  154.6322 H   0  0  0  0  0  0  0  0  0  0  0  0
  147.1936  137.0515  152.2628 H   0  0  0  0  0  0  0  0  0  0  0  0
  147.5732  139.2802  151.1706 H   0  0  0  0  0  0  0  0  0  0  0  0
  146.1280  139.7720  152.0503 H   0  0  0  0  0  0  0  0  0  0  0  0
  149.1295  137.8806  152.8046 H   0  0  0  0  0  0  0  0  0  0  0  0
  149.4342  138.1286  155.5048 H   0  0  0  0  0  0  0  0  0  0  0  0
  150.3909  140.6765  154.1413 H   0  0  0  0  0  0  0  0  0  0  0  0
  149.1585  140.5573  155.3777 H   0  0  0  0  0  0  0  0  0  0  0  0
  151.3755  141.2666  156.3179 H   0  0  0  0  0  0  0  0  0  0  0  0
  150.8520  139.7525  157.0283 H   0  0  0  0  0  0  0  0  0  0  0  0
  153.1961  137.8095  155.0818 H   0  0  0  0  0  0  0  0  0  0  0  0
  151.9358  137.6974  156.2946 H   0  0  0  0  0  0  0  0  0  0  0  0
  151.0743  136.9222  154.0843 H   0  0  0  0  0  0  0  0  0  0  0  0
  151.5723  138.4217  153.3369 H   0  0  0  0  0  0  0  0  0  0  0  0
  142.6717  137.7960  153.2244 H   0  0  0  0  0  0  0  0  0  0  0  0
  146.2577  137.5081  151.0008 H   0  0  0  0  0  0  0  0  0  0  0  0
  1  2  1  0  0  0  0
  1 22  1  0  0  0  0
  1 23  1  0  0  0  0
  1 24  1  0  0  0  0
  2 21  2  0  0  0  0
  2  3  1  0  0  0  0
  3  4  2  0  0  0  0
  3 25  1  0  0  0  0
  4  5  1  0  0  0  0
  5  6  1  0  0  0  0
  5 21  1  0  0  0  0
  6  7  1  0  0  0  0
  6  8  1  0  0  0  0
  6 26  1  0  0  0  0
  7 27  1  0  0  0  0
  7 28  1  0  0  0  0
  7 29  1  0  0  0  0
  8  9  1  0  0  0  0
  8 10  1  0  0  0  0
  8 30  1  0  0  0  0
  9 31  1  0  0  0  0
  9 32  1  0  0  0  0
  9 33  1  0  0  0  0
 10 11  1  0  0  0  0
 10 34  1  0  0  0  0
 10 48  1  0  0  0  0
 11 12  1  0  0  0  0
 11 35  1  0  0  0  0
 11 36  1  0  0  0  0
 12 13  2  0  0  0  0
 12 14  1  0  0  0  0
 14 15  1  0  0  0  0
 14 37  1  0  0  0  0
 15 20  1  0  0  0  0
 15 16  1  0  0  0  0
 15 38  1  0  0  0  0
 16 17  1  0  0  0  0
 16 39  1  0  0  0  0
 16 40  1  0  0  0  0
 17 18  1  0  0  0  0
 17 41  1  0  0  0  0
 17 42  1  0  0  0  0
 18 19  1  0  0  0  0
 19 20  1  0  0  0  0
 19 43  1  0  0  0  0
 19 44  1  0  0  0  0
 20 45  1  0  0  0  0
 20 46  1  0  0  0  0
 21 47  1  0  0  0  0
M  CHG  1  10   1
M  END
> <s_m_source_file>
AV-unprocessed.smi

> <i_m_source_file_index>
3028

> <i_lp_mmshare_version>
43012

> <i_f3d_flags>
0

> <s_epik_input>
W0NIM11jMVtjSF1ubihbY0hdMSlbQ0BIXShbQ0gzXSlbQ0BIXShbQ0gzXSlbTkhdW0NIMl1DKD1PKVtOSF1bQ0hdMltDSDJdW0NIMl1PW0NIMl1bQ0gyXTI=

> <s_epik_cmdline>
J2VwaWtfcHl0aG9uJywgJy1waCcsICc3LjAnLCAnLXRuJywgJzgnLCAnLW1hJywgJzIwMCcsICctbWV0YWxfYmluZGluZycsICctaW1hZScsICc8aW5maWxlLm1hZT4nLCAnLW9tYWUnLCAnPG91dGZpbGUubWFlPic=

> <r_lp_tautomer_probability>
1

> <r_epik_Ionization_Penalty>
0.151514

> <r_epik_Ionization_Penalty_Charging>
0.151494

> <r_epik_Ionization_Penalty_Neutral>
1.95502e-05

> <r_epik_State_Penalty>
0.141395

> <r_epik_Charging_Adjusted_Penalty>
0.292889

> <i_epik_Tot_Q>
1

> <i_epik_Tot_abs_Q>
1

> <r_epik_Metal_State_Penalty>
0.141632

> <b_epik_Metal_Only>
0

> <s_lp_Force_Field>
OPLS_2005

> <r_lp_Energy>
16.118

> <b_lp_Chiralities_Consistent>
1

> <s_lp_Variant>
AV-unprocessed.smi:3028-4

> <Gold.Version>
5.8.1

> <Gold.Id.Protein>
6NUR|6NUR_protein|mol2

> <Gold.PLP.Fitness>
53.2220

> <Gold.PLP.PLP>
-41.3383

> <Gold.PLP.part.hbond>
-4.8558

> <Gold.PLP.part.metal>
0.0000

> <Gold.PLP.part.buried>
-0.1310

> <Gold.PLP.part.nonpolar>
-35.6675

> <Gold.PLP.part.repulsive>
0.4622

> <Gold.PLP.ligand.clash>
0.0000

> <Gold.PLP.ligand.torsion>
0.9216

> <Gold.PLP.Chemscore.Hbond>
3.9840

> <Gold.PLP.Chemscore.CHOScore>
0.5228

> <Gold.PLP.Chemscore.Metal>
0.0000

> <Gold.Chemscore.Hbonds>
donor molecule, donor type, donor heavy atom, donor atom, acceptor molecule, acceptor atom, score
      L1  H    10    34       P1  7948  1.86
      L1  H    14    37       P1  7948  1.00
      P1  H  7997  8010       L1    18  0.67
      L1  C    21    47       P1 10175  0.07

> <Gold.PLP.Chemscore.Internal.Correction>
0.2065

> <Gold.Rescore>
     Score         DG    S(hbond)    S(metal)    S(lipo)     H(rot)  DE(clash)    DE(int)     intcor
     14.18     -20.57       2.86        0.00      90.98       1.99       2.86       3.53       ----

> <Gold.Chemscore.Fitness>
14.1843

> <Gold.Chemscore.DG>
-20.5725

> <Gold.Chemscore.ZeroCoef>
-5.4800

> <Gold.Chemscore.Hbond>
2.8567

> <Gold.Chemscore.Metal>
0.0000

> <Gold.Chemscore.Lipo>
90.9798

> <Gold.Chemscore.Internal_Hbond>
0.0000

> <Gold.Chemscore.DEClash>
2.8584

> <Gold.Chemscore.DEInternal>
3.5298

> <Gold.Chemscore.Rot>
1.9897

> <Gold.Chemscore.Internal.Correction>
   9.000000E+99

> <Gold.Chemscore.Hbonds>
donor molecule, donor type, donor heavy atom, donor atom, acceptor molecule, acceptor atom, score
      L1  H    10    34       P1  7948  0.88
      L1  H    14    37       P1  7948  0.98
      P1  H  7997  8010       L1    18  0.56

> <Gold.Chemscore.Hbond.Weighted>
-9.5415

> <Gold.Chemscore.Metal.Weighted>
-0.0000

> <Gold.Chemscore.Lipo.Weighted>
-10.6446

> <Gold.Chemscore.Internal_Hbond.Weighted>
0.0000

> <Gold.Chemscore.DEClash.Weighted>
2.8584

> <Gold.Chemscore.DEInternal.Weighted>
3.5298

> <Gold.Chemscore.Rot.Weighted>
5.0936

> <Gold.Chemscore.Internal.Correction.Weighted>
   9.000000E+99

> <Gold.Protein.RotatedTorsions>
[ 6907 6896 6895 6894 ] final  179.35 input  -60.11 | X-H torsion
[ 7974 7965 7964 7962 ] final  -66.48 input  175.53 | X-H torsion
[ 8008 7997 7996 7995 ] final  104.21 input   59.86 | X-H torsion
[ 10167 10162 10161 10158 ] final   40.43 input  -65.29 | X-H torsion
[ 10718 10713 10712 10709 ] final   62.70 input   66.30 | X-H torsion
[ 10763 10752 10751 10750 ] final    4.50 input  -60.55 | X-H torsion
[ 11005 11000 10999 10996 ] final  -15.57 input  -57.11 | X-H torsion

> <Gold.Protein.ActiveResidues>
 VAL166  LYS551  ARG553  GLY616  TRP617  ASP618  TYR619  PRO620  LYS621  CYS622 
 ASP623  PHE694  ASN695  SER759  ASP760  ASP761  ALA762  ILE779  LEU786  VAL792 
 PHE793  MET794  SER795  GLU796  ALA797  LYS798  CYS799  TRP800  GLU811  SER814 

> <Gold.Protein.RotatedAtoms>
  151.6731  133.3313  159.3201 H   0  0  0  0  0  0  0  0  0  0  0  0  # atno 6907 bound_to 6896
  150.7858  134.6845  159.6472 H   0  0  0  0  0  0  0  0  0  0  0  0  # atno 6908 bound_to 6896
  152.3927  134.6419  160.0153 H   0  0  0  0  0  0  0  0  0  0  0  0  # atno 6909 bound_to 6896
  145.7412  140.8952  143.0529 H   0  0  0  0  0  0  0  0  0  0  0  0  # atno 7974 bound_to 7965
  156.1553  140.3151  155.8716 H   0  0  0  0  0  0  0  0  0  0  0  0  # atno 8008 bound_to 7997
  155.3890  140.0492  157.3058 H   0  0  0  0  0  0  0  0  0  0  0  0  # atno 8009 bound_to 7997
  154.5096  140.2159  155.9194 H   0  0  0  0  0  0  0  0  0  0  0  0  # atno 8010 bound_to 7997
  140.3743  144.2064  150.6132 H   0  0  0  0  0  0  0  0  0  0  0  0  # atno 10167 bound_to 10162
  157.5919  130.9065  149.9621 H   0  0  0  0  0  0  0  0  0  0  0  0  # atno 10718 bound_to 10713
  153.2705  135.6931  153.7486 H   0  0  0  0  0  0  0  0  0  0  0  0  # atno 10763 bound_to 10752
  153.6511  135.3376  155.3101 H   0  0  0  0  0  0  0  0  0  0  0  0  # atno 10764 bound_to 10752
  154.8462  135.4454  154.1725 H   0  0  0  0  0  0  0  0  0  0  0  0  # atno 10765 bound_to 10752
  140.7979  133.8236  155.9442 H   0  0  0  0  0  0  0  0  0  0  0  0  # atno 11005 bound_to 11000
  144.6870  139.9464  143.7476 LP  0  0  0  0  0  0  0  0  0  0  0  0  # atno 17320 bound_to 7965
  146.0446  139.3453  143.0677 LP  0  0  0  0  0  0  0  0  0  0  0  0  # atno 17321 bound_to 7965
  140.5002  143.2320  151.8690 LP  0  0  0  0  0  0  0  0  0  0  0  0  # atno 17342 bound_to 10162
  139.4801  144.5068  151.8987 LP  0  0  0  0  0  0  0  0  0  0  0  0  # atno 17343 bound_to 10162
  156.0975  130.3658  150.0279 LP  0  0  0  0  0  0  0  0  0  0  0  0  # atno 17370 bound_to 10713
  156.8400  130.9422  151.3632 LP  0  0  0  0  0  0  0  0  0  0  0  0  # atno 17371 bound_to 10713
  140.9324  134.2005  157.4855 LP  0  0  0  0  0  0  0  0  0  0  0  0  # atno 17394 bound_to 11000
  139.8724  134.9838  156.5213 LP  0  0  0  0  0  0  0  0  0  0  0  0  # atno 17395 bound_to 11000

$$$$
