AV-unprocessed.smi:3328|AV-procd|sdf|12791|dock8
  -GOLD-   2272019143D 1   1.00000     0.00000
 Structure written by MMmdl.
 41 42  0  0  0  0  0  0  0  0  2 V2000
  146.5270  138.1605  151.9142 C   0  0  0  0  0  0  0  0  0  0  0  0
  145.4607  137.1128  152.0521 C   0  0  0  0  0  0  0  0  0  0  0  0
  144.2394  137.1990  152.7789 C   0  0  0  0  0  0  0  0  0  0  0  0
  143.5193  136.0914  152.7069 N   0  0  0  0  0  0  0  0  0  0  0  0
  144.2521  135.2630  151.9327 N   0  0  0  0  0  0  0  0  0  0  0  0
  143.7705  133.9215  151.6568 C   0  0  0  0  0  0  0  0  0  0  0  0
  144.8575  132.8413  151.8484 C   0  0  2  0  0  0  0  0  0  0  0  0
  144.4145  131.5114  151.2236 C   0  0  0  0  0  0  0  0  0  0  0  0
  145.1602  132.6348  153.2833 N   0  3  0  0  0  0  0  0  0  0  0  0
  145.7209  133.8122  153.9786 C   0  0  0  0  0  0  0  0  0  0  0  0
  147.1135  134.1585  153.4317 C   0  0  0  0  0  0  0  0  0  0  0  0
  148.1184  133.1892  153.8596 N   0  0  0  0  0  0  0  0  0  0  0  0
  149.2871  133.6121  154.6128 C   0  0  0  0  0  0  0  0  0  0  0  0
  150.0109  132.3119  154.9929 C   0  0  0  0  0  0  0  0  0  0  0  0
  149.3670  131.2096  154.1444 C   0  0  0  0  0  0  0  0  0  0  0  0
  148.1333  131.8828  153.5679 C   0  0  0  0  0  0  0  0  0  0  0  0
  147.2821  131.2755  152.9198 O   0  0  0  0  0  0  0  0  0  0  0  0
  145.4257  135.8558  151.5182 C   0  0  0  0  0  0  0  0  0  0  0  0
  146.3824  138.9809  152.6175 H   0  0  0  0  0  0  0  0  0  0  0  0
  146.5377  138.5927  150.9134 H   0  0  0  0  0  0  0  0  0  0  0  0
  147.5201  137.7511  152.0995 H   0  0  0  0  0  0  0  0  0  0  0  0
  143.8608  138.0274  153.3595 H   0  0  0  0  0  0  0  0  0  0  0  0
  142.9087  133.7161  152.2945 H   0  0  0  0  0  0  0  0  0  0  0  0
  143.4044  133.9041  150.6294 H   0  0  0  0  0  0  0  0  0  0  0  0
  145.7666  133.1546  151.3318 H   0  0  0  0  0  0  0  0  0  0  0  0
  144.2136  131.6259  150.1578 H   0  0  0  0  0  0  0  0  0  0  0  0
  143.5057  131.1337  151.6938 H   0  0  0  0  0  0  0  0  0  0  0  0
  145.1874  130.7494  151.3310 H   0  0  0  0  0  0  0  0  0  0  0  0
  144.3060  132.3577  153.7463 H   0  0  0  0  0  0  0  0  0  0  0  0
  145.0425  134.6567  153.8527 H   0  0  0  0  0  0  0  0  0  0  0  0
  145.7824  133.6139  155.0481 H   0  0  0  0  0  0  0  0  0  0  0  0
  147.0911  134.1889  152.3409 H   0  0  0  0  0  0  0  0  0  0  0  0
  147.4066  135.1562  153.7621 H   0  0  0  0  0  0  0  0  0  0  0  0
  149.9168  134.2398  153.9808 H   0  0  0  0  0  0  0  0  0  0  0  0
  149.0034  134.1890  155.4943 H   0  0  0  0  0  0  0  0  0  0  0  0
  151.0849  132.3844  154.8183 H   0  0  0  0  0  0  0  0  0  0  0  0
  149.8660  132.0971  156.0526 H   0  0  0  0  0  0  0  0  0  0  0  0
  150.0236  130.8969  153.3320 H   0  0  0  0  0  0  0  0  0  0  0  0
  149.1023  130.3342  154.7381 H   0  0  0  0  0  0  0  0  0  0  0  0
  146.1363  135.3363  150.8922 H   0  0  0  0  0  0  0  0  0  0  0  0
  145.8286  131.8821  153.3656 H   0  0  0  0  0  0  0  0  0  0  0  0
  1  2  1  0  0  0  0
  1 19  1  0  0  0  0
  1 20  1  0  0  0  0
  1 21  1  0  0  0  0
  2 18  2  0  0  0  0
  2  3  1  0  0  0  0
  3  4  2  0  0  0  0
  3 22  1  0  0  0  0
  4  5  1  0  0  0  0
  5  6  1  0  0  0  0
  5 18  1  0  0  0  0
  6  7  1  0  0  0  0
  6 23  1  0  0  0  0
  6 24  1  0  0  0  0
  7  8  1  0  0  0  0
  7  9  1  0  0  0  0
  7 25  1  0  0  0  0
  8 26  1  0  0  0  0
  8 27  1  0  0  0  0
  8 28  1  0  0  0  0
  9 10  1  0  0  0  0
  9 29  1  0  0  0  0
  9 41  1  0  0  0  0
 10 11  1  0  0  0  0
 10 30  1  0  0  0  0
 10 31  1  0  0  0  0
 11 12  1  0  0  0  0
 11 32  1  0  0  0  0
 11 33  1  0  0  0  0
 12 16  1  0  0  0  0
 12 13  1  0  0  0  0
 13 14  1  0  0  0  0
 13 34  1  0  0  0  0
 13 35  1  0  0  0  0
 14 15  1  0  0  0  0
 14 36  1  0  0  0  0
 14 37  1  0  0  0  0
 15 16  1  0  0  0  0
 15 38  1  0  0  0  0
 15 39  1  0  0  0  0
 16 17  2  0  0  0  0
 18 40  1  0  0  0  0
M  CHG  1   9   1
M  END
> <s_m_source_file>
AV-unprocessed.smi

> <i_m_source_file_index>
3328

> <i_lp_mmshare_version>
43012

> <i_f3d_flags>
0

> <s_epik_input>
W0NIM11jMVtjSF1ubihbY0hdMSlbQ0gyXVtDQEhdKFtDSDNdKVtOSF1bQ0gyXVtDSDJdTjJbQ0gyXVtDSDJdW0NIMl1DMj1P

> <s_epik_cmdline>
J2VwaWtfcHl0aG9uJywgJy1waCcsICc3LjAnLCAnLXRuJywgJzgnLCAnLW1hJywgJzIwMCcsICctbWV0YWxfYmluZGluZycsICctaW1hZScsICc8aW5maWxlLm1hZT4nLCAnLW9tYWUnLCAnPG91dGZpbGUubWFlPic=

> <r_lp_tautomer_probability>
1

> <r_epik_Ionization_Penalty>
0.00826719

> <r_epik_Ionization_Penalty_Charging>
0.00825899

> <r_epik_Ionization_Penalty_Neutral>
8.19932e-06

> <r_epik_State_Penalty>
0.00621436

> <r_epik_Charging_Adjusted_Penalty>
0.0144734

> <i_epik_Tot_Q>
1

> <i_epik_Tot_abs_Q>
1

> <r_epik_Metal_State_Penalty>
0.00621509

> <b_epik_Metal_Only>
0

> <s_lp_Force_Field>
OPLS_2005

> <r_lp_Energy>
18.6505

> <b_lp_Chiralities_Consistent>
1

> <s_lp_Variant>
AV-unprocessed.smi:3328-1

> <Gold.Version>
5.8.1

> <Gold.Id.Protein>
6NUR|6NUR_protein|mol2

> <Gold.PLP.Fitness>
39.6138

> <Gold.PLP.PLP>
-31.3992

> <Gold.PLP.part.hbond>
-0.9510

> <Gold.PLP.part.metal>
0.0000

> <Gold.PLP.part.buried>
-0.2202

> <Gold.PLP.part.nonpolar>
-31.2057

> <Gold.PLP.part.repulsive>
0.2570

> <Gold.PLP.ligand.clash>
0.0000

> <Gold.PLP.ligand.torsion>
0.3073

> <Gold.PLP.Chemscore.Hbond>
1.9825

> <Gold.PLP.Chemscore.CHOScore>
0.9343

> <Gold.PLP.Chemscore.Metal>
0.0000

> <Gold.Chemscore.Hbonds>
donor molecule, donor type, donor heavy atom, donor atom, acceptor molecule, acceptor atom, score
      L1  H     9    29       P1 10957  2.00
      L1  C     3    22       P1 10175  0.78

> <Gold.PLP.Chemscore.Internal.Correction>
0.0787

> <Gold.Rescore>
     Score         DG    S(hbond)    S(metal)    S(lipo)     H(rot)  DE(clash)    DE(int)     intcor
      7.55     -10.76       0.87        0.00      63.39       1.97       0.13       3.08       ----

> <Gold.Chemscore.Fitness>
7.5504

> <Gold.Chemscore.DG>
-10.7639

> <Gold.Chemscore.ZeroCoef>
-5.4800

> <Gold.Chemscore.Hbond>
0.8723

> <Gold.Chemscore.Metal>
0.0000

> <Gold.Chemscore.Lipo>
63.3942

> <Gold.Chemscore.Internal_Hbond>
0.0000

> <Gold.Chemscore.DEClash>
0.1298

> <Gold.Chemscore.DEInternal>
3.0837

> <Gold.Chemscore.Rot>
1.9714

> <Gold.Chemscore.Internal.Correction>
   9.000000E+99

> <Gold.Chemscore.Hbonds>
donor molecule, donor type, donor heavy atom, donor atom, acceptor molecule, acceptor atom, score
      L1  H     9    29       P1 10957  0.24

> <Gold.Chemscore.Hbond.Weighted>
-2.9136

> <Gold.Chemscore.Metal.Weighted>
-0.0000

> <Gold.Chemscore.Lipo.Weighted>
-7.4171

> <Gold.Chemscore.Internal_Hbond.Weighted>
0.0000

> <Gold.Chemscore.DEClash.Weighted>
0.1298

> <Gold.Chemscore.DEInternal.Weighted>
3.0837

> <Gold.Chemscore.Rot.Weighted>
5.0468

> <Gold.Chemscore.Internal.Correction.Weighted>
   9.000000E+99

> <Gold.Protein.RotatedTorsions>
[ 6907 6896 6895 6894 ] final  -58.55 input  -60.11 | X-H torsion
[ 7974 7965 7964 7962 ] final   41.74 input  175.53 | X-H torsion
[ 8008 7997 7996 7995 ] final  -90.70 input   59.86 | X-H torsion
[ 10167 10162 10161 10158 ] final  -32.99 input  -65.29 | X-H torsion
[ 10718 10713 10712 10709 ] final  -98.03 input   66.30 | X-H torsion
[ 10763 10752 10751 10750 ] final  155.52 input  -60.55 | X-H torsion
[ 11005 11000 10999 10996 ] final   28.68 input  -57.11 | X-H torsion

> <Gold.Protein.ActiveResidues>
 VAL166  LYS551  ARG553  GLY616  TRP617  ASP618  TYR619  PRO620  LYS621  CYS622 
 ASP623  PHE694  ASN695  SER759  ASP760  ASP761  ALA762  ILE779  LEU786  VAL792 
 PHE793  MET794  SER795  GLU796  ALA797  LYS798  CYS799  TRP800  GLU811  SER814 

> <Gold.Protein.RotatedAtoms>
  150.7998  134.7084  159.6589 H   0  0  0  0  0  0  0  0  0  0  0  0  # atno 6907 bound_to 6896
  152.4114  134.6114  160.0036 H   0  0  0  0  0  0  0  0  0  0  0  0  # atno 6908 bound_to 6896
  151.6356  133.3292  159.3155 H   0  0  0  0  0  0  0  0  0  0  0  0  # atno 6909 bound_to 6896
  146.0799  139.5381  142.9544 H   0  0  0  0  0  0  0  0  0  0  0  0  # atno 7974 bound_to 7965
  154.7018  140.0527  157.0465 H   0  0  0  0  0  0  0  0  0  0  0  0  # atno 8008 bound_to 7997
  155.0674  140.3196  155.4622 H   0  0  0  0  0  0  0  0  0  0  0  0  # atno 8009 bound_to 7997
  156.2762  140.2088  156.5802 H   0  0  0  0  0  0  0  0  0  0  0  0  # atno 8010 bound_to 7997
  140.7212  143.3653  151.1882 H   0  0  0  0  0  0  0  0  0  0  0  0  # atno 10167 bound_to 10162
  156.0097  130.5220  150.6462 H   0  0  0  0  0  0  0  0  0  0  0  0  # atno 10718 bound_to 10713
  154.1697  135.2805  155.3085 H   0  0  0  0  0  0  0  0  0  0  0  0  # atno 10763 bound_to 10752
  154.6085  135.5506  153.7451 H   0  0  0  0  0  0  0  0  0  0  0  0  # atno 10764 bound_to 10752
  153.0168  135.6409  154.1837 H   0  0  0  0  0  0  0  0  0  0  0  0  # atno 10765 bound_to 10752
  140.3130  134.2628  155.7730 H   0  0  0  0  0  0  0  0  0  0  0  0  # atno 11005 bound_to 11000
  145.6237  141.0317  143.1901 LP  0  0  0  0  0  0  0  0  0  0  0  0  # atno 17320 bound_to 7965
  144.7286  139.7796  143.7355 LP  0  0  0  0  0  0  0  0  0  0  0  0  # atno 17321 bound_to 7965
  139.7214  143.9218  152.2986 LP  0  0  0  0  0  0  0  0  0  0  0  0  # atno 17342 bound_to 10162
  139.8976  144.6930  150.8701 LP  0  0  0  0  0  0  0  0  0  0  0  0  # atno 17343 bound_to 10162
  157.4233  131.0839  151.1110 LP  0  0  0  0  0  0  0  0  0  0  0  0  # atno 17370 bound_to 10713
  157.1705  130.6265  149.5639 LP  0  0  0  0  0  0  0  0  0  0  0  0  # atno 17371 bound_to 10713
  141.2104  133.7721  156.9936 LP  0  0  0  0  0  0  0  0  0  0  0  0  # atno 17394 bound_to 11000
  140.1008  134.9536  157.1920 LP  0  0  0  0  0  0  0  0  0  0  0  0  # atno 17395 bound_to 11000

$$$$
