AV-unprocessed.smi:1433|AV-procd|sdf|5837|dock7
  -GOLD-   22720 5503D 1   1.00000     0.00000
 Structure written by MMmdl.
 44 45  0  0  0  0  0  0  0  0  1 V2000
  150.6029  145.0319  159.3599 C   0  0  0  0  0  0  0  0  0  0  0  0
  152.0137  144.4606  159.1360 C   0  0  2  0  0  0  0  0  0  0  0  0
  152.0547  143.3234  158.0957 C   0  0  0  0  0  0  0  0  0  0  0  0
  151.5028  142.0548  158.5853 N   0  0  0  0  0  0  0  0  0  0  0  0
  151.5832  140.9695  157.5791 C   0  0  1  0  0  0  0  0  0  0  0  0
  151.0345  139.6187  158.1089 C   0  0  0  0  0  0  0  0  0  0  0  0
  150.8632  141.3119  156.2453 C   0  0  0  0  0  0  0  0  0  0  0  0
  150.6813  140.1375  155.4014 N   0  0  0  0  0  0  0  0  0  0  0  0
  151.6669  139.3339  154.9767 C   0  0  0  0  0  0  0  0  0  0  0  0
  152.8472  139.4800  155.2938 O   0  0  0  0  0  0  0  0  0  0  0  0
  151.2575  138.1887  154.0488 C   0  0  0  0  0  0  0  0  0  0  0  0
  150.4516  137.2060  154.7524 N   0  0  0  0  0  0  0  0  0  0  0  0
  149.2129  137.3747  155.3354 C   0  0  0  0  0  0  0  0  0  0  0  0
  148.8581  136.1782  155.8892 C   0  0  0  0  0  0  0  0  0  0  0  0
  149.9588  135.3271  155.5905 C   0  0  0  0  0  0  0  0  0  0  0  0
  150.9107  135.9442  154.9093 N   0  0  0  0  0  0  0  0  0  0  0  0
  152.1914  141.7158  159.8342 C   0  0  0  0  0  0  0  0  0  0  0  0
  152.0974  142.8294  160.8927 C   0  0  1  0  0  0  0  0  0  0  0  0
  152.8948  142.4906  162.1567 C   0  0  0  0  0  0  0  0  0  0  0  0
  152.6183  144.0407  160.3567 O   0  0  0  0  0  0  0  0  0  0  0  0
  150.2084  145.4603  158.4383 H   0  0  0  0  0  0  0  0  0  0  0  0
  150.6182  145.8223  160.1106 H   0  0  0  0  0  0  0  0  0  0  0  0
  149.8981  144.2693  159.6903 H   0  0  0  0  0  0  0  0  0  0  0  0
  152.6283  145.2785  158.7589 H   0  0  0  0  0  0  0  0  0  0  0  0
  151.5116  143.6739  157.2207 H   0  0  0  0  0  0  0  0  0  0  0  0
  153.0882  143.1694  157.7812 H   0  0  0  0  0  0  0  0  0  0  0  0
  152.6361  140.8123  157.3394 H   0  0  0  0  0  0  0  0  0  0  0  0
  151.0384  138.8363  157.3505 H   0  0  0  0  0  0  0  0  0  0  0  0
  150.0086  139.7226  158.4636 H   0  0  0  0  0  0  0  0  0  0  0  0
  151.6351  139.2199  158.9251 H   0  0  0  0  0  0  0  0  0  0  0  0
  149.8983  141.7774  156.4551 H   0  0  0  0  0  0  0  0  0  0  0  0
  151.4361  142.0160  155.6443 H   0  0  0  0  0  0  0  0  0  0  0  0
  149.7412  139.9403  155.0886 H   0  0  0  0  0  0  0  0  0  0  0  0
  150.6813  138.5765  153.2077 H   0  0  0  0  0  0  0  0  0  0  0  0
  152.1456  137.7069  153.6366 H   0  0  0  0  0  0  0  0  0  0  0  0
  148.6958  138.3228  155.3092 H   0  0  0  0  0  0  0  0  0  0  0  0
  147.9513  135.9463  156.4278 H   0  0  0  0  0  0  0  0  0  0  0  0
  150.0932  134.2866  155.8467 H   0  0  0  0  0  0  0  0  0  0  0  0
  151.7590  140.8220  160.2797 H   0  0  0  0  0  0  0  0  0  0  0  0
  153.2393  141.4918  159.6284 H   0  0  0  0  0  0  0  0  0  0  0  0
  151.0545  142.9747  161.1762 H   0  0  0  0  0  0  0  0  0  0  0  0
  152.5288  141.5730  162.6183 H   0  0  0  0  0  0  0  0  0  0  0  0
  152.8127  143.2890  162.8945 H   0  0  0  0  0  0  0  0  0  0  0  0
  153.9528  142.3535  161.9311 H   0  0  0  0  0  0  0  0  0  0  0  0
  1  2  1  0  0  0  0
  1 21  1  0  0  0  0
  1 22  1  0  0  0  0
  1 23  1  0  0  0  0
  2 20  1  0  0  0  0
  2  3  1  0  0  0  0
  2 24  1  0  0  0  0
  3  4  1  0  0  0  0
  3 25  1  0  0  0  0
  3 26  1  0  0  0  0
  4  5  1  0  0  0  0
  4 17  1  0  0  0  0
  5  6  1  0  0  0  0
  5  7  1  0  0  0  0
  5 27  1  0  0  0  0
  6 28  1  0  0  0  0
  6 29  1  0  0  0  0
  6 30  1  0  0  0  0
  7  8  1  0  0  0  0
  7 31  1  0  0  0  0
  7 32  1  0  0  0  0
  8  9  1  0  0  0  0
  8 33  1  0  0  0  0
  9 10  2  0  0  0  0
  9 11  1  0  0  0  0
 11 12  1  0  0  0  0
 11 34  1  0  0  0  0
 11 35  1  0  0  0  0
 12 16  1  0  0  0  0
 12 13  1  0  0  0  0
 13 14  2  0  0  0  0
 13 36  1  0  0  0  0
 14 15  1  0  0  0  0
 14 37  1  0  0  0  0
 15 16  2  0  0  0  0
 15 38  1  0  0  0  0
 17 18  1  0  0  0  0
 17 39  1  0  0  0  0
 17 40  1  0  0  0  0
 18 19  1  0  0  0  0
 18 20  1  0  0  0  0
 18 41  1  0  0  0  0
 19 42  1  0  0  0  0
 19 43  1  0  0  0  0
 19 44  1  0  0  0  0
M  END
> <s_m_source_file>
AV-unprocessed.smi

> <i_m_source_file_index>
1433

> <i_lp_mmshare_version>
43012

> <i_f3d_flags>
0

> <s_epik_input>
W0NIM11bQ0BASF0xW0NIMl1OKFtDSDJdW0NASF0oTzEpW0NIM10pW0NASF0oW0NIM10pW0NIMl1bTkhdQyg9TylbQ0gyXW4yW2NIXVtjSF1bY0hdbjI=

> <s_epik_cmdline>
J2VwaWtfcHl0aG9uJywgJy1waCcsICc3LjAnLCAnLXRuJywgJzgnLCAnLW1hJywgJzIwMCcsICctbWV0YWxfYmluZGluZycsICctaW1hZScsICc8aW5maWxlLm1hZT4nLCAnLW9tYWUnLCAnPG91dGZpbGUubWFlPic=

> <r_lp_tautomer_probability>
1

> <r_epik_Ionization_Penalty>
0.196927

> <r_epik_Ionization_Penalty_Charging>
0

> <r_epik_Ionization_Penalty_Neutral>
0.196927

> <r_epik_State_Penalty>
0.186684

> <r_epik_Charging_Adjusted_Penalty>
0.186684

> <i_epik_Tot_Q>
0

> <i_epik_Tot_abs_Q>
0

> <r_epik_Metal_State_Penalty>
0.186682

> <b_epik_Metal_Only>
0

> <s_lp_Force_Field>
OPLS_2005

> <r_lp_Energy>
30.021

> <b_lp_Chiralities_Consistent>
1

> <s_lp_Variant>
AV-unprocessed.smi:1433-3

> <Gold.Version>
5.8.1

> <Gold.Id.Protein>
6NUR|6NUR_protein|mol2

> <Gold.PLP.Fitness>
47.1538

> <Gold.PLP.PLP>
-41.5421

> <Gold.PLP.part.hbond>
-2.4419

> <Gold.PLP.part.metal>
0.0000

> <Gold.PLP.part.buried>
-6.2715

> <Gold.PLP.part.nonpolar>
-33.4198

> <Gold.PLP.part.repulsive>
0.2974

> <Gold.PLP.ligand.clash>
0.0000

> <Gold.PLP.ligand.torsion>
0.2184

> <Gold.PLP.Chemscore.Hbond>
2.0000

> <Gold.PLP.Chemscore.CHOScore>
0.0000

> <Gold.PLP.Chemscore.Metal>
0.0000

> <Gold.Chemscore.Hbonds>
donor molecule, donor type, donor heavy atom, donor atom, acceptor molecule, acceptor atom, score
      P1  H  7997  8008       L1    10  1.00
      P1  H 10752 10765       L1    16  0.76

> <Gold.PLP.Chemscore.Internal.Correction>
0.0485

> <Gold.Rescore>
     Score         DG    S(hbond)    S(metal)    S(lipo)     H(rot)  DE(clash)    DE(int)     intcor
     18.85     -19.33       1.99        0.00     100.95       1.80       0.11       0.37       ----

> <Gold.Chemscore.Fitness>
18.8489

> <Gold.Chemscore.DG>
-19.3328

> <Gold.Chemscore.ZeroCoef>
-5.4800

> <Gold.Chemscore.Hbond>
1.9939

> <Gold.Chemscore.Metal>
0.0000

> <Gold.Chemscore.Lipo>
100.9470

> <Gold.Chemscore.Internal_Hbond>
0.0000

> <Gold.Chemscore.DEClash>
0.1124

> <Gold.Chemscore.DEInternal>
0.3715

> <Gold.Chemscore.Rot>
1.8038

> <Gold.Chemscore.Internal.Correction>
   9.000000E+99

> <Gold.Chemscore.Hbonds>
donor molecule, donor type, donor heavy atom, donor atom, acceptor molecule, acceptor atom, score
      P1  H  7997  8008       L1    10  1.00
      P1  H 10752 10765       L1    16  0.71

> <Gold.Chemscore.Hbond.Weighted>
-6.6598

> <Gold.Chemscore.Metal.Weighted>
-0.0000

> <Gold.Chemscore.Lipo.Weighted>
-11.8108

> <Gold.Chemscore.Internal_Hbond.Weighted>
0.0000

> <Gold.Chemscore.DEClash.Weighted>
0.1124

> <Gold.Chemscore.DEInternal.Weighted>
0.3715

> <Gold.Chemscore.Rot.Weighted>
4.6178

> <Gold.Chemscore.Internal.Correction.Weighted>
   9.000000E+99

> <Gold.Protein.RotatedTorsions>
[ 6907 6896 6895 6894 ] final   -4.16 input  -60.11 | X-H torsion
[ 7974 7965 7964 7962 ] final   57.61 input  175.53 | X-H torsion
[ 8008 7997 7996 7995 ] final  -21.55 input   59.86 | X-H torsion
[ 10167 10162 10161 10158 ] final  -48.27 input  -65.29 | X-H torsion
[ 10718 10713 10712 10709 ] final  -43.17 input   66.30 | X-H torsion
[ 10763 10752 10751 10750 ] final -165.47 input  -60.55 | X-H torsion
[ 11005 11000 10999 10996 ] final -166.38 input  -57.11 | X-H torsion

> <Gold.Protein.ActiveResidues>
 VAL166  LYS551  ARG553  GLY616  TRP617  ASP618  TYR619  PRO620  LYS621  CYS622 
 ASP623  PHE694  ASN695  SER759  ASP760  ASP761  ALA762  ILE779  LEU786  VAL792 
 PHE793  MET794  SER795  GLU796  ALA797  LYS798  CYS799  TRP800  GLU811  SER814 

> <Gold.Protein.RotatedAtoms>
  151.5022  135.1062  159.9831 H   0  0  0  0  0  0  0  0  0  0  0  0  # atno 6907 bound_to 6896
  152.4697  133.7998  159.6957 H   0  0  0  0  0  0  0  0  0  0  0  0  # atno 6908 bound_to 6896
  150.8699  133.7457  159.2990 H   0  0  0  0  0  0  0  0  0  0  0  0  # atno 6909 bound_to 6896
  145.9271  139.3777  143.0443 H   0  0  0  0  0  0  0  0  0  0  0  0  # atno 7974 bound_to 7965
  154.4698  140.2031  156.0023 H   0  0  0  0  0  0  0  0  0  0  0  0  # atno 8008 bound_to 7997
  156.0991  140.3246  155.7889 H   0  0  0  0  0  0  0  0  0  0  0  0  # atno 8009 bound_to 7997
  155.4827  140.0540  157.2955 H   0  0  0  0  0  0  0  0  0  0  0  0  # atno 8010 bound_to 7997
  140.6738  143.2747  151.4047 H   0  0  0  0  0  0  0  0  0  0  0  0  # atno 10167 bound_to 10162
  156.2518  130.4189  149.8641 H   0  0  0  0  0  0  0  0  0  0  0  0  # atno 10718 bound_to 10713
  154.6929  135.2974  154.9454 H   0  0  0  0  0  0  0  0  0  0  0  0  # atno 10763 bound_to 10752
  154.0411  135.6657  153.4794 H   0  0  0  0  0  0  0  0  0  0  0  0  # atno 10764 bound_to 10752
  153.0625  135.5107  154.8030 H   0  0  0  0  0  0  0  0  0  0  0  0  # atno 10765 bound_to 10752
  140.5651  134.5294  157.5151 H   0  0  0  0  0  0  0  0  0  0  0  0  # atno 11005 bound_to 11000
  145.8474  140.9547  143.0767 LP  0  0  0  0  0  0  0  0  0  0  0  0  # atno 17320 bound_to 7965
  144.6760  140.0363  143.7482 LP  0  0  0  0  0  0  0  0  0  0  0  0  # atno 17321 bound_to 7965
  139.6020  144.1276  152.2208 LP  0  0  0  0  0  0  0  0  0  0  0  0  # atno 17342 bound_to 10162
  140.0663  144.5816  150.7225 LP  0  0  0  0  0  0  0  0  0  0  0  0  # atno 17343 bound_to 10162
  156.6187  130.8617  151.3470 LP  0  0  0  0  0  0  0  0  0  0  0  0  # atno 17370 bound_to 10713
  157.7217  130.9568  150.1467 LP  0  0  0  0  0  0  0  0  0  0  0  0  # atno 17371 bound_to 10713
  139.9388  134.7824  156.0731 LP  0  0  0  0  0  0  0  0  0  0  0  0  # atno 17394 bound_to 11000
  141.1090  133.6650  156.2934 LP  0  0  0  0  0  0  0  0  0  0  0  0  # atno 17395 bound_to 11000

$$$$
