AV-unprocessed.smi:155|AV-procd|sdf|1275|dock10
  -GOLD-   2262018543D 1   1.00000     0.00000
 Structure written by MMmdl.
 63 66  0  0  0  0  0  0  0  0  2 V2000
  145.3777  131.6709  150.8018 C   0  0  0  0  0  0  0  0  0  0  0  0
  146.5254  132.2620  151.5268 N   0  3  0  0  0  0  0  0  0  0  0  0
  146.5583  133.7341  151.3800 C   0  0  0  0  0  0  0  0  0  0  0  0
  146.6095  131.8434  152.9491 C   0  0  0  0  0  0  0  0  0  0  0  0
  148.0090  132.0718  153.5664 C   0  0  0  0  0  0  0  0  0  0  0  0
  148.1947  133.4373  154.0642 N   0  0  0  0  0  0  0  0  0  0  0  0
  147.0281  133.8826  154.8380 C   0  0  0  0  0  0  0  0  0  0  0  0
  147.2001  135.1850  155.6504 C   0  0  0  0  0  0  0  0  0  0  0  0
  148.0651  136.2739  155.0000 C   0  0  0  0  0  0  0  0  0  0  0  0
  149.4859  136.0212  155.2206 N   0  0  0  0  0  0  0  0  0  0  0  0
  150.2355  137.1430  155.1858 C   0  0  0  0  0  0  0  0  0  0  0  0
  151.3959  137.1604  154.4786 N   0  0  0  0  0  0  0  0  0  0  0  0
  152.1330  138.2750  154.4398 C   0  0  0  0  0  0  0  0  0  0  0  0
  151.8969  139.4541  155.0211 N   0  0  0  0  0  0  0  0  0  0  0  0
  150.7298  139.4339  155.7281 C   0  0  0  0  0  0  0  0  0  0  0  0
  149.8470  138.3273  155.8628 C   0  0  0  0  0  0  0  0  0  0  0  0
  148.7602  138.6744  156.6547 N   0  0  0  0  0  0  0  0  0  0  0  0
  148.9836  139.9226  156.9652 C   0  0  0  0  0  0  0  0  0  0  0  0
  150.1380  140.4613  156.4419 N   0  0  0  0  0  0  0  0  0  0  0  0
  150.6214  141.8209  156.6147 C   0  0  0  0  0  0  0  0  0  0  0  0
  149.9629  142.5793  157.7890 C   0  0  2  0  0  0  0  0  0  0  0  0
  148.6066  142.8640  157.5067 O   0  0  0  0  0  0  0  0  0  0  0  0
  150.6976  143.8635  158.2359 C   0  0  2  0  0  0  0  0  0  0  0  0
  152.2059  143.7376  158.4468 C   0  0  0  0  0  0  0  0  0  0  0  0
  152.5256  144.9331  159.3310 C   0  0  0  0  0  0  0  0  0  0  0  0
  151.1700  145.3458  159.9181 C   0  0  0  0  0  0  0  0  0  0  0  0
  150.2476  144.3538  159.4887 O   0  0  0  0  0  0  0  0  0  0  0  0
  150.0943  134.9064  154.5040 C   0  0  0  0  0  0  0  0  0  0  0  0
  149.4388  133.5523  154.8252 C   0  0  0  0  0  0  0  0  0  0  0  0
  144.4321  131.9475  151.2704 H   0  0  0  0  0  0  0  0  0  0  0  0
  145.4445  130.5846  150.7739 H   0  0  0  0  0  0  0  0  0  0  0  0
  145.3573  132.0160  149.7675 H   0  0  0  0  0  0  0  0  0  0  0  0
  145.6925  134.1940  151.8581 H   0  0  0  0  0  0  0  0  0  0  0  0
  146.5584  134.0184  150.3272 H   0  0  0  0  0  0  0  0  0  0  0  0
  147.4601  134.1494  151.8314 H   0  0  0  0  0  0  0  0  0  0  0  0
  145.8954  132.4273  153.5318 H   0  0  0  0  0  0  0  0  0  0  0  0
  146.2759  130.8091  153.0431 H   0  0  0  0  0  0  0  0  0  0  0  0
  148.2273  131.3561  154.3600 H   0  0  0  0  0  0  0  0  0  0  0  0
  148.7386  131.8709  152.7807 H   0  0  0  0  0  0  0  0  0  0  0  0
  146.1924  134.0152  154.1517 H   0  0  0  0  0  0  0  0  0  0  0  0
  146.7340  133.0979  155.5353 H   0  0  0  0  0  0  0  0  0  0  0  0
  146.2056  135.5929  155.8336 H   0  0  0  0  0  0  0  0  0  0  0  0
  147.5984  134.9554  156.6399 H   0  0  0  0  0  0  0  0  0  0  0  0
  147.8518  136.3529  153.9330 H   0  0  0  0  0  0  0  0  0  0  0  0
  147.8042  137.2365  155.4434 H   0  0  0  0  0  0  0  0  0  0  0  0
  153.0414  138.2141  153.8590 H   0  0  0  0  0  0  0  0  0  0  0  0
  148.3042  140.4917  157.5830 H   0  0  0  0  0  0  0  0  0  0  0  0
  151.7026  141.7823  156.7539 H   0  0  0  0  0  0  0  0  0  0  0  0
  150.4554  142.3660  155.6848 H   0  0  0  0  0  0  0  0  0  0  0  0
  149.9539  141.8978  158.6403 H   0  0  0  0  0  0  0  0  0  0  0  0
  148.5720  143.3814  156.7165 H   0  0  0  0  0  0  0  0  0  0  0  0
  150.5145  144.6427  157.4931 H   0  0  0  0  0  0  0  0  0  0  0  0
  152.4499  142.8189  158.9814 H   0  0  0  0  0  0  0  0  0  0  0  0
  152.7641  143.7402  157.5102 H   0  0  0  0  0  0  0  0  0  0  0  0
  153.2436  144.6685  160.1080 H   0  0  0  0  0  0  0  0  0  0  0  0
  152.9498  145.7506  158.7469 H   0  0  0  0  0  0  0  0  0  0  0  0
  151.1877  145.4104  161.0062 H   0  0  0  0  0  0  0  0  0  0  0  0
  150.8610  146.3158  159.5257 H   0  0  0  0  0  0  0  0  0  0  0  0
  150.0755  135.0954  153.4293 H   0  0  0  0  0  0  0  0  0  0  0  0
  151.1465  134.8535  154.7887 H   0  0  0  0  0  0  0  0  0  0  0  0
  149.2910  133.3965  155.8950 H   0  0  0  0  0  0  0  0  0  0  0  0
  150.1422  132.7835  154.5043 H   0  0  0  0  0  0  0  0  0  0  0  0
  147.3624  131.9190  151.0770 H   0  0  0  0  0  0  0  0  0  0  0  0
  1  2  1  0  0  0  0
  1 30  1  0  0  0  0
  1 31  1  0  0  0  0
  1 32  1  0  0  0  0
  2  3  1  0  0  0  0
  2  4  1  0  0  0  0
  2 63  1  0  0  0  0
  3 33  1  0  0  0  0
  3 34  1  0  0  0  0
  3 35  1  0  0  0  0
  4  5  1  0  0  0  0
  4 36  1  0  0  0  0
  4 37  1  0  0  0  0
  5  6  1  0  0  0  0
  5 38  1  0  0  0  0
  5 39  1  0  0  0  0
  6 29  1  0  0  0  0
  6  7  1  0  0  0  0
  7  8  1  0  0  0  0
  7 40  1  0  0  0  0
  7 41  1  0  0  0  0
  8  9  1  0  0  0  0
  8 42  1  0  0  0  0
  8 43  1  0  0  0  0
  9 10  1  0  0  0  0
  9 44  1  0  0  0  0
  9 45  1  0  0  0  0
 10 11  1  0  0  0  0
 10 28  1  0  0  0  0
 11 16  1  0  0  0  0
 11 12  2  0  0  0  0
 12 13  1  0  0  0  0
 13 14  2  0  0  0  0
 13 46  1  0  0  0  0
 14 15  1  0  0  0  0
 15 19  1  0  0  0  0
 15 16  2  0  0  0  0
 16 17  1  0  0  0  0
 17 18  2  0  0  0  0
 18 19  1  0  0  0  0
 18 47  1  0  0  0  0
 19 20  1  0  0  0  0
 20 21  1  0  0  0  0
 20 48  1  0  0  0  0
 20 49  1  0  0  0  0
 21 22  1  0  0  0  0
 21 23  1  0  0  0  0
 21 50  1  0  0  0  0
 22 51  1  0  0  0  0
 23 27  1  0  0  0  0
 23 24  1  0  0  0  0
 23 52  1  0  0  0  0
 24 25  1  0  0  0  0
 24 53  1  0  0  0  0
 24 54  1  0  0  0  0
 25 26  1  0  0  0  0
 25 55  1  0  0  0  0
 25 56  1  0  0  0  0
 26 27  1  0  0  0  0
 26 57  1  0  0  0  0
 26 58  1  0  0  0  0
 28 29  1  0  0  0  0
 28 59  1  0  0  0  0
 28 60  1  0  0  0  0
 29 61  1  0  0  0  0
 29 62  1  0  0  0  0
M  CHG  1   2   1
M  END
> <s_m_source_file>
AV-unprocessed.smi

> <i_m_source_file_index>
155

> <i_lp_mmshare_version>
43012

> <i_f3d_flags>
0

> <s_epik_input>
W0NIM11OKFtDSDNdKVtDSDJdW0NIMl1OMVtDSDJdW0NIMl1bQ0gyXU4oW0NIMl1bQ0gyXTEpYyhuW2NIXW4yKWMoYzIzKW5bY0hdbjNbQ0gyXVtDQEhdKFtPSF0pW0NAQEhdNFtDSDJdW0NIMl1bQ0gyXU80

> <s_epik_cmdline>
J2VwaWtfcHl0aG9uJywgJy1waCcsICc3LjAnLCAnLXRuJywgJzgnLCAnLW1hJywgJzIwMCcsICctbWV0YWxfYmluZGluZycsICctaW1hZScsICc8aW5maWxlLm1hZT4nLCAnLW9tYWUnLCAnPG91dGZpbGUubWFlPic=

> <r_lp_tautomer_probability>
1

> <r_epik_Ionization_Penalty>
0.0599493

> <r_epik_Ionization_Penalty_Charging>
0.00816363

> <r_epik_Ionization_Penalty_Neutral>
0.0517857

> <r_epik_State_Penalty>
0.460607

> <r_epik_Charging_Adjusted_Penalty>
0.468771

> <i_epik_Tot_Q>
1

> <i_epik_Tot_abs_Q>
1

> <r_epik_Metal_State_Penalty>
0.45965

> <b_epik_Metal_Only>
0

> <s_lp_Force_Field>
OPLS_2005

> <r_lp_Energy>
61.9788

> <b_lp_Chiralities_Consistent>
1

> <s_lp_Variant>
AV-unprocessed.smi:155-9

> <Gold.Version>
5.8.1

> <Gold.Id.Protein>
6NUR|6NUR_protein|mol2

> <Gold.PLP.Fitness>
55.1515

> <Gold.PLP.PLP>
-44.8384

> <Gold.PLP.part.hbond>
-4.0000

> <Gold.PLP.part.metal>
0.0000

> <Gold.PLP.part.buried>
-8.0456

> <Gold.PLP.part.nonpolar>
-33.8009

> <Gold.PLP.part.repulsive>
0.5995

> <Gold.PLP.ligand.clash>
0.0000

> <Gold.PLP.ligand.torsion>
0.9107

> <Gold.PLP.Chemscore.Hbond>
3.9204

> <Gold.PLP.Chemscore.CHOScore>
0.0000

> <Gold.PLP.Chemscore.Metal>
0.0000

> <Gold.Chemscore.Hbonds>
donor molecule, donor type, donor heavy atom, donor atom, acceptor molecule, acceptor atom, score
      L1  H     2    63       P1 10747  0.84
      L1  H    22    51       P1  8028  1.00
      P1  H  7989  7998       L1    14  0.85
      P1  H 10752 10764       L1    12  0.62

> <Gold.PLP.Chemscore.Internal.Correction>
0.3733

> <Gold.Rescore>
     Score         DG    S(hbond)    S(metal)    S(lipo)     H(rot)  DE(clash)    DE(int)     intcor
     17.85     -19.73       2.79        0.00     107.57       2.99       0.14       1.74       ----

> <Gold.Chemscore.Fitness>
17.8501

> <Gold.Chemscore.DG>
-19.7281

> <Gold.Chemscore.ZeroCoef>
-5.4800

> <Gold.Chemscore.Hbond>
2.7864

> <Gold.Chemscore.Metal>
0.0000

> <Gold.Chemscore.Lipo>
107.5740

> <Gold.Chemscore.Internal_Hbond>
0.0000

> <Gold.Chemscore.DEClash>
0.1396

> <Gold.Chemscore.DEInternal>
1.7384

> <Gold.Chemscore.Rot>
2.9862

> <Gold.Chemscore.Internal.Correction>
   9.000000E+99

> <Gold.Chemscore.Hbonds>
donor molecule, donor type, donor heavy atom, donor atom, acceptor molecule, acceptor atom, score
      L1  H     2    63       P1 10747  0.82
      L1  H    22    51       P1  8028  0.50
      P1  H  7989  7998       L1    14  0.29
      P1  H 10752 10764       L1    12  0.21

> <Gold.Chemscore.Hbond.Weighted>
-9.3067

> <Gold.Chemscore.Metal.Weighted>
-0.0000

> <Gold.Chemscore.Lipo.Weighted>
-12.5862

> <Gold.Chemscore.Internal_Hbond.Weighted>
0.0000

> <Gold.Chemscore.DEClash.Weighted>
0.1396

> <Gold.Chemscore.DEInternal.Weighted>
1.7384

> <Gold.Chemscore.Rot.Weighted>
7.6448

> <Gold.Chemscore.Internal.Correction.Weighted>
   9.000000E+99

> <Gold.Protein.RotatedTorsions>
[ 6907 6896 6895 6894 ] final  -44.37 input  -60.11 | X-H torsion
[ 7974 7965 7964 7962 ] final  155.93 input  175.53 | X-H torsion
[ 8008 7997 7996 7995 ] final  -87.41 input   59.86 | X-H torsion
[ 10167 10162 10161 10158 ] final  -80.29 input  -65.29 | X-H torsion
[ 10718 10713 10712 10709 ] final   37.66 input   66.30 | X-H torsion
[ 10763 10752 10751 10750 ] final  -61.15 input  -60.55 | X-H torsion
[ 11005 11000 10999 10996 ] final  -54.92 input  -57.11 | X-H torsion

> <Gold.Protein.ActiveResidues>
 VAL166  LYS551  ARG553  GLY616  TRP617  ASP618  TYR619  PRO620  LYS621  CYS622 
 ASP623  PHE694  ASN695  SER759  ASP760  ASP761  ALA762  ILE779  LEU786  VAL792 
 PHE793  MET794  SER795  GLU796  ALA797  LYS798  CYS799  TRP800  GLU811  SER814 

> <Gold.Protein.RotatedAtoms>
  150.9336  134.8750  159.7566 H   0  0  0  0  0  0  0  0  0  0  0  0  # atno 6907 bound_to 6896
  152.5049  134.4043  159.9437 H   0  0  0  0  0  0  0  0  0  0  0  0  # atno 6908 bound_to 6896
  151.4068  133.3700  159.2774 H   0  0  0  0  0  0  0  0  0  0  0  0  # atno 6909 bound_to 6896
  144.7994  139.7134  143.6188 H   0  0  0  0  0  0  0  0  0  0  0  0  # atno 7974 bound_to 7965
  154.6629  140.0566  157.0082 H   0  0  0  0  0  0  0  0  0  0  0  0  # atno 8008 bound_to 7997
  155.1202  140.3247  155.4480 H   0  0  0  0  0  0  0  0  0  0  0  0  # atno 8009 bound_to 7997
  156.2626  140.1999  156.6324 H   0  0  0  0  0  0  0  0  0  0  0  0  # atno 8010 bound_to 7997
  140.4516  143.2481  151.8480 H   0  0  0  0  0  0  0  0  0  0  0  0  # atno 10167 bound_to 10162
  157.3495  130.7591  149.6968 H   0  0  0  0  0  0  0  0  0  0  0  0  # atno 10718 bound_to 10713
  154.2801  135.6273  153.5344 H   0  0  0  0  0  0  0  0  0  0  0  0  # atno 10763 bound_to 10752
  152.9867  135.5631  154.5504 H   0  0  0  0  0  0  0  0  0  0  0  0  # atno 10764 bound_to 10752
  154.5093  135.2876  155.1331 H   0  0  0  0  0  0  0  0  0  0  0  0  # atno 10765 bound_to 10752
  141.1049  133.6614  156.4392 H   0  0  0  0  0  0  0  0  0  0  0  0  # atno 11005 bound_to 11000
  146.2272  139.5744  142.9579 LP  0  0  0  0  0  0  0  0  0  0  0  0  # atno 17320 bound_to 7965
  145.5590  141.0406  143.2236 LP  0  0  0  0  0  0  0  0  0  0  0  0  # atno 17321 bound_to 7965
  139.4797  144.5113  151.8929 LP  0  0  0  0  0  0  0  0  0  0  0  0  # atno 17342 bound_to 10162
  140.4200  144.2256  150.5887 LP  0  0  0  0  0  0  0  0  0  0  0  0  # atno 17343 bound_to 10162
  155.9719  130.4144  150.4133 LP  0  0  0  0  0  0  0  0  0  0  0  0  # atno 17370 bound_to 10713
  157.2193  131.0479  151.2555 LP  0  0  0  0  0  0  0  0  0  0  0  0  # atno 17371 bound_to 10713
  140.4928  134.6559  157.5217 LP  0  0  0  0  0  0  0  0  0  0  0  0  # atno 17394 bound_to 11000
  139.9915  134.6978  155.9682 LP  0  0  0  0  0  0  0  0  0  0  0  0  # atno 17395 bound_to 11000

$$$$
