AV-unprocessed.smi:1925|AV-procd|sdf|7792|dock9
  -GOLD-   22720 9533D 1   1.00000     0.00000
 Structure written by MMmdl.
 31 32  0  0  0  0  0  0  0  0  1 V2000
  144.5249  136.8055  152.2409 O   0  0  0  0  0  0  0  0  0  0  0  0
  145.7319  136.5671  152.1883 C   0  0  0  0  0  0  0  0  0  0  0  0
  146.6727  137.4235  152.6116 N   0  0  0  0  0  0  0  0  0  0  0  0
  146.4122  138.7403  153.1839 C   0  0  0  0  0  0  0  0  0  0  0  0
  147.6518  139.6540  153.1313 C   0  0  2  0  0  0  0  0  0  0  0  0
  148.7700  139.2720  154.0904 C   0  0  0  0  0  0  0  0  0  0  0  0
  149.4418  140.6078  154.4277 C   0  0  0  0  0  0  0  0  0  0  0  0
  148.6680  141.6154  153.7855 O   0  0  0  0  0  0  0  0  0  0  0  0
  147.3721  141.0970  153.5370 C   0  0  0  0  0  0  0  0  0  0  0  0
  146.2828  135.4372  151.7106 N   0  0  0  0  0  0  0  0  0  0  0  0
  145.6264  134.3053  151.1580 C   0  0  0  0  0  0  0  0  0  0  0  0
  146.4828  133.2622  150.7384 C   0  0  0  0  0  0  0  0  0  0  0  0
  145.9303  132.0961  150.1744 C   0  0  0  0  0  0  0  0  0  0  0  0
  144.5333  132.0028  150.0435 C   0  0  0  0  0  0  0  0  0  0  0  0
  143.7523  133.0867  150.4855 C   0  0  0  0  0  0  0  0  0  0  0  0
  144.2799  134.2050  151.0268 N   0  0  0  0  0  0  0  0  0  0  0  0
  147.6401  137.1463  152.5327 H   0  0  0  0  0  0  0  0  0  0  0  0
  145.5744  139.2106  152.6663 H   0  0  0  0  0  0  0  0  0  0  0  0
  146.0941  138.6005  154.2175 H   0  0  0  0  0  0  0  0  0  0  0  0
  148.0556  139.6645  152.1176 H   0  0  0  0  0  0  0  0  0  0  0  0
  148.3664  138.8231  154.9991 H   0  0  0  0  0  0  0  0  0  0  0  0
  149.4634  138.5577  153.6450 H   0  0  0  0  0  0  0  0  0  0  0  0
  149.4470  140.7770  155.5049 H   0  0  0  0  0  0  0  0  0  0  0  0
  150.4719  140.6493  154.0733 H   0  0  0  0  0  0  0  0  0  0  0  0
  146.8565  141.6619  152.7600 H   0  0  0  0  0  0  0  0  0  0  0  0
  146.7792  141.1448  154.4520 H   0  0  0  0  0  0  0  0  0  0  0  0
  147.2899  135.3810  151.7428 H   0  0  0  0  0  0  0  0  0  0  0  0
  147.5542  133.3502  150.8460 H   0  0  0  0  0  0  0  0  0  0  0  0
  146.5681  131.2878  149.8482 H   0  0  0  0  0  0  0  0  0  0  0  0
  144.0724  131.1247  149.6158 H   0  0  0  0  0  0  0  0  0  0  0  0
  142.6759  133.0560  150.4025 H   0  0  0  0  0  0  0  0  0  0  0  0
  1  2  2  0  0  0  0
  2  3  1  0  0  0  0
  2 10  1  0  0  0  0
  3  4  1  0  0  0  0
  3 17  1  0  0  0  0
  4  5  1  0  0  0  0
  4 18  1  0  0  0  0
  4 19  1  0  0  0  0
  5  9  1  0  0  0  0
  5  6  1  0  0  0  0
  5 20  1  0  0  0  0
  6  7  1  0  0  0  0
  6 21  1  0  0  0  0
  6 22  1  0  0  0  0
  7  8  1  0  0  0  0
  7 23  1  0  0  0  0
  7 24  1  0  0  0  0
  8  9  1  0  0  0  0
  9 25  1  0  0  0  0
  9 26  1  0  0  0  0
 10 11  1  0  0  0  0
 10 27  1  0  0  0  0
 11 16  1  0  0  0  0
 11 12  2  0  0  0  0
 12 13  1  0  0  0  0
 12 28  1  0  0  0  0
 13 14  2  0  0  0  0
 13 29  1  0  0  0  0
 14 15  1  0  0  0  0
 14 30  1  0  0  0  0
 15 16  2  0  0  0  0
 15 31  1  0  0  0  0
M  END
> <s_m_source_file>
AV-unprocessed.smi

> <i_m_source_file_index>
1925

> <i_lp_mmshare_version>
43012

> <i_f3d_flags>
0

> <s_epik_input>
bjFbY0hdW2NIXVtjSF1bY0hdYzFbTkhdQyg9TylbTkhdW0NIMl1bQ0BASF0yW0NIMl1bQ0gyXU9bQ0gyXTI=

> <s_epik_cmdline>
J2VwaWtfcHl0aG9uJywgJy1waCcsICc3LjAnLCAnLXRuJywgJzgnLCAnLW1hJywgJzIwMCcsICctbWV0YWxfYmluZGluZycsICctaW1hZScsICc8aW5maWxlLm1hZT4nLCAnLW9tYWUnLCAnPG91dGZpbGUubWFlPic=

> <r_lp_tautomer_probability>
1

> <r_epik_Ionization_Penalty>
4.81143e-05

> <r_epik_Ionization_Penalty_Charging>
0

> <r_epik_Ionization_Penalty_Neutral>
4.81143e-05

> <r_epik_State_Penalty>
-0

> <r_epik_Charging_Adjusted_Penalty>
0

> <i_epik_Tot_Q>
0

> <i_epik_Tot_abs_Q>
0

> <r_epik_Metal_State_Penalty>
-0

> <b_epik_Metal_Only>
0

> <s_lp_Force_Field>
OPLS_2005

> <r_lp_Energy>
20.9741

> <b_lp_Chiralities_Consistent>
1

> <s_lp_Variant>
AV-unprocessed.smi:1925-1

> <Gold.Version>
5.8.1

> <Gold.Id.Protein>
6NUR|6NUR_protein|mol2

> <Gold.PLP.Fitness>
40.0309

> <Gold.PLP.PLP>
-29.4247

> <Gold.PLP.part.hbond>
-3.0000

> <Gold.PLP.part.metal>
0.0000

> <Gold.PLP.part.buried>
-0.7206

> <Gold.PLP.part.nonpolar>
-26.2742

> <Gold.PLP.part.repulsive>
0.8528

> <Gold.PLP.ligand.clash>
0.0000

> <Gold.PLP.ligand.torsion>
0.1823

> <Gold.PLP.Chemscore.Hbond>
2.6560

> <Gold.PLP.Chemscore.CHOScore>
1.0000

> <Gold.PLP.Chemscore.Metal>
0.0000

> <Gold.Chemscore.Hbonds>
donor molecule, donor type, donor heavy atom, donor atom, acceptor molecule, acceptor atom, score
      L1  H     3    17       P1  7948  1.00
      L1  H    10    27       P1  7948  1.00
      P1  H  8011  8017       L1     8  0.66
      L1  C    15    31       P1 10186  1.00

> <Gold.PLP.Chemscore.Internal.Correction>
0.0027

> <Gold.Rescore>
     Score         DG    S(hbond)    S(metal)    S(lipo)     H(rot)  DE(clash)    DE(int)     intcor
     15.74     -18.82       2.41        0.00      72.98       1.27       1.60       1.49       ----

> <Gold.Chemscore.Fitness>
15.7398

> <Gold.Chemscore.DG>
-18.8249

> <Gold.Chemscore.ZeroCoef>
-5.4800

> <Gold.Chemscore.Hbond>
2.4108

> <Gold.Chemscore.Metal>
0.0000

> <Gold.Chemscore.Lipo>
72.9770

> <Gold.Chemscore.Internal_Hbond>
0.0000

> <Gold.Chemscore.DEClash>
1.5984

> <Gold.Chemscore.DEInternal>
1.4866

> <Gold.Chemscore.Rot>
1.2678

> <Gold.Chemscore.Internal.Correction>
   9.000000E+99

> <Gold.Chemscore.Hbonds>
donor molecule, donor type, donor heavy atom, donor atom, acceptor molecule, acceptor atom, score
      L1  H     3    17       P1  7948  0.98
      L1  H    10    27       P1  7948  0.94
      P1  H  8011  8017       L1     8  0.40

> <Gold.Chemscore.Hbond.Weighted>
-8.0520

> <Gold.Chemscore.Metal.Weighted>
-0.0000

> <Gold.Chemscore.Lipo.Weighted>
-8.5383

> <Gold.Chemscore.Internal_Hbond.Weighted>
0.0000

> <Gold.Chemscore.DEClash.Weighted>
1.5984

> <Gold.Chemscore.DEInternal.Weighted>
1.4866

> <Gold.Chemscore.Rot.Weighted>
3.2455

> <Gold.Chemscore.Internal.Correction.Weighted>
   9.000000E+99

> <Gold.Protein.RotatedTorsions>
[ 6907 6896 6895 6894 ] final   36.06 input  -60.11 | X-H torsion
[ 7974 7965 7964 7962 ] final  -30.36 input  175.53 | X-H torsion
[ 8008 7997 7996 7995 ] final -123.93 input   59.86 | X-H torsion
[ 10167 10162 10161 10158 ] final   12.71 input  -65.29 | X-H torsion
[ 10718 10713 10712 10709 ] final -179.12 input   66.30 | X-H torsion
[ 10763 10752 10751 10750 ] final   72.56 input  -60.55 | X-H torsion
[ 11005 11000 10999 10996 ] final  -43.93 input  -57.11 | X-H torsion

> <Gold.Protein.ActiveResidues>
 VAL166  LYS551  ARG553  GLY616  TRP617  ASP618  TYR619  PRO620  LYS621  CYS622 
 ASP623  PHE694  ASN695  SER759  ASP760  ASP761  ALA762  ILE779  LEU786  VAL792 
 PHE793  MET794  SER795  GLU796  ALA797  LYS798  CYS799  TRP800  GLU811  SER814 

> <Gold.Protein.RotatedAtoms>
  152.1245  134.9180  160.0561 H   0  0  0  0  0  0  0  0  0  0  0  0  # atno 6907 bound_to 6896
  152.0308  133.3932  159.4305 H   0  0  0  0  0  0  0  0  0  0  0  0  # atno 6908 bound_to 6896
  150.6851  134.3443  159.4925 H   0  0  0  0  0  0  0  0  0  0  0  0  # atno 6909 bound_to 6896
  146.1148  140.5530  142.8761 H   0  0  0  0  0  0  0  0  0  0  0  0  # atno 7974 bound_to 7965
  155.1885  140.0412  157.2896 H   0  0  0  0  0  0  0  0  0  0  0  0  # atno 8008 bound_to 7997
  154.6154  140.2487  155.7587 H   0  0  0  0  0  0  0  0  0  0  0  0  # atno 8009 bound_to 7997
  156.2403  140.2906  156.0437 H   0  0  0  0  0  0  0  0  0  0  0  0  # atno 8010 bound_to 7997
  140.6050  143.8526  150.7004 H   0  0  0  0  0  0  0  0  0  0  0  0  # atno 10167 bound_to 10162
  156.8543  130.9730  151.3089 H   0  0  0  0  0  0  0  0  0  0  0  0  # atno 10718 bound_to 10713
  153.0466  135.5095  154.7762 H   0  0  0  0  0  0  0  0  0  0  0  0  # atno 10763 bound_to 10752
  154.6657  135.2945  154.9811 H   0  0  0  0  0  0  0  0  0  0  0  0  # atno 10764 bound_to 10752
  154.0647  135.6686  153.4869 H   0  0  0  0  0  0  0  0  0  0  0  0  # atno 10765 bound_to 10752
  141.0417  133.6777  156.2802 H   0  0  0  0  0  0  0  0  0  0  0  0  # atno 11005 bound_to 11000
  144.7543  140.5270  143.6779 LP  0  0  0  0  0  0  0  0  0  0  0  0  # atno 17320 bound_to 7965
  145.5588  139.1479  143.3353 LP  0  0  0  0  0  0  0  0  0  0  0  0  # atno 17321 bound_to 7965
  140.2081  143.3905  152.1739 LP  0  0  0  0  0  0  0  0  0  0  0  0  # atno 17342 bound_to 10162
  139.5318  144.7168  151.5028 LP  0  0  0  0  0  0  0  0  0  0  0  0  # atno 17343 bound_to 10162
  157.6286  130.8711  149.9233 LP  0  0  0  0  0  0  0  0  0  0  0  0  # atno 17370 bound_to 10713
  156.0811  130.3673  150.0579 LP  0  0  0  0  0  0  0  0  0  0  0  0  # atno 17371 bound_to 10713
  140.6222  134.5349  157.5549 LP  0  0  0  0  0  0  0  0  0  0  0  0  # atno 17394 bound_to 11000
  139.9280  134.8017  156.1011 LP  0  0  0  0  0  0  0  0  0  0  0  0  # atno 17395 bound_to 11000

$$$$
