AV-unprocessed.smi:411|AV-procd|sdf|2509|dock6
  -GOLD-   2262022463D 1   1.00000     0.00000
 Structure written by MMmdl.
 35 36  0  0  0  0  0  0  0  0  1 V2000
  149.6206  135.5853  158.2876 O   0  0  0  0  0  0  0  0  0  0  0  0
  148.6842  136.3278  157.9889 C   0  0  0  0  0  0  0  0  0  0  0  0
  147.5538  136.6170  158.9876 C   0  0  0  0  0  0  0  0  0  0  0  0
  147.5796  135.7459  160.1757 N   0  0  0  0  0  0  0  0  0  0  0  0
  147.7080  136.3788  161.4248 C   0  0  0  0  0  0  0  0  0  0  0  0
  147.7408  135.6821  162.5688 C   0  0  0  0  0  0  0  0  0  0  0  0
  147.6387  134.2452  162.4954 C   0  0  0  0  0  0  0  0  0  0  0  0
  147.5204  133.6073  161.3080 C   0  0  0  0  0  0  0  0  0  0  0  0
  147.4068  132.0876  161.2129 C   0  0  0  0  0  0  0  0  0  0  0  0
  146.1790  131.7302  160.8343 F   0  0  0  0  0  0  0  0  0  0  0  0
  148.2739  131.6095  160.3198 F   0  0  0  0  0  0  0  0  0  0  0  0
  147.6592  131.4983  162.3827 F   0  0  0  0  0  0  0  0  0  0  0  0
  147.4895  134.3852  160.0524 C   0  0  0  0  0  0  0  0  0  0  0  0
  147.3889  133.8502  158.9468 O   0  0  0  0  0  0  0  0  0  0  0  0
  148.5877  136.9447  156.8014 N   0  0  0  0  0  0  0  0  0  0  0  0
  149.5443  136.8182  155.7049 C   0  0  1  0  0  0  0  0  0  0  0  0
  149.1042  137.6661  154.4796 C   0  0  0  0  0  0  0  0  0  0  0  0
  150.1942  138.6732  154.0820 C   0  0  0  0  0  0  0  0  0  0  0  0
  151.7556  137.9624  154.6929 S   0  0  0  0  0  0  0  0  0  0  0  0
  152.1768  136.8916  153.7770 O   0  0  0  0  0  0  0  0  0  0  0  0
  152.6817  139.0299  155.1001 O   0  0  0  0  0  0  0  0  0  0  0  0
  150.9680  137.2090  156.1529 C   0  0  0  0  0  0  0  0  0  0  0  0
  147.6223  137.6652  159.2822 H   0  0  0  0  0  0  0  0  0  0  0  0
  146.5925  136.5285  158.4781 H   0  0  0  0  0  0  0  0  0  0  0  0
  147.7853  137.4558  161.3920 H   0  0  0  0  0  0  0  0  0  0  0  0
  147.8440  136.1826  163.5203 H   0  0  0  0  0  0  0  0  0  0  0  0
  147.6594  133.6826  163.4169 H   0  0  0  0  0  0  0  0  0  0  0  0
  147.7875  137.5393  156.6411 H   0  0  0  0  0  0  0  0  0  0  0  0
  149.5650  135.7753  155.3823 H   0  0  0  0  0  0  0  0  0  0  0  0
  148.9286  136.9931  153.6395 H   0  0  0  0  0  0  0  0  0  0  0  0
  148.1586  138.1820  154.6522 H   0  0  0  0  0  0  0  0  0  0  0  0
  150.2508  138.8508  153.0079 H   0  0  0  0  0  0  0  0  0  0  0  0
  150.0410  139.6262  154.5888 H   0  0  0  0  0  0  0  0  0  0  0  0
  150.9440  137.9662  156.9376 H   0  0  0  0  0  0  0  0  0  0  0  0
  151.5561  136.3610  156.5048 H   0  0  0  0  0  0  0  0  0  0  0  0
  1  2  2  0  0  0  0
  2  3  1  0  0  0  0
  2 15  1  0  0  0  0
  3  4  1  0  0  0  0
  3 23  1  0  0  0  0
  3 24  1  0  0  0  0
  4 13  1  0  0  0  0
  4  5  1  0  0  0  0
  5  6  2  0  0  0  0
  5 25  1  0  0  0  0
  6  7  1  0  0  0  0
  6 26  1  0  0  0  0
  7  8  2  0  0  0  0
  7 27  1  0  0  0  0
  8  9  1  0  0  0  0
  8 13  1  0  0  0  0
  9 10  1  0  0  0  0
  9 11  1  0  0  0  0
  9 12  1  0  0  0  0
 13 14  2  0  0  0  0
 15 16  1  0  0  0  0
 15 28  1  0  0  0  0
 16 22  1  0  0  0  0
 16 17  1  0  0  0  0
 16 29  1  0  0  0  0
 17 18  1  0  0  0  0
 17 30  1  0  0  0  0
 17 31  1  0  0  0  0
 18 19  1  0  0  0  0
 18 32  1  0  0  0  0
 18 33  1  0  0  0  0
 19 20  2  0  0  0  0
 19 21  2  0  0  0  0
 19 22  1  0  0  0  0
 22 34  1  0  0  0  0
 22 35  1  0  0  0  0
M  END
> <s_m_source_file>
AV-unprocessed.smi

> <i_m_source_file_index>
411

> <i_lp_mmshare_version>
43012

> <i_f3d_flags>
0

> <s_epik_input>
Tz1TMSg9TylbQ0gyXVtDSDJdW0NASF0oW0NIMl0xKVtOSF1DKD1PKVtDSDJdbjJbY0hdW2NIXVtjSF1jKEMoRikoRilGKWMyPU8=

> <s_epik_cmdline>
J2VwaWtfcHl0aG9uJywgJy1waCcsICc3LjAnLCAnLXRuJywgJzgnLCAnLW1hJywgJzIwMCcsICctbWV0YWxfYmluZGluZycsICctaW1hZScsICc8aW5maWxlLm1hZT4nLCAnLW9tYWUnLCAnPG91dGZpbGUubWFlPic=

> <r_lp_tautomer_probability>
1

> <r_epik_Ionization_Penalty>
1.08759e-07

> <r_epik_Ionization_Penalty_Charging>
1.56656e-09

> <r_epik_Ionization_Penalty_Neutral>
1.07193e-07

> <r_epik_State_Penalty>
-0

> <r_epik_Charging_Adjusted_Penalty>
1.56656e-09

> <i_epik_Tot_Q>
0

> <i_epik_Tot_abs_Q>
0

> <r_epik_Metal_State_Penalty>
-0

> <b_epik_Metal_Only>
0

> <s_lp_Force_Field>
OPLS_2005

> <r_lp_Energy>
15.8783

> <b_lp_Chiralities_Consistent>
1

> <s_lp_Variant>
AV-unprocessed.smi:411-2

> <Gold.Version>
5.8.1

> <Gold.Id.Protein>
6NUR|6NUR_protein|mol2

> <Gold.PLP.Fitness>
41.0734

> <Gold.PLP.PLP>
-33.4439

> <Gold.PLP.part.hbond>
-3.0000

> <Gold.PLP.part.metal>
0.0000

> <Gold.PLP.part.buried>
-4.8692

> <Gold.PLP.part.nonpolar>
-24.8354

> <Gold.PLP.part.repulsive>
0.1373

> <Gold.PLP.ligand.clash>
0.0281

> <Gold.PLP.ligand.torsion>
0.3980

> <Gold.PLP.Chemscore.Hbond>
2.7040

> <Gold.PLP.Chemscore.CHOScore>
0.0000

> <Gold.PLP.Chemscore.Metal>
0.0000

> <Gold.Chemscore.Hbonds>
donor molecule, donor type, donor heavy atom, donor atom, acceptor molecule, acceptor atom, score
      P1  H  6896  6909       L1     1  1.00
      P1  H  7997  8008       L1    21  0.13
      P1  H 10752 10764       L1    20  0.86

> <Gold.PLP.Chemscore.Internal.Correction>
0.3416

> <Gold.Rescore>
     Score         DG    S(hbond)    S(metal)    S(lipo)     H(rot)  DE(clash)    DE(int)     intcor
     13.13     -17.89       2.84        0.00      62.91       1.73       0.98       3.78       ----

> <Gold.Chemscore.Fitness>
13.1307

> <Gold.Chemscore.DG>
-17.8932

> <Gold.Chemscore.ZeroCoef>
-5.4800

> <Gold.Chemscore.Hbond>
2.8398

> <Gold.Chemscore.Metal>
0.0000

> <Gold.Chemscore.Lipo>
62.9105

> <Gold.Chemscore.Internal_Hbond>
0.0000

> <Gold.Chemscore.DEClash>
0.9815

> <Gold.Chemscore.DEInternal>
3.7810

> <Gold.Chemscore.Rot>
1.7314

> <Gold.Chemscore.Internal.Correction>
   9.000000E+99

> <Gold.Chemscore.Hbonds>
donor molecule, donor type, donor heavy atom, donor atom, acceptor molecule, acceptor atom, score
      P1  H  6896  6909       L1     1  0.99
      P1  H  7997  8008       L1    21  0.14
      P1  H 10752 10764       L1    20  0.82

> <Gold.Chemscore.Hbond.Weighted>
-9.4851

> <Gold.Chemscore.Metal.Weighted>
-0.0000

> <Gold.Chemscore.Lipo.Weighted>
-7.3605

> <Gold.Chemscore.Internal_Hbond.Weighted>
0.0000

> <Gold.Chemscore.DEClash.Weighted>
0.9815

> <Gold.Chemscore.DEInternal.Weighted>
3.7810

> <Gold.Chemscore.Rot.Weighted>
4.4324

> <Gold.Chemscore.Internal.Correction.Weighted>
   9.000000E+99

> <Gold.Protein.RotatedTorsions>
[ 6907 6896 6895 6894 ] final   48.47 input  -60.11 | X-H torsion
[ 7974 7965 7964 7962 ] final  -85.41 input  175.53 | X-H torsion
[ 8008 7997 7996 7995 ] final  -48.63 input   59.86 | X-H torsion
[ 10167 10162 10161 10158 ] final  -50.04 input  -65.29 | X-H torsion
[ 10718 10713 10712 10709 ] final  -16.68 input   66.30 | X-H torsion
[ 10763 10752 10751 10750 ] final  -90.18 input  -60.55 | X-H torsion
[ 11005 11000 10999 10996 ] final   22.44 input  -57.11 | X-H torsion

> <Gold.Protein.ActiveResidues>
 VAL166  LYS551  ARG553  GLY616  TRP617  ASP618  TYR619  PRO620  LYS621  CYS622 
 ASP623  PHE694  ASN695  SER759  ASP760  ASP761  ALA762  ILE779  LEU786  VAL792 
 PHE793  MET794  SER795  GLU796  ALA797  LYS798  CYS799  TRP800  GLU811  SER814 

> <Gold.Protein.RotatedAtoms>
  152.2799  134.7840  160.0398 H   0  0  0  0  0  0  0  0  0  0  0  0  # atno 6907 bound_to 6896
  151.8423  133.3420  159.3655 H   0  0  0  0  0  0  0  0  0  0  0  0  # atno 6908 bound_to 6896
  150.7185  134.5308  159.5743 H   0  0  0  0  0  0  0  0  0  0  0  0  # atno 6909 bound_to 6896
  145.4936  140.9551  143.1798 H   0  0  0  0  0  0  0  0  0  0  0  0  # atno 7974 bound_to 7965
  154.4032  140.1316  156.4371 H   0  0  0  0  0  0  0  0  0  0  0  0  # atno 8008 bound_to 7997
  155.7495  140.3488  155.5123 H   0  0  0  0  0  0  0  0  0  0  0  0  # atno 8009 bound_to 7997
  155.8963  140.1012  157.1372 H   0  0  0  0  0  0  0  0  0  0  0  0  # atno 8010 bound_to 7997
  140.6656  143.2673  151.4302 H   0  0  0  0  0  0  0  0  0  0  0  0  # atno 10167 bound_to 10162
  156.5841  130.4782  149.6307 H   0  0  0  0  0  0  0  0  0  0  0  0  # atno 10718 bound_to 10713
  154.6631  135.5313  153.8043 H   0  0  0  0  0  0  0  0  0  0  0  0  # atno 10763 bound_to 10752
  153.0454  135.6510  154.0841 H   0  0  0  0  0  0  0  0  0  0  0  0  # atno 10764 bound_to 10752
  154.0748  135.2951  155.3281 H   0  0  0  0  0  0  0  0  0  0  0  0  # atno 10765 bound_to 10752
  140.3805  134.1925  155.7664 H   0  0  0  0  0  0  0  0  0  0  0  0  # atno 11005 bound_to 11000
  144.7820  139.6507  143.7150 LP  0  0  0  0  0  0  0  0  0  0  0  0  # atno 17320 bound_to 7965
  146.2269  139.5739  142.9581 LP  0  0  0  0  0  0  0  0  0  0  0  0  # atno 17321 bound_to 7965
  139.5904  144.1511  152.2081 LP  0  0  0  0  0  0  0  0  0  0  0  0  # atno 17342 bound_to 10162
  140.0864  144.5657  150.7085 LP  0  0  0  0  0  0  0  0  0  0  0  0  # atno 17343 bound_to 10162
  156.2606  130.6960  151.1727 LP  0  0  0  0  0  0  0  0  0  0  0  0  # atno 17370 bound_to 10713
  157.7319  131.0604  150.5653 LP  0  0  0  0  0  0  0  0  0  0  0  0  # atno 17371 bound_to 10713
  141.1925  133.8172  157.0837 LP  0  0  0  0  0  0  0  0  0  0  0  0  # atno 17394 bound_to 11000
  140.0482  134.9819  157.1088 LP  0  0  0  0  0  0  0  0  0  0  0  0  # atno 17395 bound_to 11000

$$$$
