AV-unprocessed.smi:2507|AV-procd|sdf|9863|dock8
  -GOLD-   2272013493D 1   1.00000     0.00000
 Structure written by MMmdl.
 44 45  0  0  0  0  0  0  0  0  1 V2000
  144.9443  133.0225  150.5340 C   0  0  0  0  0  0  0  0  0  0  0  0
  146.1027  133.6662  151.3044 C   0  0  0  0  0  0  0  0  0  0  0  0
  146.8045  132.6798  152.1973 C   0  0  0  0  0  0  0  0  0  0  0  0
  146.3946  131.4190  152.2397 N   0  0  0  0  0  0  0  0  0  0  0  0
  147.2217  130.8050  153.1191 N   0  0  0  0  0  0  0  0  0  0  0  0
  147.0397  129.3970  153.3988 C   0  0  0  0  0  0  0  0  0  0  0  0
  148.1621  131.6681  153.6426 C   0  0  0  0  0  0  0  0  0  0  0  0
  147.9134  132.8807  153.0641 C   0  0  0  0  0  0  0  0  0  0  0  0
  148.5865  134.1156  153.2511 N   0  0  0  0  0  0  0  0  0  0  0  0
  149.3581  134.4757  154.2897 C   0  0  0  0  0  0  0  0  0  0  0  0
  149.6284  133.7599  155.2542 O   0  0  0  0  0  0  0  0  0  0  0  0
  149.8077  135.7299  154.1513 N   0  0  0  0  0  0  0  0  0  0  0  0
  150.6635  136.4075  155.1155 C   0  0  0  0  0  0  0  0  0  0  0  0
  151.1271  137.7655  154.5683 C   0  0  0  0  0  0  0  0  0  0  0  0
  150.1786  138.9152  154.9442 C   0  0  2  0  0  0  0  0  0  0  0  0
  148.9349  138.9592  154.0348 C   0  0  0  0  0  0  0  0  0  0  0  0
  148.0520  140.1620  154.3867 C   0  0  0  0  0  0  0  0  0  0  0  0
  148.8913  141.4436  154.3651 C   0  0  0  0  0  0  0  0  0  0  0  0
  150.1407  141.2797  155.2452 C   0  0  0  0  0  0  0  0  0  0  0  0
  150.8895  140.1456  154.8192 O   0  0  0  0  0  0  0  0  0  0  0  0
  144.4550  133.7519  149.8884 H   0  0  0  0  0  0  0  0  0  0  0  0
  144.1915  132.6242  151.2150 H   0  0  0  0  0  0  0  0  0  0  0  0
  145.2963  132.2036  149.9057 H   0  0  0  0  0  0  0  0  0  0  0  0
  146.8098  134.0982  150.5960 H   0  0  0  0  0  0  0  0  0  0  0  0
  145.7241  134.5005  151.8959 H   0  0  0  0  0  0  0  0  0  0  0  0
  147.8237  129.0446  154.0695 H   0  0  0  0  0  0  0  0  0  0  0  0
  147.0853  128.8260  152.4708 H   0  0  0  0  0  0  0  0  0  0  0  0
  146.0699  129.2380  153.8714 H   0  0  0  0  0  0  0  0  0  0  0  0
  148.9011  131.3440  154.3604 H   0  0  0  0  0  0  0  0  0  0  0  0
  148.4537  134.8026  152.5234 H   0  0  0  0  0  0  0  0  0  0  0  0
  149.5410  136.2491  153.3277 H   0  0  0  0  0  0  0  0  0  0  0  0
  150.1195  136.5503  156.0508 H   0  0  0  0  0  0  0  0  0  0  0  0
  151.5232  135.7728  155.3353 H   0  0  0  0  0  0  0  0  0  0  0  0
  152.1318  137.9879  154.9307 H   0  0  0  0  0  0  0  0  0  0  0  0
  151.1995  137.7021  153.4817 H   0  0  0  0  0  0  0  0  0  0  0  0
  149.8623  138.7860  155.9810 H   0  0  0  0  0  0  0  0  0  0  0  0
  149.2438  139.0268  152.9909 H   0  0  0  0  0  0  0  0  0  0  0  0
  148.3614  138.0367  154.1318 H   0  0  0  0  0  0  0  0  0  0  0  0
  147.2184  140.2403  153.6883 H   0  0  0  0  0  0  0  0  0  0  0  0
  147.6195  140.0226  155.3783 H   0  0  0  0  0  0  0  0  0  0  0  0
  149.1941  141.6660  153.3413 H   0  0  0  0  0  0  0  0  0  0  0  0
  148.2965  142.2909  154.7073 H   0  0  0  0  0  0  0  0  0  0  0  0
  150.7711  142.1657  155.1692 H   0  0  0  0  0  0  0  0  0  0  0  0
  149.8668  141.1735  156.2958 H   0  0  0  0  0  0  0  0  0  0  0  0
  1  2  1  0  0  0  0
  1 21  1  0  0  0  0
  1 22  1  0  0  0  0
  1 23  1  0  0  0  0
  2  3  1  0  0  0  0
  2 24  1  0  0  0  0
  2 25  1  0  0  0  0
  3  8  1  0  0  0  0
  3  4  2  0  0  0  0
  4  5  1  0  0  0  0
  5  6  1  0  0  0  0
  5  7  1  0  0  0  0
  6 26  1  0  0  0  0
  6 27  1  0  0  0  0
  6 28  1  0  0  0  0
  7  8  2  0  0  0  0
  7 29  1  0  0  0  0
  8  9  1  0  0  0  0
  9 10  1  0  0  0  0
  9 30  1  0  0  0  0
 10 11  2  0  0  0  0
 10 12  1  0  0  0  0
 12 13  1  0  0  0  0
 12 31  1  0  0  0  0
 13 14  1  0  0  0  0
 13 32  1  0  0  0  0
 13 33  1  0  0  0  0
 14 15  1  0  0  0  0
 14 34  1  0  0  0  0
 14 35  1  0  0  0  0
 15 20  1  0  0  0  0
 15 16  1  0  0  0  0
 15 36  1  0  0  0  0
 16 17  1  0  0  0  0
 16 37  1  0  0  0  0
 16 38  1  0  0  0  0
 17 18  1  0  0  0  0
 17 39  1  0  0  0  0
 17 40  1  0  0  0  0
 18 19  1  0  0  0  0
 18 41  1  0  0  0  0
 18 42  1  0  0  0  0
 19 20  1  0  0  0  0
 19 43  1  0  0  0  0
 19 44  1  0  0  0  0
M  END
> <s_m_source_file>
AV-unprocessed.smi

> <i_m_source_file_index>
2507

> <i_lp_mmshare_version>
43012

> <i_f3d_flags>
0

> <s_epik_input>
W0NIM11bQ0gyXWMxbm4oW0NIM10pW2NIXWMxW05IXUMoPU8pW05IXVtDSDJdW0NIMl1bQ0BASF0yW0NIMl1bQ0gyXVtDSDJdW0NIMl1PMg==

> <s_epik_cmdline>
J2VwaWtfcHl0aG9uJywgJy1waCcsICc3LjAnLCAnLXRuJywgJzgnLCAnLW1hJywgJzIwMCcsICctbWV0YWxfYmluZGluZycsICctaW1hZScsICc8aW5maWxlLm1hZT4nLCAnLW9tYWUnLCAnPG91dGZpbGUubWFlPic=

> <r_lp_tautomer_probability>
1

> <r_epik_Ionization_Penalty>
0.00072031

> <r_epik_Ionization_Penalty_Charging>
0

> <r_epik_Ionization_Penalty_Neutral>
0.00072031

> <r_epik_State_Penalty>
-0

> <r_epik_Charging_Adjusted_Penalty>
0

> <i_epik_Tot_Q>
0

> <i_epik_Tot_abs_Q>
0

> <r_epik_Metal_State_Penalty>
-0

> <b_epik_Metal_Only>
0

> <s_lp_Force_Field>
OPLS_2005

> <r_lp_Energy>
7.60695

> <b_lp_Chiralities_Consistent>
1

> <s_lp_Variant>
AV-unprocessed.smi:2507-1

> <Gold.Version>
5.8.1

> <Gold.Id.Protein>
6NUR|6NUR_protein|mol2

> <Gold.PLP.Fitness>
41.8072

> <Gold.PLP.PLP>
-33.9790

> <Gold.PLP.part.hbond>
-3.6163

> <Gold.PLP.part.metal>
0.0000

> <Gold.PLP.part.buried>
-1.3917

> <Gold.PLP.part.nonpolar>
-29.0440

> <Gold.PLP.part.repulsive>
0.2814

> <Gold.PLP.ligand.clash>
0.0000

> <Gold.PLP.ligand.torsion>
0.4955

> <Gold.PLP.Chemscore.Hbond>
2.9260

> <Gold.PLP.Chemscore.CHOScore>
0.0000

> <Gold.PLP.Chemscore.Metal>
0.0000

> <Gold.Chemscore.Hbonds>
donor molecule, donor type, donor heavy atom, donor atom, acceptor molecule, acceptor atom, score
      L1  H     9    30       P1  7948  0.90
      L1  H    12    31       P1  7948  0.96
      P1  H  7989  7998       L1    20  0.85

> <Gold.PLP.Chemscore.Internal.Correction>
0.0412

> <Gold.Rescore>
     Score         DG    S(hbond)    S(metal)    S(lipo)     H(rot)  DE(clash)    DE(int)     intcor
     16.98     -17.69       2.29        0.00      71.92       1.50       0.03       0.68       ----

> <Gold.Chemscore.Fitness>
16.9830

> <Gold.Chemscore.DG>
-17.6945

> <Gold.Chemscore.ZeroCoef>
-5.4800

> <Gold.Chemscore.Hbond>
2.2904

> <Gold.Chemscore.Metal>
0.0000

> <Gold.Chemscore.Lipo>
71.9244

> <Gold.Chemscore.Internal_Hbond>
0.0000

> <Gold.Chemscore.DEClash>
0.0292

> <Gold.Chemscore.DEInternal>
0.6823

> <Gold.Chemscore.Rot>
1.5042

> <Gold.Chemscore.Internal.Correction>
   9.000000E+99

> <Gold.Chemscore.Hbonds>
donor molecule, donor type, donor heavy atom, donor atom, acceptor molecule, acceptor atom, score
      L1  H     9    30       P1  7948  0.19
      L1  H    12    31       P1  7948  0.39
      P1  H  7989  7998       L1    20  0.15

> <Gold.Chemscore.Hbond.Weighted>
-7.6500

> <Gold.Chemscore.Metal.Weighted>
-0.0000

> <Gold.Chemscore.Lipo.Weighted>
-8.4152

> <Gold.Chemscore.Internal_Hbond.Weighted>
0.0000

> <Gold.Chemscore.DEClash.Weighted>
0.0292

> <Gold.Chemscore.DEInternal.Weighted>
0.6823

> <Gold.Chemscore.Rot.Weighted>
3.8507

> <Gold.Chemscore.Internal.Correction.Weighted>
   9.000000E+99

> <Gold.Protein.RotatedTorsions>
[ 6907 6896 6895 6894 ] final  112.33 input  -60.11 | X-H torsion
[ 7974 7965 7964 7962 ] final   86.38 input  175.53 | X-H torsion
[ 8008 7997 7996 7995 ] final -154.27 input   59.86 | X-H torsion
[ 10167 10162 10161 10158 ] final  -77.26 input  -65.29 | X-H torsion
[ 10718 10713 10712 10709 ] final -148.35 input   66.30 | X-H torsion
[ 10763 10752 10751 10750 ] final    9.63 input  -60.55 | X-H torsion
[ 11005 11000 10999 10996 ] final -108.84 input  -57.11 | X-H torsion

> <Gold.Protein.ActiveResidues>
 VAL166  LYS551  ARG553  GLY616  TRP617  ASP618  TYR619  PRO620  LYS621  CYS622 
 ASP623  PHE694  ASN695  SER759  ASP760  ASP761  ALA762  ILE779  LEU786  VAL792 
 PHE793  MET794  SER795  GLU796  ALA797  LYS798  CYS799  TRP800  GLU811  SER814 

> <Gold.Protein.RotatedAtoms>
  152.4922  133.8531  159.7211 H   0  0  0  0  0  0  0  0  0  0  0  0  # atno 6907 bound_to 6896
  150.9063  133.7045  159.2873 H   0  0  0  0  0  0  0  0  0  0  0  0  # atno 6908 bound_to 6896
  151.4470  135.1030  159.9739 H   0  0  0  0  0  0  0  0  0  0  0  0  # atno 6909 bound_to 6896
  145.5730  139.2316  143.2395 H   0  0  0  0  0  0  0  0  0  0  0  0  # atno 7974 bound_to 7965
  155.6838  140.0747  157.2474 H   0  0  0  0  0  0  0  0  0  0  0  0  # atno 8008 bound_to 7997
  154.4100  140.1677  156.2064 H   0  0  0  0  0  0  0  0  0  0  0  0  # atno 8009 bound_to 7997
  155.9511  140.3377  155.6412 H   0  0  0  0  0  0  0  0  0  0  0  0  # atno 8010 bound_to 7997
  140.4786  143.2408  151.8094 H   0  0  0  0  0  0  0  0  0  0  0  0  # atno 10167 bound_to 10162
  156.4191  130.8020  151.2242 H   0  0  0  0  0  0  0  0  0  0  0  0  # atno 10718 bound_to 10713
  153.2119  135.6870  153.8103 H   0  0  0  0  0  0  0  0  0  0  0  0  # atno 10763 bound_to 10752
  153.7332  135.3249  155.3291 H   0  0  0  0  0  0  0  0  0  0  0  0  # atno 10764 bound_to 10752
  154.8226  135.4641  154.0931 H   0  0  0  0  0  0  0  0  0  0  0  0  # atno 10765 bound_to 10752
  141.0880  133.9105  157.2141 H   0  0  0  0  0  0  0  0  0  0  0  0  # atno 11005 bound_to 11000
  146.1771  140.6556  142.9206 LP  0  0  0  0  0  0  0  0  0  0  0  0  # atno 17320 bound_to 7965
  144.7429  140.4990  143.6856 LP  0  0  0  0  0  0  0  0  0  0  0  0  # atno 17321 bound_to 7965
  139.4829  144.4801  151.9317 LP  0  0  0  0  0  0  0  0  0  0  0  0  # atno 17342 bound_to 10162
  140.3887  144.2644  150.5901 LP  0  0  0  0  0  0  0  0  0  0  0  0  # atno 17343 bound_to 10162
  157.7508  131.0233  150.3830 LP  0  0  0  0  0  0  0  0  0  0  0  0  # atno 17370 bound_to 10713
  156.4144  130.3940  149.6869 LP  0  0  0  0  0  0  0  0  0  0  0  0  # atno 17371 bound_to 10713
  139.9701  135.0130  156.9490 LP  0  0  0  0  0  0  0  0  0  0  0  0  # atno 17394 bound_to 11000
  140.5318  134.0806  155.7318 LP  0  0  0  0  0  0  0  0  0  0  0  0  # atno 17395 bound_to 11000

$$$$
