#       Name:                AV-unprocessed.smi:354
#       Creating user name   scv26
#       Creation time:       Thu Mar 26 22:33:43 2020


#       File generated by GOLD software.
#

@<TRIPOS>MOLECULE
AV-unprocessed.smi:354
    41    43     1
SMALL
NO_CHARGES


@<TRIPOS>ATOM
      1 ****        -0.9270   3.4024   0.5560 O.3            1 S1                 0.0000
      2 ****        -1.4895   2.9940  -0.6720 C.3            1 S1                 0.0000
      3 ****        -2.0353   1.5983  -0.6333 C.2            1 S1                 0.0000
      4 ****        -3.3480   1.3618  -0.6366 N.2            1 S1                 0.0000
      5 ****        -3.4099  -0.0175  -0.6230 C.ar           1 S1                 0.0000
      6 ****        -4.5243  -0.8868  -0.6251 C.ar           1 S1                 0.0000
      7 ****        -4.3392  -2.2849  -0.6188 C.ar           1 S1                 0.0000
      8 ****        -3.0401  -2.8327  -0.6122 C.ar           1 S1                 0.0000
      9 ****        -1.9164  -1.9844  -0.6087 C.ar           1 S1                 0.0000
     10 ****        -2.1065  -0.5890  -0.6112 C.ar           1 S1                 0.0000
     11 ****        -1.2382   0.4986  -0.6048 N.pl3          1 S1                 0.0000
     12 ****         0.2179   0.4246  -0.5909 C.3            1 S1                 0.0000
     13 ****         0.7806  -0.0688   0.7581 C.3            1 S1                 0.0000
     14 ****         0.3584   0.7866   1.8026 O.3            1 S1                 0.0000
     15 ****         2.2952  -0.2128   0.6995 C.ar           1 S1                 0.0000
     16 ****         3.1280   0.9120   0.8952 C.ar           1 S1                 0.0000
     17 ****         4.5286   0.7813   0.8292 C.ar           1 S1                 0.0000
     18 ****         5.1070  -0.4743   0.5639 C.ar           1 S1                 0.0000
     19 ****         4.2836  -1.5981   0.3616 C.ar           1 S1                 0.0000
     20 ****         2.8821  -1.4695   0.4262 C.ar           1 S1                 0.0000
     21 ****         2.1049  -2.5599   0.2198 F              1 S1                 0.0000
     22 ****        -0.6191   4.2908   0.4642 H              1 S1                 0.0000
     23 ****        -2.2919   3.6867  -0.9284 H              1 S1                 0.0000
     24 ****        -0.7456   3.0775  -1.4642 H              1 S1                 0.0000
     25 ****        -5.5236  -0.4771  -0.6339 H              1 S1                 0.0000
     26 ****        -5.1978  -2.9401  -0.6212 H              1 S1                 0.0000
     27 ****        -2.9066  -3.9045  -0.6099 H              1 S1                 0.0000
     28 ****        -0.9205  -2.4019  -0.6043 H              1 S1                 0.0000
     29 ****         0.5216  -0.2548  -1.3881 H              1 S1                 0.0000
     30 ****         0.6434   1.3950  -0.8431 H              1 S1                 0.0000
     31 ****         0.3536  -1.0454   0.9857 H              1 S1                 0.0000
     32 ****         0.6117   0.4008   2.6271 H              1 S1                 0.0000
     33 ****         2.6950   1.8815   1.0939 H              1 S1                 0.0000
     34 ****         5.1592   1.6451   0.9803 H              1 S1                 0.0000
     35 ****         6.1812  -0.5749   0.5124 H              1 S1                 0.0000
     36 ****         4.7276  -2.5605   0.1539 H              1 S1                 0.0000
     37 ****        -0.1622   2.8032   0.7925 LP             1 S1                 0.0000
     38 ****        -1.6199   3.3583   1.2756 LP             1 S1                 0.0000
     39 ****        -4.1006   2.0202  -0.6465 LP             1 S1                 0.0000
     40 ****        -0.6355   0.8925   1.7709 LP             1 S1                 0.0000
     41 ****         0.7924   1.6819   1.7016 LP             1 S1                 0.0000
@<TRIPOS>BOND
    1    1    2 1     
    2    1   22 1     
    3    2    3 1     
    4    2   23 1     
    5    2   24 1     
    6    3   11 1     
    7    3    4 2     
    8    4    5 1     
    9    5   10 ar    
   10    5    6 ar    
   11    6    7 ar    
   12    6   25 1     
   13    7    8 ar    
   14    7   26 1     
   15    8    9 ar    
   16    8   27 1     
   17    9   10 ar    
   18    9   28 1     
   19   10   11 1     
   20   11   12 1     
   21   12   13 1     
   22   12   29 1     
   23   12   30 1     
   24   13   14 1     
   25   13   15 1     
   26   13   31 1     
   27   14   32 1     
   28   15   20 ar    
   29   15   16 ar    
   30   16   17 ar    
   31   16   33 1     
   32   17   18 ar    
   33   17   34 1     
   34   18   19 ar    
   35   18   35 1     
   36   19   20 ar    
   37   19   36 1     
   38   20   21 1     
   39    1   37 1     
   40    1   38 1     
   41    4   39 1     
   42   14   40 1     
   43   14   41 1     
@<TRIPOS>SUBSTRUCTURE
      1 S1             1
@<TRIPOS>SET
LONE_PAIRS      STATIC     ATOMS    <user>   **** ""
5 37 38 39 40 41
DONOR_HYDROGENS      STATIC     ATOMS    <user>   **** ""
2 22 32
ATOM$BLUE        STATIC     ATOMS    COLORGROUP SYSTEM
5 37 38 39 40 41
ATOM$RED        STATIC     ATOMS    COLORGROUP SYSTEM
2 22 32
