#       Name:                AV-unprocessed.smi:1754
#       Creating user name   scv26
#       Creation time:       Fri Mar 27 08:28:28 2020


#       File generated by GOLD software.
#

@<TRIPOS>MOLECULE
AV-unprocessed.smi:1754
    47    48     1
SMALL
NO_CHARGES


@<TRIPOS>ATOM
      1 ****        -4.6088  -2.2722  -0.9469 C.3            1 S1                 0.0000
      2 ****        -4.9145  -0.9591  -0.2091 C.3            1 S1                 0.0000
      3 ****        -4.2474   0.2025  -0.8023 N.pl3          1 S1                 0.0000
      4 ****        -4.9217   1.4938  -0.6701 C.3            1 S1                 0.0000
      5 ****        -4.8820   2.0453   0.7634 C.3            1 S1                 0.0000
      6 ****        -2.8364   0.2670  -0.7627 C.ar           1 S1                 0.0000
      7 ****        -2.1399   1.0814  -1.6855 C.ar           1 S1                 0.0000
      8 ****        -0.7348   1.1470  -1.6249 C.ar           1 S1                 0.0000
      9 ****        -0.0554   0.3892  -0.6426 C.ar           1 S1                 0.0000
     10 ****         1.3545   0.3744  -0.4619 N.am           1 S1                 0.0000
     11 ****         2.3257   0.7844  -1.3018 C.2            1 S1                 0.0000
     12 ****         2.1357   1.2433  -2.4256 O.2            1 S1                 0.0000
     13 ****         3.5721   0.6321  -0.8190 N.am           1 S1                 0.0000
     14 ****         4.8434   0.9700  -1.4613 C.3            1 S1                 0.0000
     15 ****         6.0100   0.2098  -0.8027 C.3            1 S1                 0.0000
     16 ****         7.3313   0.8518  -1.2441 C.3            1 S1                 0.0000
     17 ****         6.9665   2.6262  -1.5256 S.o2           1 S1                 0.0000
     18 ****         7.4835   3.4220  -0.4021 O.2            1 S1                 0.0000
     19 ****         7.3062   2.9670  -2.9155 O.2            1 S1                 0.0000
     20 ****         5.1482   2.4740  -1.3642 C.3            1 S1                 0.0000
     21 ****        -0.8371  -0.3831   0.2395 C.ar           1 S1                 0.0000
     22 ****        -2.1835  -0.4484   0.1851 N.ar           1 S1                 0.0000
     23 ****        -5.1587  -3.0997  -0.4988 H              1 S1                 0.0000
     24 ****        -3.5501  -2.5281  -0.9117 H              1 S1                 0.0000
     25 ****        -4.9031  -2.2093  -1.9948 H              1 S1                 0.0000
     26 ****        -5.9920  -0.7932  -0.2269 H              1 S1                 0.0000
     27 ****        -4.6416  -1.0468   0.8432 H              1 S1                 0.0000
     28 ****        -4.4964   2.2249  -1.3567 H              1 S1                 0.0000
     29 ****        -5.9602   1.3737  -0.9802 H              1 S1                 0.0000
     30 ****        -5.4090   2.9976   0.8228 H              1 S1                 0.0000
     31 ****        -3.8577   2.2147   1.0969 H              1 S1                 0.0000
     32 ****        -5.3559   1.3611   1.4676 H              1 S1                 0.0000
     33 ****        -2.6665   1.6471  -2.4397 H              1 S1                 0.0000
     34 ****        -0.2173   1.7833  -2.3249 H              1 S1                 0.0000
     35 ****         1.6705  -0.0416   0.4019 H              1 S1                 0.0000
     36 ****         3.6453   0.2200   0.1001 H              1 S1                 0.0000
     37 ****         4.8208   0.6811  -2.5138 H              1 S1                 0.0000
     38 ****         5.9279   0.2958   0.2820 H              1 S1                 0.0000
     39 ****         5.9856  -0.8546  -1.0391 H              1 S1                 0.0000
     40 ****         8.1254   0.7417  -0.5053 H              1 S1                 0.0000
     41 ****         7.6719   0.4254  -2.1877 H              1 S1                 0.0000
     42 ****         4.6529   3.0657  -2.1344 H              1 S1                 0.0000
     43 ****         4.8683   2.8714  -0.3879 H              1 S1                 0.0000
     44 ****        -0.3682  -0.9714   1.0148 H              1 S1                 0.0000
     45 ****         1.2042   1.3345  -2.7776 LP             1 S1                 0.0000
     46 ****         2.9127   1.5256  -2.9884 LP             1 S1                 0.0000
     47 ****        -2.6914  -1.0155   0.8335 LP             1 S1                 0.0000
@<TRIPOS>BOND
    1    1    2 1     
    2    1   23 1     
    3    1   24 1     
    4    1   25 1     
    5    2    3 1     
    6    2   26 1     
    7    2   27 1     
    8    3    4 1     
    9    3    6 1     
   10    4    5 1     
   11    4   28 1     
   12    4   29 1     
   13    5   30 1     
   14    5   31 1     
   15    5   32 1     
   16    6   22 ar    
   17    6    7 ar    
   18    7    8 ar    
   19    7   33 1     
   20    8    9 ar    
   21    8   34 1     
   22    9   10 1     
   23    9   21 ar    
   24   10   11 am    
   25   10   35 1     
   26   11   12 2     
   27   11   13 am    
   28   13   14 1     
   29   13   36 1     
   30   14   20 1     
   31   14   15 1     
   32   14   37 1     
   33   15   16 1     
   34   15   38 1     
   35   15   39 1     
   36   16   17 1     
   37   16   40 1     
   38   16   41 1     
   39   17   18 2     
   40   17   19 2     
   41   17   20 1     
   42   20   42 1     
   43   20   43 1     
   44   21   22 ar    
   45   21   44 1     
   46   12   45 1     
   47   12   46 1     
   48   22   47 1     
@<TRIPOS>SUBSTRUCTURE
      1 S1             1
@<TRIPOS>SET
LONE_PAIRS      STATIC     ATOMS    <user>   **** ""
5 45 46 18 19 47
DONOR_HYDROGENS      STATIC     ATOMS    <user>   **** ""
2 35 36
ATOM$BLUE        STATIC     ATOMS    COLORGROUP SYSTEM
5 45 46 18 19 47
ATOM$RED        STATIC     ATOMS    COLORGROUP SYSTEM
2 35 36
