AV-unprocessed.smi:215|AV-procd|sdf|1655|dock1
  -GOLD-   2262020 43D 1   1.00000     0.00000
 Structure written by MMmdl.
 59 62  0  0  0  0  0  0  0  0  2 V2000
  149.6906  139.0020  156.7794 C   0  0  0  0  0  0  0  0  0  0  0  0
  148.5476  139.8116  156.1282 C   0  0  1  0  0  0  0  0  0  0  0  0
  148.9053  141.2921  155.8397 C   0  0  2  0  0  0  0  0  0  0  0  0
  148.6066  142.2587  156.9411 N   0  3  1  0  0  0  0  0  0  0  0  0
  147.1877  142.3054  157.3701 C   0  0  0  0  0  0  0  0  0  0  0  0
  149.5197  142.1054  158.1065 C   0  0  0  0  0  0  0  0  0  0  0  0
  150.9934  142.2971  157.7123 C   0  0  0  0  0  0  0  0  0  0  0  0
  151.1133  143.3789  156.8128 O   0  0  0  0  0  0  0  0  0  0  0  0
  148.0558  141.5905  154.5942 C   0  0  0  0  0  0  0  0  0  0  0  0
  148.0195  140.2742  153.8266 C   0  0  0  0  0  0  0  0  0  0  0  0
  148.2145  139.2359  154.8247 N   0  0  0  0  0  0  0  0  0  0  0  0
  147.5121  138.0784  154.7012 C   0  0  0  0  0  0  0  0  0  0  0  0
  147.4304  137.2281  155.7586 N   0  0  0  0  0  0  0  0  0  0  0  0
  146.7493  136.0837  155.6572 C   0  0  0  0  0  0  0  0  0  0  0  0
  146.0887  135.5981  154.6057 N   0  0  0  0  0  0  0  0  0  0  0  0
  146.1669  136.4413  153.5362 C   0  0  0  0  0  0  0  0  0  0  0  0
  146.8493  137.6913  153.5002 C   0  0  0  0  0  0  0  0  0  0  0  0
  146.7173  138.2623  152.2397 N   0  0  0  0  0  0  0  0  0  0  0  0
  145.9965  137.4038  151.5719 C   0  0  0  0  0  0  0  0  0  0  0  0
  145.6248  136.2776  152.2710 N   0  0  0  0  0  0  0  0  0  0  0  0
  144.8489  135.1783  151.7673 C   0  0  0  0  0  0  0  0  0  0  0  0
  144.7822  133.8427  152.5119 C   0  0  0  0  0  0  0  0  0  0  0  0
  144.8037  133.0775  151.1692 C   0  0  0  0  0  0  0  0  0  0  0  0
  145.8149  131.9230  151.0954 C   0  0  0  0  0  0  0  0  0  0  0  0
  146.2279  131.6778  149.7660 O   0  0  0  0  0  0  0  0  0  0  0  0
  143.4532  132.5396  150.6482 C   0  0  0  0  0  0  0  0  0  0  0  0
  143.5118  132.1049  149.3044 O   0  0  0  0  0  0  0  0  0  0  0  0
  145.3008  134.3952  150.5321 C   0  0  0  0  0  0  0  0  0  0  0  0
  147.6568  139.7787  156.7568 H   0  0  0  0  0  0  0  0  0  0  0  0
  149.9624  141.3565  155.5746 H   0  0  0  0  0  0  0  0  0  0  0  0
  149.9775  139.3831  157.7564 H   0  0  0  0  0  0  0  0  0  0  0  0
  150.5823  139.0105  156.1518 H   0  0  0  0  0  0  0  0  0  0  0  0
  149.4078  137.9596  156.9238 H   0  0  0  0  0  0  0  0  0  0  0  0
  146.8523  141.3279  157.7185 H   0  0  0  0  0  0  0  0  0  0  0  0
  146.5378  142.6379  156.5614 H   0  0  0  0  0  0  0  0  0  0  0  0
  147.0457  143.0130  158.1862 H   0  0  0  0  0  0  0  0  0  0  0  0
  149.2405  142.8202  158.8823 H   0  0  0  0  0  0  0  0  0  0  0  0
  149.4174  141.1245  158.5693 H   0  0  0  0  0  0  0  0  0  0  0  0
  151.6320  142.4679  158.5784 H   0  0  0  0  0  0  0  0  0  0  0  0
  151.3638  141.3990  157.2172 H   0  0  0  0  0  0  0  0  0  0  0  0
  150.2615  143.7736  156.6994 H   0  0  0  0  0  0  0  0  0  0  0  0
  147.0403  141.8574  154.8920 H   0  0  0  0  0  0  0  0  0  0  0  0
  148.4461  142.4032  153.9816 H   0  0  0  0  0  0  0  0  0  0  0  0
  147.0801  140.1646  153.2828 H   0  0  0  0  0  0  0  0  0  0  0  0
  148.8377  140.2253  153.1073 H   0  0  0  0  0  0  0  0  0  0  0  0
  146.7322  135.4687  156.5448 H   0  0  0  0  0  0  0  0  0  0  0  0
  145.7198  137.5699  150.5406 H   0  0  0  0  0  0  0  0  0  0  0  0
  143.8393  135.5613  151.6108 H   0  0  0  0  0  0  0  0  0  0  0  0
  145.6661  133.6509  153.1217 H   0  0  0  0  0  0  0  0  0  0  0  0
  143.8733  133.7045  153.0980 H   0  0  0  0  0  0  0  0  0  0  0  0
  146.6935  132.1283  151.7077 H   0  0  0  0  0  0  0  0  0  0  0  0
  145.3789  131.0009  151.4815 H   0  0  0  0  0  0  0  0  0  0  0  0
  147.0287  131.1762  149.7880 H   0  0  0  0  0  0  0  0  0  0  0  0
  143.1127  131.6992  151.2540 H   0  0  0  0  0  0  0  0  0  0  0  0
  142.6777  133.3035  150.7090 H   0  0  0  0  0  0  0  0  0  0  0  0
  144.1584  132.6229  148.8496 H   0  0  0  0  0  0  0  0  0  0  0  0
  144.7889  134.6809  149.6126 H   0  0  0  0  0  0  0  0  0  0  0  0
  146.3818  134.4178  150.3891 H   0  0  0  0  0  0  0  0  0  0  0  0
  148.8094  143.1693  156.5530 H   0  0  0  0  0  0  0  0  0  0  0  0
  1  2  1  0  0  0  0
  1 31  1  0  0  0  0
  1 32  1  0  0  0  0
  1 33  1  0  0  0  0
  2 29  1  0  0  0  0
  2 11  1  0  0  0  0
  2  3  1  0  0  0  0
  3 30  1  0  0  0  0
  3  4  1  0  0  0  0
  3  9  1  0  0  0  0
  4  5  1  0  0  0  0
  4  6  1  0  0  0  0
  4 59  1  0  0  0  0
  5 34  1  0  0  0  0
  5 35  1  0  0  0  0
  5 36  1  0  0  0  0
  6  7  1  0  0  0  0
  6 37  1  0  0  0  0
  6 38  1  0  0  0  0
  7  8  1  0  0  0  0
  7 39  1  0  0  0  0
  7 40  1  0  0  0  0
  8 41  1  0  0  0  0
  9 10  1  0  0  0  0
  9 42  1  0  0  0  0
  9 43  1  0  0  0  0
 10 11  1  0  0  0  0
 10 44  1  0  0  0  0
 10 45  1  0  0  0  0
 11 12  1  0  0  0  0
 12 17  1  0  0  0  0
 12 13  2  0  0  0  0
 13 14  1  0  0  0  0
 14 15  2  0  0  0  0
 14 46  1  0  0  0  0
 15 16  1  0  0  0  0
 16 20  1  0  0  0  0
 16 17  2  0  0  0  0
 17 18  1  0  0  0  0
 18 19  2  0  0  0  0
 19 20  1  0  0  0  0
 19 47  1  0  0  0  0
 20 21  1  0  0  0  0
 21 28  1  0  0  0  0
 21 22  1  0  0  0  0
 21 48  1  0  0  0  0
 22 23  1  0  0  0  0
 22 49  1  0  0  0  0
 22 50  1  0  0  0  0
 23 24  1  0  0  0  0
 23 26  1  0  0  0  0
 23 28  1  0  0  0  0
 24 25  1  0  0  0  0
 24 51  1  0  0  0  0
 24 52  1  0  0  0  0
 25 53  1  0  0  0  0
 26 27  1  0  0  0  0
 26 54  1  0  0  0  0
 26 55  1  0  0  0  0
 27 56  1  0  0  0  0
 28 57  1  0  0  0  0
 28 58  1  0  0  0  0
M  CHG  1   4   1
M  END
> <s_m_source_file>
AV-unprocessed.smi

> <i_m_source_file_index>
215

> <i_lp_mmshare_version>
43012

> <i_f3d_flags>
0

> <s_epik_input>
W09IXVtDSDJdW0NIMl1OKFtDSDNdKVtDQEBIXShbQ0BIXTFbQ0gzXSlbQ0gyXVtDSDJdTjFjKG5bY0hdbjIpYyhjMjMpbltjSF1uM1tDSF0oW0NIMl00KVtDSDJdQzQoW0NIMl1bT0hdKVtDSDJdW09IXQ==

> <s_epik_cmdline>
J2VwaWtfcHl0aG9uJywgJy1waCcsICc3LjAnLCAnLXRuJywgJzgnLCAnLW1hJywgJzIwMCcsICctbWV0YWxfYmluZGluZycsICctaW1hZScsICc8aW5maWxlLm1hZT4nLCAnLW9tYWUnLCAnPG91dGZpbGUubWFlPic=

> <r_lp_tautomer_probability>
1

> <r_epik_Ionization_Penalty>
0.0036237

> <r_epik_Ionization_Penalty_Charging>
0.0032725

> <r_epik_Ionization_Penalty_Neutral>
0.000351196

> <r_epik_State_Penalty>
-0

> <r_epik_Charging_Adjusted_Penalty>
0.0032725

> <i_epik_Tot_Q>
1

> <i_epik_Tot_abs_Q>
1

> <r_epik_Metal_State_Penalty>
-0

> <b_epik_Metal_Only>
0

> <s_lp_Force_Field>
OPLS_2005

> <r_lp_Energy>
67.7544

> <b_lp_Chiralities_Consistent>
1

> <s_lp_Variant>
AV-unprocessed.smi:215-6

> <Gold.Version>
5.8.1

> <Gold.Id.Protein>
6NUR|6NUR_protein|mol2

> <Gold.PLP.Fitness>
54.5852

> <Gold.PLP.PLP>
-37.1019

> <Gold.PLP.part.hbond>
-4.5832

> <Gold.PLP.part.metal>
0.0000

> <Gold.PLP.part.buried>
-3.6026

> <Gold.PLP.part.nonpolar>
-29.5124

> <Gold.PLP.part.repulsive>
0.4219

> <Gold.PLP.ligand.clash>
0.0000

> <Gold.PLP.ligand.torsion>
0.7416

> <Gold.PLP.Chemscore.Hbond>
4.9913

> <Gold.PLP.Chemscore.CHOScore>
1.0000

> <Gold.PLP.Chemscore.Metal>
0.0000

> <Gold.Chemscore.Hbonds>
donor molecule, donor type, donor heavy atom, donor atom, acceptor molecule, acceptor atom, score
      L1  H     4    59       P1  8028  2.00
      L1  H     8    41       P1  8028  1.00
      L1  H    25    53       P1 10747  1.00
      P1  H 10785 10796       L1    27  0.89
      L1  C    19    47       P1 10171  0.94

> <Gold.PLP.Chemscore.Internal.Correction>
0.9928

> <Gold.Rescore>
     Score         DG    S(hbond)    S(metal)    S(lipo)     H(rot)  DE(clash)    DE(int)     intcor
     10.36     -15.37       3.68        0.00      77.57       4.48       1.20       3.81       ----

> <Gold.Chemscore.Fitness>
10.3587

> <Gold.Chemscore.DG>
-15.3747

> <Gold.Chemscore.ZeroCoef>
-5.4800

> <Gold.Chemscore.Hbond>
3.6780

> <Gold.Chemscore.Metal>
0.0000

> <Gold.Chemscore.Lipo>
77.5692

> <Gold.Chemscore.Internal_Hbond>
0.0000

> <Gold.Chemscore.DEClash>
1.2039

> <Gold.Chemscore.DEInternal>
3.8122

> <Gold.Chemscore.Rot>
4.4787

> <Gold.Chemscore.Internal.Correction>
   9.000000E+99

> <Gold.Chemscore.Hbonds>
donor molecule, donor type, donor heavy atom, donor atom, acceptor molecule, acceptor atom, score
      L1  H     4    59       P1  8028  0.93
      L1  H     8    41       P1  8028  0.96
      L1  H    25    53       P1 10747  0.93
      P1  H 10785 10796       L1    27  0.80

> <Gold.Chemscore.Hbond.Weighted>
-12.2846

> <Gold.Chemscore.Metal.Weighted>
-0.0000

> <Gold.Chemscore.Lipo.Weighted>
-9.0756

> <Gold.Chemscore.Internal_Hbond.Weighted>
0.0000

> <Gold.Chemscore.DEClash.Weighted>
1.2039

> <Gold.Chemscore.DEInternal.Weighted>
3.8122

> <Gold.Chemscore.Rot.Weighted>
11.4655

> <Gold.Chemscore.Internal.Correction.Weighted>
   9.000000E+99

> <Gold.Protein.RotatedTorsions>
[ 6907 6896 6895 6894 ] final   -7.09 input  -60.11 | X-H torsion
[ 7974 7965 7964 7962 ] final  108.43 input  175.53 | X-H torsion
[ 8008 7997 7996 7995 ] final  -68.02 input   59.86 | X-H torsion
[ 10167 10162 10161 10158 ] final   91.89 input  -65.29 | X-H torsion
[ 10718 10713 10712 10709 ] final -172.88 input   66.30 | X-H torsion
[ 10763 10752 10751 10750 ] final   20.73 input  -60.55 | X-H torsion
[ 11005 11000 10999 10996 ] final  150.50 input  -57.11 | X-H torsion

> <Gold.Protein.ActiveResidues>
 VAL166  LYS551  ARG553  GLY616  TRP617  ASP618  TYR619  PRO620  LYS621  CYS622 
 ASP623  PHE694  ASN695  SER759  ASP760  ASP761  ALA762  ILE779  LEU786  VAL792 
 PHE793  MET794  SER795  GLU796  ALA797  LYS798  CYS799  TRP800  GLU811  SER814 

> <Gold.Protein.RotatedAtoms>
  151.4551  135.1033  159.9708 H   0  0  0  0  0  0  0  0  0  0  0  0  # atno 6907 bound_to 6896
  152.4874  133.8404  159.7160 H   0  0  0  0  0  0  0  0  0  0  0  0  # atno 6908 bound_to 6896
  150.8995  133.7077  159.2910 H   0  0  0  0  0  0  0  0  0  0  0  0  # atno 6909 bound_to 6896
  145.2807  139.2633  143.3917 H   0  0  0  0  0  0  0  0  0  0  0  0  # atno 7974 bound_to 7965
  154.4839  140.0881  156.7441 H   0  0  0  0  0  0  0  0  0  0  0  0  # atno 8008 bound_to 7997
  155.4400  140.3453  155.4270 H   0  0  0  0  0  0  0  0  0  0  0  0  # atno 8009 bound_to 7997
  156.1232  140.1480  156.9162 H   0  0  0  0  0  0  0  0  0  0  0  0  # atno 8010 bound_to 7997
  139.8330  144.6678  150.9376 H   0  0  0  0  0  0  0  0  0  0  0  0  # atno 10167 bound_to 10162
  156.7620  130.9417  151.3118 H   0  0  0  0  0  0  0  0  0  0  0  0  # atno 10718 bound_to 10713
  153.1053  135.6683  153.9597 H   0  0  0  0  0  0  0  0  0  0  0  0  # atno 10763 bound_to 10752
  153.9156  135.3020  155.3449 H   0  0  0  0  0  0  0  0  0  0  0  0  # atno 10764 bound_to 10752
  154.7474  135.5051  153.9305 H   0  0  0  0  0  0  0  0  0  0  0  0  # atno 10765 bound_to 10752
  140.1137  134.8908  157.1973 H   0  0  0  0  0  0  0  0  0  0  0  0  # atno 11005 bound_to 11000
  146.3217  140.3274  142.8638 LP  0  0  0  0  0  0  0  0  0  0  0  0  # atno 17320 bound_to 7965
  144.9255  140.7917  143.5721 LP  0  0  0  0  0  0  0  0  0  0  0  0  # atno 17321 bound_to 7965
  140.7805  143.3983  151.1192 LP  0  0  0  0  0  0  0  0  0  0  0  0  # atno 17342 bound_to 10162
  139.7635  143.8600  152.3105 LP  0  0  0  0  0  0  0  0  0  0  0  0  # atno 17343 bound_to 10162
  157.6730  130.9068  150.0084 LP  0  0  0  0  0  0  0  0  0  0  0  0  # atno 17370 bound_to 10713
  156.1333  130.3643  149.9697 LP  0  0  0  0  0  0  0  0  0  0  0  0  # atno 17371 bound_to 10713
  140.3057  134.3081  155.7279 LP  0  0  0  0  0  0  0  0  0  0  0  0  # atno 17394 bound_to 11000
  141.2136  133.7619  156.9705 LP  0  0  0  0  0  0  0  0  0  0  0  0  # atno 17395 bound_to 11000

$$$$
