#       Name:                AV-unprocessed.smi:858
#       Creating user name   scv26
#       Creation time:       Fri Mar 27 01:43:34 2020


#       File generated by GOLD software.
#

@<TRIPOS>MOLECULE
AV-unprocessed.smi:858
    52    53     1
SMALL
NO_CHARGES


@<TRIPOS>ATOM
      1 ****        -4.1744   4.8578  -0.3676 C.3            1 S1                 0.0000
      2 ****        -3.6863   4.4740  -1.7676 C.2            1 S1                 0.0000
      3 ****        -3.7205   5.3333  -2.6493 O.2            1 S1                 0.0000
      4 ****        -3.2378   3.2149  -1.9941 N.am           1 S1                 0.0000
      5 ****        -2.7520   2.8424  -3.3259 C.3            1 S1                 0.0000
      6 ****        -3.2006   2.1594  -0.9683 C.3            1 S1                 0.0000
      7 ****        -1.9234   2.1784  -0.1168 C.2            1 S1                 0.0000
      8 ****        -0.9260   2.7997  -0.4862 O.2            1 S1                 0.0000
      9 ****        -1.9690   1.4726   1.0234 N.am           1 S1                 0.0000
     10 ****        -0.8657   1.3260   1.9655 C.3            1 S1                 0.0000
     11 ****         0.0542   0.1750   1.6027 C.ar           1 S1                 0.0000
     12 ****        -0.1840  -1.1242   2.0909 C.ar           1 S1                 0.0000
     13 ****         0.6873  -2.1640   1.7143 C.ar           1 S1                 0.0000
     14 ****         1.7743  -1.8767   0.8545 C.ar           1 S1                 0.0000
     15 ****         2.6558  -2.9058   0.4603 N.3            1 S1                 0.0000
     16 ****         3.2596  -3.6703   1.5485 C.3            1 S1                 0.0000
     17 ****         3.9402  -4.9363   0.9996 C.3            1 S1                 0.0000
     18 ****         4.8746  -4.5820  -0.0147 O.3            1 S1                 0.0000
     19 ****         4.2426  -3.9370  -1.1154 C.3            1 S1                 0.0000
     20 ****         3.5790  -2.6337  -0.6396 C.3            1 S1                 0.0000
     21 ****         1.9947  -0.6245   0.3823 N.ar           1 S1                 0.0000
     22 ****         1.1590   0.3695   0.7499 C.ar           1 S1                 0.0000
     23 ****        -5.0726   4.2995  -0.1038 H              1 S1                 0.0000
     24 ****        -4.4209   5.9195  -0.3267 H              1 S1                 0.0000
     25 ****        -3.4067   4.6684   0.3826 H              1 S1                 0.0000
     26 ****        -3.5841   2.7695  -4.0275 H              1 S1                 0.0000
     27 ****        -2.2344   1.8823  -3.3197 H              1 S1                 0.0000
     28 ****        -2.0446   3.5802  -3.7087 H              1 S1                 0.0000
     29 ****        -4.0750   2.2149  -0.3189 H              1 S1                 0.0000
     30 ****        -3.2704   1.1812  -1.4459 H              1 S1                 0.0000
     31 ****        -2.8273   0.9906   1.2488 H              1 S1                 0.0000
     32 ****        -0.2905   2.2510   2.0365 H              1 S1                 0.0000
     33 ****        -1.2833   1.1518   2.9576 H              1 S1                 0.0000
     34 ****        -1.0239  -1.3249   2.7397 H              1 S1                 0.0000
     35 ****         0.5036  -3.1662   2.0718 H              1 S1                 0.0000
     36 ****         3.9944  -3.0416   2.0531 H              1 S1                 0.0000
     37 ****         2.5225  -3.9587   2.2967 H              1 S1                 0.0000
     38 ****         4.4669  -5.4558   1.8002 H              1 S1                 0.0000
     39 ****         3.2011  -5.6330   0.6008 H              1 S1                 0.0000
     40 ****         4.9906  -3.7206  -1.8782 H              1 S1                 0.0000
     41 ****         3.5081  -4.6042  -1.5696 H              1 S1                 0.0000
     42 ****         3.0473  -2.1730  -1.4730 H              1 S1                 0.0000
     43 ****         4.3406  -1.9272  -0.3065 H              1 S1                 0.0000
     44 ****         1.3764   1.3472   0.3456 H              1 S1                 0.0000
     45 ****        -4.0600   6.2505  -2.4407 LP             1 S1                 0.0000
     46 ****        -3.4087   5.1138  -3.5738 LP             1 S1                 0.0000
     47 ****        -0.9411   3.3009  -1.3515 LP             1 S1                 0.0000
     48 ****        -0.1011   2.8030   0.0791 LP             1 S1                 0.0000
     49 ****         1.9946  -3.5223   0.0327 LP             1 S1                 0.0000
     50 ****         5.3268  -5.4117  -0.3421 LP             1 S1                 0.0000
     51 ****         5.5561  -3.9627   0.3753 LP             1 S1                 0.0000
     52 ****         2.7646  -0.4406  -0.2289 LP             1 S1                 0.0000
@<TRIPOS>BOND
    1    1    2 1     
    2    1   23 1     
    3    1   24 1     
    4    1   25 1     
    5    2    3 2     
    6    2    4 am    
    7    4    5 1     
    8    4    6 1     
    9    5   26 1     
   10    5   27 1     
   11    5   28 1     
   12    6    7 1     
   13    6   29 1     
   14    6   30 1     
   15    7    8 2     
   16    7    9 am    
   17    9   10 1     
   18    9   31 1     
   19   10   11 1     
   20   10   32 1     
   21   10   33 1     
   22   11   22 ar    
   23   11   12 ar    
   24   12   13 ar    
   25   12   34 1     
   26   13   14 ar    
   27   13   35 1     
   28   14   15 1     
   29   14   21 ar    
   30   15   20 1     
   31   15   16 1     
   32   16   17 1     
   33   16   36 1     
   34   16   37 1     
   35   17   18 1     
   36   17   38 1     
   37   17   39 1     
   38   18   19 1     
   39   19   20 1     
   40   19   40 1     
   41   19   41 1     
   42   20   42 1     
   43   20   43 1     
   44   21   22 ar    
   45   22   44 1     
   46    3   45 1     
   47    3   46 1     
   48    8   47 1     
   49    8   48 1     
   50   15   49 1     
   51   18   50 1     
   52   18   51 1     
   53   21   52 1     
@<TRIPOS>SUBSTRUCTURE
      1 S1             1
@<TRIPOS>SET
LONE_PAIRS      STATIC     ATOMS    <user>   **** ""
8 45 46 47 48 49 50 51 52
DONOR_HYDROGENS      STATIC     ATOMS    <user>   **** ""
1 31
ATOM$BLUE        STATIC     ATOMS    COLORGROUP SYSTEM
8 45 46 47 48 49 50 51 52
ATOM$RED        STATIC     ATOMS    COLORGROUP SYSTEM
1 31
