#       Name:                AV-unprocessed.smi:869
#       Creating user name   scv26
#       Creation time:       Fri Mar 27 01:48:54 2020


#       File generated by GOLD software.
#

@<TRIPOS>MOLECULE
AV-unprocessed.smi:869
    53    55     1
SMALL
NO_CHARGES


@<TRIPOS>ATOM
      1 ****        -0.4618   0.3450   5.1837 C.3            1 S1                 0.0000
      2 ****        -0.7563   1.3494   4.2293 O.3            1 S1                 0.0000
      3 ****        -1.2971   0.8165   3.0305 C.3            1 S1                 0.0000
      4 ****        -1.5913   1.9709   2.1152 C.2            1 S1                 0.0000
      5 ****        -2.1268   3.1070   2.5675 N.2            1 S1                 0.0000
      6 ****        -2.2245   3.8774   1.4263 C.ar           1 S1                 0.0000
      7 ****        -2.7080   5.1929   1.2443 C.ar           1 S1                 0.0000
      8 ****        -2.7093   5.7819  -0.0371 C.ar           1 S1                 0.0000
      9 ****        -2.2287   5.0653  -1.1523 C.ar           1 S1                 0.0000
     10 ****        -1.7439   3.7529  -0.9926 C.ar           1 S1                 0.0000
     11 ****        -1.7447   3.1699   0.2889 C.ar           1 S1                 0.0000
     12 ****        -1.3490   1.9291   0.7787 N.pl3          1 S1                 0.0000
     13 ****        -0.7946   0.8426  -0.0182 C.3            1 S1                 0.0000
     14 ****         0.7226   0.9970  -0.2522 C.3            1 S1                 0.0000
     15 ****         1.4442   1.0478   0.9624 O.3            1 S1                 0.0000
     16 ****         1.3238  -0.0978  -1.1484 C.3            1 S1                 0.0000
     17 ****         0.9055  -1.3789  -0.6927 O.3            1 S1                 0.0000
     18 ****         1.3333  -2.4917  -1.3842 C.ar           1 S1                 0.0000
     19 ****         0.8919  -3.7454  -0.9136 C.ar           1 S1                 0.0000
     20 ****         1.2794  -4.9355  -1.5586 C.ar           1 S1                 0.0000
     21 ****         2.1178  -4.8859  -2.6892 C.ar           1 S1                 0.0000
     22 ****         2.5352  -6.1688  -3.3779 C.3            1 S1                 0.0000
     23 ****         2.5659  -3.6386  -3.1683 C.ar           1 S1                 0.0000
     24 ****         2.1774  -2.4484  -2.5225 C.ar           1 S1                 0.0000
     25 ****        -0.0404   0.8034   6.0784 H              1 S1                 0.0000
     26 ****         0.2671  -0.3680   4.7959 H              1 S1                 0.0000
     27 ****        -1.3625  -0.1972   5.4750 H              1 S1                 0.0000
     28 ****        -0.5800   0.1276   2.5860 H              1 S1                 0.0000
     29 ****        -2.2216   0.2718   3.2276 H              1 S1                 0.0000
     30 ****        -3.0775   5.7495   2.0928 H              1 S1                 0.0000
     31 ****        -3.0802   6.7884  -0.1645 H              1 S1                 0.0000
     32 ****        -2.2324   5.5239  -2.1303 H              1 S1                 0.0000
     33 ****        -1.3749   3.2012  -1.8446 H              1 S1                 0.0000
     34 ****        -1.0331  -0.1114   0.4508 H              1 S1                 0.0000
     35 ****        -1.3110   0.8321  -0.9788 H              1 S1                 0.0000
     36 ****         0.8979   1.9558  -0.7419 H              1 S1                 0.0000
     37 ****         1.3548   0.2142   1.3986 H              1 S1                 0.0000
     38 ****         0.9678   0.0501  -2.1693 H              1 S1                 0.0000
     39 ****         2.4125  -0.0205  -1.1616 H              1 S1                 0.0000
     40 ****         0.2485  -3.7956  -0.0474 H              1 S1                 0.0000
     41 ****         0.9315  -5.8866  -1.1826 H              1 S1                 0.0000
     42 ****         3.0176  -5.9672  -4.3348 H              1 S1                 0.0000
     43 ****         1.6665  -6.8012  -3.5634 H              1 S1                 0.0000
     44 ****         3.2355  -6.7213  -2.7511 H              1 S1                 0.0000
     45 ****         3.2107  -3.5884  -4.0335 H              1 S1                 0.0000
     46 ****         2.5425  -1.5139  -2.9205 H              1 S1                 0.0000
     47 ****         0.0865   1.8410   4.0104 LP             1 S1                 0.0000
     48 ****        -1.4192   1.9844   4.6259 LP             1 S1                 0.0000
     49 ****        -2.3919   3.3420   3.5027 LP             1 S1                 0.0000
     50 ****         1.0764   1.7739   1.5434 LP             1 S1                 0.0000
     51 ****         2.4096   1.2284   0.7741 LP             1 S1                 0.0000
     52 ****        -0.0943  -1.3868  -0.7091 LP             1 S1                 0.0000
     53 ****         1.2241  -1.4760   0.2502 LP             1 S1                 0.0000
@<TRIPOS>BOND
    1    1    2 1     
    2    1   25 1     
    3    1   26 1     
    4    1   27 1     
    5    2    3 1     
    6    3    4 1     
    7    3   28 1     
    8    3   29 1     
    9    4   12 1     
   10    4    5 2     
   11    5    6 1     
   12    6   11 ar    
   13    6    7 ar    
   14    7    8 ar    
   15    7   30 1     
   16    8    9 ar    
   17    8   31 1     
   18    9   10 ar    
   19    9   32 1     
   20   10   11 ar    
   21   10   33 1     
   22   11   12 1     
   23   12   13 1     
   24   13   14 1     
   25   13   34 1     
   26   13   35 1     
   27   14   15 1     
   28   14   16 1     
   29   14   36 1     
   30   15   37 1     
   31   16   17 1     
   32   16   38 1     
   33   16   39 1     
   34   17   18 1     
   35   18   24 ar    
   36   18   19 ar    
   37   19   20 ar    
   38   19   40 1     
   39   20   21 ar    
   40   20   41 1     
   41   21   22 1     
   42   21   23 ar    
   43   22   42 1     
   44   22   43 1     
   45   22   44 1     
   46   23   24 ar    
   47   23   45 1     
   48   24   46 1     
   49    2   47 1     
   50    2   48 1     
   51    5   49 1     
   52   15   50 1     
   53   15   51 1     
   54   17   52 1     
   55   17   53 1     
@<TRIPOS>SUBSTRUCTURE
      1 S1             1
@<TRIPOS>SET
LONE_PAIRS      STATIC     ATOMS    <user>   **** ""
7 47 48 49 50 51 52 53
DONOR_HYDROGENS      STATIC     ATOMS    <user>   **** ""
1 37
ATOM$BLUE        STATIC     ATOMS    COLORGROUP SYSTEM
7 47 48 49 50 51 52 53
ATOM$RED        STATIC     ATOMS    COLORGROUP SYSTEM
1 37
