AV-unprocessed.smi:3121|AV-procd|sdf|11894|dock1
  -GOLD-   2272017283D 1   1.00000     0.00000
 Structure written by MMmdl.
 24 25  0  0  0  0  0  0  0  0  2 V2000
  153.9245  141.6603  161.0784 C   0  0  0  0  0  0  0  0  0  0  0  0
  153.0894  142.7700  160.8484 C   0  0  0  0  0  0  0  0  0  0  0  0
  152.0953  142.6767  159.8549 C   0  0  0  0  0  0  0  0  0  0  0  0
  151.9771  141.4715  159.1290 C   0  0  0  0  0  0  0  0  0  0  0  0
  150.9126  141.3184  158.0516 C   0  0  2  0  0  0  0  0  0  0  0  0
  151.4247  141.0236  156.6441 C   0  0  0  0  0  0  0  0  0  0  0  0
  150.2242  141.3802  155.7557 C   0  0  0  0  0  0  0  0  0  0  0  0
  149.3667  142.2980  156.5390 N   0  3  0  0  0  0  0  0  0  0  0  0
  150.0181  142.5390  157.8393 C   0  0  0  0  0  0  0  0  0  0  0  0
  152.7772  140.4022  159.3475 N   0  0  0  0  0  0  0  0  0  0  0  0
  153.7273  140.5012  160.3024 C   0  0  0  0  0  0  0  0  0  0  0  0
  154.6968  141.6959  161.8326 H   0  0  0  0  0  0  0  0  0  0  0  0
  153.2083  143.6759  161.4244 H   0  0  0  0  0  0  0  0  0  0  0  0
  151.4406  143.5135  159.6606 H   0  0  0  0  0  0  0  0  0  0  0  0
  150.2655  140.4884  158.3419 H   0  0  0  0  0  0  0  0  0  0  0  0
  152.2589  141.6820  156.3976 H   0  0  0  0  0  0  0  0  0  0  0  0
  151.7633  139.9946  156.5199 H   0  0  0  0  0  0  0  0  0  0  0  0
  150.5384  141.8409  154.8189 H   0  0  0  0  0  0  0  0  0  0  0  0
  149.6462  140.4880  155.5133 H   0  0  0  0  0  0  0  0  0  0  0  0
  149.2248  143.1694  156.0481 H   0  0  0  0  0  0  0  0  0  0  0  0
  149.2928  142.6823  158.6407 H   0  0  0  0  0  0  0  0  0  0  0  0
  150.6139  143.4488  157.7541 H   0  0  0  0  0  0  0  0  0  0  0  0
  154.3487  139.6308  160.4532 H   0  0  0  0  0  0  0  0  0  0  0  0
  148.4763  141.8473  156.6955 H   0  0  0  0  0  0  0  0  0  0  0  0
  1 11  1  0  0  0  0
  1  2  2  0  0  0  0
  1 12  1  0  0  0  0
  2  3  1  0  0  0  0
  2 13  1  0  0  0  0
  3  4  2  0  0  0  0
  3 14  1  0  0  0  0
  4  5  1  0  0  0  0
  4 10  1  0  0  0  0
  5  9  1  0  0  0  0
  5  6  1  0  0  0  0
  5 15  1  0  0  0  0
  6  7  1  0  0  0  0
  6 16  1  0  0  0  0
  6 17  1  0  0  0  0
  7  8  1  0  0  0  0
  7 18  1  0  0  0  0
  7 19  1  0  0  0  0
  8  9  1  0  0  0  0
  8 20  1  0  0  0  0
  8 24  1  0  0  0  0
  9 21  1  0  0  0  0
  9 22  1  0  0  0  0
 10 11  2  0  0  0  0
 11 23  1  0  0  0  0
M  CHG  1   8   1
M  END
> <s_m_source_file>
AV-unprocessed.smi

> <i_m_source_file_index>
3121

> <i_lp_mmshare_version>
43012

> <i_f3d_flags>
0

> <s_epik_input>
bjFbY0hdW2NIXVtjSF1bY0hdYzFbQ0BASF0yW0NIMl1bQ0gyXVtOSF1bQ0gyXTI=

> <s_epik_cmdline>
J2VwaWtfcHl0aG9uJywgJy1waCcsICc3LjAnLCAnLXRuJywgJzgnLCAnLW1hJywgJzIwMCcsICctbWV0YWxfYmluZGluZycsICctaW1hZScsICc8aW5maWxlLm1hZT4nLCAnLW9tYWUnLCAnPG91dGZpbGUubWFlPic=

> <r_lp_tautomer_probability>
1

> <r_epik_Ionization_Penalty>
0.00154319

> <r_epik_Ionization_Penalty_Charging>
0.000126521

> <r_epik_Ionization_Penalty_Neutral>
0.00141667

> <r_epik_State_Penalty>
-0

> <r_epik_Charging_Adjusted_Penalty>
0.000126521

> <i_epik_Tot_Q>
1

> <i_epik_Tot_abs_Q>
1

> <r_epik_Metal_State_Penalty>
-0

> <b_epik_Metal_Only>
0

> <s_lp_Force_Field>
OPLS_2005

> <r_lp_Energy>
22.4968

> <b_lp_Chiralities_Consistent>
1

> <s_lp_Variant>
AV-unprocessed.smi:3121-1

> <Gold.Version>
5.8.1

> <Gold.Id.Protein>
6NUR|6NUR_protein|mol2

> <Gold.PLP.Fitness>
31.1419

> <Gold.PLP.PLP>
-25.1420

> <Gold.PLP.part.hbond>
-1.0000

> <Gold.PLP.part.metal>
0.0000

> <Gold.PLP.part.buried>
-3.3301

> <Gold.PLP.part.nonpolar>
-20.8086

> <Gold.PLP.part.repulsive>
0.0391

> <Gold.PLP.ligand.clash>
0.0000

> <Gold.PLP.ligand.torsion>
0.0002

> <Gold.PLP.Chemscore.Hbond>
2.0000

> <Gold.PLP.Chemscore.CHOScore>
0.0000

> <Gold.PLP.Chemscore.Metal>
0.0000

> <Gold.Chemscore.Hbonds>
donor molecule, donor type, donor heavy atom, donor atom, acceptor molecule, acceptor atom, score
      L1  H     8    20       P1  8028  2.00

> <Gold.PLP.Chemscore.Internal.Correction>
0.0003

> <Gold.Rescore>
     Score         DG    S(hbond)    S(metal)    S(lipo)     H(rot)  DE(clash)    DE(int)     intcor
     15.03     -15.12       0.98        0.00      76.19       1.00       0.09       0.00       ----

> <Gold.Chemscore.Fitness>
15.0278

> <Gold.Chemscore.DG>
-15.1160

> <Gold.Chemscore.ZeroCoef>
-5.4800

> <Gold.Chemscore.Hbond>
0.9826

> <Gold.Chemscore.Metal>
0.0000

> <Gold.Chemscore.Lipo>
76.1881

> <Gold.Chemscore.Internal_Hbond>
0.0000

> <Gold.Chemscore.DEClash>
0.0880

> <Gold.Chemscore.DEInternal>
0.0002

> <Gold.Chemscore.Rot>
1.0000

> <Gold.Chemscore.Internal.Correction>
   9.000000E+99

> <Gold.Chemscore.Hbonds>
donor molecule, donor type, donor heavy atom, donor atom, acceptor molecule, acceptor atom, score
      L1  H     8    20       P1  8028  0.99

> <Gold.Chemscore.Hbond.Weighted>
-3.2820

> <Gold.Chemscore.Metal.Weighted>
-0.0000

> <Gold.Chemscore.Lipo.Weighted>
-8.9140

> <Gold.Chemscore.Internal_Hbond.Weighted>
0.0000

> <Gold.Chemscore.DEClash.Weighted>
0.0880

> <Gold.Chemscore.DEInternal.Weighted>
0.0002

> <Gold.Chemscore.Rot.Weighted>
2.5600

> <Gold.Chemscore.Internal.Correction.Weighted>
   9.000000E+99

> <Gold.Protein.RotatedTorsions>
[ 6907 6896 6895 6894 ] final  176.14 input  -60.11 | X-H torsion
[ 7974 7965 7964 7962 ] final   52.97 input  175.53 | X-H torsion
[ 8008 7997 7996 7995 ] final -153.45 input   59.86 | X-H torsion
[ 10167 10162 10161 10158 ] final  -15.19 input  -65.29 | X-H torsion
[ 10718 10713 10712 10709 ] final  -67.97 input   66.30 | X-H torsion
[ 10763 10752 10751 10750 ] final  138.85 input  -60.55 | X-H torsion
[ 11005 11000 10999 10996 ] final  137.38 input  -57.11 | X-H torsion

> <Gold.Protein.ActiveResidues>
 VAL166  LYS551  ARG553  GLY616  TRP617  ASP618  TYR619  PRO620  LYS621  CYS622 
 ASP623  PHE694  ASN695  SER759  ASP760  ASP761  ALA762  ILE779  LEU786  VAL792 
 PHE793  MET794  SER795  GLU796  ALA797  LYS798  CYS799  TRP800  GLU811  SER814 

> <Gold.Protein.RotatedAtoms>
  151.7249  133.3315  159.3324 H   0  0  0  0  0  0  0  0  0  0  0  0  # atno 6907 bound_to 6896
  150.7637  134.6415  159.6249 H   0  0  0  0  0  0  0  0  0  0  0  0  # atno 6908 bound_to 6896
  152.3629  134.6849  160.0253 H   0  0  0  0  0  0  0  0  0  0  0  0  # atno 6909 bound_to 6896
  145.9759  139.4194  143.0161 H   0  0  0  0  0  0  0  0  0  0  0  0  # atno 7974 bound_to 7965
  155.6711  140.0733  157.2520 H   0  0  0  0  0  0  0  0  0  0  0  0  # atno 8008 bound_to 7997
  154.4123  140.1699  156.1931 H   0  0  0  0  0  0  0  0  0  0  0  0  # atno 8009 bound_to 7997
  155.9616  140.3369  155.6499 H   0  0  0  0  0  0  0  0  0  0  0  0  # atno 8010 bound_to 7997
  140.7214  143.5244  150.9595 H   0  0  0  0  0  0  0  0  0  0  0  0  # atno 10167 bound_to 10162
  156.0530  130.4287  150.1932 H   0  0  0  0  0  0  0  0  0  0  0  0  # atno 10718 bound_to 10713
  153.8965  135.3027  155.3448 H   0  0  0  0  0  0  0  0  0  0  0  0  # atno 10763 bound_to 10752
  154.7691  135.4895  153.9616 H   0  0  0  0  0  0  0  0  0  0  0  0  # atno 10764 bound_to 10752
  153.1268  135.6795  153.9342 H   0  0  0  0  0  0  0  0  0  0  0  0  # atno 10765 bound_to 10752
  140.0110  134.9439  157.0277 H   0  0  0  0  0  0  0  0  0  0  0  0  # atno 11005 bound_to 11000
  145.7839  140.9844  143.1084 LP  0  0  0  0  0  0  0  0  0  0  0  0  # atno 17320 bound_to 7965
  144.6849  139.9598  143.7480 LP  0  0  0  0  0  0  0  0  0  0  0  0  # atno 17321 bound_to 7965
  139.8962  143.6892  152.3138 LP  0  0  0  0  0  0  0  0  0  0  0  0  # atno 17342 bound_to 10162
  139.7225  144.7599  151.0932 LP  0  0  0  0  0  0  0  0  0  0  0  0  # atno 17343 bound_to 10162
  157.0012  130.9923  151.3390 LP  0  0  0  0  0  0  0  0  0  0  0  0  # atno 17370 bound_to 10713
  157.5473  130.8159  149.8102 LP  0  0  0  0  0  0  0  0  0  0  0  0  # atno 17371 bound_to 10713
  140.4554  134.1539  155.7185 LP  0  0  0  0  0  0  0  0  0  0  0  0  # atno 17394 bound_to 11000
  141.1711  133.8607  157.1568 LP  0  0  0  0  0  0  0  0  0  0  0  0  # atno 17395 bound_to 11000

$$$$
