#       Name:                AV-unprocessed.smi:2076
#       Creating user name   scv26
#       Creation time:       Fri Mar 27 11:15:42 2020


#       File generated by GOLD software.
#

@<TRIPOS>MOLECULE
AV-unprocessed.smi:2076
    50    51     1
SMALL
NO_CHARGES


@<TRIPOS>ATOM
      1 ****        -4.7102   2.2656   0.2620 C.3            1 S1                 0.0000
      2 ****        -4.1725   1.3076  -0.7595 C.2            1 S1                 0.0000
      3 ****        -4.1954   1.4256  -2.1773 C.2            1 S1                 0.0000
      4 ****        -3.5784   0.2900  -2.6211 C.2            1 S1                 0.0000
      5 ****        -3.2912  -0.1676  -4.0134 C.3            1 S1                 0.0000
      6 ****        -3.2235  -0.4385  -1.4992 N.pl3          1 S1                 0.0000
      7 ****        -2.5361  -1.7177  -1.4139 C.3            1 S1                 0.0000
      8 ****        -1.0199  -1.5384  -1.5013 C.2            1 S1                 0.0000
      9 ****        -0.4258  -1.8090  -2.5446 O.2            1 S1                 0.0000
     10 ****        -0.4084  -1.0818  -0.3990 N.am           1 S1                 0.0000
     11 ****         1.0249  -0.8403  -0.2820 C.3            1 S1                 0.0000
     12 ****         1.4628  -0.5899   1.1875 C.3            1 S1                 0.0000
     13 ****         1.0448  -1.8104   2.0471 C.3            1 S1                 0.0000
     14 ****         2.9013  -0.2622   1.3258 N.3            1 S1                 0.0000
     15 ****         3.2891  -0.0159   2.7197 C.3            1 S1                 0.0000
     16 ****         4.7752   0.3519   2.8723 C.3            1 S1                 0.0000
     17 ****         5.0720   1.4891   2.0741 O.3            1 S1                 0.0000
     18 ****         4.7855   1.2649   0.7009 C.3            1 S1                 0.0000
     19 ****         3.2986   0.9072   0.5330 C.3            1 S1                 0.0000
     20 ****        -3.5898   0.1892  -0.3597 N.2            1 S1                 0.0000
     21 ****        -5.1158   3.1598  -0.2117 H              1 S1                 0.0000
     22 ****        -3.9291   2.5825   0.9536 H              1 S1                 0.0000
     23 ****        -5.5092   1.8084   0.8459 H              1 S1                 0.0000
     24 ****        -4.6024   2.2250  -2.7786 H              1 S1                 0.0000
     25 ****        -3.7374   0.5070  -4.7441 H              1 S1                 0.0000
     26 ****        -3.6963  -1.1639  -4.1890 H              1 S1                 0.0000
     27 ****        -2.2173  -0.1992  -4.1974 H              1 S1                 0.0000
     28 ****        -2.7989  -2.2109  -0.4764 H              1 S1                 0.0000
     29 ****        -2.8844  -2.3658  -2.2187 H              1 S1                 0.0000
     30 ****        -0.9763  -0.8802   0.4114 H              1 S1                 0.0000
     31 ****         1.5803  -1.6835  -0.6970 H              1 S1                 0.0000
     32 ****         1.2286   0.0217  -0.9152 H              1 S1                 0.0000
     33 ****         0.8883   0.2651   1.5476 H              1 S1                 0.0000
     34 ****         0.0017  -2.0888   1.9007 H              1 S1                 0.0000
     35 ****         1.1376  -1.6152   3.1145 H              1 S1                 0.0000
     36 ****         1.6516  -2.6847   1.8094 H              1 S1                 0.0000
     37 ****         2.6745   0.7820   3.1392 H              1 S1                 0.0000
     38 ****         3.1171  -0.9013   3.3289 H              1 S1                 0.0000
     39 ****         5.0029   0.5803   3.9135 H              1 S1                 0.0000
     40 ****         5.4126  -0.4843   2.5810 H              1 S1                 0.0000
     41 ****         5.0239   2.1662   0.1360 H              1 S1                 0.0000
     42 ****         5.4212   0.4672   0.3131 H              1 S1                 0.0000
     43 ****         3.1375   0.7275  -0.5279 H              1 S1                 0.0000
     44 ****         2.6854   1.7667   0.8079 H              1 S1                 0.0000
     45 ****        -0.9345  -2.1466  -3.3365 LP             1 S1                 0.0000
     46 ****         0.5657  -1.6913  -2.6003 LP             1 S1                 0.0000
     47 ****         3.3761  -1.0721   0.9814 LP             1 S1                 0.0000
     48 ****         6.0435   1.7062   2.1700 LP             1 S1                 0.0000
     49 ****         4.5245   2.2614   2.3963 LP             1 S1                 0.0000
     50 ****        -3.4508  -0.1234   0.5800 LP             1 S1                 0.0000
@<TRIPOS>BOND
    1    1    2 1     
    2    1   21 1     
    3    1   22 1     
    4    1   23 1     
    5    2   20 2     
    6    2    3 1     
    7    3    4 2     
    8    3   24 1     
    9    4    5 1     
   10    4    6 1     
   11    5   25 1     
   12    5   26 1     
   13    5   27 1     
   14    6    7 1     
   15    6   20 1     
   16    7    8 1     
   17    7   28 1     
   18    7   29 1     
   19    8    9 2     
   20    8   10 am    
   21   10   11 1     
   22   10   30 1     
   23   11   12 1     
   24   11   31 1     
   25   11   32 1     
   26   12   13 1     
   27   12   14 1     
   28   12   33 1     
   29   13   34 1     
   30   13   35 1     
   31   13   36 1     
   32   14   19 1     
   33   14   15 1     
   34   15   16 1     
   35   15   37 1     
   36   15   38 1     
   37   16   17 1     
   38   16   39 1     
   39   16   40 1     
   40   17   18 1     
   41   18   19 1     
   42   18   41 1     
   43   18   42 1     
   44   19   43 1     
   45   19   44 1     
   46    9   45 1     
   47    9   46 1     
   48   14   47 1     
   49   17   48 1     
   50   17   49 1     
   51   20   50 1     
@<TRIPOS>SUBSTRUCTURE
      1 S1             1
@<TRIPOS>SET
LONE_PAIRS      STATIC     ATOMS    <user>   **** ""
6 45 46 47 48 49 50
DONOR_HYDROGENS      STATIC     ATOMS    <user>   **** ""
1 30
ATOM$BLUE        STATIC     ATOMS    COLORGROUP SYSTEM
6 45 46 47 48 49 50
ATOM$RED        STATIC     ATOMS    COLORGROUP SYSTEM
1 30
