AV-unprocessed.smi:261|AV-procd|sdf|1998|dock10
  -GOLD-   2262021193D 1   1.00000     0.00000
 Structure written by MMmdl.
 51 54  0  0  0  0  0  0  0  0  1 V2000
  144.6549  134.3945  162.8964 C   0  0  0  0  0  0  0  0  0  0  0  0
  145.2030  133.8093  161.7261 O   0  0  0  0  0  0  0  0  0  0  0  0
  146.6174  133.6626  161.7620 C   0  0  2  0  0  0  0  0  0  0  0  0
  147.3332  135.0107  161.9240 C   0  0  0  0  0  0  0  0  0  0  0  0
  147.4264  135.5858  160.5017 C   0  0  2  0  0  0  0  0  0  0  0  0
  146.2149  136.4834  160.1687 C   0  0  0  0  0  0  0  0  0  0  0  0
  145.4377  136.1616  159.1291 N   0  0  0  0  0  0  0  0  0  0  0  0
  145.9913  137.4800  160.8523 O   0  0  0  0  0  0  0  0  0  0  0  0
  147.5344  134.3833  159.6746 N   0  0  0  0  0  0  0  0  0  0  0  0
  148.0117  134.3416  158.3991 C   0  0  0  0  0  0  0  0  0  0  0  0
  149.3151  134.6734  158.2001 N   0  0  0  0  0  0  0  0  0  0  0  0
  149.8491  134.6484  156.9769 C   0  0  0  0  0  0  0  0  0  0  0  0
  149.2692  134.3233  155.8221 N   0  0  0  0  0  0  0  0  0  0  0  0
  147.9611  133.9860  156.0050 C   0  0  0  0  0  0  0  0  0  0  0  0
  147.2556  133.9724  157.2442 C   0  0  0  0  0  0  0  0  0  0  0  0
  145.9395  133.5848  157.0162 N   0  0  0  0  0  0  0  0  0  0  0  0
  145.8731  133.3807  155.7304 C   0  0  0  0  0  0  0  0  0  0  0  0
  147.0475  133.5852  155.0446 N   0  0  0  0  0  0  0  0  0  0  0  0
  147.2692  133.4284  153.6135 C   0  0  0  0  0  0  0  0  0  0  0  0
  146.2215  134.1500  152.7311 C   0  0  1  0  0  0  0  0  0  0  0  0
  146.5296  135.5304  152.7144 O   0  0  0  0  0  0  0  0  0  0  0  0
  146.1714  133.6609  151.2689 C   0  0  1  0  0  0  0  0  0  0  0  0
  146.3330  132.1481  151.0988 C   0  0  0  0  0  0  0  0  0  0  0  0
  145.6599  131.8641  149.7667 C   0  0  0  0  0  0  0  0  0  0  0  0
  144.7640  133.0838  149.5441 C   0  0  0  0  0  0  0  0  0  0  0  0
  144.8629  133.8372  150.7446 O   0  0  0  0  0  0  0  0  0  0  0  0
  147.0827  133.1880  160.3809 C   0  0  0  0  0  0  0  0  0  0  0  0
  146.9035  132.9459  162.5338 H   0  0  0  0  0  0  0  0  0  0  0  0
  148.3338  136.1854  160.4355 H   0  0  0  0  0  0  0  0  0  0  0  0
  143.5721  134.4633  162.7936 H   0  0  0  0  0  0  0  0  0  0  0  0
  145.0366  135.4009  163.0666 H   0  0  0  0  0  0  0  0  0  0  0  0
  144.8684  133.7868  163.7765 H   0  0  0  0  0  0  0  0  0  0  0  0
  146.8521  135.6805  162.6371 H   0  0  0  0  0  0  0  0  0  0  0  0
  148.3424  134.8315  162.2973 H   0  0  0  0  0  0  0  0  0  0  0  0
  144.6469  136.7437  158.8945 H   0  0  0  0  0  0  0  0  0  0  0  0
  145.6493  135.3426  158.5781 H   0  0  0  0  0  0  0  0  0  0  0  0
  150.8909  134.9261  156.9159 H   0  0  0  0  0  0  0  0  0  0  0  0
  144.9565  133.0732  155.2511 H   0  0  0  0  0  0  0  0  0  0  0  0
  148.2739  133.7814  153.3793 H   0  0  0  0  0  0  0  0  0  0  0  0
  147.2686  132.3617  153.3859 H   0  0  0  0  0  0  0  0  0  0  0  0
  145.2381  134.0252  153.1857 H   0  0  0  0  0  0  0  0  0  0  0  0
  147.4679  135.6287  152.6600 H   0  0  0  0  0  0  0  0  0  0  0  0
  146.8934  134.1917  150.6449 H   0  0  0  0  0  0  0  0  0  0  0  0
  147.3700  131.8170  151.1203 H   0  0  0  0  0  0  0  0  0  0  0  0
  145.7998  131.6246  151.8938 H   0  0  0  0  0  0  0  0  0  0  0  0
  146.3937  131.7801  148.9641 H   0  0  0  0  0  0  0  0  0  0  0  0
  145.0890  130.9358  149.8010 H   0  0  0  0  0  0  0  0  0  0  0  0
  145.1295  133.6833  148.7092 H   0  0  0  0  0  0  0  0  0  0  0  0
  143.7280  132.8113  149.3414 H   0  0  0  0  0  0  0  0  0  0  0  0
  147.9250  132.5023  160.4849 H   0  0  0  0  0  0  0  0  0  0  0  0
  146.2883  132.6689  159.8421 H   0  0  0  0  0  0  0  0  0  0  0  0
  1  2  1  0  0  0  0
  1 30  1  0  0  0  0
  1 31  1  0  0  0  0
  1 32  1  0  0  0  0
  2  3  1  0  0  0  0
  3 28  1  0  0  0  0
  3 27  1  0  0  0  0
  3  4  1  0  0  0  0
  4  5  1  0  0  0  0
  4 33  1  0  0  0  0
  4 34  1  0  0  0  0
  5 29  1  0  0  0  0
  5  6  1  0  0  0  0
  5  9  1  0  0  0  0
  6  7  1  0  0  0  0
  6  8  2  0  0  0  0
  7 35  1  0  0  0  0
  7 36  1  0  0  0  0
  9 10  1  0  0  0  0
  9 27  1  0  0  0  0
 10 15  1  0  0  0  0
 10 11  2  0  0  0  0
 11 12  1  0  0  0  0
 12 13  2  0  0  0  0
 12 37  1  0  0  0  0
 13 14  1  0  0  0  0
 14 18  1  0  0  0  0
 14 15  2  0  0  0  0
 15 16  1  0  0  0  0
 16 17  2  0  0  0  0
 17 18  1  0  0  0  0
 17 38  1  0  0  0  0
 18 19  1  0  0  0  0
 19 20  1  0  0  0  0
 19 39  1  0  0  0  0
 19 40  1  0  0  0  0
 20 21  1  0  0  0  0
 20 22  1  0  0  0  0
 20 41  1  0  0  0  0
 21 42  1  0  0  0  0
 22 26  1  0  0  0  0
 22 23  1  0  0  0  0
 22 43  1  0  0  0  0
 23 24  1  0  0  0  0
 23 44  1  0  0  0  0
 23 45  1  0  0  0  0
 24 25  1  0  0  0  0
 24 46  1  0  0  0  0
 24 47  1  0  0  0  0
 25 26  1  0  0  0  0
 25 48  1  0  0  0  0
 25 49  1  0  0  0  0
 27 50  1  0  0  0  0
 27 51  1  0  0  0  0
M  END
> <s_m_source_file>
AV-unprocessed.smi

> <i_m_source_file_index>
261

> <i_lp_mmshare_version>
43012

> <i_f3d_flags>
0

> <s_epik_input>
W0NIM11PW0NASF0xW0NIMl1bQ0BASF0oQyg9TylbTkgyXSlOKFtDSDJdMSljKG5bY0hdbjIpYyhjMjMpbltjSF1uM1tDSDJdW0NASF0oW09IXSlbQ0BASF00W0NIMl1bQ0gyXVtDSDJdTzQ=

> <s_epik_cmdline>
J2VwaWtfcHl0aG9uJywgJy1waCcsICc3LjAnLCAnLXRuJywgJzgnLCAnLW1hJywgJzIwMCcsICctbWV0YWxfYmluZGluZycsICctaW1hZScsICc8aW5maWxlLm1hZT4nLCAnLW9tYWUnLCAnPG91dGZpbGUubWFlPic=

> <r_lp_tautomer_probability>
1

> <r_epik_Ionization_Penalty>
0.000713824

> <r_epik_Ionization_Penalty_Charging>
0

> <r_epik_Ionization_Penalty_Neutral>
0.000713824

> <r_epik_State_Penalty>
0.000402132

> <r_epik_Charging_Adjusted_Penalty>
0.000402132

> <i_epik_Tot_Q>
0

> <i_epik_Tot_abs_Q>
0

> <r_epik_Metal_State_Penalty>
-0

> <b_epik_Metal_Only>
0

> <s_lp_Force_Field>
OPLS_2005

> <r_lp_Energy>
45.1221

> <b_lp_Chiralities_Consistent>
1

> <s_lp_Variant>
AV-unprocessed.smi:261-16

> <Gold.Version>
5.8.1

> <Gold.Id.Protein>
6NUR|6NUR_protein|mol2

> <Gold.PLP.Fitness>
40.6363

> <Gold.PLP.PLP>
-32.5753

> <Gold.PLP.part.hbond>
-3.0000

> <Gold.PLP.part.metal>
0.0000

> <Gold.PLP.part.buried>
-6.1143

> <Gold.PLP.part.nonpolar>
-24.6575

> <Gold.PLP.part.repulsive>
0.2479

> <Gold.PLP.ligand.clash>
0.0000

> <Gold.PLP.ligand.torsion>
2.0297

> <Gold.PLP.Chemscore.Hbond>
3.0000

> <Gold.PLP.Chemscore.CHOScore>
1.0000

> <Gold.PLP.Chemscore.Metal>
0.0000

> <Gold.Chemscore.Hbonds>
donor molecule, donor type, donor heavy atom, donor atom, acceptor molecule, acceptor atom, score
      L1  H    21    42       P1  7948  1.00
      P1  H  6896  6909       L1    11  1.00
      P1  H  6934  6947       L1     8  1.00
      L1  C    17    38       P1 10957  0.67

> <Gold.PLP.Chemscore.Internal.Correction>
0.1205

> <Gold.Rescore>
     Score         DG    S(hbond)    S(metal)    S(lipo)     H(rot)  DE(clash)    DE(int)     intcor
     13.81     -16.25       2.89        0.00      79.10       3.18       0.01       2.42       ----

> <Gold.Chemscore.Fitness>
13.8111

> <Gold.Chemscore.DG>
-16.2475

> <Gold.Chemscore.ZeroCoef>
-5.4800

> <Gold.Chemscore.Hbond>
2.8927

> <Gold.Chemscore.Metal>
0.0000

> <Gold.Chemscore.Lipo>
79.0996

> <Gold.Chemscore.Internal_Hbond>
0.0000

> <Gold.Chemscore.DEClash>
0.0149

> <Gold.Chemscore.DEInternal>
2.4216

> <Gold.Chemscore.Rot>
3.1831

> <Gold.Chemscore.Internal.Correction>
   9.000000E+99

> <Gold.Chemscore.Hbonds>
donor molecule, donor type, donor heavy atom, donor atom, acceptor molecule, acceptor atom, score
      L1  H    21    42       P1  7948  0.96
      P1  H  6896  6909       L1    11  0.43
      P1  H  6934  6947       L1     8  0.99

> <Gold.Chemscore.Hbond.Weighted>
-9.6615

> <Gold.Chemscore.Metal.Weighted>
-0.0000

> <Gold.Chemscore.Lipo.Weighted>
-9.2547

> <Gold.Chemscore.Internal_Hbond.Weighted>
0.0000

> <Gold.Chemscore.DEClash.Weighted>
0.0149

> <Gold.Chemscore.DEInternal.Weighted>
2.4216

> <Gold.Chemscore.Rot.Weighted>
8.1486

> <Gold.Chemscore.Internal.Correction.Weighted>
   9.000000E+99

> <Gold.Protein.RotatedTorsions>
[ 6907 6896 6895 6894 ] final   13.38 input  -60.11 | X-H torsion
[ 7974 7965 7964 7962 ] final  130.95 input  175.53 | X-H torsion
[ 8008 7997 7996 7995 ] final   61.62 input   59.86 | X-H torsion
[ 10167 10162 10161 10158 ] final  -62.01 input  -65.29 | X-H torsion
[ 10718 10713 10712 10709 ] final  -34.08 input   66.30 | X-H torsion
[ 10763 10752 10751 10750 ] final   40.10 input  -60.55 | X-H torsion
[ 11005 11000 10999 10996 ] final   40.73 input  -57.11 | X-H torsion

> <Gold.Protein.ActiveResidues>
 VAL166  LYS551  ARG553  GLY616  TRP617  ASP618  TYR619  PRO620  LYS621  CYS622 
 ASP623  PHE694  ASN695  SER759  ASP760  ASP761  ALA762  ILE779  LEU786  VAL792 
 PHE793  MET794  SER795  GLU796  ALA797  LYS798  CYS799  TRP800  GLU811  SER814 

> <Gold.Protein.RotatedAtoms>
  151.7853  135.0750  160.0379 H   0  0  0  0  0  0  0  0  0  0  0  0  # atno 6907 bound_to 6896
  152.3194  133.5833  159.5743 H   0  0  0  0  0  0  0  0  0  0  0  0  # atno 6908 bound_to 6896
  150.7361  133.9949  159.3661 H   0  0  0  0  0  0  0  0  0  0  0  0  # atno 6909 bound_to 6896
  145.0125  139.4207  143.5238 H   0  0  0  0  0  0  0  0  0  0  0  0  # atno 7974 bound_to 7965
  155.6013  140.3494  155.4594 H   0  0  0  0  0  0  0  0  0  0  0  0  # atno 8008 bound_to 7997
  156.0226  140.1257  157.0366 H   0  0  0  0  0  0  0  0  0  0  0  0  # atno 8009 bound_to 7997
  154.4321  140.1059  156.5971 H   0  0  0  0  0  0  0  0  0  0  0  0  # atno 8010 bound_to 7997
  140.5968  143.2352  151.6018 H   0  0  0  0  0  0  0  0  0  0  0  0  # atno 10167 bound_to 10162
  156.3549  130.4314  149.7673 H   0  0  0  0  0  0  0  0  0  0  0  0  # atno 10718 bound_to 10713
  152.9946  135.6201  154.2572 H   0  0  0  0  0  0  0  0  0  0  0  0  # atno 10763 bound_to 10752
  154.2309  135.2792  155.2892 H   0  0  0  0  0  0  0  0  0  0  0  0  # atno 10764 bound_to 10752
  154.5450  135.5750  153.6930 H   0  0  0  0  0  0  0  0  0  0  0  0  # atno 10765 bound_to 10752
  140.1902  134.3995  155.8150 H   0  0  0  0  0  0  0  0  0  0  0  0  # atno 11005 bound_to 11000
  146.3472  139.9576  142.8721 LP  0  0  0  0  0  0  0  0  0  0  0  0  # atno 17320 bound_to 7965
  145.2004  140.9852  143.4159 LP  0  0  0  0  0  0  0  0  0  0  0  0  # atno 17321 bound_to 7965
  139.5263  144.3048  152.1043 LP  0  0  0  0  0  0  0  0  0  0  0  0  # atno 17342 bound_to 10162
  140.2222  144.4455  150.6337 LP  0  0  0  0  0  0  0  0  0  0  0  0  # atno 17343 bound_to 10162
  156.4859  130.8063  151.3075 LP  0  0  0  0  0  0  0  0  0  0  0  0  # atno 17370 bound_to 10713
  157.7466  130.9991  150.2876 LP  0  0  0  0  0  0  0  0  0  0  0  0  # atno 17371 bound_to 10713
  141.2226  133.7043  156.8083 LP  0  0  0  0  0  0  0  0  0  0  0  0  # atno 17394 bound_to 11000
  140.2168  134.8787  157.3334 LP  0  0  0  0  0  0  0  0  0  0  0  0  # atno 17395 bound_to 11000

$$$$
