AV-unprocessed.smi:2340|AV-procd|sdf|9348|dock6
  -GOLD-   2272012573D 1   1.00000     0.00000
 Structure written by MMmdl.
 40 41  0  0  0  0  0  0  0  0  1 V2000
  144.2012  132.0159  150.1006 C   0  0  0  0  0  0  0  0  0  0  0  0
  144.8591  132.9807  151.0359 C   0  0  0  0  0  0  0  0  0  0  0  0
  145.1585  134.2972  150.7889 C   0  0  0  0  0  0  0  0  0  0  0  0
  145.9243  135.0561  152.1571 S   0  0  0  0  0  0  0  0  0  0  0  0
  145.8078  133.5305  153.0321 C   0  0  0  0  0  0  0  0  0  0  0  0
  146.3037  133.3363  154.4316 C   0  0  2  0  0  0  0  0  0  0  0  0
  145.4704  134.1473  155.4390 C   0  0  0  0  0  0  0  0  0  0  0  0
  147.8213  133.6031  154.5281 C   0  0  0  0  0  0  0  0  0  0  0  0
  148.1737  134.9857  154.2202 N   0  0  0  0  0  0  0  0  0  0  0  0
  148.4667  135.9242  155.1307 C   0  0  0  0  0  0  0  0  0  0  0  0
  148.4699  135.7289  156.3461 O   0  0  0  0  0  0  0  0  0  0  0  0
  148.7615  137.0985  154.5559 N   0  0  0  0  0  0  0  0  0  0  0  0
  149.1215  138.3236  155.2706 C   0  0  2  0  0  0  0  0  0  0  0  0
  148.2232  139.4814  154.8367 C   0  0  0  0  0  0  0  0  0  0  0  0
  149.1971  140.6123  154.5234 C   0  0  0  0  0  0  0  0  0  0  0  0
  150.3574  139.9293  154.0840 O   0  0  0  0  0  0  0  0  0  0  0  0
  150.5505  138.8290  154.9606 C   0  0  2  0  0  0  0  0  0  0  0  0
  151.5431  137.8313  154.3418 C   0  0  0  0  0  0  0  0  0  0  0  0
  145.2345  132.5598  152.3148 N   0  0  0  0  0  0  0  0  0  0  0  0
  144.0283  132.4637  149.1216 H   0  0  0  0  0  0  0  0  0  0  0  0
  143.2365  131.6885  150.4884 H   0  0  0  0  0  0  0  0  0  0  0  0
  144.8175  131.1289  149.9520 H   0  0  0  0  0  0  0  0  0  0  0  0
  144.9761  134.8647  149.8883 H   0  0  0  0  0  0  0  0  0  0  0  0
  146.1448  132.2839  154.6732 H   0  0  0  0  0  0  0  0  0  0  0  0
  144.4113  133.9021  155.3548 H   0  0  0  0  0  0  0  0  0  0  0  0
  145.5776  135.2194  155.2720 H   0  0  0  0  0  0  0  0  0  0  0  0
  145.7697  133.9399  156.4664 H   0  0  0  0  0  0  0  0  0  0  0  0
  148.1859  133.3498  155.5252 H   0  0  0  0  0  0  0  0  0  0  0  0
  148.3596  132.9584  153.8329 H   0  0  0  0  0  0  0  0  0  0  0  0
  148.1999  135.2433  153.2445 H   0  0  0  0  0  0  0  0  0  0  0  0
  148.7379  137.1531  153.5482 H   0  0  0  0  0  0  0  0  0  0  0  0
  149.0215  138.1720  156.3470 H   0  0  0  0  0  0  0  0  0  0  0  0
  147.6660  139.2275  153.9334 H   0  0  0  0  0  0  0  0  0  0  0  0
  147.4991  139.7620  155.6022 H   0  0  0  0  0  0  0  0  0  0  0  0
  148.8194  141.2974  153.7640 H   0  0  0  0  0  0  0  0  0  0  0  0
  149.4293  141.1872  155.4212 H   0  0  0  0  0  0  0  0  0  0  0  0
  150.9837  139.2218  155.8825 H   0  0  0  0  0  0  0  0  0  0  0  0
  151.6987  136.9734  154.9965 H   0  0  0  0  0  0  0  0  0  0  0  0
  152.5128  138.3028  154.1819 H   0  0  0  0  0  0  0  0  0  0  0  0
  151.1953  137.4633  153.3763 H   0  0  0  0  0  0  0  0  0  0  0  0
  1  2  1  0  0  0  0
  1 20  1  0  0  0  0
  1 21  1  0  0  0  0
  1 22  1  0  0  0  0
  2 19  1  0  0  0  0
  2  3  2  0  0  0  0
  3  4  1  0  0  0  0
  3 23  1  0  0  0  0
  4  5  1  0  0  0  0
  5  6  1  0  0  0  0
  5 19  2  0  0  0  0
  6  7  1  0  0  0  0
  6  8  1  0  0  0  0
  6 24  1  0  0  0  0
  7 25  1  0  0  0  0
  7 26  1  0  0  0  0
  7 27  1  0  0  0  0
  8  9  1  0  0  0  0
  8 28  1  0  0  0  0
  8 29  1  0  0  0  0
  9 10  1  0  0  0  0
  9 30  1  0  0  0  0
 10 11  2  0  0  0  0
 10 12  1  0  0  0  0
 12 13  1  0  0  0  0
 12 31  1  0  0  0  0
 13 17  1  0  0  0  0
 13 14  1  0  0  0  0
 13 32  1  0  0  0  0
 14 15  1  0  0  0  0
 14 33  1  0  0  0  0
 14 34  1  0  0  0  0
 15 16  1  0  0  0  0
 15 35  1  0  0  0  0
 15 36  1  0  0  0  0
 16 17  1  0  0  0  0
 17 18  1  0  0  0  0
 17 37  1  0  0  0  0
 18 38  1  0  0  0  0
 18 39  1  0  0  0  0
 18 40  1  0  0  0  0
M  END
> <s_m_source_file>
AV-unprocessed.smi

> <i_m_source_file_index>
2340

> <i_lp_mmshare_version>
43012

> <i_f3d_flags>
0

> <s_epik_input>
W0NIM11jMVtjSF1zYyhuMSlbQ0BIXShbQ0gzXSlbQ0gyXVtOSF1DKD1PKVtOSF1bQ0BASF0yW0NIMl1bQ0gyXU9bQ0BIXTJbQ0gzXQ==

> <s_epik_cmdline>
J2VwaWtfcHl0aG9uJywgJy1waCcsICc3LjAnLCAnLXRuJywgJzgnLCAnLW1hJywgJzIwMCcsICctbWV0YWxfYmluZGluZycsICctaW1hZScsICc8aW5maWxlLm1hZT4nLCAnLW9tYWUnLCAnPG91dGZpbGUubWFlPic=

> <r_epik_Ionization_Penalty>
0.00156622

> <r_epik_Ionization_Penalty_Charging>
0

> <r_epik_Ionization_Penalty_Neutral>
0.00156622

> <r_epik_State_Penalty>
0.00101902

> <r_epik_Charging_Adjusted_Penalty>
0.00101902

> <i_epik_Tot_Q>
0

> <i_epik_Tot_abs_Q>
0

> <r_epik_Metal_State_Penalty>
-0

> <b_epik_Metal_Only>
0

> <s_lp_Force_Field>
OPLS_2005

> <r_lp_Energy>
6.07196

> <b_lp_Chiralities_Consistent>
1

> <s_lp_Variant>
AV-unprocessed.smi:2340-5

> <Gold.Version>
5.8.1

> <Gold.Id.Protein>
6NUR|6NUR_protein|mol2

> <Gold.PLP.Fitness>
37.9883

> <Gold.PLP.PLP>
-26.4327

> <Gold.PLP.part.hbond>
-3.0000

> <Gold.PLP.part.metal>
0.0000

> <Gold.PLP.part.buried>
-5.1011

> <Gold.PLP.part.nonpolar>
-19.9290

> <Gold.PLP.part.repulsive>
0.8569

> <Gold.PLP.ligand.clash>
0.0000

> <Gold.PLP.ligand.torsion>
0.2060

> <Gold.PLP.Chemscore.Hbond>
2.9600

> <Gold.PLP.Chemscore.CHOScore>
1.0000

> <Gold.PLP.Chemscore.Metal>
0.0000

> <Gold.Chemscore.Hbonds>
donor molecule, donor type, donor heavy atom, donor atom, acceptor molecule, acceptor atom, score
      L1  H     9    30       P1  7948  1.00
      L1  H    12    31       P1  7948  0.94
      P1  H  7989  7998       L1    16  1.00
      L1  C     3    23       P1  7921  0.99

> <Gold.PLP.Chemscore.Internal.Correction>
0.0876

> <Gold.Rescore>
     Score         DG    S(hbond)    S(metal)    S(lipo)     H(rot)  DE(clash)    DE(int)     intcor
     18.51     -18.93       2.78        0.00      68.98       1.53       0.20       0.22       ----

> <Gold.Chemscore.Fitness>
18.5068

> <Gold.Chemscore.DG>
-18.9281

> <Gold.Chemscore.ZeroCoef>
-5.4800

> <Gold.Chemscore.Hbond>
2.7846

> <Gold.Chemscore.Metal>
0.0000

> <Gold.Chemscore.Lipo>
68.9821

> <Gold.Chemscore.Internal_Hbond>
0.0000

> <Gold.Chemscore.DEClash>
0.2007

> <Gold.Chemscore.DEInternal>
0.2207

> <Gold.Chemscore.Rot>
1.5325

> <Gold.Chemscore.Internal.Correction>
   9.000000E+99

> <Gold.Chemscore.Hbonds>
donor molecule, donor type, donor heavy atom, donor atom, acceptor molecule, acceptor atom, score
      L1  H     9    30       P1  7948  0.93
      L1  H    12    31       P1  7948  0.91
      P1  H  7989  7998       L1    16  0.92

> <Gold.Chemscore.Hbond.Weighted>
-9.3005

> <Gold.Chemscore.Metal.Weighted>
-0.0000

> <Gold.Chemscore.Lipo.Weighted>
-8.0709

> <Gold.Chemscore.Internal_Hbond.Weighted>
0.0000

> <Gold.Chemscore.DEClash.Weighted>
0.2007

> <Gold.Chemscore.DEInternal.Weighted>
0.2207

> <Gold.Chemscore.Rot.Weighted>
3.9233

> <Gold.Chemscore.Internal.Correction.Weighted>
   9.000000E+99

> <Gold.Protein.RotatedTorsions>
[ 6907 6896 6895 6894 ] final   44.17 input  -60.11 | X-H torsion
[ 7974 7965 7964 7962 ] final  -24.45 input  175.53 | X-H torsion
[ 8008 7997 7996 7995 ] final    7.09 input   59.86 | X-H torsion
[ 10167 10162 10161 10158 ] final   84.91 input  -65.29 | X-H torsion
[ 10718 10713 10712 10709 ] final  -72.23 input   66.30 | X-H torsion
[ 10763 10752 10751 10750 ] final   10.54 input  -60.55 | X-H torsion
[ 11005 11000 10999 10996 ] final -174.46 input  -57.11 | X-H torsion

> <Gold.Protein.ActiveResidues>
 VAL166  LYS551  ARG553  GLY616  TRP617  ASP618  TYR619  PRO620  LYS621  CYS622 
 ASP623  PHE694  ASN695  SER759  ASP760  ASP761  ALA762  ILE779  LEU786  VAL792 
 PHE793  MET794  SER795  GLU796  ALA797  LYS798  CYS799  TRP800  GLU811  SER814 

> <Gold.Protein.RotatedAtoms>
  152.2292  134.8338  160.0475 H   0  0  0  0  0  0  0  0  0  0  0  0  # atno 6907 bound_to 6896
  151.9093  133.3552  159.3866 H   0  0  0  0  0  0  0  0  0  0  0  0  # atno 6908 bound_to 6896
  150.7021  134.4674  159.5453 H   0  0  0  0  0  0  0  0  0  0  0  0  # atno 6909 bound_to 6896
  146.1554  140.4753  142.8594 H   0  0  0  0  0  0  0  0  0  0  0  0  # atno 7974 bound_to 7965
  154.7493  140.2764  155.6306 H   0  0  0  0  0  0  0  0  0  0  0  0  # atno 8008 bound_to 7997
  156.2892  140.2681  156.2169 H   0  0  0  0  0  0  0  0  0  0  0  0  # atno 8009 bound_to 7997
  155.0157  140.0372  157.2407 H   0  0  0  0  0  0  0  0  0  0  0  0  # atno 8010 bound_to 7997
  139.9032  144.6317  150.8615 H   0  0  0  0  0  0  0  0  0  0  0  0  # atno 10167 bound_to 10162
  156.0329  130.4368  150.2562 H   0  0  0  0  0  0  0  0  0  0  0  0  # atno 10718 bound_to 10713
  153.2022  135.6857  153.8218 H   0  0  0  0  0  0  0  0  0  0  0  0  # atno 10763 bound_to 10752
  153.7480  135.3228  155.3317 H   0  0  0  0  0  0  0  0  0  0  0  0  # atno 10764 bound_to 10752
  154.8177  135.4674  154.0792 H   0  0  0  0  0  0  0  0  0  0  0  0  # atno 10765 bound_to 10752
  140.4742  134.6136  157.4894 H   0  0  0  0  0  0  0  0  0  0  0  0  # atno 11005 bound_to 11000
  144.7957  140.6117  143.6512 LP  0  0  0  0  0  0  0  0  0  0  0  0  # atno 17320 bound_to 7965
  145.4721  139.1502  143.3808 LP  0  0  0  0  0  0  0  0  0  0  0  0  # atno 17321 bound_to 7965
  140.7702  143.3421  151.2187 LP  0  0  0  0  0  0  0  0  0  0  0  0  # atno 17342 bound_to 10162
  139.7007  143.9538  152.2904 LP  0  0  0  0  0  0  0  0  0  0  0  0  # atno 17343 bound_to 10162
  157.0663  131.0104  151.3205 LP  0  0  0  0  0  0  0  0  0  0  0  0  # atno 17370 bound_to 10713
  157.5033  130.7893  149.7627 LP  0  0  0  0  0  0  0  0  0  0  0  0  # atno 17371 bound_to 10713
  139.9866  134.7052  155.9763 LP  0  0  0  0  0  0  0  0  0  0  0  0  # atno 17394 bound_to 11000
  141.1562  133.6542  156.4170 LP  0  0  0  0  0  0  0  0  0  0  0  0  # atno 17395 bound_to 11000

$$$$
