AV-unprocessed.smi:820|AV-procd|sdf|3837|dock6
  -GOLD-   22720 1283D 1   1.00000     0.00000
 Structure written by MMmdl.
 31 32  0  0  0  0  0  0  0  0  2 V2000
  146.5768  143.0080  154.0080 C   0  0  0  0  0  0  0  0  0  0  0  0
  147.3251  142.0216  154.9087 C   0  0  0  0  0  0  0  0  0  0  0  0
  148.6249  141.1416  153.9959 S   0  0  0  0  0  0  0  0  0  0  0  0
  149.8995  140.7348  155.1521 C   0  0  0  0  0  0  0  0  0  0  0  0
  149.6750  140.8717  156.5340 C   0  0  0  0  0  0  0  0  0  0  0  0
  150.7231  140.5347  157.4109 C   0  0  0  0  0  0  0  0  0  0  0  0
  151.9527  140.0720  156.8901 C   0  0  0  0  0  0  0  0  0  0  0  0
  152.9772  139.7487  157.6951 N   0  5  0  0  0  0  0  0  0  0  0  0
  152.8793  139.9128  159.0397 C   0  0  0  0  0  0  0  0  0  0  0  0
  152.8221  138.9802  159.8465 O   0  0  0  0  0  0  0  0  0  0  0  0
  152.8396  141.2972  159.5041 C   0  0  0  0  0  0  0  0  0  0  0  0
  153.1532  141.5929  160.7883 C   0  0  0  0  0  0  0  0  0  0  0  0
  153.1011  142.8597  161.3148 O   0  0  0  0  0  0  0  0  0  0  0  0
  152.4480  143.8173  160.4906 C   0  0  0  0  0  0  0  0  0  0  0  0
  152.8442  143.6145  159.0214 C   0  0  0  0  0  0  0  0  0  0  0  0
  152.5218  142.2927  158.6057 O   0  0  0  0  0  0  0  0  0  0  0  0
  152.0567  139.9817  155.4820 C   0  0  0  0  0  0  0  0  0  0  0  0
  151.0628  140.3005  154.6251 N   0  0  0  0  0  0  0  0  0  0  0  0
  145.7984  143.5288  154.5657 H   0  0  0  0  0  0  0  0  0  0  0  0
  146.1014  142.4941  153.1721 H   0  0  0  0  0  0  0  0  0  0  0  0
  147.2540  143.7587  153.6002 H   0  0  0  0  0  0  0  0  0  0  0  0
  147.7770  142.5525  155.7469 H   0  0  0  0  0  0  0  0  0  0  0  0
  146.6273  141.2941  155.3239 H   0  0  0  0  0  0  0  0  0  0  0  0
  148.7281  141.2245  156.9141 H   0  0  0  0  0  0  0  0  0  0  0  0
  150.5821  140.6296  158.4778 H   0  0  0  0  0  0  0  0  0  0  0  0
  153.4342  140.8670  161.5376 H   0  0  0  0  0  0  0  0  0  0  0  0
  151.3684  143.7174  160.6105 H   0  0  0  0  0  0  0  0  0  0  0  0
  152.7171  144.8194  160.8244 H   0  0  0  0  0  0  0  0  0  0  0  0
  152.3214  144.3266  158.3830 H   0  0  0  0  0  0  0  0  0  0  0  0
  153.9132  143.7843  158.8860 H   0  0  0  0  0  0  0  0  0  0  0  0
  152.9733  139.6386  155.0242 H   0  0  0  0  0  0  0  0  0  0  0  0
  1  2  1  0  0  0  0
  1 19  1  0  0  0  0
  1 20  1  0  0  0  0
  1 21  1  0  0  0  0
  2  3  1  0  0  0  0
  2 22  1  0  0  0  0
  2 23  1  0  0  0  0
  3  4  1  0  0  0  0
  4 18  1  0  0  0  0
  4  5  2  0  0  0  0
  5  6  1  0  0  0  0
  5 24  1  0  0  0  0
  6  7  2  0  0  0  0
  6 25  1  0  0  0  0
  7  8  1  0  0  0  0
  7 17  1  0  0  0  0
  8  9  1  0  0  0  0
  9 10  2  0  0  0  0
  9 11  1  0  0  0  0
 11 16  1  0  0  0  0
 11 12  2  0  0  0  0
 12 13  1  0  0  0  0
 12 26  1  0  0  0  0
 13 14  1  0  0  0  0
 14 15  1  0  0  0  0
 14 27  1  0  0  0  0
 14 28  1  0  0  0  0
 15 16  1  0  0  0  0
 15 29  1  0  0  0  0
 15 30  1  0  0  0  0
 17 18  2  0  0  0  0
 17 31  1  0  0  0  0
M  CHG  1   8  -1
M  END
> <s_m_source_file>
AV-unprocessed.smi

> <i_m_source_file_index>
820

> <i_lp_mmshare_version>
43012

> <i_f3d_flags>
0

> <s_epik_input>
W0NIM11bQ0gyXVNjMVtjSF1bY0hdYyhbY0hdbjEpW05IXUMoPU8pQzI9W0NIXU9bQ0gyXVtDSDJdTzI=

> <s_epik_cmdline>
J2VwaWtfcHl0aG9uJywgJy1waCcsICc3LjAnLCAnLXRuJywgJzgnLCAnLW1hJywgJzIwMCcsICctbWV0YWxfYmluZGluZycsICctaW1hZScsICc8aW5maWxlLm1hZT4nLCAnLW9tYWUnLCAnPG91dGZpbGUubWFlPic=

> <r_lp_tautomer_probability>
1

> <r_epik_Ionization_Penalty>
5.63505

> <r_epik_Ionization_Penalty_Charging>
5.63079

> <r_epik_Ionization_Penalty_Neutral>
0.00426194

> <r_epik_State_Penalty>
5.63074

> <r_epik_Charging_Adjusted_Penalty>
11.2615

> <i_epik_Tot_Q>
-1

> <i_epik_Tot_abs_Q>
1

> <r_epik_Metal_State_Penalty>
1.62037

> <b_epik_Metal_Only>
1

> <s_lp_Force_Field>
OPLS_2005

> <r_lp_Energy>
4.11082

> <b_lp_Chiralities_Consistent>
1

> <s_lp_Variant>
AV-unprocessed.smi:820-2

> <Gold.Version>
5.8.1

> <Gold.Id.Protein>
6NUR|6NUR_protein|mol2

> <Gold.PLP.Fitness>
44.8074

> <Gold.PLP.PLP>
-37.4636

> <Gold.PLP.part.hbond>
-1.9760

> <Gold.PLP.part.metal>
0.0000

> <Gold.PLP.part.buried>
-3.7905

> <Gold.PLP.part.nonpolar>
-31.8669

> <Gold.PLP.part.repulsive>
0.1181

> <Gold.PLP.ligand.clash>
0.0000

> <Gold.PLP.ligand.torsion>
1.1273

> <Gold.PLP.Chemscore.Hbond>
3.0000

> <Gold.PLP.Chemscore.CHOScore>
0.0000

> <Gold.PLP.Chemscore.Metal>
0.0000

> <Gold.Chemscore.Hbonds>
donor molecule, donor type, donor heavy atom, donor atom, acceptor molecule, acceptor atom, score
      P1  H  7989  7998       L1    18  0.63
      P1  H  7997  8009       L1     8  2.00

> <Gold.PLP.Chemscore.Internal.Correction>
0.5985

> <Gold.Rescore>
     Score         DG    S(hbond)    S(metal)    S(lipo)     H(rot)  DE(clash)    DE(int)     intcor
     16.20     -18.80       1.65        0.00      91.27       1.13       0.05       2.55       ----

> <Gold.Chemscore.Fitness>
16.2032

> <Gold.Chemscore.DG>
-18.7978

> <Gold.Chemscore.ZeroCoef>
-5.4800

> <Gold.Chemscore.Hbond>
1.6546

> <Gold.Chemscore.Metal>
0.0000

> <Gold.Chemscore.Lipo>
91.2689

> <Gold.Chemscore.Internal_Hbond>
0.0000

> <Gold.Chemscore.DEClash>
0.0491

> <Gold.Chemscore.DEInternal>
2.5455

> <Gold.Chemscore.Rot>
1.1277

> <Gold.Chemscore.Internal.Correction>
   9.000000E+99

> <Gold.Chemscore.Hbonds>
donor molecule, donor type, donor heavy atom, donor atom, acceptor molecule, acceptor atom, score
      P1  H  7989  7998       L1    18  0.40
      P1  H  7997  8009       L1     8  0.76

> <Gold.Chemscore.Hbond.Weighted>
-5.5263

> <Gold.Chemscore.Metal.Weighted>
-0.0000

> <Gold.Chemscore.Lipo.Weighted>
-10.6785

> <Gold.Chemscore.Internal_Hbond.Weighted>
0.0000

> <Gold.Chemscore.DEClash.Weighted>
0.0491

> <Gold.Chemscore.DEInternal.Weighted>
2.5455

> <Gold.Chemscore.Rot.Weighted>
2.8870

> <Gold.Chemscore.Internal.Correction.Weighted>
   9.000000E+99

> <Gold.Protein.RotatedTorsions>
[ 6907 6896 6895 6894 ] final -123.45 input  -60.11 | X-H torsion
[ 7974 7965 7964 7962 ] final -179.31 input  175.53 | X-H torsion
[ 8008 7997 7996 7995 ] final  162.01 input   59.86 | X-H torsion
[ 10167 10162 10161 10158 ] final   23.37 input  -65.29 | X-H torsion
[ 10718 10713 10712 10709 ] final   44.56 input   66.30 | X-H torsion
[ 10763 10752 10751 10750 ] final  -57.27 input  -60.55 | X-H torsion
[ 11005 11000 10999 10996 ] final  132.95 input  -57.11 | X-H torsion

> <Gold.Protein.ActiveResidues>
 VAL166  LYS551  ARG553  GLY616  TRP617  ASP618  TYR619  PRO620  LYS621  CYS622 
 ASP623  PHE694  ASN695  SER759  ASP760  ASP761  ALA762  ILE779  LEU786  VAL792 
 PHE793  MET794  SER795  GLU796  ALA797  LYS798  CYS799  TRP800  GLU811  SER814 

> <Gold.Protein.RotatedAtoms>
  150.8672  133.7558  159.2972 H   0  0  0  0  0  0  0  0  0  0  0  0  # atno 6907 bound_to 6896
  151.5182  135.1065  159.9881 H   0  0  0  0  0  0  0  0  0  0  0  0  # atno 6908 bound_to 6896
  152.4669  133.7898  159.6951 H   0  0  0  0  0  0  0  0  0  0  0  0  # atno 6909 bound_to 6896
  144.7136  140.0737  143.6428 H   0  0  0  0  0  0  0  0  0  0  0  0  # atno 7974 bound_to 7965
  156.2062  140.1762  156.7794 H   0  0  0  0  0  0  0  0  0  0  0  0  # atno 8008 bound_to 7997
  154.5658  140.0691  156.8920 H   0  0  0  0  0  0  0  0  0  0  0  0  # atno 8009 bound_to 7997
  155.2763  140.3346  155.4264 H   0  0  0  0  0  0  0  0  0  0  0  0  # atno 8010 bound_to 7997
  140.5274  143.9899  150.6448 H   0  0  0  0  0  0  0  0  0  0  0  0  # atno 10167 bound_to 10162
  157.4281  130.8008  149.7577 H   0  0  0  0  0  0  0  0  0  0  0  0  # atno 10718 bound_to 10713
  154.2197  135.6380  153.5141 H   0  0  0  0  0  0  0  0  0  0  0  0  # atno 10763 bound_to 10752
  152.9971  135.5494  154.6127 H   0  0  0  0  0  0  0  0  0  0  0  0  # atno 10764 bound_to 10752
  154.5584  135.2907  155.0916 H   0  0  0  0  0  0  0  0  0  0  0  0  # atno 10765 bound_to 10752
  139.9821  134.9544  156.9655 H   0  0  0  0  0  0  0  0  0  0  0  0  # atno 11005 bound_to 11000
  145.9761  139.2906  143.1069 LP  0  0  0  0  0  0  0  0  0  0  0  0  # atno 17320 bound_to 7965
  145.9062  140.9210  143.0477 LP  0  0  0  0  0  0  0  0  0  0  0  0  # atno 17321 bound_to 7965
  140.3265  143.3104  152.0731 LP  0  0  0  0  0  0  0  0  0  0  0  0  # atno 17342 bound_to 10162
  139.4943  144.6538  151.6616 LP  0  0  0  0  0  0  0  0  0  0  0  0  # atno 17343 bound_to 10162
  155.9903  130.3945  150.3032 LP  0  0  0  0  0  0  0  0  0  0  0  0  # atno 17370 bound_to 10713
  157.1186  131.0241  151.3018 LP  0  0  0  0  0  0  0  0  0  0  0  0  # atno 17371 bound_to 10713
  140.5075  134.1035  155.7263 LP  0  0  0  0  0  0  0  0  0  0  0  0  # atno 17394 bound_to 11000
  141.1492  133.9000  157.2141 LP  0  0  0  0  0  0  0  0  0  0  0  0  # atno 17395 bound_to 11000

$$$$
