AV-unprocessed.smi:1487|AV-procd|sdf|6019|dock2
  -GOLD-   22720 6123D 1   1.00000     0.00000
 Structure written by MMmdl.
 49 51  0  0  0  0  0  0  0  0  3 V2000
  152.5543  142.6431  160.9044 C   0  0  0  0  0  0  0  0  0  0  0  0
  152.1606  142.0009  159.5849 C   0  0  0  0  0  0  0  0  0  0  0  0
  151.3408  142.7328  158.6967 C   0  0  0  0  0  0  0  0  0  0  0  0
  150.9984  142.1190  157.4979 C   0  0  0  0  0  0  0  0  0  0  0  0
  150.2174  142.5693  156.4317 N   0  3  0  0  0  0  0  0  0  0  0  0
  150.1646  141.6082  155.4687 C   0  0  0  0  0  0  0  0  0  0  0  0
  150.8998  140.5489  155.9041 N   0  0  0  0  0  0  0  0  0  0  0  0
  151.1718  139.2626  155.2451 C   0  0  0  0  0  0  0  0  0  0  0  0
  149.8902  138.4672  154.9288 C   0  0  2  0  0  0  0  0  0  0  0  0
  150.2346  137.2244  154.3483 O   0  0  0  0  0  0  0  0  0  0  0  0
  148.9751  139.2286  153.9493 C   0  0  0  0  0  0  0  0  0  0  0  0
  147.9266  138.3583  153.3582 N   0  3  1  0  0  0  0  0  0  0  0  0
  147.1235  137.6303  154.3762 C   0  0  0  0  0  0  0  0  0  0  0  0
  146.1746  136.6214  153.7108 C   0  0  0  0  0  0  0  0  0  0  0  0
  145.2546  137.3173  152.6979 C   0  0  0  0  0  0  0  0  0  0  0  0
  146.0702  138.1413  151.6874 C   0  0  2  0  0  0  0  0  0  0  0  0
  146.7729  137.2880  150.8056 O   0  0  0  0  0  0  0  0  0  0  0  0
  147.0633  139.0869  152.3915 C   0  0  0  0  0  0  0  0  0  0  0  0
  151.4410  140.8233  157.1667 C   0  0  0  0  0  0  0  0  0  0  0  0
  152.2481  140.0880  158.0320 C   0  0  0  0  0  0  0  0  0  0  0  0
  152.6090  140.6955  159.2561 C   0  0  0  0  0  0  0  0  0  0  0  0
  153.4897  139.9169  160.2186 C   0  0  0  0  0  0  0  0  0  0  0  0
  152.0833  143.6184  161.0299 H   0  0  0  0  0  0  0  0  0  0  0  0
  153.6342  142.7849  160.9523 H   0  0  0  0  0  0  0  0  0  0  0  0
  152.2490  142.0171  161.7432 H   0  0  0  0  0  0  0  0  0  0  0  0
  150.9955  143.7272  158.9401 H   0  0  0  0  0  0  0  0  0  0  0  0
  149.6355  141.6760  154.5287 H   0  0  0  0  0  0  0  0  0  0  0  0
  151.7048  139.4858  154.3198 H   0  0  0  0  0  0  0  0  0  0  0  0
  151.8608  138.6807  155.8579 H   0  0  0  0  0  0  0  0  0  0  0  0
  149.3681  138.2694  155.8644 H   0  0  0  0  0  0  0  0  0  0  0  0
  149.8792  137.1927  153.4727 H   0  0  0  0  0  0  0  0  0  0  0  0
  148.4997  140.0760  154.4456 H   0  0  0  0  0  0  0  0  0  0  0  0
  149.5967  139.6529  153.1590 H   0  0  0  0  0  0  0  0  0  0  0  0
  147.7760  137.0974  155.0669 H   0  0  0  0  0  0  0  0  0  0  0  0
  146.5533  138.3450  154.9718 H   0  0  0  0  0  0  0  0  0  0  0  0
  146.7558  135.8451  153.2116 H   0  0  0  0  0  0  0  0  0  0  0  0
  145.5757  136.1169  154.4694 H   0  0  0  0  0  0  0  0  0  0  0  0
  144.6294  136.5860  152.1840 H   0  0  0  0  0  0  0  0  0  0  0  0
  144.5735  137.9807  153.2327 H   0  0  0  0  0  0  0  0  0  0  0  0
  145.3878  138.7333  151.0767 H   0  0  0  0  0  0  0  0  0  0  0  0
  147.1535  136.5823  151.3071 H   0  0  0  0  0  0  0  0  0  0  0  0
  146.5162  139.8669  152.9233 H   0  0  0  0  0  0  0  0  0  0  0  0
  147.6787  139.5900  151.6440 H   0  0  0  0  0  0  0  0  0  0  0  0
  152.5867  139.0920  157.7883 H   0  0  0  0  0  0  0  0  0  0  0  0
  153.7915  138.9575  159.7970 H   0  0  0  0  0  0  0  0  0  0  0  0
  152.9568  139.7196  161.1489 H   0  0  0  0  0  0  0  0  0  0  0  0
  154.3962  140.4770  160.4497 H   0  0  0  0  0  0  0  0  0  0  0  0
  148.4160  137.6616  152.8140 H   0  0  0  0  0  0  0  0  0  0  0  0
  149.7552  143.4674  156.3634 H   0  0  0  0  0  0  0  0  0  0  0  0
  1  2  1  0  0  0  0
  1 23  1  0  0  0  0
  1 24  1  0  0  0  0
  1 25  1  0  0  0  0
  2 21  1  0  0  0  0
  2  3  2  0  0  0  0
  3  4  1  0  0  0  0
  3 26  1  0  0  0  0
  4 19  2  0  0  0  0
  4  5  1  0  0  0  0
  5  6  2  0  0  0  0
  5 49  1  0  0  0  0
  6  7  1  0  0  0  0
  6 27  1  0  0  0  0
  7  8  1  0  0  0  0
  7 19  1  0  0  0  0
  8  9  1  0  0  0  0
  8 28  1  0  0  0  0
  8 29  1  0  0  0  0
  9 10  1  0  0  0  0
  9 11  1  0  0  0  0
  9 30  1  0  0  0  0
 10 31  1  0  0  0  0
 11 12  1  0  0  0  0
 11 32  1  0  0  0  0
 11 33  1  0  0  0  0
 12 18  1  0  0  0  0
 12 13  1  0  0  0  0
 12 48  1  0  0  0  0
 13 14  1  0  0  0  0
 13 34  1  0  0  0  0
 13 35  1  0  0  0  0
 14 15  1  0  0  0  0
 14 36  1  0  0  0  0
 14 37  1  0  0  0  0
 15 16  1  0  0  0  0
 15 38  1  0  0  0  0
 15 39  1  0  0  0  0
 16 17  1  0  0  0  0
 16 18  1  0  0  0  0
 16 40  1  0  0  0  0
 17 41  1  0  0  0  0
 18 42  1  0  0  0  0
 18 43  1  0  0  0  0
 19 20  1  0  0  0  0
 20 21  2  0  0  0  0
 20 44  1  0  0  0  0
 21 22  1  0  0  0  0
 22 45  1  0  0  0  0
 22 46  1  0  0  0  0
 22 47  1  0  0  0  0
M  CHG  1   5   1
M  CHG  1  12   1
M  END
> <s_m_source_file>
AV-unprocessed.smi

> <i_m_source_file_index>
1487

> <i_lp_mmshare_version>
43012

> <i_f3d_flags>
0

> <s_epik_input>
W0NIM11jKFtjSF0xKWMoW0NIM10pW2NIXWMoYzEyKW4oW2NIXW4yKVtDSDJdW0NASF0oW09IXSlbQ0gyXU4zW0NIMl1bQ0gyXVtDSDJdW0NAQEhdKFtPSF0pW0NIMl0z

> <s_epik_cmdline>
J2VwaWtfcHl0aG9uJywgJy1waCcsICc3LjAnLCAnLXRuJywgJzgnLCAnLW1hJywgJzIwMCcsICctbWV0YWxfYmluZGluZycsICctaW1hZScsICc8aW5maWxlLm1hZT4nLCAnLW9tYWUnLCAnPG91dGZpbGUubWFlPic=

> <r_epik_Ionization_Penalty>
1.1857

> <r_epik_Ionization_Penalty_Charging>
1.1857

> <r_epik_Ionization_Penalty_Neutral>
1.75578e-06

> <r_epik_State_Penalty>
1.26953

> <r_epik_Charging_Adjusted_Penalty>
2.45524

> <i_epik_Tot_Q>
2

> <i_epik_Tot_abs_Q>
2

> <r_epik_Metal_State_Penalty>
5.28243

> <b_epik_Metal_Only>
0

> <s_lp_Force_Field>
OPLS_2005

> <r_lp_Energy>
30.6325

> <b_lp_Chiralities_Consistent>
1

> <s_lp_Variant>
AV-unprocessed.smi:1487-13

> <Gold.Version>
5.8.1

> <Gold.Id.Protein>
6NUR|6NUR_protein|mol2

> <Gold.PLP.Fitness>
62.1170

> <Gold.PLP.PLP>
-42.6019

> <Gold.PLP.part.hbond>
-5.7397

> <Gold.PLP.part.metal>
0.0000

> <Gold.PLP.part.buried>
0.0812

> <Gold.PLP.part.nonpolar>
-36.9577

> <Gold.PLP.part.repulsive>
0.0989

> <Gold.PLP.ligand.clash>
0.0000

> <Gold.PLP.ligand.torsion>
0.1315

> <Gold.PLP.Chemscore.Hbond>
6.5823

> <Gold.PLP.Chemscore.CHOScore>
0.0000

> <Gold.PLP.Chemscore.Metal>
0.0000

> <Gold.Chemscore.Hbonds>
donor molecule, donor type, donor heavy atom, donor atom, acceptor molecule, acceptor atom, score
      L1  H     5    49       P1  8028  2.00
      L1  H    10    31       P1  7948  0.94
      L1  H    12    48       P1  7948  2.00
      L1  H    17    41       P1  7948  0.62
      P1  H  7954  7966       L1    17  1.00

> <Gold.PLP.Chemscore.Internal.Correction>
0.0315

> <Gold.Rescore>
     Score         DG    S(hbond)    S(metal)    S(lipo)     H(rot)  DE(clash)    DE(int)     intcor
     21.53     -22.50       3.38        0.00     108.96       2.74       0.82       0.16       ----

> <Gold.Chemscore.Fitness>
21.5273

> <Gold.Chemscore.DG>
-22.5010

> <Gold.Chemscore.ZeroCoef>
-5.4800

> <Gold.Chemscore.Hbond>
3.3783

> <Gold.Chemscore.Metal>
0.0000

> <Gold.Chemscore.Lipo>
108.9562

> <Gold.Chemscore.Internal_Hbond>
0.0000

> <Gold.Chemscore.DEClash>
0.8184

> <Gold.Chemscore.DEInternal>
0.1553

> <Gold.Chemscore.Rot>
2.7384

> <Gold.Chemscore.Internal.Correction>
   9.000000E+99

> <Gold.Chemscore.Hbonds>
donor molecule, donor type, donor heavy atom, donor atom, acceptor molecule, acceptor atom, score
      L1  H     5    49       P1  8028  0.99
      L1  H    10    31       P1  7948  0.44
      L1  H    12    48       P1  7948  1.00
      L1  H    17    41       P1  7948  0.62
      P1  H  7954  7966       L1    17  0.29

> <Gold.Chemscore.Hbond.Weighted>
-11.2834

> <Gold.Chemscore.Metal.Weighted>
-0.0000

> <Gold.Chemscore.Lipo.Weighted>
-12.7479

> <Gold.Chemscore.Internal_Hbond.Weighted>
0.0000

> <Gold.Chemscore.DEClash.Weighted>
0.8184

> <Gold.Chemscore.DEInternal.Weighted>
0.1553

> <Gold.Chemscore.Rot.Weighted>
7.0103

> <Gold.Chemscore.Internal.Correction.Weighted>
   9.000000E+99

> <Gold.Protein.RotatedTorsions>
[ 6907 6896 6895 6894 ] final -178.68 input  -60.11 | X-H torsion
[ 7974 7965 7964 7962 ] final -144.79 input  175.53 | X-H torsion
[ 8008 7997 7996 7995 ] final  141.27 input   59.86 | X-H torsion
[ 10167 10162 10161 10158 ] final -161.13 input  -65.29 | X-H torsion
[ 10718 10713 10712 10709 ] final  -26.51 input   66.30 | X-H torsion
[ 10763 10752 10751 10750 ] final  153.70 input  -60.55 | X-H torsion
[ 11005 11000 10999 10996 ] final  -61.88 input  -57.11 | X-H torsion

> <Gold.Protein.ActiveResidues>
 VAL166  LYS551  ARG553  GLY616  TRP617  ASP618  TYR619  PRO620  LYS621  CYS622 
 ASP623  PHE694  ASN695  SER759  ASP760  ASP761  ALA762  ILE779  LEU786  VAL792 
 PHE793  MET794  SER795  GLU796  ALA797  LYS798  CYS799  TRP800  GLU811  SER814 

> <Gold.Protein.RotatedAtoms>
  151.6411  133.3326  159.3130 H   0  0  0  0  0  0  0  0  0  0  0  0  # atno 6907 bound_to 6896
  150.8007  134.7103  159.6609 H   0  0  0  0  0  0  0  0  0  0  0  0  # atno 6908 bound_to 6896
  152.4099  134.6146  160.0086 H   0  0  0  0  0  0  0  0  0  0  0  0  # atno 6909 bound_to 6896
  144.8272  140.5665  143.5539 H   0  0  0  0  0  0  0  0  0  0  0  0  # atno 7974 bound_to 7965
  156.2968  140.2319  156.4538 H   0  0  0  0  0  0  0  0  0  0  0  0  # atno 8008 bound_to 7997
  154.8078  140.0444  157.1341 H   0  0  0  0  0  0  0  0  0  0  0  0  # atno 8009 bound_to 7997
  154.9458  140.3035  155.5102 H   0  0  0  0  0  0  0  0  0  0  0  0  # atno 8010 bound_to 7997
  139.6488  144.0123  152.2146 H   0  0  0  0  0  0  0  0  0  0  0  0  # atno 10167 bound_to 10162
  156.4502  130.4482  149.6995 H   0  0  0  0  0  0  0  0  0  0  0  0  # atno 10718 bound_to 10713
  154.1404  135.2821  155.3162 H   0  0  0  0  0  0  0  0  0  0  0  0  # atno 10763 bound_to 10752
  154.6291  135.5441  153.7663 H   0  0  0  0  0  0  0  0  0  0  0  0  # atno 10764 bound_to 10752
  153.0252  135.6458  154.1551 H   0  0  0  0  0  0  0  0  0  0  0  0  # atno 10765 bound_to 10752
  141.1340  133.6634  156.5443 H   0  0  0  0  0  0  0  0  0  0  0  0  # atno 11005 bound_to 11000
  145.4974  139.1485  143.3676 LP  0  0  0  0  0  0  0  0  0  0  0  0  # atno 17320 bound_to 7965
  146.2577  140.5113  142.8866 LP  0  0  0  0  0  0  0  0  0  0  0  0  # atno 17321 bound_to 7965
  139.9832  144.6414  150.7882 LP  0  0  0  0  0  0  0  0  0  0  0  0  # atno 17342 bound_to 10162
  140.7527  143.2996  151.3115 LP  0  0  0  0  0  0  0  0  0  0  0  0  # atno 17343 bound_to 10162
  156.3824  130.7586  151.2580 LP  0  0  0  0  0  0  0  0  0  0  0  0  # atno 17370 bound_to 10713
  157.7503  131.0292  150.4081 LP  0  0  0  0  0  0  0  0  0  0  0  0  # atno 17371 bound_to 10713
  140.4115  134.7268  157.4838 LP  0  0  0  0  0  0  0  0  0  0  0  0  # atno 17394 bound_to 11000
  140.0424  134.6248  155.8964 LP  0  0  0  0  0  0  0  0  0  0  0  0  # atno 17395 bound_to 11000

$$$$
