AV-unprocessed.smi:3267|AV-procd|sdf|12505|dock5
  -GOLD-   2272018413D 1   1.00000     0.00000
 Structure written by MMmdl.
 38 39  0  0  0  0  0  0  0  0  1 V2000
  145.4979  133.9345  154.3326 C   0  0  0  0  0  0  0  0  0  0  0  0
  146.4548  133.9182  153.1294 C   0  0  1  0  0  0  0  0  0  0  0  0
  145.8077  134.4397  151.8237 C   0  0  0  0  0  0  0  0  0  0  0  0
  145.1236  133.4115  151.0562 N   0  0  0  0  0  0  0  0  0  0  0  0
  145.6523  132.2711  150.4882 C   0  0  0  0  0  0  0  0  0  0  0  0
  144.6297  131.6144  149.8658 C   0  0  0  0  0  0  0  0  0  0  0  0
  143.4993  132.4441  150.1069 C   0  0  0  0  0  0  0  0  0  0  0  0
  143.7981  133.5193  150.8175 N   0  0  0  0  0  0  0  0  0  0  0  0
  147.6604  134.6736  153.4627 N   0  0  0  0  0  0  0  0  0  0  0  0
  148.3258  134.6035  154.6239 C   0  0  0  0  0  0  0  0  0  0  0  0
  147.9891  133.8921  155.5707 O   0  0  0  0  0  0  0  0  0  0  0  0
  149.4022  135.4014  154.6258 N   0  0  0  0  0  0  0  0  0  0  0  0
  150.3182  135.5704  155.7475 C   0  0  0  0  0  0  0  0  0  0  0  0
  150.8687  137.0045  155.8103 C   0  0  2  0  0  0  0  0  0  0  0  0
  151.0439  137.6598  154.4405 C   0  0  0  0  0  0  0  0  0  0  0  0
  152.1664  138.6651  154.6567 C   0  0  0  0  0  0  0  0  0  0  0  0
  152.7313  138.3071  156.0337 C   0  0  0  0  0  0  0  0  0  0  0  0
  152.1904  137.0278  156.3259 O   0  0  0  0  0  0  0  0  0  0  0  0
  144.5829  133.3846  154.1118 H   0  0  0  0  0  0  0  0  0  0  0  0
  145.2174  134.9501  154.6135 H   0  0  0  0  0  0  0  0  0  0  0  0
  145.9592  133.4685  155.2039 H   0  0  0  0  0  0  0  0  0  0  0  0
  146.7442  132.8789  152.9627 H   0  0  0  0  0  0  0  0  0  0  0  0
  145.1054  135.2482  152.0330 H   0  0  0  0  0  0  0  0  0  0  0  0
  146.5799  134.8721  151.1864 H   0  0  0  0  0  0  0  0  0  0  0  0
  146.6999  132.0234  150.5762 H   0  0  0  0  0  0  0  0  0  0  0  0
  144.6811  130.6841  149.3199 H   0  0  0  0  0  0  0  0  0  0  0  0
  142.4776  132.2988  149.7883 H   0  0  0  0  0  0  0  0  0  0  0  0
  148.0235  135.2851  152.7463 H   0  0  0  0  0  0  0  0  0  0  0  0
  149.5950  135.9421  153.7955 H   0  0  0  0  0  0  0  0  0  0  0  0
  149.8391  135.2964  156.6891 H   0  0  0  0  0  0  0  0  0  0  0  0
  151.1420  134.8704  155.6057 H   0  0  0  0  0  0  0  0  0  0  0  0
  150.2310  137.6302  156.4379 H   0  0  0  0  0  0  0  0  0  0  0  0
  151.3574  136.9193  153.7034 H   0  0  0  0  0  0  0  0  0  0  0  0
  150.1241  138.1218  154.0804 H   0  0  0  0  0  0  0  0  0  0  0  0
  152.9239  138.5653  153.8786 H   0  0  0  0  0  0  0  0  0  0  0  0
  151.8020  139.6927  154.6407 H   0  0  0  0  0  0  0  0  0  0  0  0
  153.8213  138.2892  156.0489 H   0  0  0  0  0  0  0  0  0  0  0  0
  152.3912  139.0199  156.7862 H   0  0  0  0  0  0  0  0  0  0  0  0
  1  2  1  0  0  0  0
  1 19  1  0  0  0  0
  1 20  1  0  0  0  0
  1 21  1  0  0  0  0
  2  3  1  0  0  0  0
  2  9  1  0  0  0  0
  2 22  1  0  0  0  0
  3  4  1  0  0  0  0
  3 23  1  0  0  0  0
  3 24  1  0  0  0  0
  4  8  1  0  0  0  0
  4  5  1  0  0  0  0
  5  6  2  0  0  0  0
  5 25  1  0  0  0  0
  6  7  1  0  0  0  0
  6 26  1  0  0  0  0
  7  8  2  0  0  0  0
  7 27  1  0  0  0  0
  9 10  1  0  0  0  0
  9 28  1  0  0  0  0
 10 11  2  0  0  0  0
 10 12  1  0  0  0  0
 12 13  1  0  0  0  0
 12 29  1  0  0  0  0
 13 14  1  0  0  0  0
 13 30  1  0  0  0  0
 13 31  1  0  0  0  0
 14 18  1  0  0  0  0
 14 15  1  0  0  0  0
 14 32  1  0  0  0  0
 15 16  1  0  0  0  0
 15 33  1  0  0  0  0
 15 34  1  0  0  0  0
 16 17  1  0  0  0  0
 16 35  1  0  0  0  0
 16 36  1  0  0  0  0
 17 18  1  0  0  0  0
 17 37  1  0  0  0  0
 17 38  1  0  0  0  0
M  END
> <s_m_source_file>
AV-unprocessed.smi

> <i_m_source_file_index>
3267

> <i_lp_mmshare_version>
43012

> <i_f3d_flags>
0

> <s_epik_input>
bjFbY0hdW2NIXVtjSF1uMVtDSDJdW0NAQEhdKFtDSDNdKVtOSF1DKD1PKVtOSF1bQ0gyXVtDQEBIXTJbQ0gyXVtDSDJdW0NIMl1PMg==

> <s_epik_cmdline>
J2VwaWtfcHl0aG9uJywgJy1waCcsICc3LjAnLCAnLXRuJywgJzgnLCAnLW1hJywgJzIwMCcsICctbWV0YWxfYmluZGluZycsICctaW1hZScsICc8aW5maWxlLm1hZT4nLCAnLW9tYWUnLCAnPG91dGZpbGUubWFlPic=

> <r_lp_tautomer_probability>
1

> <r_epik_Ionization_Penalty>
6.24796e-05

> <r_epik_Ionization_Penalty_Charging>
0

> <r_epik_Ionization_Penalty_Neutral>
6.24796e-05

> <r_epik_State_Penalty>
-0

> <r_epik_Charging_Adjusted_Penalty>
0

> <i_epik_Tot_Q>
0

> <i_epik_Tot_abs_Q>
0

> <r_epik_Metal_State_Penalty>
-0

> <b_epik_Metal_Only>
0

> <s_lp_Force_Field>
OPLS_2005

> <r_lp_Energy>
14.7816

> <b_lp_Chiralities_Consistent>
1

> <s_lp_Variant>
AV-unprocessed.smi:3267-2

> <Gold.Version>
5.8.1

> <Gold.Id.Protein>
6NUR|6NUR_protein|mol2

> <Gold.PLP.Fitness>
42.7334

> <Gold.PLP.PLP>
-28.7646

> <Gold.PLP.part.hbond>
-3.0000

> <Gold.PLP.part.metal>
0.0000

> <Gold.PLP.part.buried>
-3.2164

> <Gold.PLP.part.nonpolar>
-24.2971

> <Gold.PLP.part.repulsive>
0.2523

> <Gold.PLP.ligand.clash>
0.0000

> <Gold.PLP.ligand.torsion>
1.0797

> <Gold.PLP.Chemscore.Hbond>
2.8208

> <Gold.PLP.Chemscore.CHOScore>
2.5380

> <Gold.PLP.Chemscore.Metal>
0.0000

> <Gold.Chemscore.Hbonds>
donor molecule, donor type, donor heavy atom, donor atom, acceptor molecule, acceptor atom, score
      L1  H     9    28       P1  7948  1.00
      L1  H    12    29       P1  7948  0.85
      P1  H 10752 10765       L1    18  0.55
      L1  C     5    25       P1 10747  0.90
      L1  C     7    27       P1 10186  0.65
      L1  C     7    27       P1 10952  0.92

> <Gold.PLP.Chemscore.Internal.Correction>
0.0518

> <Gold.Rescore>
     Score         DG    S(hbond)    S(metal)    S(lipo)     H(rot)  DE(clash)    DE(int)     intcor
     12.79     -15.77       1.93        0.00      73.76       1.87       0.25       2.73       ----

> <Gold.Chemscore.Fitness>
12.7937

> <Gold.Chemscore.DG>
-15.7710

> <Gold.Chemscore.ZeroCoef>
-5.4800

> <Gold.Chemscore.Hbond>
1.9325

> <Gold.Chemscore.Metal>
0.0000

> <Gold.Chemscore.Lipo>
73.7582

> <Gold.Chemscore.Internal_Hbond>
0.0000

> <Gold.Chemscore.DEClash>
0.2466

> <Gold.Chemscore.DEInternal>
2.7306

> <Gold.Chemscore.Rot>
1.8724

> <Gold.Chemscore.Internal.Correction>
   9.000000E+99

> <Gold.Chemscore.Hbonds>
donor molecule, donor type, donor heavy atom, donor atom, acceptor molecule, acceptor atom, score
      L1  H     9    28       P1  7948  0.96
      L1  H    12    29       P1  7948  0.31
      P1  H 10752 10765       L1    18  0.12

> <Gold.Chemscore.Hbond.Weighted>
-6.4545

> <Gold.Chemscore.Metal.Weighted>
-0.0000

> <Gold.Chemscore.Lipo.Weighted>
-8.6297

> <Gold.Chemscore.Internal_Hbond.Weighted>
0.0000

> <Gold.Chemscore.DEClash.Weighted>
0.2466

> <Gold.Chemscore.DEInternal.Weighted>
2.7306

> <Gold.Chemscore.Rot.Weighted>
4.7933

> <Gold.Chemscore.Internal.Correction.Weighted>
   9.000000E+99

> <Gold.Protein.RotatedTorsions>
[ 6907 6896 6895 6894 ] final  -58.29 input  -60.11 | X-H torsion
[ 7974 7965 7964 7962 ] final   87.02 input  175.53 | X-H torsion
[ 8008 7997 7996 7995 ] final  126.12 input   59.86 | X-H torsion
[ 10167 10162 10161 10158 ] final -111.44 input  -65.29 | X-H torsion
[ 10718 10713 10712 10709 ] final  -92.59 input   66.30 | X-H torsion
[ 10763 10752 10751 10750 ] final -150.08 input  -60.55 | X-H torsion
[ 11005 11000 10999 10996 ] final   50.81 input  -57.11 | X-H torsion

> <Gold.Protein.ActiveResidues>
 VAL166  LYS551  ARG553  GLY616  TRP617  ASP618  TYR619  PRO620  LYS621  CYS622 
 ASP623  PHE694  ASN695  SER759  ASP760  ASP761  ALA762  ILE779  LEU786  VAL792 
 PHE793  MET794  SER795  GLU796  ALA797  LYS798  CYS799  TRP800  GLU811  SER814 

> <Gold.Protein.RotatedAtoms>
  150.8019  134.7118  159.6607 H   0  0  0  0  0  0  0  0  0  0  0  0  # atno 6907 bound_to 6896
  152.4136  134.6078  160.0027 H   0  0  0  0  0  0  0  0  0  0  0  0  # atno 6908 bound_to 6896
  151.6313  133.3295  159.3145 H   0  0  0  0  0  0  0  0  0  0  0  0  # atno 6909 bound_to 6896
  145.5645  139.2307  143.2441 H   0  0  0  0  0  0  0  0  0  0  0  0  # atno 7974 bound_to 7965
  156.2855  140.2700  156.2060 H   0  0  0  0  0  0  0  0  0  0  0  0  # atno 8008 bound_to 7997
  155.0312  140.0386  157.2493 H   0  0  0  0  0  0  0  0  0  0  0  0  # atno 8009 bound_to 7997
  154.7352  140.2714  155.6426 H   0  0  0  0  0  0  0  0  0  0  0  0  # atno 8010 bound_to 7997
  140.1336  143.4339  152.1610 H   0  0  0  0  0  0  0  0  0  0  0  0  # atno 10167 bound_to 10162
  156.0004  130.4993  150.5649 H   0  0  0  0  0  0  0  0  0  0  0  0  # atno 10718 bound_to 10713
  154.8140  135.3293  154.7228 H   0  0  0  0  0  0  0  0  0  0  0  0  # atno 10763 bound_to 10752
  153.7872  135.6914  153.4882 H   0  0  0  0  0  0  0  0  0  0  0  0  # atno 10764 bound_to 10752
  153.1941  135.4540  155.0132 H   0  0  0  0  0  0  0  0  0  0  0  0  # atno 10765 bound_to 10752
  140.0985  134.5113  155.8784 H   0  0  0  0  0  0  0  0  0  0  0  0  # atno 11005 bound_to 11000
  146.1828  140.6470  142.9181 LP  0  0  0  0  0  0  0  0  0  0  0  0  # atno 17320 bound_to 7965
  144.7467  140.5086  143.6831 LP  0  0  0  0  0  0  0  0  0  0  0  0  # atno 17321 bound_to 7965
  139.5507  144.7335  151.4444 LP  0  0  0  0  0  0  0  0  0  0  0  0  # atno 17342 bound_to 10162
  140.6802  143.8098  150.7111 LP  0  0  0  0  0  0  0  0  0  0  0  0  # atno 17343 bound_to 10162
  157.3552  131.0740  151.1681 LP  0  0  0  0  0  0  0  0  0  0  0  0  # atno 17370 bound_to 10713
  157.2484  130.6602  149.5920 LP  0  0  0  0  0  0  0  0  0  0  0  0  # atno 17371 bound_to 10713
  141.2099  133.6689  156.6471 LP  0  0  0  0  0  0  0  0  0  0  0  0  # atno 17394 bound_to 11000
  140.3252  134.7974  157.4284 LP  0  0  0  0  0  0  0  0  0  0  0  0  # atno 17395 bound_to 11000

$$$$
