AV-unprocessed.smi:1792|AV-procd|sdf|7223|dock8
  -GOLD-   22720 8463D 1   1.00000     0.00000
 Structure written by MMmdl.
 43 44  0  0  0  0  0  0  0  0  2 V2000
  146.3195  140.6075  155.6356 C   0  0  0  0  0  0  0  0  0  0  0  0
  147.0031  141.0009  154.3026 C   0  0  0  0  0  0  0  0  0  0  0  0
  146.6233  142.4679  153.9953 C   0  0  0  0  0  0  0  0  0  0  0  0
  148.5446  140.9296  154.5205 C   0  0  0  0  0  0  0  0  0  0  0  0
  149.0487  141.8821  155.5114 N   0  0  0  0  0  0  0  0  0  0  0  0
  149.9045  141.5953  156.5032 C   0  0  0  0  0  0  0  0  0  0  0  0
  150.3896  140.4774  156.6767 O   0  0  0  0  0  0  0  0  0  0  0  0
  150.1528  142.6779  157.2613 N   0  0  0  0  0  0  0  0  0  0  0  0
  151.0074  142.7790  158.3915 C   0  0  0  0  0  0  0  0  0  0  0  0
  151.2531  144.0963  158.8409 C   0  0  0  0  0  0  0  0  0  0  0  0
  152.0860  144.3033  159.9577 C   0  0  0  0  0  0  0  0  0  0  0  0
  152.6539  143.1864  160.5959 C   0  0  0  0  0  0  0  0  0  0  0  0
  152.3613  141.9095  160.0827 C   0  0  0  0  0  0  0  0  0  0  0  0
  151.5631  141.7088  159.0128 N   0  0  0  0  0  0  0  0  0  0  0  0
  146.5732  140.0702  153.1969 N   0  3  0  0  0  0  0  0  0  0  0  0
  147.1225  140.3660  151.8434 C   0  0  0  0  0  0  0  0  0  0  0  0
  146.4771  139.4544  150.7856 C   0  0  0  0  0  0  0  0  0  0  0  0
  146.6798  138.0917  151.1318 O   0  0  0  0  0  0  0  0  0  0  0  0
  146.0815  137.7726  152.3797 C   0  0  0  0  0  0  0  0  0  0  0  0
  146.7281  138.6173  153.4894 C   0  0  0  0  0  0  0  0  0  0  0  0
  146.7617  141.1377  156.4798 H   0  0  0  0  0  0  0  0  0  0  0  0
  146.4098  139.5400  155.8384 H   0  0  0  0  0  0  0  0  0  0  0  0
  145.2587  140.8576  155.6462 H   0  0  0  0  0  0  0  0  0  0  0  0
  146.9126  143.1231  154.8177 H   0  0  0  0  0  0  0  0  0  0  0  0
  145.5500  142.5941  153.8536 H   0  0  0  0  0  0  0  0  0  0  0  0
  147.1225  142.8464  153.1037 H   0  0  0  0  0  0  0  0  0  0  0  0
  148.8344  139.9353  154.8598 H   0  0  0  0  0  0  0  0  0  0  0  0
  149.0706  141.0547  153.5722 H   0  0  0  0  0  0  0  0  0  0  0  0
  148.6913  142.8247  155.4562 H   0  0  0  0  0  0  0  0  0  0  0  0
  149.6714  143.5274  157.0064 H   0  0  0  0  0  0  0  0  0  0  0  0
  150.8078  144.9437  158.3402 H   0  0  0  0  0  0  0  0  0  0  0  0
  152.2849  145.3019  160.3178 H   0  0  0  0  0  0  0  0  0  0  0  0
  153.2966  143.3051  161.4556 H   0  0  0  0  0  0  0  0  0  0  0  0
  152.7787  141.0258  160.5426 H   0  0  0  0  0  0  0  0  0  0  0  0
  146.9298  141.3956  151.5481 H   0  0  0  0  0  0  0  0  0  0  0  0
  148.2035  140.2245  151.8371 H   0  0  0  0  0  0  0  0  0  0  0  0
  145.4104  139.6638  150.6900 H   0  0  0  0  0  0  0  0  0  0  0  0
  146.9247  139.6391  149.8089 H   0  0  0  0  0  0  0  0  0  0  0  0
  145.0039  137.9401  152.3384 H   0  0  0  0  0  0  0  0  0  0  0  0
  146.2310  136.7115  152.5806 H   0  0  0  0  0  0  0  0  0  0  0  0
  147.7846  138.3590  153.5666 H   0  0  0  0  0  0  0  0  0  0  0  0
  146.2621  138.3479  154.4352 H   0  0  0  0  0  0  0  0  0  0  0  0
  145.5782  140.2215  153.1133 H   0  0  0  0  0  0  0  0  0  0  0  0
  1  2  1  0  0  0  0
  1 21  1  0  0  0  0
  1 22  1  0  0  0  0
  1 23  1  0  0  0  0
  2  3  1  0  0  0  0
  2  4  1  0  0  0  0
  2 15  1  0  0  0  0
  3 24  1  0  0  0  0
  3 25  1  0  0  0  0
  3 26  1  0  0  0  0
  4  5  1  0  0  0  0
  4 27  1  0  0  0  0
  4 28  1  0  0  0  0
  5  6  1  0  0  0  0
  5 29  1  0  0  0  0
  6  7  2  0  0  0  0
  6  8  1  0  0  0  0
  8  9  1  0  0  0  0
  8 30  1  0  0  0  0
  9 14  1  0  0  0  0
  9 10  2  0  0  0  0
 10 11  1  0  0  0  0
 10 31  1  0  0  0  0
 11 12  2  0  0  0  0
 11 32  1  0  0  0  0
 12 13  1  0  0  0  0
 12 33  1  0  0  0  0
 13 14  2  0  0  0  0
 13 34  1  0  0  0  0
 15 20  1  0  0  0  0
 15 16  1  0  0  0  0
 15 43  1  0  0  0  0
 16 17  1  0  0  0  0
 16 35  1  0  0  0  0
 16 36  1  0  0  0  0
 17 18  1  0  0  0  0
 17 37  1  0  0  0  0
 17 38  1  0  0  0  0
 18 19  1  0  0  0  0
 19 20  1  0  0  0  0
 19 39  1  0  0  0  0
 19 40  1  0  0  0  0
 20 41  1  0  0  0  0
 20 42  1  0  0  0  0
M  CHG  1  15   1
M  END
> <s_m_source_file>
AV-unprocessed.smi

> <i_m_source_file_index>
1792

> <i_lp_mmshare_version>
43012

> <i_f3d_flags>
0

> <s_epik_input>
W0NIMl0xW0NIMl1PW0NIMl1bQ0gyXU4xQyhbQ0gzXSkoW0NIM10pW0NIMl1bTkhdQyg9TylbTkhdYzJbY0hdW2NIXVtjSF1bY0hdbjI=

> <s_epik_cmdline>
J2VwaWtfcHl0aG9uJywgJy1waCcsICc3LjAnLCAnLXRuJywgJzgnLCAnLW1hJywgJzIwMCcsICctbWV0YWxfYmluZGluZycsICctaW1hZScsICc8aW5maWxlLm1hZT4nLCAnLW9tYWUnLCAnPG91dGZpbGUubWFlPic=

> <r_epik_Ionization_Penalty>
0.602565

> <r_epik_Ionization_Penalty_Charging>
0.602531

> <r_epik_Ionization_Penalty_Neutral>
3.47415e-05

> <r_epik_State_Penalty>
0.617039

> <r_epik_Charging_Adjusted_Penalty>
1.21957

> <i_epik_Tot_Q>
1

> <i_epik_Tot_abs_Q>
1

> <r_epik_Metal_State_Penalty>
0.617041

> <b_epik_Metal_Only>
0

> <s_lp_Force_Field>
OPLS_2005

> <r_lp_Energy>
32.7628

> <b_lp_Chiralities_Consistent>
1

> <s_lp_Variant>
AV-unprocessed.smi:1792-2

> <Gold.Version>
5.8.1

> <Gold.Id.Protein>
6NUR|6NUR_protein|mol2

> <Gold.PLP.Fitness>
49.1384

> <Gold.PLP.PLP>
-34.6218

> <Gold.PLP.part.hbond>
-4.0000

> <Gold.PLP.part.metal>
0.0000

> <Gold.PLP.part.buried>
0.4836

> <Gold.PLP.part.nonpolar>
-32.7334

> <Gold.PLP.part.repulsive>
1.2267

> <Gold.PLP.ligand.clash>
0.0000

> <Gold.PLP.ligand.torsion>
0.1727

> <Gold.PLP.Chemscore.Hbond>
4.9245

> <Gold.PLP.Chemscore.CHOScore>
0.0000

> <Gold.PLP.Chemscore.Metal>
0.0000

> <Gold.Chemscore.Hbonds>
donor molecule, donor type, donor heavy atom, donor atom, acceptor molecule, acceptor atom, score
      L1  H     5    29       P1  8028  1.00
      L1  H     8    30       P1  8028  1.00
      L1  H    15    43       P1 10175  2.00
      P1  H  7954  7966       L1    18  0.65

> <Gold.PLP.Chemscore.Internal.Correction>
0.0886

> <Gold.Rescore>
     Score         DG    S(hbond)    S(metal)    S(lipo)     H(rot)  DE(clash)    DE(int)     intcor
     19.35     -24.54       3.25        0.00     103.81       1.55       3.77       1.42       ----

> <Gold.Chemscore.Fitness>
19.3480

> <Gold.Chemscore.DG>
-24.5352

> <Gold.Chemscore.ZeroCoef>
-5.4800

> <Gold.Chemscore.Hbond>
3.2550

> <Gold.Chemscore.Metal>
0.0000

> <Gold.Chemscore.Lipo>
103.8069

> <Gold.Chemscore.Internal_Hbond>
0.0000

> <Gold.Chemscore.DEClash>
3.7687

> <Gold.Chemscore.DEInternal>
1.4185

> <Gold.Chemscore.Rot>
1.5476

> <Gold.Chemscore.Internal.Correction>
   9.000000E+99

> <Gold.Chemscore.Hbonds>
donor molecule, donor type, donor heavy atom, donor atom, acceptor molecule, acceptor atom, score
      L1  H     5    29       P1  8028  0.97
      L1  H     8    30       P1  8028  0.92
      L1  H    15    43       P1 10175  0.93
      P1  H  7954  7966       L1    18  0.06

> <Gold.Chemscore.Hbond.Weighted>
-10.8717

> <Gold.Chemscore.Metal.Weighted>
-0.0000

> <Gold.Chemscore.Lipo.Weighted>
-12.1454

> <Gold.Chemscore.Internal_Hbond.Weighted>
0.0000

> <Gold.Chemscore.DEClash.Weighted>
3.7687

> <Gold.Chemscore.DEInternal.Weighted>
1.4185

> <Gold.Chemscore.Rot.Weighted>
3.9619

> <Gold.Chemscore.Internal.Correction.Weighted>
   9.000000E+99

> <Gold.Protein.RotatedTorsions>
[ 6907 6896 6895 6894 ] final  -10.08 input  -60.11 | X-H torsion
[ 7974 7965 7964 7962 ] final   -5.16 input  175.53 | X-H torsion
[ 8008 7997 7996 7995 ] final  -15.76 input   59.86 | X-H torsion
[ 10167 10162 10161 10158 ] final  107.16 input  -65.29 | X-H torsion
[ 10718 10713 10712 10709 ] final  -76.82 input   66.30 | X-H torsion
[ 10763 10752 10751 10750 ] final   90.56 input  -60.55 | X-H torsion
[ 11005 11000 10999 10996 ] final   21.56 input  -57.11 | X-H torsion

> <Gold.Protein.ActiveResidues>
 VAL166  LYS551  ARG553  GLY616  TRP617  ASP618  TYR619  PRO620  LYS621  CYS622 
 ASP623  PHE694  ASN695  SER759  ASP760  ASP761  ALA762  ILE779  LEU786  VAL792 
 PHE793  MET794  SER795  GLU796  ALA797  LYS798  CYS799  TRP800  GLU811  SER814 

> <Gold.Protein.RotatedAtoms>
  151.4076  135.0980  159.9574 H   0  0  0  0  0  0  0  0  0  0  0  0  # atno 6907 bound_to 6896
  152.5030  133.8828  159.7365 H   0  0  0  0  0  0  0  0  0  0  0  0  # atno 6908 bound_to 6896
  150.9316  133.6703  159.2838 H   0  0  0  0  0  0  0  0  0  0  0  0  # atno 6909 bound_to 6896
  146.2358  140.1980  142.8333 H   0  0  0  0  0  0  0  0  0  0  0  0  # atno 7974 bound_to 7965
  154.5105  140.2187  155.9166 H   0  0  0  0  0  0  0  0  0  0  0  0  # atno 8008 bound_to 7997
  156.1546  140.3154  155.8671 H   0  0  0  0  0  0  0  0  0  0  0  0  # atno 8009 bound_to 7997
  155.3871  140.0476  157.3032 H   0  0  0  0  0  0  0  0  0  0  0  0  # atno 8010 bound_to 7997
  139.6949  144.7103  151.1284 H   0  0  0  0  0  0  0  0  0  0  0  0  # atno 10167 bound_to 10162
  156.0163  130.4475  150.3252 H   0  0  0  0  0  0  0  0  0  0  0  0  # atno 10718 bound_to 10713
  153.1989  135.4429  155.0242 H   0  0  0  0  0  0  0  0  0  0  0  0  # atno 10763 bound_to 10752
  154.8135  135.3305  154.7243 H   0  0  0  0  0  0  0  0  0  0  0  0  # atno 10764 bound_to 10752
  153.7690  135.6986  153.4965 H   0  0  0  0  0  0  0  0  0  0  0  0  # atno 10765 bound_to 10752
  140.3903  134.1826  155.7662 H   0  0  0  0  0  0  0  0  0  0  0  0  # atno 11005 bound_to 11000
  144.9805  140.8454  143.5400 LP  0  0  0  0  0  0  0  0  0  0  0  0  # atno 17320 bound_to 7965
  145.1973  139.2270  143.5211 LP  0  0  0  0  0  0  0  0  0  0  0  0  # atno 17321 bound_to 7965
  140.7693  143.5505  150.9209 LP  0  0  0  0  0  0  0  0  0  0  0  0  # atno 17342 bound_to 10162
  139.9185  143.6635  152.3101 LP  0  0  0  0  0  0  0  0  0  0  0  0  # atno 17343 bound_to 10162
  157.1351  131.0282  151.2952 LP  0  0  0  0  0  0  0  0  0  0  0  0  # atno 17370 bound_to 10713
  157.4518  130.7603  149.7158 LP  0  0  0  0  0  0  0  0  0  0  0  0  # atno 17371 bound_to 10713
  141.1893  133.8241  157.0961 LP  0  0  0  0  0  0  0  0  0  0  0  0  # atno 17394 bound_to 11000
  140.0412  134.9853  157.0965 LP  0  0  0  0  0  0  0  0  0  0  0  0  # atno 17395 bound_to 11000

$$$$
