AV-unprocessed.smi:667|AV-procd|sdf|3257|dock4
  -GOLD-   22720 0203D 1   1.00000     0.00000
 Structure written by MMmdl.
 48 49  0  0  0  0  0  0  0  0  1 V2000
  153.3907  138.5734  154.4954 C   0  0  0  0  0  0  0  0  0  0  0  0
  152.2870  139.3236  155.1847 C   0  0  0  0  0  0  0  0  0  0  0  0
  152.5893  140.3326  155.9845 N   0  0  0  0  0  0  0  0  0  0  0  0
  151.4006  140.7901  156.4268 N   0  0  0  0  0  0  0  0  0  0  0  0
  151.3686  141.9173  157.3385 C   0  0  0  0  0  0  0  0  0  0  0  0
  150.3452  140.0640  155.9100 C   0  0  0  0  0  0  0  0  0  0  0  0
  148.9219  140.3739  156.2465 C   0  0  0  0  0  0  0  0  0  0  0  0
  150.8810  139.1039  155.0934 C   0  0  0  0  0  0  0  0  0  0  0  0
  150.1670  138.0576  154.2762 C   0  0  0  0  0  0  0  0  0  0  0  0
  150.3216  136.6928  154.9463 C   0  0  0  0  0  0  0  0  0  0  0  0
  150.7091  136.6200  156.1124 O   0  0  0  0  0  0  0  0  0  0  0  0
  150.0093  135.6211  154.2012 N   0  0  0  0  0  0  0  0  0  0  0  0
  150.0662  134.2373  154.6592 C   0  0  0  0  0  0  0  0  0  0  0  0
  149.9921  133.2241  153.4893 C   0  0  2  0  0  0  0  0  0  0  0  0
  148.5669  132.9992  153.0026 C   0  0  0  0  0  0  0  0  0  0  0  0
  148.0538  131.8732  153.9041 C   0  0  0  0  0  0  0  0  0  0  0  0
  149.2051  131.3074  154.5242 O   0  0  0  0  0  0  0  0  0  0  0  0
  150.3729  131.7826  153.8674 C   0  0  2  0  0  0  0  0  0  0  0  0
  151.6359  131.5827  154.7358 C   0  0  0  0  0  0  0  0  0  0  0  0
  152.1540  130.1358  154.6653 C   0  0  0  0  0  0  0  0  0  0  0  0
  151.3655  131.9712  156.1984 C   0  0  0  0  0  0  0  0  0  0  0  0
  153.3789  138.7649  153.4222 H   0  0  0  0  0  0  0  0  0  0  0  0
  153.2841  137.4985  154.6430 H   0  0  0  0  0  0  0  0  0  0  0  0
  154.3730  138.8609  154.8726 H   0  0  0  0  0  0  0  0  0  0  0  0
  151.1487  141.5653  158.3465 H   0  0  0  0  0  0  0  0  0  0  0  0
  150.5956  142.6214  157.0293 H   0  0  0  0  0  0  0  0  0  0  0  0
  152.3295  142.4341  157.3440 H   0  0  0  0  0  0  0  0  0  0  0  0
  148.2562  139.5738  155.9243 H   0  0  0  0  0  0  0  0  0  0  0  0
  148.6020  141.2926  155.7551 H   0  0  0  0  0  0  0  0  0  0  0  0
  148.7923  140.5001  157.3214 H   0  0  0  0  0  0  0  0  0  0  0  0
  149.1066  138.2879  154.1674 H   0  0  0  0  0  0  0  0  0  0  0  0
  150.5652  138.0027  153.2628 H   0  0  0  0  0  0  0  0  0  0  0  0
  149.6969  135.7764  153.2536 H   0  0  0  0  0  0  0  0  0  0  0  0
  150.9809  134.1031  155.2371 H   0  0  0  0  0  0  0  0  0  0  0  0
  149.2416  134.0763  155.3542 H   0  0  0  0  0  0  0  0  0  0  0  0
  150.6222  133.5749  152.6710 H   0  0  0  0  0  0  0  0  0  0  0  0
  147.9369  133.8884  153.0375 H   0  0  0  0  0  0  0  0  0  0  0  0
  148.5867  132.6554  151.9675 H   0  0  0  0  0  0  0  0  0  0  0  0
  147.3856  132.2541  154.6768 H   0  0  0  0  0  0  0  0  0  0  0  0
  147.5147  131.1193  153.3299 H   0  0  0  0  0  0  0  0  0  0  0  0
  150.4869  131.2031  152.9485 H   0  0  0  0  0  0  0  0  0  0  0  0
  152.4224  132.2435  154.3716 H   0  0  0  0  0  0  0  0  0  0  0  0
  151.4042  129.4300  155.0240 H   0  0  0  0  0  0  0  0  0  0  0  0
  153.0476  130.0095  155.2770 H   0  0  0  0  0  0  0  0  0  0  0  0
  152.4171  129.8484  153.6474 H   0  0  0  0  0  0  0  0  0  0  0  0
  150.5769  131.3561  156.6331 H   0  0  0  0  0  0  0  0  0  0  0  0
  151.0579  133.0140  156.2818 H   0  0  0  0  0  0  0  0  0  0  0  0
  152.2596  131.8470  156.8102 H   0  0  0  0  0  0  0  0  0  0  0  0
  1  2  1  0  0  0  0
  1 22  1  0  0  0  0
  1 23  1  0  0  0  0
  1 24  1  0  0  0  0
  2  8  1  0  0  0  0
  2  3  2  0  0  0  0
  3  4  1  0  0  0  0
  4  5  1  0  0  0  0
  4  6  1  0  0  0  0
  5 25  1  0  0  0  0
  5 26  1  0  0  0  0
  5 27  1  0  0  0  0
  6  7  1  0  0  0  0
  6  8  2  0  0  0  0
  7 28  1  0  0  0  0
  7 29  1  0  0  0  0
  7 30  1  0  0  0  0
  8  9  1  0  0  0  0
  9 10  1  0  0  0  0
  9 31  1  0  0  0  0
  9 32  1  0  0  0  0
 10 11  2  0  0  0  0
 10 12  1  0  0  0  0
 12 13  1  0  0  0  0
 12 33  1  0  0  0  0
 13 14  1  0  0  0  0
 13 34  1  0  0  0  0
 13 35  1  0  0  0  0
 14 18  1  0  0  0  0
 14 15  1  0  0  0  0
 14 36  1  0  0  0  0
 15 16  1  0  0  0  0
 15 37  1  0  0  0  0
 15 38  1  0  0  0  0
 16 17  1  0  0  0  0
 16 39  1  0  0  0  0
 16 40  1  0  0  0  0
 17 18  1  0  0  0  0
 18 19  1  0  0  0  0
 18 41  1  0  0  0  0
 19 20  1  0  0  0  0
 19 21  1  0  0  0  0
 19 42  1  0  0  0  0
 20 43  1  0  0  0  0
 20 44  1  0  0  0  0
 20 45  1  0  0  0  0
 21 46  1  0  0  0  0
 21 47  1  0  0  0  0
 21 48  1  0  0  0  0
M  END
> <s_m_source_file>
AV-unprocessed.smi

> <i_m_source_file_index>
667

> <i_lp_mmshare_version>
43012

> <i_f3d_flags>
0

> <s_epik_input>
W0NIM11jMW5uKFtDSDNdKWMoW0NIM10pYzFbQ0gyXUMoPU8pW05IXVtDSDJdW0NAQEhdMltDSDJdW0NIMl1PW0NASF0yW0NIXShbQ0gzXSlbQ0gzXQ==

> <s_epik_cmdline>
J2VwaWtfcHl0aG9uJywgJy1waCcsICc3LjAnLCAnLXRuJywgJzgnLCAnLW1hJywgJzIwMCcsICctbWV0YWxfYmluZGluZycsICctaW1hZScsICc8aW5maWxlLm1hZT4nLCAnLW9tYWUnLCAnPG91dGZpbGUubWFlPic=

> <r_lp_tautomer_probability>
1

> <r_epik_Ionization_Penalty>
0.00315488

> <r_epik_Ionization_Penalty_Charging>
0

> <r_epik_Ionization_Penalty_Neutral>
0.00315488

> <r_epik_State_Penalty>
0.00222269

> <r_epik_Charging_Adjusted_Penalty>
0.00222269

> <i_epik_Tot_Q>
0

> <i_epik_Tot_abs_Q>
0

> <r_epik_Metal_State_Penalty>
-0

> <b_epik_Metal_Only>
0

> <s_lp_Force_Field>
OPLS_2005

> <r_lp_Energy>
17.3848

> <b_lp_Chiralities_Consistent>
1

> <s_lp_Variant>
AV-unprocessed.smi:667-3

> <Gold.Version>
5.8.1

> <Gold.Id.Protein>
6NUR|6NUR_protein|mol2

> <Gold.PLP.Fitness>
39.7331

> <Gold.PLP.PLP>
-35.4477

> <Gold.PLP.part.hbond>
-2.4507

> <Gold.PLP.part.metal>
0.0000

> <Gold.PLP.part.buried>
0.5813

> <Gold.PLP.part.nonpolar>
-33.3300

> <Gold.PLP.part.repulsive>
0.0790

> <Gold.PLP.ligand.clash>
0.0000

> <Gold.PLP.ligand.torsion>
0.8870

> <Gold.PLP.Chemscore.Hbond>
2.0000

> <Gold.PLP.Chemscore.CHOScore>
0.0000

> <Gold.PLP.Chemscore.Metal>
0.0000

> <Gold.Chemscore.Hbonds>
donor molecule, donor type, donor heavy atom, donor atom, acceptor molecule, acceptor atom, score
      L1  H    12    33       P1  7948  0.60
      P1  H  7997  8010       L1     3  1.00

> <Gold.PLP.Chemscore.Internal.Correction>
0.0595

> <Gold.Rescore>
     Score         DG    S(hbond)    S(metal)    S(lipo)     H(rot)  DE(clash)    DE(int)     intcor
     14.73     -17.32       1.68        0.00      86.39       1.52       1.23       1.37       ----

> <Gold.Chemscore.Fitness>
14.7259

> <Gold.Chemscore.DG>
-17.3193

> <Gold.Chemscore.ZeroCoef>
-5.4800

> <Gold.Chemscore.Hbond>
1.6843

> <Gold.Chemscore.Metal>
0.0000

> <Gold.Chemscore.Lipo>
86.3946

> <Gold.Chemscore.Internal_Hbond>
0.0000

> <Gold.Chemscore.DEClash>
1.2283

> <Gold.Chemscore.DEInternal>
1.3652

> <Gold.Chemscore.Rot>
1.5213

> <Gold.Chemscore.Internal.Correction>
   9.000000E+99

> <Gold.Chemscore.Hbonds>
donor molecule, donor type, donor heavy atom, donor atom, acceptor molecule, acceptor atom, score
      L1  H    12    33       P1  7948  0.04
      P1  H  7997  8010       L1     3  0.33

> <Gold.Chemscore.Hbond.Weighted>
-5.6257

> <Gold.Chemscore.Metal.Weighted>
-0.0000

> <Gold.Chemscore.Lipo.Weighted>
-10.1082

> <Gold.Chemscore.Internal_Hbond.Weighted>
0.0000

> <Gold.Chemscore.DEClash.Weighted>
1.2283

> <Gold.Chemscore.DEInternal.Weighted>
1.3652

> <Gold.Chemscore.Rot.Weighted>
3.8945

> <Gold.Chemscore.Internal.Correction.Weighted>
   9.000000E+99

> <Gold.Protein.RotatedTorsions>
[ 6907 6896 6895 6894 ] final -150.00 input  -60.11 | X-H torsion
[ 7974 7965 7964 7962 ] final   37.32 input  175.53 | X-H torsion
[ 8008 7997 7996 7995 ] final   91.35 input   59.86 | X-H torsion
[ 10167 10162 10161 10158 ] final   42.37 input  -65.29 | X-H torsion
[ 10718 10713 10712 10709 ] final -113.33 input   66.30 | X-H torsion
[ 10763 10752 10751 10750 ] final  -21.72 input  -60.55 | X-H torsion
[ 11005 11000 10999 10996 ] final   64.43 input  -57.11 | X-H torsion

> <Gold.Protein.ActiveResidues>
 VAL166  LYS551  ARG553  GLY616  TRP617  ASP618  TYR619  PRO620  LYS621  CYS622 
 ASP623  PHE694  ASN695  SER759  ASP760  ASP761  ALA762  ILE779  LEU786  VAL792 
 PHE793  MET794  SER795  GLU796  ALA797  LYS798  CYS799  TRP800  GLU811  SER814 

> <Gold.Protein.RotatedAtoms>
  151.1922  133.4660  159.2594 H   0  0  0  0  0  0  0  0  0  0  0  0  # atno 6907 bound_to 6896
  151.1152  135.0049  159.8523 H   0  0  0  0  0  0  0  0  0  0  0  0  # atno 6908 bound_to 6896
  152.5453  134.1838  159.8699 H   0  0  0  0  0  0  0  0  0  0  0  0  # atno 6909 bound_to 6896
  146.1146  139.5908  142.9330 H   0  0  0  0  0  0  0  0  0  0  0  0  # atno 7974 bound_to 7965
  156.0227  140.3338  155.7056 H   0  0  0  0  0  0  0  0  0  0  0  0  # atno 8008 bound_to 7997
  155.5999  140.0654  157.2753 H   0  0  0  0  0  0  0  0  0  0  0  0  # atno 8009 bound_to 7997
  154.4322  140.1812  156.1150 H   0  0  0  0  0  0  0  0  0  0  0  0  # atno 8010 bound_to 7997
  140.3550  144.2301  150.6142 H   0  0  0  0  0  0  0  0  0  0  0  0  # atno 10167 bound_to 10162
  156.0760  130.5967  150.8627 H   0  0  0  0  0  0  0  0  0  0  0  0  # atno 10718 bound_to 10713
  153.6405  135.6985  153.5243 H   0  0  0  0  0  0  0  0  0  0  0  0  # atno 10763 bound_to 10752
  153.2786  135.4192  155.1056 H   0  0  0  0  0  0  0  0  0  0  0  0  # atno 10764 bound_to 10752
  154.8501  135.3596  154.5949 H   0  0  0  0  0  0  0  0  0  0  0  0  # atno 10765 bound_to 10752
  139.9959  134.6517  156.0010 H   0  0  0  0  0  0  0  0  0  0  0  0  # atno 11005 bound_to 11000
  145.5593  141.0406  143.2235 LP  0  0  0  0  0  0  0  0  0  0  0  0  # atno 17320 bound_to 7965
  144.7541  139.7118  143.7261 LP  0  0  0  0  0  0  0  0  0  0  0  0  # atno 17321 bound_to 7965
  140.5182  143.2272  151.8430 LP  0  0  0  0  0  0  0  0  0  0  0  0  # atno 17342 bound_to 10162
  139.4821  144.4868  151.9236 LP  0  0  0  0  0  0  0  0  0  0  0  0  # atno 17343 bound_to 10162
  157.5855  131.0945  150.9203 LP  0  0  0  0  0  0  0  0  0  0  0  0  # atno 17370 bound_to 10713
  156.9390  130.5377  149.5280 LP  0  0  0  0  0  0  0  0  0  0  0  0  # atno 17371 bound_to 10713
  141.1604  133.6539  156.4300 LP  0  0  0  0  0  0  0  0  0  0  0  0  # atno 17394 bound_to 11000
  140.4818  134.6657  157.5174 LP  0  0  0  0  0  0  0  0  0  0  0  0  # atno 17395 bound_to 11000

$$$$
