#       Name:                AV-unprocessed.smi:20
#       Creating user name   scv26
#       Creation time:       Thu Mar 26 15:28:38 2020


#       File generated by GOLD software.
#

@<TRIPOS>MOLECULE
AV-unprocessed.smi:20
    67    71     1
SMALL
NO_CHARGES


@<TRIPOS>ATOM
      1 ****        -5.9938   5.0066   0.6038 O.2            1 S1                 0.0000
      2 ****        -4.8194   4.9377   0.9584 C.2            1 S1                 0.0000
      3 ****        -3.8637   3.8467   0.5066 C.3            1 S1                 0.0000
      4 ****        -2.4732   4.4013   0.9006 C.3            1 S1                 0.0000
      5 ****        -1.7978   5.1473  -0.2815 C.3            1 S1                 0.0000
      6 ****        -1.2946   4.1793  -1.3667 C.3            1 S1                 0.0000
      7 ****        -0.3967   3.0903  -0.7631 C.3            1 S1                 0.0000
      8 ****        -1.0724   2.4176   0.3441 N.3            1 S1                 0.0000
      9 ****        -0.5302   1.2234   0.6931 C.ar           1 S1                 0.0000
     10 ****         0.0185   1.0609   1.9272 N.ar           1 S1                 0.0000
     11 ****         0.5610  -0.1092   2.2764 C.ar           1 S1                 0.0000
     12 ****         0.6587  -1.2308   1.5605 N.ar           1 S1                 0.0000
     13 ****         0.1061  -1.0756   0.3238 C.ar           1 S1                 0.0000
     14 ****        -0.5038   0.1048  -0.1869 C.ar           1 S1                 0.0000
     15 ****        -0.9647  -0.1230  -1.4788 N.2            1 S1                 0.0000
     16 ****        -0.6382  -1.3636  -1.7204 C.2            1 S1                 0.0000
     17 ****         0.0133  -2.0084  -0.6932 N.pl3          1 S1                 0.0000
     18 ****         0.4840  -3.3820  -0.6809 C.3            1 S1                 0.0000
     19 ****         2.0268  -3.5203  -0.7775 C.3            1 S1                 0.0000
     20 ****         2.5944  -2.8749  -2.0677 C.3            1 S1                 0.0000
     21 ****         2.6619  -1.4672  -1.9700 O.3            1 S1                 0.0000
     22 ****         2.4467  -5.0099  -0.6715 C.3            1 S1                 0.0000
     23 ****         3.9545  -5.2486  -0.6093 C.3            1 S1                 0.0000
     24 ****         4.1216  -6.4793   0.2875 C.3            1 S1                 0.0000
     25 ****         2.8063  -6.8755   0.6460 O.3            1 S1                 0.0000
     26 ****         1.9805  -5.7257   0.5985 C.3            1 S1                 0.0000
     27 ****        -1.5205   3.3015   1.4220 C.3            1 S1                 0.0000
     28 ****        -2.8188   5.4103   2.0216 C.3            1 S1                 0.0000
     29 ****        -4.1984   5.7832   1.7770 N.am           1 S1                 0.0000
     30 ****        -4.1027   2.9316   1.0497 H              1 S1                 0.0000
     31 ****        -3.9703   3.6443  -0.5586 H              1 S1                 0.0000
     32 ****        -2.4803   5.8760  -0.7209 H              1 S1                 0.0000
     33 ****        -0.9446   5.7169   0.0898 H              1 S1                 0.0000
     34 ****        -2.1360   3.7138  -1.8797 H              1 S1                 0.0000
     35 ****        -0.7440   4.7310  -2.1289 H              1 S1                 0.0000
     36 ****        -0.1067   2.3877  -1.5436 H              1 S1                 0.0000
     37 ****         0.5251   3.5372  -0.3883 H              1 S1                 0.0000
     38 ****         0.9769  -0.1529   3.2722 H              1 S1                 0.0000
     39 ****        -0.8608  -1.8441  -2.6620 H              1 S1                 0.0000
     40 ****         0.1130  -3.8334   0.2388 H              1 S1                 0.0000
     41 ****         0.0069  -3.9201  -1.5009 H              1 S1                 0.0000
     42 ****         2.4670  -3.0047   0.0775 H              1 S1                 0.0000
     43 ****         3.6097  -3.2146  -2.2676 H              1 S1                 0.0000
     44 ****         1.9960  -3.1533  -2.9355 H              1 S1                 0.0000
     45 ****         3.0284  -1.1269  -2.7720 H              1 S1                 0.0000
     46 ****         2.0501  -5.5574  -1.5284 H              1 S1                 0.0000
     47 ****         4.3761  -5.4119  -1.6016 H              1 S1                 0.0000
     48 ****         4.4728  -4.3983  -0.1640 H              1 S1                 0.0000
     49 ****         4.6397  -7.2943  -0.2186 H              1 S1                 0.0000
     50 ****         4.6838  -6.2262   1.1871 H              1 S1                 0.0000
     51 ****         2.1506  -5.1141   1.4865 H              1 S1                 0.0000
     52 ****         0.9281  -6.0084   0.5675 H              1 S1                 0.0000
     53 ****        -0.6451   3.7608   1.8837 H              1 S1                 0.0000
     54 ****        -2.0202   2.7216   2.1998 H              1 S1                 0.0000
     55 ****        -2.7608   4.9482   3.0083 H              1 S1                 0.0000
     56 ****        -2.1682   6.2853   2.0268 H              1 S1                 0.0000
     57 ****        -4.6333   6.5885   2.2037 H              1 S1                 0.0000
     58 ****        -6.5737   5.7503   0.9365 LP             1 S1                 0.0000
     59 ****        -6.3697   4.3191  -0.0175 LP             1 S1                 0.0000
     60 ****        -1.9531   2.1259  -0.0291 LP             1 S1                 0.0000
     61 ****         0.0158   1.8213   2.5766 LP             1 S1                 0.0000
     62 ****         1.0821  -2.0753   1.8883 LP             1 S1                 0.0000
     63 ****        -1.4379   0.5170  -2.0842 LP             1 S1                 0.0000
     64 ****         3.2435  -1.2105  -1.1981 LP             1 S1                 0.0000
     65 ****         1.7440  -1.0944  -1.8342 LP             1 S1                 0.0000
     66 ****         2.8058  -7.2569   1.5704 LP             1 S1                 0.0000
     67 ****         2.4704  -7.5626   0.0018 LP             1 S1                 0.0000
@<TRIPOS>BOND
    1    1    2 2     
    2    2   29 am    
    3    2    3 1     
    4    3    4 1     
    5    3   30 1     
    6    3   31 1     
    7    4   27 1     
    8    4    5 1     
    9    4   28 1     
   10    5    6 1     
   11    5   32 1     
   12    5   33 1     
   13    6    7 1     
   14    6   34 1     
   15    6   35 1     
   16    7    8 1     
   17    7   36 1     
   18    7   37 1     
   19    8    9 1     
   20    8   27 1     
   21    9   14 ar    
   22    9   10 ar    
   23   10   11 ar    
   24   11   12 ar    
   25   11   38 1     
   26   12   13 ar    
   27   13   17 1     
   28   13   14 ar    
   29   14   15 1     
   30   15   16 2     
   31   16   17 1     
   32   16   39 1     
   33   17   18 1     
   34   18   19 1     
   35   18   40 1     
   36   18   41 1     
   37   19   20 1     
   38   19   22 1     
   39   19   42 1     
   40   20   21 1     
   41   20   43 1     
   42   20   44 1     
   43   21   45 1     
   44   22   26 1     
   45   22   23 1     
   46   22   46 1     
   47   23   24 1     
   48   23   47 1     
   49   23   48 1     
   50   24   25 1     
   51   24   49 1     
   52   24   50 1     
   53   25   26 1     
   54   26   51 1     
   55   26   52 1     
   56   27   53 1     
   57   27   54 1     
   58   28   29 1     
   59   28   55 1     
   60   28   56 1     
   61   29   57 1     
   62    1   58 1     
   63    1   59 1     
   64    8   60 1     
   65   10   61 1     
   66   12   62 1     
   67   15   63 1     
   68   21   64 1     
   69   21   65 1     
   70   25   66 1     
   71   25   67 1     
@<TRIPOS>SUBSTRUCTURE
      1 S1             1
@<TRIPOS>SET
LONE_PAIRS      STATIC     ATOMS    <user>   **** ""
10 58 59 60 61 62 63 64 65 66 67
DONOR_HYDROGENS      STATIC     ATOMS    <user>   **** ""
2 45 57
ATOM$BLUE        STATIC     ATOMS    COLORGROUP SYSTEM
10 58 59 60 61 62 63 64 65 66 67
ATOM$RED        STATIC     ATOMS    COLORGROUP SYSTEM
2 45 57
