#       Name:                AV-unprocessed.smi:438
#       Creating user name   scv26
#       Creation time:       Thu Mar 26 22:54:18 2020


#       File generated by GOLD software.
#

@<TRIPOS>MOLECULE
AV-unprocessed.smi:438
    55    56     1
SMALL
NO_CHARGES


@<TRIPOS>ATOM
      1 ****        -4.7168   1.3139   3.0510 C.3            1 S1                 0.0000
      2 ****        -4.1520   0.3632   2.0106 C.2            1 S1                 0.0000
      3 ****        -2.7980   0.5124   1.7711 N.pl3          1 S1                 0.0000
      4 ****        -2.1840  -0.3182   0.8461 C.2            1 S1                 0.0000
      5 ****        -0.4104   0.0622   0.7502 S.3            1 S1                 0.0000
      6 ****         0.1578  -1.1464  -0.4808 C.3            1 S1                 0.0000
      7 ****         1.6707  -1.1054  -0.6742 C.2            1 S1                 0.0000
      8 ****         2.3640  -2.0408  -0.2761 O.2            1 S1                 0.0000
      9 ****         2.1630  -0.0108  -1.2800 N.am           1 S1                 0.0000
     10 ****         3.5693   0.3061  -1.5447 C.3            1 S1                 0.0000
     11 ****         4.2085  -0.6910  -2.5364 C.3            1 S1                 0.0000
     12 ****         5.6508  -0.2872  -2.8750 C.3            1 S1                 0.0000
     13 ****         6.4975  -0.1565  -1.6006 C.3            1 S1                 0.0000
     14 ****         5.8691   0.8423  -0.6154 C.3            1 S1                 0.0000
     15 ****         4.4191   0.4599  -0.2539 C.3            1 S1                 0.0000
     16 ****         3.8221   1.4796   0.7330 C.3            1 S1                 0.0000
     17 ****        -2.8155  -1.2290   0.1659 N.2            1 S1                 0.0000
     18 ****        -4.1930  -1.4183   0.3541 C.2            1 S1                 0.0000
     19 ****        -4.7996  -2.2716  -0.2921 O.2            1 S1                 0.0000
     20 ****        -4.8820  -0.5632   1.3439 C.2            1 S1                 0.0000
     21 ****        -6.3740  -0.7793   1.5811 C.3            1 S1                 0.0000
     22 ****        -7.2390  -0.0400   0.5503 C.3            1 S1                 0.0000
     23 ****        -8.6047  -0.2631   0.8254 O.3            1 S1                 0.0000
     24 ****        -5.5500   1.8812   2.6353 H              1 S1                 0.0000
     25 ****        -3.9656   2.0260   3.3954 H              1 S1                 0.0000
     26 ****        -5.0744   0.7588   3.9184 H              1 S1                 0.0000
     27 ****        -0.3365  -0.9533  -1.4337 H              1 S1                 0.0000
     28 ****        -0.1360  -2.1474  -0.1621 H              1 S1                 0.0000
     29 ****         1.4948   0.6907  -1.5647 H              1 S1                 0.0000
     30 ****         3.5483   1.2790  -2.0377 H              1 S1                 0.0000
     31 ****         4.2128  -1.6978  -2.1182 H              1 S1                 0.0000
     32 ****         3.6181  -0.7392  -3.4519 H              1 S1                 0.0000
     33 ****         6.0960  -1.0235  -3.5446 H              1 S1                 0.0000
     34 ****         5.6501   0.6614  -3.4135 H              1 S1                 0.0000
     35 ****         6.5928  -1.1319  -1.1219 H              1 S1                 0.0000
     36 ****         7.5082   0.1620  -1.8575 H              1 S1                 0.0000
     37 ****         6.4774   0.8905   0.2883 H              1 S1                 0.0000
     38 ****         5.8892   1.8415  -1.0526 H              1 S1                 0.0000
     39 ****         4.4581  -0.5036   0.2557 H              1 S1                 0.0000
     40 ****         3.7284   2.4649   0.2756 H              1 S1                 0.0000
     41 ****         4.4520   1.5823   1.6168 H              1 S1                 0.0000
     42 ****         2.8337   1.1762   1.0777 H              1 S1                 0.0000
     43 ****        -2.2969   1.2163   2.2940 H              1 S1                 0.0000
     44 ****        -6.6434  -0.4501   2.5845 H              1 S1                 0.0000
     45 ****        -6.5958  -1.8475   1.5620 H              1 S1                 0.0000
     46 ****        -7.0414   1.0321   0.5792 H              1 S1                 0.0000
     47 ****        -7.0210  -0.3854  -0.4606 H              1 S1                 0.0000
     48 ****        -9.1203   0.2000   0.1831 H              1 S1                 0.0000
     49 ****         1.9356  -2.8251   0.1728 LP             1 S1                 0.0000
     50 ****         3.3558  -2.0168  -0.4014 LP             1 S1                 0.0000
     51 ****        -2.3189  -1.7951  -0.4920 LP             1 S1                 0.0000
     52 ****        -4.3109  -2.8363  -0.9572 LP             1 S1                 0.0000
     53 ****        -5.7814  -2.4005  -0.1523 LP             1 S1                 0.0000
     54 ****        -8.8238   0.0747   1.7408 LP             1 S1                 0.0000
     55 ****        -8.8033  -1.2419   0.7750 LP             1 S1                 0.0000
@<TRIPOS>BOND
    1    1   24 1     
    2    1   25 1     
    3    1   26 1     
    4    1    2 1     
    5    2   20 2     
    6    2    3 1     
    7    3    4 1     
    8    3   43 1     
    9    4    5 1     
   10    4   17 2     
   11    5    6 1     
   12    6    7 1     
   13    6   27 1     
   14    6   28 1     
   15    7    8 2     
   16    7    9 am    
   17    9   10 1     
   18    9   29 1     
   19   10   15 1     
   20   10   11 1     
   21   10   30 1     
   22   11   12 1     
   23   11   31 1     
   24   11   32 1     
   25   12   13 1     
   26   12   33 1     
   27   12   34 1     
   28   13   14 1     
   29   13   35 1     
   30   13   36 1     
   31   14   15 1     
   32   14   37 1     
   33   14   38 1     
   34   15   16 1     
   35   15   39 1     
   36   16   40 1     
   37   16   41 1     
   38   16   42 1     
   39   17   18 1     
   40   18   19 2     
   41   18   20 1     
   42   20   21 1     
   43   21   22 1     
   44   21   44 1     
   45   21   45 1     
   46   22   23 1     
   47   22   46 1     
   48   22   47 1     
   49   23   48 1     
   50    8   49 1     
   51    8   50 1     
   52   17   51 1     
   53   19   52 1     
   54   19   53 1     
   55   23   54 1     
   56   23   55 1     
@<TRIPOS>SUBSTRUCTURE
      1 S1             1
@<TRIPOS>SET
LONE_PAIRS      STATIC     ATOMS    <user>   **** ""
7 49 50 51 52 53 54 55
DONOR_HYDROGENS      STATIC     ATOMS    <user>   **** ""
3 43 29 48
ATOM$BLUE        STATIC     ATOMS    COLORGROUP SYSTEM
7 49 50 51 52 53 54 55
ATOM$RED        STATIC     ATOMS    COLORGROUP SYSTEM
3 43 29 48
