#       Name:                AV-unprocessed.smi:1883
#       Creating user name   scv26
#       Creation time:       Fri Mar 27 09:37:20 2020


#       File generated by GOLD software.
#

@<TRIPOS>MOLECULE
AV-unprocessed.smi:1883
    38    40     1
SMALL
NO_CHARGES


@<TRIPOS>ATOM
      1 ****        -1.4698  -0.0739   3.1846 C.3            1 S1                 0.0000
      2 ****        -1.4977   0.8676   2.0277 C.2            1 S1                 0.0000
      3 ****        -1.9698   2.1463   2.0451 N.pl3          1 S1                 1.0000
      4 ****        -1.8361   2.7163   0.7781 C.ar           1 S1                 0.0000
      5 ****        -2.1726   3.9814   0.3066 C.ar           1 S1                 0.0000
      6 ****        -1.9020   4.2427  -1.0529 C.ar           1 S1                 0.0000
      7 ****        -1.3184   3.2664  -1.8866 C.ar           1 S1                 0.0000
      8 ****        -0.9812   1.9872  -1.3973 C.ar           1 S1                 0.0000
      9 ****        -1.2535   1.7376  -0.0526 C.ar           1 S1                 0.0000
     10 ****        -1.0633   0.6152   0.7599 N.pl3          1 S1                 0.0000
     11 ****        -0.4692  -0.5979   0.1785 C.3            1 S1                 0.0000
     12 ****         1.0655  -0.5206   0.0553 C.3            1 S1                 0.0000
     13 ****         1.6361  -0.2769   1.3271 O.3            1 S1                 0.0000
     14 ****         1.6220  -1.7715  -0.6111 C.ar           1 S1                 0.0000
     15 ****         1.9293  -2.9189   0.1547 C.ar           1 S1                 0.0000
     16 ****         2.4290  -4.0785  -0.4690 C.ar           1 S1                 0.0000
     17 ****         2.7211  -5.1732   0.2720 F              1 S1                 0.0000
     18 ****         2.6222  -4.1008  -1.8629 C.ar           1 S1                 0.0000
     19 ****         2.3123  -2.9639  -2.6330 C.ar           1 S1                 0.0000
     20 ****         1.8110  -1.8035  -2.0115 C.ar           1 S1                 0.0000
     21 ****         1.5055  -0.7224  -2.7691 F              1 S1                 0.0000
     22 ****        -1.7724   0.4344   4.1004 H              1 S1                 0.0000
     23 ****        -0.4642  -0.4707   3.3251 H              1 S1                 0.0000
     24 ****        -2.1514  -0.9059   3.0074 H              1 S1                 0.0000
     25 ****        -2.6194   4.7309   0.9432 H              1 S1                 0.0000
     26 ****        -2.1466   5.2114  -1.4641 H              1 S1                 0.0000
     27 ****        -1.1252   3.5034  -2.9228 H              1 S1                 0.0000
     28 ****        -0.5330   1.2464  -2.0428 H              1 S1                 0.0000
     29 ****        -0.7573  -1.4433   0.8045 H              1 S1                 0.0000
     30 ****        -0.9289  -0.7685  -0.7960 H              1 S1                 0.0000
     31 ****         1.3313   0.3390  -0.5602 H              1 S1                 0.0000
     32 ****         2.5645  -0.1377   1.2171 H              1 S1                 0.0000
     33 ****         1.7793  -2.9180   1.2245 H              1 S1                 0.0000
     34 ****         3.0040  -4.9905  -2.3416 H              1 S1                 0.0000
     35 ****         2.4564  -2.9832  -3.7032 H              1 S1                 0.0000
     36 ****        -2.3564   2.5940   2.8660 H              1 S1                 0.0000
     37 ****         1.4813  -1.0649   1.9230 LP             1 S1                 0.0000
     38 ****         1.2189   0.5357   1.7340 LP             1 S1                 0.0000
@<TRIPOS>BOND
    1    1    2 1     
    2    1   22 1     
    3    1   23 1     
    4    1   24 1     
    5    2   10 1     
    6    2    3 2     
    7    3    4 1     
    8    3   36 1     
    9    4    9 ar    
   10    4    5 ar    
   11    5    6 ar    
   12    5   25 1     
   13    6    7 ar    
   14    6   26 1     
   15    7    8 ar    
   16    7   27 1     
   17    8    9 ar    
   18    8   28 1     
   19    9   10 1     
   20   10   11 1     
   21   11   12 1     
   22   11   29 1     
   23   11   30 1     
   24   12   13 1     
   25   12   14 1     
   26   12   31 1     
   27   13   32 1     
   28   14   20 ar    
   29   14   15 ar    
   30   15   16 ar    
   31   15   33 1     
   32   16   17 1     
   33   16   18 ar    
   34   18   19 ar    
   35   18   34 1     
   36   19   20 ar    
   37   19   35 1     
   38   20   21 1     
   39   13   37 1     
   40   13   38 1     
@<TRIPOS>SUBSTRUCTURE
      1 S1             1
@<TRIPOS>SET
LONE_PAIRS      STATIC     ATOMS    <user>   **** ""
2 37 38
DONOR_HYDROGENS      STATIC     ATOMS    <user>   **** ""
2 36 32
ATOM$BLUE        STATIC     ATOMS    COLORGROUP SYSTEM
2 37 38
ATOM$RED        STATIC     ATOMS    COLORGROUP SYSTEM
2 36 32
