AV-unprocessed.smi:2703|AV-procd|sdf|10439|dock8
  -GOLD-   2272014483D 1   1.00000     0.00000
 Structure written by MMmdl.
 42 44  0  0  0  0  0  0  0  0  3 V2000
  152.6934  142.9488  161.4920 C   0  0  0  0  0  0  0  0  0  0  0  0
  152.2502  142.6628  160.0680 C   0  0  0  0  0  0  0  0  0  0  0  0
  152.6320  141.4452  159.4612 C   0  0  0  0  0  0  0  0  0  0  0  0
  152.2429  141.1419  158.1381 C   0  0  0  0  0  0  0  0  0  0  0  0
  152.5041  140.0278  157.3591 N   0  0  0  0  0  0  0  0  0  0  0  0
  151.8770  140.3393  156.2288 C   0  0  0  0  0  0  0  0  0  0  0  0
  151.2368  141.5234  156.1835 N   0  0  0  0  0  0  0  0  0  0  0  0
  150.4948  142.0687  155.0603 C   0  0  0  0  0  0  0  0  0  0  0  0
  149.5471  141.0362  154.4217 C   0  0  1  0  0  0  0  0  0  0  0  0
  150.3011  140.0896  153.6889 O   0  0  0  0  0  0  0  0  0  0  0  0
  148.7009  140.3040  155.4757 C   0  0  0  0  0  0  0  0  0  0  0  0
  147.8747  141.4579  156.6105 S   0  0  0  0  0  0  0  0  0  0  0  0
  146.9136  142.5939  155.6391 C   0  0  0  0  0  0  0  0  0  0  0  0
  147.0405  142.6743  154.2345 C   0  0  0  0  0  0  0  0  0  0  0  0
  146.2550  143.5885  153.5155 C   0  0  0  0  0  0  0  0  0  0  0  0
  145.3568  144.4070  154.2159 C   0  0  0  0  0  0  0  0  0  0  0  0
  145.2645  144.2941  155.6163 C   0  0  0  0  0  0  0  0  0  0  0  0
  146.0306  143.4023  156.3168 N   0  3  0  0  0  0  0  0  0  0  0  0
  145.9081  143.3365  157.5969 O   0  5  0  0  0  0  0  0  0  0  0  0
  151.4531  142.0968  157.4326 C   0  0  0  0  0  0  0  0  0  0  0  0
  151.0652  143.3108  158.0270 C   0  0  0  0  0  0  0  0  0  0  0  0
  151.4643  143.5990  159.3492 C   0  0  0  0  0  0  0  0  0  0  0  0
  151.0442  144.9149  159.9802 C   0  0  0  0  0  0  0  0  0  0  0  0
  153.3033  142.1374  161.8903 H   0  0  0  0  0  0  0  0  0  0  0  0
  151.8278  143.0672  162.1441 H   0  0  0  0  0  0  0  0  0  0  0  0
  153.2861  143.8629  161.5317 H   0  0  0  0  0  0  0  0  0  0  0  0
  153.2306  140.7317  160.0081 H   0  0  0  0  0  0  0  0  0  0  0  0
  151.8812  139.6672  155.3831 H   0  0  0  0  0  0  0  0  0  0  0  0
  149.9366  142.9436  155.3957 H   0  0  0  0  0  0  0  0  0  0  0  0
  151.2148  142.4240  154.3221 H   0  0  0  0  0  0  0  0  0  0  0  0
  148.8810  141.5489  153.7264 H   0  0  0  0  0  0  0  0  0  0  0  0
  149.9572  140.0506  152.8091 H   0  0  0  0  0  0  0  0  0  0  0  0
  147.9535  139.6737  154.9923 H   0  0  0  0  0  0  0  0  0  0  0  0
  149.3410  139.6501  156.0688 H   0  0  0  0  0  0  0  0  0  0  0  0
  147.7338  142.0459  153.6978 H   0  0  0  0  0  0  0  0  0  0  0  0
  146.3407  143.6611  152.4412 H   0  0  0  0  0  0  0  0  0  0  0  0
  144.7415  145.1189  153.6857 H   0  0  0  0  0  0  0  0  0  0  0  0
  144.5974  144.8903  156.2220 H   0  0  0  0  0  0  0  0  0  0  0  0
  150.4649  144.0146  157.4700 H   0  0  0  0  0  0  0  0  0  0  0  0
  150.4185  145.4989  159.3045 H   0  0  0  0  0  0  0  0  0  0  0  0
  151.9202  145.5147  160.2280 H   0  0  0  0  0  0  0  0  0  0  0  0
  150.4750  144.7386  160.8930 H   0  0  0  0  0  0  0  0  0  0  0  0
  1  2  1  0  0  0  0
  1 24  1  0  0  0  0
  1 25  1  0  0  0  0
  1 26  1  0  0  0  0
  2 22  1  0  0  0  0
  2  3  2  0  0  0  0
  3  4  1  0  0  0  0
  3 27  1  0  0  0  0
  4 20  2  0  0  0  0
  4  5  1  0  0  0  0
  5  6  2  0  0  0  0
  6  7  1  0  0  0  0
  6 28  1  0  0  0  0
  7  8  1  0  0  0  0
  7 20  1  0  0  0  0
  8  9  1  0  0  0  0
  8 29  1  0  0  0  0
  8 30  1  0  0  0  0
  9 10  1  0  0  0  0
  9 11  1  0  0  0  0
  9 31  1  0  0  0  0
 10 32  1  0  0  0  0
 11 12  1  0  0  0  0
 11 33  1  0  0  0  0
 11 34  1  0  0  0  0
 12 13  1  0  0  0  0
 13 18  1  0  0  0  0
 13 14  2  0  0  0  0
 14 15  1  0  0  0  0
 14 35  1  0  0  0  0
 15 16  2  0  0  0  0
 15 36  1  0  0  0  0
 16 17  1  0  0  0  0
 16 37  1  0  0  0  0
 17 18  2  0  0  0  0
 17 38  1  0  0  0  0
 18 19  1  0  0  0  0
 20 21  1  0  0  0  0
 21 22  2  0  0  0  0
 21 39  1  0  0  0  0
 22 23  1  0  0  0  0
 23 40  1  0  0  0  0
 23 41  1  0  0  0  0
 23 42  1  0  0  0  0
M  CHG  1  18   1
M  CHG  1  19  -1
M  END
> <s_m_source_file>
AV-unprocessed.smi

> <i_m_source_file_index>
2703

> <i_lp_mmshare_version>
43012

> <i_f3d_flags>
0

> <s_epik_input>
W0NIM11jKFtjSF0xKWMoW0NIM10pW2NIXWMoYzEyKW4oW2NIXW4yKVtDSDJdW0NASF0oW09IXSlbQ0gyXVNjM1tjSF1bY0hdW2NIXVtjSF1bbitdM1tPLV0=

> <s_epik_cmdline>
J2VwaWtfcHl0aG9uJywgJy1waCcsICc3LjAnLCAnLXRuJywgJzgnLCAnLW1hJywgJzIwMCcsICctbWV0YWxfYmluZGluZycsICctaW1hZScsICc8aW5maWxlLm1hZT4nLCAnLW9tYWUnLCAnPG91dGZpbGUubWFlPic=

> <r_epik_Ionization_Penalty>
0.106001

> <r_epik_Ionization_Penalty_Charging>
1.39204e-07

> <r_epik_Ionization_Penalty_Neutral>
0.106001

> <r_epik_State_Penalty>
0.0958598

> <r_epik_Charging_Adjusted_Penalty>
0.0958599

> <i_epik_Tot_Q>
0

> <i_epik_Tot_abs_Q>
2

> <r_epik_Metal_State_Penalty>
0.000104041

> <b_epik_Metal_Only>
0

> <s_lp_Force_Field>
OPLS_2005

> <r_lp_Energy>
17.7295

> <b_lp_Chiralities_Consistent>
1

> <s_lp_Variant>
AV-unprocessed.smi:2703-2

> <Gold.Version>
5.8.1

> <Gold.Id.Protein>
6NUR|6NUR_protein|mol2

> <Gold.PLP.Fitness>
55.3901

> <Gold.PLP.PLP>
-47.4408

> <Gold.PLP.part.hbond>
-3.0000

> <Gold.PLP.part.metal>
0.0000

> <Gold.PLP.part.buried>
-5.6791

> <Gold.PLP.part.nonpolar>
-38.9254

> <Gold.PLP.part.repulsive>
0.1077

> <Gold.PLP.ligand.clash>
0.0167

> <Gold.PLP.ligand.torsion>
0.4014

> <Gold.PLP.Chemscore.Hbond>
2.9120

> <Gold.PLP.Chemscore.CHOScore>
0.0000

> <Gold.PLP.Chemscore.Metal>
0.0000

> <Gold.Chemscore.Hbonds>
donor molecule, donor type, donor heavy atom, donor atom, acceptor molecule, acceptor atom, score
      L1  H    10    32       P1  7957  1.00
      P1  H  7989  7998       L1    10  0.82
      P1  H  7997  8010       L1     5  0.80

> <Gold.PLP.Chemscore.Internal.Correction>
0.0328

> <Gold.Rescore>
     Score         DG    S(hbond)    S(metal)    S(lipo)     H(rot)  DE(clash)    DE(int)     intcor
     16.63     -18.74       1.49        0.00     120.15       2.26       0.66       1.45       ----

> <Gold.Chemscore.Fitness>
16.6328

> <Gold.Chemscore.DG>
-18.7436

> <Gold.Chemscore.ZeroCoef>
-5.4800

> <Gold.Chemscore.Hbond>
1.4912

> <Gold.Chemscore.Metal>
0.0000

> <Gold.Chemscore.Lipo>
120.1527

> <Gold.Chemscore.Internal_Hbond>
0.0000

> <Gold.Chemscore.DEClash>
0.6622

> <Gold.Chemscore.DEInternal>
1.4485

> <Gold.Chemscore.Rot>
2.2558

> <Gold.Chemscore.Internal.Correction>
   9.000000E+99

> <Gold.Chemscore.Hbonds>
donor molecule, donor type, donor heavy atom, donor atom, acceptor molecule, acceptor atom, score
      L1  H    10    32       P1  7957  1.00
      P1  H  7989  7998       L1    10  0.07
      P1  H  7997  8010       L1     5  0.09

> <Gold.Chemscore.Hbond.Weighted>
-4.9805

> <Gold.Chemscore.Metal.Weighted>
-0.0000

> <Gold.Chemscore.Lipo.Weighted>
-14.0579

> <Gold.Chemscore.Internal_Hbond.Weighted>
0.0000

> <Gold.Chemscore.DEClash.Weighted>
0.6622

> <Gold.Chemscore.DEInternal.Weighted>
1.4485

> <Gold.Chemscore.Rot.Weighted>
5.7748

> <Gold.Chemscore.Internal.Correction.Weighted>
   9.000000E+99

> <Gold.Protein.RotatedTorsions>
[ 6907 6896 6895 6894 ] final   74.49 input  -60.11 | X-H torsion
[ 7974 7965 7964 7962 ] final  -68.22 input  175.53 | X-H torsion
[ 8008 7997 7996 7995 ] final   63.47 input   59.86 | X-H torsion
[ 10167 10162 10161 10158 ] final   89.39 input  -65.29 | X-H torsion
[ 10718 10713 10712 10709 ] final   60.79 input   66.30 | X-H torsion
[ 10763 10752 10751 10750 ] final   75.93 input  -60.55 | X-H torsion
[ 11005 11000 10999 10996 ] final -124.92 input  -57.11 | X-H torsion

> <Gold.Protein.ActiveResidues>
 VAL166  LYS551  ARG553  GLY616  TRP617  ASP618  TYR619  PRO620  LYS621  CYS622 
 ASP623  PHE694  ASN695  SER759  ASP760  ASP761  ALA762  ILE779  LEU786  VAL792 
 PHE793  MET794  SER795  GLU796  ALA797  LYS798  CYS799  TRP800  GLU811  SER814 

> <Gold.Protein.RotatedAtoms>
  152.4978  134.4264  159.9497 H   0  0  0  0  0  0  0  0  0  0  0  0  # atno 6907 bound_to 6896
  151.4239  133.3684  159.2767 H   0  0  0  0  0  0  0  0  0  0  0  0  # atno 6908 bound_to 6896
  150.9203  134.8643  159.7544 H   0  0  0  0  0  0  0  0  0  0  0  0  # atno 6909 bound_to 6896
  145.7193  140.9045  143.0639 H   0  0  0  0  0  0  0  0  0  0  0  0  # atno 7974 bound_to 7965
  155.6307  140.3496  155.4682 H   0  0  0  0  0  0  0  0  0  0  0  0  # atno 8008 bound_to 7997
  156.0005  140.1212  157.0575 H   0  0  0  0  0  0  0  0  0  0  0  0  # atno 8009 bound_to 7997
  154.4247  140.1101  156.5677 H   0  0  0  0  0  0  0  0  0  0  0  0  # atno 8010 bound_to 7997
  139.8577  144.6560  150.9095 H   0  0  0  0  0  0  0  0  0  0  0  0  # atno 10167 bound_to 10162
  157.5779  130.8958  149.9380 H   0  0  0  0  0  0  0  0  0  0  0  0  # atno 10718 bound_to 10713
  153.0689  135.4970  154.8261 H   0  0  0  0  0  0  0  0  0  0  0  0  # atno 10763 bound_to 10752
  154.6994  135.2999  154.9366 H   0  0  0  0  0  0  0  0  0  0  0  0  # atno 10764 bound_to 10752
  154.0095  135.6756  153.4817 H   0  0  0  0  0  0  0  0  0  0  0  0  # atno 10765 bound_to 10752
  140.9803  134.0683  157.3772 H   0  0  0  0  0  0  0  0  0  0  0  0  # atno 11005 bound_to 11000
  144.6921  139.9181  143.7466 LP  0  0  0  0  0  0  0  0  0  0  0  0  # atno 17320 bound_to 7965
  146.0640  139.3632  143.0563 LP  0  0  0  0  0  0  0  0  0  0  0  0  # atno 17321 bound_to 7965
  140.7779  143.3771  151.1543 LP  0  0  0  0  0  0  0  0  0  0  0  0  # atno 17342 bound_to 10162
  139.7404  143.8934  152.3048 LP  0  0  0  0  0  0  0  0  0  0  0  0  # atno 17343 bound_to 10162
  156.0824  130.3671  150.0553 LP  0  0  0  0  0  0  0  0  0  0  0  0  # atno 17370 bound_to 10713
  156.8697  130.9520  151.3610 LP  0  0  0  0  0  0  0  0  0  0  0  0  # atno 17371 bound_to 10713
  139.8947  135.0137  156.6966 LP  0  0  0  0  0  0  0  0  0  0  0  0  # atno 17394 bound_to 11000
  140.7197  133.9152  155.8138 LP  0  0  0  0  0  0  0  0  0  0  0  0  # atno 17395 bound_to 11000

$$$$
