AV-unprocessed.smi:1610|AV-procd|sdf|6471|dock10
  -GOLD-   22720 7133D 1   1.00000     0.00000
 Structure written by MMmdl.
 45 46  0  0  0  0  0  0  0  0  2 V2000
  149.5376  140.8057  153.5914 C   0  0  0  0  0  0  0  0  0  0  0  0
  150.8137  140.7562  154.9149 S   0  0  0  0  0  0  0  0  0  0  0  0
  152.0018  140.0579  154.4008 O   0  0  0  0  0  0  0  0  0  0  0  0
  150.9348  142.1043  155.4898 O   0  0  0  0  0  0  0  0  0  0  0  0
  150.0880  139.7522  156.1164 N   0  0  0  0  0  0  0  0  0  0  0  0
  150.3519  138.3128  156.1669 C   0  0  0  0  0  0  0  0  0  0  0  0
  150.1944  137.6932  154.7622 C   0  0  0  0  0  0  0  0  0  0  0  0
  150.2811  136.1583  154.8277 C   0  0  0  0  0  0  0  0  0  0  0  0
  149.2557  135.6667  155.7641 N   0  0  0  0  0  0  0  0  0  0  0  0
  148.1035  135.0291  155.4349 C   0  0  0  0  0  0  0  0  0  0  0  0
  147.1874  134.8310  156.2341 O   0  0  0  0  0  0  0  0  0  0  0  0
  148.0295  134.6240  154.1565 N   0  0  0  0  0  0  0  0  0  0  0  0
  146.8946  133.9224  153.5737 C   0  0  0  0  0  0  0  0  0  0  0  0
  146.3287  134.7074  152.3832 C   0  0  0  0  0  0  0  0  0  0  0  0
  145.5042  133.8294  151.4621 C   0  0  0  0  0  0  0  0  0  0  0  0
  146.0696  132.6787  150.8692 C   0  0  0  0  0  0  0  0  0  0  0  0
  145.2801  131.8840  150.0121 C   0  0  0  0  0  0  0  0  0  0  0  0
  143.9430  132.2582  149.7666 C   0  0  0  0  0  0  0  0  0  0  0  0
  143.4369  133.3664  150.3511 N   0  3  0  0  0  0  0  0  0  0  0  0
  144.1601  134.1537  151.1774 C   0  0  0  0  0  0  0  0  0  0  0  0
  149.5360  136.1097  157.1361 C   0  0  0  0  0  0  0  0  0  0  0  0
  149.4172  137.6439  157.1959 C   0  0  0  0  0  0  0  0  0  0  0  0
  149.8727  141.4672  152.7930 H   0  0  0  0  0  0  0  0  0  0  0  0
  148.5996  141.1796  154.0007 H   0  0  0  0  0  0  0  0  0  0  0  0
  149.3880  139.8049  153.1876 H   0  0  0  0  0  0  0  0  0  0  0  0
  149.1527  140.0403  156.4033 H   0  0  0  0  0  0  0  0  0  0  0  0
  151.3793  138.1552  156.4983 H   0  0  0  0  0  0  0  0  0  0  0  0
  149.2326  137.9802  154.3340 H   0  0  0  0  0  0  0  0  0  0  0  0
  150.9600  138.0791  154.0892 H   0  0  0  0  0  0  0  0  0  0  0  0
  150.2049  135.7382  153.8248 H   0  0  0  0  0  0  0  0  0  0  0  0
  151.2666  135.8589  155.1878 H   0  0  0  0  0  0  0  0  0  0  0  0
  148.8137  134.8177  153.5506 H   0  0  0  0  0  0  0  0  0  0  0  0
  147.2166  132.9302  153.2542 H   0  0  0  0  0  0  0  0  0  0  0  0
  146.1201  133.7834  154.3303 H   0  0  0  0  0  0  0  0  0  0  0  0
  145.7069  135.5304  152.7389 H   0  0  0  0  0  0  0  0  0  0  0  0
  147.1406  135.1599  151.8121 H   0  0  0  0  0  0  0  0  0  0  0  0
  147.0969  132.4081  151.0663 H   0  0  0  0  0  0  0  0  0  0  0  0
  145.6949  131.0006  149.5489 H   0  0  0  0  0  0  0  0  0  0  0  0
  143.2684  131.7098  149.1250 H   0  0  0  0  0  0  0  0  0  0  0  0
  143.6447  135.0134  151.5810 H   0  0  0  0  0  0  0  0  0  0  0  0
  148.8697  135.6572  157.8720 H   0  0  0  0  0  0  0  0  0  0  0  0
  150.5426  135.7994  157.4204 H   0  0  0  0  0  0  0  0  0  0  0  0
  149.6519  137.9980  158.2005 H   0  0  0  0  0  0  0  0  0  0  0  0
  148.3824  137.9303  157.0006 H   0  0  0  0  0  0  0  0  0  0  0  0
  142.4672  133.6199  150.1596 H   0  0  0  0  0  0  0  0  0  0  0  0
  1  2  1  0  0  0  0
  1 23  1  0  0  0  0
  1 24  1  0  0  0  0
  1 25  1  0  0  0  0
  2  3  2  0  0  0  0
  2  4  2  0  0  0  0
  2  5  1  0  0  0  0
  5  6  1  0  0  0  0
  5 26  1  0  0  0  0
  6 22  1  0  0  0  0
  6  7  1  0  0  0  0
  6 27  1  0  0  0  0
  7  8  1  0  0  0  0
  7 28  1  0  0  0  0
  7 29  1  0  0  0  0
  8  9  1  0  0  0  0
  8 30  1  0  0  0  0
  8 31  1  0  0  0  0
  9 10  1  0  0  0  0
  9 21  1  0  0  0  0
 10 11  2  0  0  0  0
 10 12  1  0  0  0  0
 12 13  1  0  0  0  0
 12 32  1  0  0  0  0
 13 14  1  0  0  0  0
 13 33  1  0  0  0  0
 13 34  1  0  0  0  0
 14 15  1  0  0  0  0
 14 35  1  0  0  0  0
 14 36  1  0  0  0  0
 15 20  1  0  0  0  0
 15 16  2  0  0  0  0
 16 17  1  0  0  0  0
 16 37  1  0  0  0  0
 17 18  2  0  0  0  0
 17 38  1  0  0  0  0
 18 19  1  0  0  0  0
 18 39  1  0  0  0  0
 19 20  2  0  0  0  0
 19 45  1  0  0  0  0
 20 40  1  0  0  0  0
 21 22  1  0  0  0  0
 21 41  1  0  0  0  0
 21 42  1  0  0  0  0
 22 43  1  0  0  0  0
 22 44  1  0  0  0  0
M  CHG  1  19   1
M  END
> <s_m_source_file>
AV-unprocessed.smi

> <i_m_source_file_index>
1610

> <i_lp_mmshare_version>
43012

> <i_f3d_flags>
0

> <s_epik_input>
W0NIM11TKD1PKSg9TylbTkhdW0NIXTFbQ0gyXVtDSDJdTihbQ0gyXVtDSDJdMSlDKD1PKVtOSF1bQ0gyXVtDSDJdYzJbY0hdW2NIXVtjSF1uW2NIXTI=

> <s_epik_cmdline>
J2VwaWtfcHl0aG9uJywgJy1waCcsICc3LjAnLCAnLXRuJywgJzgnLCAnLW1hJywgJzIwMCcsICctbWV0YWxfYmluZGluZycsICctaW1hZScsICc8aW5maWxlLm1hZT4nLCAnLW9tYWUnLCAnPG91dGZpbGUubWFlPic=

> <r_epik_Ionization_Penalty>
2.20747

> <r_epik_Ionization_Penalty_Charging>
2.20741

> <r_epik_Ionization_Penalty_Neutral>
6.06433e-05

> <r_epik_State_Penalty>
2.35137

> <r_epik_Charging_Adjusted_Penalty>
4.55877

> <i_epik_Tot_Q>
1

> <i_epik_Tot_abs_Q>
1

> <r_epik_Metal_State_Penalty>
2.37242

> <b_epik_Metal_Only>
0

> <s_lp_Force_Field>
OPLS_2005

> <r_lp_Energy>
29.2562

> <b_lp_Chiralities_Consistent>
1

> <s_lp_Variant>
AV-unprocessed.smi:1610-2

> <Gold.Version>
5.8.1

> <Gold.Id.Protein>
6NUR|6NUR_protein|mol2

> <Gold.PLP.Fitness>
43.3627

> <Gold.PLP.PLP>
-33.1488

> <Gold.PLP.part.hbond>
-2.9687

> <Gold.PLP.part.metal>
0.0000

> <Gold.PLP.part.buried>
-4.2262

> <Gold.PLP.part.nonpolar>
-26.1502

> <Gold.PLP.part.repulsive>
0.1659

> <Gold.PLP.ligand.clash>
0.0000

> <Gold.PLP.ligand.torsion>
0.7450

> <Gold.PLP.Chemscore.Hbond>
3.5497

> <Gold.PLP.Chemscore.CHOScore>
0.0000

> <Gold.PLP.Chemscore.Metal>
0.0000

> <Gold.Chemscore.Hbonds>
donor molecule, donor type, donor heavy atom, donor atom, acceptor molecule, acceptor atom, score
      L1  H    12    32       P1  7948  0.40
      L1  H    19    45       P1 10186  2.00

> <Gold.PLP.Chemscore.Internal.Correction>
1.0548

> <Gold.Rescore>
     Score         DG    S(hbond)    S(metal)    S(lipo)     H(rot)  DE(clash)    DE(int)     intcor
     16.07     -17.24       2.24        0.00      76.24       1.81       0.41       0.76       ----

> <Gold.Chemscore.Fitness>
16.0724

> <Gold.Chemscore.DG>
-17.2419

> <Gold.Chemscore.ZeroCoef>
-5.4800

> <Gold.Chemscore.Hbond>
2.2398

> <Gold.Chemscore.Metal>
0.0000

> <Gold.Chemscore.Lipo>
76.2446

> <Gold.Chemscore.Internal_Hbond>
0.0000

> <Gold.Chemscore.DEClash>
0.4056

> <Gold.Chemscore.DEInternal>
0.7639

> <Gold.Chemscore.Rot>
1.8123

> <Gold.Chemscore.Internal.Correction>
   9.000000E+99

> <Gold.Chemscore.Hbonds>
donor molecule, donor type, donor heavy atom, donor atom, acceptor molecule, acceptor atom, score
      L1  H    12    32       P1  7948  0.17
      L1  H    19    45       P1 10186  1.00

> <Gold.Chemscore.Hbond.Weighted>
-7.4808

> <Gold.Chemscore.Metal.Weighted>
-0.0000

> <Gold.Chemscore.Lipo.Weighted>
-8.9206

> <Gold.Chemscore.Internal_Hbond.Weighted>
0.0000

> <Gold.Chemscore.DEClash.Weighted>
0.4056

> <Gold.Chemscore.DEInternal.Weighted>
0.7639

> <Gold.Chemscore.Rot.Weighted>
4.6395

> <Gold.Chemscore.Internal.Correction.Weighted>
   9.000000E+99

> <Gold.Protein.RotatedTorsions>
[ 6907 6896 6895 6894 ] final  -52.31 input  -60.11 | X-H torsion
[ 7974 7965 7964 7962 ] final  130.70 input  175.53 | X-H torsion
[ 8008 7997 7996 7995 ] final  103.53 input   59.86 | X-H torsion
[ 10167 10162 10161 10158 ] final -174.78 input  -65.29 | X-H torsion
[ 10718 10713 10712 10709 ] final -156.78 input   66.30 | X-H torsion
[ 10763 10752 10751 10750 ] final  153.97 input  -60.55 | X-H torsion
[ 11005 11000 10999 10996 ] final  177.37 input  -57.11 | X-H torsion

> <Gold.Protein.ActiveResidues>
 VAL166  LYS551  ARG553  GLY616  TRP617  ASP618  TYR619  PRO620  LYS621  CYS622 
 ASP623  PHE694  ASN695  SER759  ASP760  ASP761  ALA762  ILE779  LEU786  VAL792 
 PHE793  MET794  SER795  GLU796  ALA797  LYS798  CYS799  TRP800  GLU811  SER814 

> <Gold.Protein.RotatedAtoms>
  150.8529  134.7859  159.7022 H   0  0  0  0  0  0  0  0  0  0  0  0  # atno 6907 bound_to 6896
  152.4589  134.5226  159.9797 H   0  0  0  0  0  0  0  0  0  0  0  0  # atno 6908 bound_to 6896
  151.5344  133.3405  159.2959 H   0  0  0  0  0  0  0  0  0  0  0  0  # atno 6909 bound_to 6896
  145.0151  139.4183  143.5225 H   0  0  0  0  0  0  0  0  0  0  0  0  # atno 7974 bound_to 7965
  156.1492  140.3163  155.8620 H   0  0  0  0  0  0  0  0  0  0  0  0  # atno 8008 bound_to 7997
  155.4004  140.0499  157.3054 H   0  0  0  0  0  0  0  0  0  0  0  0  # atno 8009 bound_to 7997
  154.5043  140.2141  155.9294 H   0  0  0  0  0  0  0  0  0  0  0  0  # atno 8010 bound_to 7997
  139.5616  144.1857  152.1247 H   0  0  0  0  0  0  0  0  0  0  0  0  # atno 10167 bound_to 10162
  156.5313  130.8522  151.2717 H   0  0  0  0  0  0  0  0  0  0  0  0  # atno 10718 bound_to 10713
  154.1448  135.2818  155.3151 H   0  0  0  0  0  0  0  0  0  0  0  0  # atno 10763 bound_to 10752
  154.6261  135.5451  153.7632 H   0  0  0  0  0  0  0  0  0  0  0  0  # atno 10764 bound_to 10752
  153.0239  135.6451  154.1593 H   0  0  0  0  0  0  0  0  0  0  0  0  # atno 10765 bound_to 10752
  140.3833  134.6927  157.4464 H   0  0  0  0  0  0  0  0  0  0  0  0  # atno 11005 bound_to 11000
  146.3476  139.9618  142.8716 LP  0  0  0  0  0  0  0  0  0  0  0  0  # atno 17320 bound_to 7965
  145.1970  140.9837  143.4178 LP  0  0  0  0  0  0  0  0  0  0  0  0  # atno 17321 bound_to 7965
  140.1371  144.5236  150.6766 LP  0  0  0  0  0  0  0  0  0  0  0  0  # atno 17342 bound_to 10162
  140.6896  143.2368  151.5167 LP  0  0  0  0  0  0  0  0  0  0  0  0  # atno 17343 bound_to 10162
  157.7421  130.9884  150.2493 LP  0  0  0  0  0  0  0  0  0  0  0  0  # atno 17370 bound_to 10713
  156.3057  130.3765  149.7708 LP  0  0  0  0  0  0  0  0  0  0  0  0  # atno 17371 bound_to 10713
  140.0462  134.6197  155.8919 LP  0  0  0  0  0  0  0  0  0  0  0  0  # atno 17394 bound_to 11000
  141.1916  133.6572  156.5463 LP  0  0  0  0  0  0  0  0  0  0  0  0  # atno 17395 bound_to 11000

$$$$
