AV-unprocessed.smi:663|AV-procd|sdf|3250|dock3
  -GOLD-   22720 0203D 1   1.00000     0.00000
 Structure written by MMmdl.
 29 30  0  0  0  0  0  0  0  0  2 V2000
  149.5513  138.5238  153.2074 N   0  0  0  0  0  0  0  0  0  0  0  0
  149.3192  138.7216  154.5074 C   0  0  0  0  0  0  0  0  0  0  0  0
  148.8315  139.7655  154.9356 O   0  0  0  0  0  0  0  0  0  0  0  0
  149.6985  137.5877  155.4674 C   0  0  0  0  0  0  0  0  0  0  0  0
  150.2447  138.0778  156.8288 C   0  0  1  0  0  0  0  0  0  0  0  0
  150.0215  137.0630  157.8611 N   0  0  0  0  0  0  0  0  0  0  0  0
  149.2328  137.1659  158.9416 C   0  0  0  0  0  0  0  0  0  0  0  0
  148.6044  138.2050  159.1552 O   0  0  0  0  0  0  0  0  0  0  0  0
  149.2122  136.0487  159.7039 N   0  5  0  0  0  0  0  0  0  0  0  0
  148.3484  135.9530  160.7279 C   0  0  0  0  0  0  0  0  0  0  0  0
  147.8406  137.0317  161.3458 N   0  0  0  0  0  0  0  0  0  0  0  0
  146.9684  136.7095  162.3770 N   0  0  0  0  0  0  0  0  0  0  0  0
  146.8460  135.3896  162.5153 C   0  0  0  0  0  0  0  0  0  0  0  0
  147.7906  134.4201  161.4045 S   0  0  0  0  0  0  0  0  0  0  0  0
  151.7112  138.4500  156.7107 C   0  0  0  0  0  0  0  0  0  0  0  0
  152.2233  139.2356  155.5275 C   0  0  0  0  0  0  0  0  0  0  0  0
  152.6053  137.7815  155.6936 C   0  0  0  0  0  0  0  0  0  0  0  0
  149.2909  139.2344  152.5395 H   0  0  0  0  0  0  0  0  0  0  0  0
  149.9604  137.6555  152.8948 H   0  0  0  0  0  0  0  0  0  0  0  0
  148.8428  136.9290  155.6244 H   0  0  0  0  0  0  0  0  0  0  0  0
  150.4562  136.9840  154.9668 H   0  0  0  0  0  0  0  0  0  0  0  0
  149.7139  138.9938  157.0957 H   0  0  0  0  0  0  0  0  0  0  0  0
  150.5120  136.1888  157.7420 H   0  0  0  0  0  0  0  0  0  0  0  0
  146.1991  134.9842  163.2788 H   0  0  0  0  0  0  0  0  0  0  0  0
  152.1794  138.6775  157.6669 H   0  0  0  0  0  0  0  0  0  0  0  0
  151.5144  139.4832  154.7396 H   0  0  0  0  0  0  0  0  0  0  0  0
  152.9905  139.9838  155.7164 H   0  0  0  0  0  0  0  0  0  0  0  0
  153.6273  137.5596  155.9936 H   0  0  0  0  0  0  0  0  0  0  0  0
  152.1516  137.0631  155.0137 H   0  0  0  0  0  0  0  0  0  0  0  0
  1  2  1  0  0  0  0
  1 18  1  0  0  0  0
  1 19  1  0  0  0  0
  2  3  2  0  0  0  0
  2  4  1  0  0  0  0
  4  5  1  0  0  0  0
  4 20  1  0  0  0  0
  4 21  1  0  0  0  0
  5  6  1  0  0  0  0
  5 15  1  0  0  0  0
  5 22  1  0  0  0  0
  6  7  1  0  0  0  0
  6 23  1  0  0  0  0
  7  8  2  0  0  0  0
  7  9  1  0  0  0  0
  9 10  1  0  0  0  0
 10 14  1  0  0  0  0
 10 11  2  0  0  0  0
 11 12  1  0  0  0  0
 12 13  2  0  0  0  0
 13 14  1  0  0  0  0
 13 24  1  0  0  0  0
 15 17  1  0  0  0  0
 15 16  1  0  0  0  0
 15 25  1  0  0  0  0
 16 17  1  0  0  0  0
 16 26  1  0  0  0  0
 16 27  1  0  0  0  0
 17 28  1  0  0  0  0
 17 29  1  0  0  0  0
M  CHG  1   9  -1
M  END
> <s_m_source_file>
AV-unprocessed.smi

> <i_m_source_file_index>
663

> <i_lp_mmshare_version>
43012

> <i_f3d_flags>
0

> <s_epik_input>
W05IMl1DKD1PKVtDSDJdW0NAQEhdKFtDSF0xW0NIMl1bQ0gyXTEpW05IXUMoPU8pW05IXWMybm5bY0hdczI=

> <s_epik_cmdline>
J2VwaWtfcHl0aG9uJywgJy1waCcsICc3LjAnLCAnLXRuJywgJzgnLCAnLW1hJywgJzIwMCcsICctbWV0YWxfYmluZGluZycsICctaW1hZScsICc8aW5maWxlLm1hZT4nLCAnLW9tYWUnLCAnPG91dGZpbGUubWFlPic=

> <r_lp_tautomer_probability>
1

> <r_epik_Ionization_Penalty>
4.41895

> <r_epik_Ionization_Penalty_Charging>
4.37725

> <r_epik_Ionization_Penalty_Neutral>
0.0416999

> <r_epik_State_Penalty>
4.37688

> <r_epik_Charging_Adjusted_Penalty>
8.75413

> <i_epik_Tot_Q>
-1

> <i_epik_Tot_abs_Q>
1

> <r_epik_Metal_State_Penalty>
0.761195

> <b_epik_Metal_Only>
1

> <s_lp_Force_Field>
OPLS_2005

> <r_lp_Energy>
7.27665

> <b_lp_Chiralities_Consistent>
1

> <s_lp_Variant>
AV-unprocessed.smi:663-4

> <Gold.Version>
5.8.1

> <Gold.Id.Protein>
6NUR|6NUR_protein|mol2

> <Gold.PLP.Fitness>
38.5211

> <Gold.PLP.PLP>
-24.7856

> <Gold.PLP.part.hbond>
-6.5469

> <Gold.PLP.part.metal>
0.0000

> <Gold.PLP.part.buried>
-3.2235

> <Gold.PLP.part.nonpolar>
-15.9692

> <Gold.PLP.part.repulsive>
0.2433

> <Gold.PLP.ligand.clash>
0.0000

> <Gold.PLP.ligand.torsion>
1.2874

> <Gold.PLP.Chemscore.Hbond>
5.0452

> <Gold.PLP.Chemscore.CHOScore>
0.0000

> <Gold.PLP.Chemscore.Metal>
0.0000

> <Gold.Chemscore.Hbonds>
donor molecule, donor type, donor heavy atom, donor atom, acceptor molecule, acceptor atom, score
      L1  H     1    18       P1  7957  0.98
      L1  H     1    19       P1  7948  0.51
      P1  H  6896  6909       L1     9  2.00
      P1  H  6931  6943       L1    11  1.00
      P1  H  6934  6947       L1    11  0.59

> <Gold.PLP.Chemscore.Internal.Correction>
1.1747

> <Gold.Rescore>
     Score         DG    S(hbond)    S(metal)    S(lipo)     H(rot)  DE(clash)    DE(int)     intcor
     11.61     -14.63       3.21        0.00      41.04       2.49       0.06       2.96       ----

> <Gold.Chemscore.Fitness>
11.6130

> <Gold.Chemscore.DG>
-14.6273

> <Gold.Chemscore.ZeroCoef>
-5.4800

> <Gold.Chemscore.Hbond>
3.2068

> <Gold.Chemscore.Metal>
0.0000

> <Gold.Chemscore.Lipo>
41.0380

> <Gold.Chemscore.Internal_Hbond>
0.0000

> <Gold.Chemscore.DEClash>
0.0580

> <Gold.Chemscore.DEInternal>
2.9562

> <Gold.Chemscore.Rot>
2.4863

> <Gold.Chemscore.Internal.Correction>
   9.000000E+99

> <Gold.Chemscore.Hbonds>
donor molecule, donor type, donor heavy atom, donor atom, acceptor molecule, acceptor atom, score
      L1  H     1    18       P1  7957  0.91
      L1  H     1    19       P1  7948  0.13
      P1  H  6896  6909       L1     9  0.90
      P1  H  6931  6943       L1    11  0.68
      P1  H  6934  6947       L1    11  0.15

> <Gold.Chemscore.Hbond.Weighted>
-10.7107

> <Gold.Chemscore.Metal.Weighted>
-0.0000

> <Gold.Chemscore.Lipo.Weighted>
-4.8014

> <Gold.Chemscore.Internal_Hbond.Weighted>
0.0000

> <Gold.Chemscore.DEClash.Weighted>
0.0580

> <Gold.Chemscore.DEInternal.Weighted>
2.9562

> <Gold.Chemscore.Rot.Weighted>
6.3648

> <Gold.Chemscore.Internal.Correction.Weighted>
   9.000000E+99

> <Gold.Protein.RotatedTorsions>
[ 6907 6896 6895 6894 ] final   64.01 input  -60.11 | X-H torsion
[ 7974 7965 7964 7962 ] final   -7.56 input  175.53 | X-H torsion
[ 8008 7997 7996 7995 ] final   76.68 input   59.86 | X-H torsion
[ 10167 10162 10161 10158 ] final   19.79 input  -65.29 | X-H torsion
[ 10718 10713 10712 10709 ] final -123.14 input   66.30 | X-H torsion
[ 10763 10752 10751 10750 ] final -120.91 input  -60.55 | X-H torsion
[ 11005 11000 10999 10996 ] final -124.57 input  -57.11 | X-H torsion

> <Gold.Protein.ActiveResidues>
 VAL166  LYS551  ARG553  GLY616  TRP617  ASP618  TYR619  PRO620  LYS621  CYS622 
 ASP623  PHE694  ASN695  SER759  ASP760  ASP761  ALA762  ILE779  LEU786  VAL792 
 PHE793  MET794  SER795  GLU796  ALA797  LYS798  CYS799  TRP800  GLU811  SER814 

> <Gold.Protein.RotatedAtoms>
  152.4298  134.5800  159.9944 H   0  0  0  0  0  0  0  0  0  0  0  0  # atno 6907 bound_to 6896
  151.5926  133.3359  159.3039 H   0  0  0  0  0  0  0  0  0  0  0  0  # atno 6908 bound_to 6896
  150.8190  134.7423  159.6820 H   0  0  0  0  0  0  0  0  0  0  0  0  # atno 6909 bound_to 6896
  146.2304  140.2337  142.8341 H   0  0  0  0  0  0  0  0  0  0  0  0  # atno 7974 bound_to 7965
  155.8308  140.3466  155.5571 H   0  0  0  0  0  0  0  0  0  0  0  0  # atno 8008 bound_to 7997
  155.8244  140.0917  157.1850 H   0  0  0  0  0  0  0  0  0  0  0  0  # atno 8009 bound_to 7997
  154.4004  140.1424  156.3526 H   0  0  0  0  0  0  0  0  0  0  0  0  # atno 8010 bound_to 7997
  140.5553  143.9436  150.6605 H   0  0  0  0  0  0  0  0  0  0  0  0  # atno 10167 bound_to 10162
  156.1477  130.6512  150.9867 H   0  0  0  0  0  0  0  0  0  0  0  0  # atno 10718 bound_to 10713
  154.8656  135.4186  154.2535 H   0  0  0  0  0  0  0  0  0  0  0  0  # atno 10763 bound_to 10752
  153.3477  135.6997  153.6820 H   0  0  0  0  0  0  0  0  0  0  0  0  # atno 10764 bound_to 10752
  153.5773  135.3580  155.2834 H   0  0  0  0  0  0  0  0  0  0  0  0  # atno 10765 bound_to 10752
  140.9831  134.0645  157.3742 H   0  0  0  0  0  0  0  0  0  0  0  0  # atno 11005 bound_to 11000
  144.9538  140.8205  143.5555 LP  0  0  0  0  0  0  0  0  0  0  0  0  # atno 17320 bound_to 7965
  145.2300  139.2119  143.5048 LP  0  0  0  0  0  0  0  0  0  0  0  0  # atno 17321 bound_to 7965
  140.2873  143.3348  152.1095 LP  0  0  0  0  0  0  0  0  0  0  0  0  # atno 17342 bound_to 10162
  139.5045  144.6776  151.6088 LP  0  0  0  0  0  0  0  0  0  0  0  0  # atno 17343 bound_to 10162
  157.6630  131.0877  150.7793 LP  0  0  0  0  0  0  0  0  0  0  0  0  # atno 17370 bound_to 10713
  156.7864  130.4876  149.5392 LP  0  0  0  0  0  0  0  0  0  0  0  0  # atno 17371 bound_to 10713
  139.8958  135.0143  156.7023 LP  0  0  0  0  0  0  0  0  0  0  0  0  # atno 17394 bound_to 11000
  140.7156  133.9185  155.8113 LP  0  0  0  0  0  0  0  0  0  0  0  0  # atno 17395 bound_to 11000

$$$$
