AV-unprocessed.smi:1919|AV-procd|sdf|7773|dock3
  -GOLD-   22720 9513D 1   1.00000     0.00000
 Structure written by MMmdl.
 36 38  0  0  0  0  0  0  0  0  1 V2000
  152.8564  136.6961  158.1719 O   0  0  0  0  0  0  0  0  0  0  0  0
  152.7377  137.7900  157.2886 C   0  0  0  0  0  0  0  0  0  0  0  0
  152.7002  139.1125  157.9933 C   0  0  0  0  0  0  0  0  0  0  0  0
  153.7197  139.5333  158.7432 N   0  0  0  0  0  0  0  0  0  0  0  0
  153.2927  140.7749  159.1703 C   0  0  0  0  0  0  0  0  0  0  0  0
  153.9278  141.7312  159.9948 C   0  0  0  0  0  0  0  0  0  0  0  0
  153.2911  142.9543  160.2905 C   0  0  0  0  0  0  0  0  0  0  0  0
  152.0133  143.2387  159.7669 C   0  0  0  0  0  0  0  0  0  0  0  0
  151.3623  142.2987  158.9451 C   0  0  0  0  0  0  0  0  0  0  0  0
  152.0007  141.0774  158.6557 C   0  0  0  0  0  0  0  0  0  0  0  0
  151.6432  139.9611  157.9055 N   0  0  0  0  0  0  0  0  0  0  0  0
  150.3911  139.7904  157.1779 C   0  0  0  0  0  0  0  0  0  0  0  0
  150.6044  139.5457  155.6697 C   0  0  2  0  0  0  0  0  0  0  0  0
  151.8018  140.1633  155.2402 O   0  0  0  0  0  0  0  0  0  0  0  0
  149.3968  139.9991  154.8647 C   0  0  0  0  0  0  0  0  0  0  0  0
  148.9737  141.3466  154.8933 C   0  0  0  0  0  0  0  0  0  0  0  0
  147.8461  141.7522  154.1529 C   0  0  0  0  0  0  0  0  0  0  0  0
  147.1338  140.8131  153.3825 C   0  0  0  0  0  0  0  0  0  0  0  0
  147.5481  139.4677  153.3546 C   0  0  0  0  0  0  0  0  0  0  0  0
  146.8610  138.5631  152.6181 F   0  0  0  0  0  0  0  0  0  0  0  0
  148.6757  139.0619  154.0942 C   0  0  0  0  0  0  0  0  0  0  0  0
  153.7669  136.4496  158.2237 H   0  0  0  0  0  0  0  0  0  0  0  0
  153.5865  137.7716  156.6039 H   0  0  0  0  0  0  0  0  0  0  0  0
  151.8442  137.6738  156.6755 H   0  0  0  0  0  0  0  0  0  0  0  0
  154.9076  141.5238  160.3989 H   0  0  0  0  0  0  0  0  0  0  0  0
  153.7866  143.6786  160.9202 H   0  0  0  0  0  0  0  0  0  0  0  0
  151.5333  144.1787  159.9963 H   0  0  0  0  0  0  0  0  0  0  0  0
  150.3844  142.5147  158.5415 H   0  0  0  0  0  0  0  0  0  0  0  0
  149.8660  138.9421  157.6186 H   0  0  0  0  0  0  0  0  0  0  0  0
  149.7485  140.6564  157.3311 H   0  0  0  0  0  0  0  0  0  0  0  0
  150.7373  138.4772  155.4979 H   0  0  0  0  0  0  0  0  0  0  0  0
  152.4620  140.0325  155.9035 H   0  0  0  0  0  0  0  0  0  0  0  0
  149.5106  142.0729  155.4860 H   0  0  0  0  0  0  0  0  0  0  0  0
  147.5263  142.7836  154.1777 H   0  0  0  0  0  0  0  0  0  0  0  0
  146.2691  141.1243  152.8151 H   0  0  0  0  0  0  0  0  0  0  0  0
  148.9833  138.0266  154.0701 H   0  0  0  0  0  0  0  0  0  0  0  0
  1  2  1  0  0  0  0
  1 22  1  0  0  0  0
  2  3  1  0  0  0  0
  2 23  1  0  0  0  0
  2 24  1  0  0  0  0
  3 11  1  0  0  0  0
  3  4  2  0  0  0  0
  4  5  1  0  0  0  0
  5 10  2  0  0  0  0
  5  6  1  0  0  0  0
  6  7  2  0  0  0  0
  6 25  1  0  0  0  0
  7  8  1  0  0  0  0
  7 26  1  0  0  0  0
  8  9  2  0  0  0  0
  8 27  1  0  0  0  0
  9 10  1  0  0  0  0
  9 28  1  0  0  0  0
 10 11  1  0  0  0  0
 11 12  1  0  0  0  0
 12 13  1  0  0  0  0
 12 29  1  0  0  0  0
 12 30  1  0  0  0  0
 13 14  1  0  0  0  0
 13 15  1  0  0  0  0
 13 31  1  0  0  0  0
 14 32  1  0  0  0  0
 15 21  1  0  0  0  0
 15 16  2  0  0  0  0
 16 17  1  0  0  0  0
 16 33  1  0  0  0  0
 17 18  2  0  0  0  0
 17 34  1  0  0  0  0
 18 19  1  0  0  0  0
 18 35  1  0  0  0  0
 19 20  1  0  0  0  0
 19 21  2  0  0  0  0
 21 36  1  0  0  0  0
M  END
> <s_m_source_file>
AV-unprocessed.smi

> <i_m_source_file_index>
1919

> <i_lp_mmshare_version>
43012

> <i_f3d_flags>
0

> <s_epik_input>
W2NIXTFbY0hdW2NIXVtjSF1jKGMxMiluKGMobjIpW0NIMl1bT0hdKVtDSDJdW0NASF0oW09IXSljM1tjSF1bY0hdW2NIXWMoRilbY0hdMw==

> <s_epik_cmdline>
J2VwaWtfcHl0aG9uJywgJy1waCcsICc3LjAnLCAnLXRuJywgJzgnLCAnLW1hJywgJzIwMCcsICctbWV0YWxfYmluZGluZycsICctaW1hZScsICc8aW5maWxlLm1hZT4nLCAnLW9tYWUnLCAnPG91dGZpbGUubWFlPic=

> <r_epik_Ionization_Penalty>
0.0634732

> <r_epik_Ionization_Penalty_Charging>
0

> <r_epik_Ionization_Penalty_Neutral>
0.0634732

> <r_epik_State_Penalty>
0.0551572

> <r_epik_Charging_Adjusted_Penalty>
0.0551572

> <i_epik_Tot_Q>
0

> <i_epik_Tot_abs_Q>
0

> <r_epik_Metal_State_Penalty>
5.78034e-05

> <b_epik_Metal_Only>
0

> <s_lp_Force_Field>
OPLS_2005

> <r_lp_Energy>
10.9146

> <b_lp_Chiralities_Consistent>
1

> <s_lp_Variant>
AV-unprocessed.smi:1919-1

> <Gold.Version>
5.8.1

> <Gold.Id.Protein>
6NUR|6NUR_protein|mol2

> <Gold.PLP.Fitness>
47.7565

> <Gold.PLP.PLP>
-42.7130

> <Gold.PLP.part.hbond>
-2.1197

> <Gold.PLP.part.metal>
0.0000

> <Gold.PLP.part.buried>
-4.1169

> <Gold.PLP.part.nonpolar>
-36.9790

> <Gold.PLP.part.repulsive>
0.0000

> <Gold.PLP.ligand.clash>
0.0000

> <Gold.PLP.ligand.torsion>
0.3694

> <Gold.PLP.Chemscore.Hbond>
1.9120

> <Gold.PLP.Chemscore.CHOScore>
0.0000

> <Gold.PLP.Chemscore.Metal>
0.0000

> <Gold.Chemscore.Hbonds>
donor molecule, donor type, donor heavy atom, donor atom, acceptor molecule, acceptor atom, score
      P1  H  7989  7998       L1    14  0.88
      P1  H  7997  8010       L1     4  0.85

> <Gold.PLP.Chemscore.Internal.Correction>
0.0464

> <Gold.Rescore>
     Score         DG    S(hbond)    S(metal)    S(lipo)     H(rot)  DE(clash)    DE(int)     intcor
     15.16     -15.59       1.15        0.00     113.63       2.75       0.08       0.35       ----

> <Gold.Chemscore.Fitness>
15.1556

> <Gold.Chemscore.DG>
-15.5880

> <Gold.Chemscore.ZeroCoef>
-5.4800

> <Gold.Chemscore.Hbond>
1.1536

> <Gold.Chemscore.Metal>
0.0000

> <Gold.Chemscore.Lipo>
113.6312

> <Gold.Chemscore.Internal_Hbond>
0.0000

> <Gold.Chemscore.DEClash>
0.0805

> <Gold.Chemscore.DEInternal>
0.3520

> <Gold.Chemscore.Rot>
2.7500

> <Gold.Chemscore.Internal.Correction>
   9.000000E+99

> <Gold.Chemscore.Hbonds>
donor molecule, donor type, donor heavy atom, donor atom, acceptor molecule, acceptor atom, score
      P1  H  7989  7998       L1    14  0.74
      P1  H  7997  8010       L1     4  0.04

> <Gold.Chemscore.Hbond.Weighted>
-3.8531

> <Gold.Chemscore.Metal.Weighted>
-0.0000

> <Gold.Chemscore.Lipo.Weighted>
-13.2949

> <Gold.Chemscore.Internal_Hbond.Weighted>
0.0000

> <Gold.Chemscore.DEClash.Weighted>
0.0805

> <Gold.Chemscore.DEInternal.Weighted>
0.3520

> <Gold.Chemscore.Rot.Weighted>
7.0399

> <Gold.Chemscore.Internal.Correction.Weighted>
   9.000000E+99

> <Gold.Protein.RotatedTorsions>
[ 6907 6896 6895 6894 ] final  107.05 input  -60.11 | X-H torsion
[ 7974 7965 7964 7962 ] final  -97.51 input  175.53 | X-H torsion
[ 8008 7997 7996 7995 ] final   10.23 input   59.86 | X-H torsion
[ 10167 10162 10161 10158 ] final  -55.52 input  -65.29 | X-H torsion
[ 10718 10713 10712 10709 ] final   61.34 input   66.30 | X-H torsion
[ 10763 10752 10751 10750 ] final   98.98 input  -60.55 | X-H torsion
[ 11005 11000 10999 10996 ] final  -65.79 input  -57.11 | X-H torsion

> <Gold.Protein.ActiveResidues>
 VAL166  LYS551  ARG553  GLY616  TRP617  ASP618  TYR619  PRO620  LYS621  CYS622 
 ASP623  PHE694  ASN695  SER759  ASP760  ASP761  ALA762  ILE779  LEU786  VAL792 
 PHE793  MET794  SER795  GLU796  ALA797  LYS798  CYS799  TRP800  GLU811  SER814 

> <Gold.Protein.RotatedAtoms>
  152.5170  133.9291  159.7571 H   0  0  0  0  0  0  0  0  0  0  0  0  # atno 6907 bound_to 6896
  150.9646  133.6400  159.2755 H   0  0  0  0  0  0  0  0  0  0  0  0  # atno 6908 bound_to 6896
  151.3634  135.0914  159.9494 H   0  0  0  0  0  0  0  0  0  0  0  0  # atno 6909 bound_to 6896
  145.3328  140.9445  143.2652 H   0  0  0  0  0  0  0  0  0  0  0  0  # atno 7974 bound_to 7965
  154.7906  140.2835  155.5994 H   0  0  0  0  0  0  0  0  0  0  0  0  # atno 8008 bound_to 7997
  156.2964  140.2605  156.2682 H   0  0  0  0  0  0  0  0  0  0  0  0  # atno 8009 bound_to 7997
  154.9674  140.0376  157.2208 H   0  0  0  0  0  0  0  0  0  0  0  0  # atno 8010 bound_to 7997
  140.6370  143.2487  151.5092 H   0  0  0  0  0  0  0  0  0  0  0  0  # atno 10167 bound_to 10162
  157.5820  130.8989  149.9449 H   0  0  0  0  0  0  0  0  0  0  0  0  # atno 10718 bound_to 10713
  153.2957  135.4129  155.1208 H   0  0  0  0  0  0  0  0  0  0  0  0  # atno 10763 bound_to 10752
  154.8534  135.3529  154.5920 H   0  0  0  0  0  0  0  0  0  0  0  0  # atno 10764 bound_to 10752
  153.6343  135.7059  153.5322 H   0  0  0  0  0  0  0  0  0  0  0  0  # atno 10765 bound_to 10752
  141.1464  133.6688  156.6040 H   0  0  0  0  0  0  0  0  0  0  0  0  # atno 11005 bound_to 11000
  144.8850  139.4851  143.6705 LP  0  0  0  0  0  0  0  0  0  0  0  0  # atno 17320 bound_to 7965
  146.3038  139.7514  142.9071 LP  0  0  0  0  0  0  0  0  0  0  0  0  # atno 17321 bound_to 7965
  139.5580  144.2227  152.1644 LP  0  0  0  0  0  0  0  0  0  0  0  0  # atno 17342 bound_to 10162
  140.1487  144.5135  150.6700 LP  0  0  0  0  0  0  0  0  0  0  0  0  # atno 17343 bound_to 10162
  156.0867  130.3667  150.0474 LP  0  0  0  0  0  0  0  0  0  0  0  0  # atno 17370 bound_to 10713
  156.8611  130.9492  151.3618 LP  0  0  0  0  0  0  0  0  0  0  0  0  # atno 17371 bound_to 10713
  140.3666  134.7642  157.4570 LP  0  0  0  0  0  0  0  0  0  0  0  0  # atno 17394 bound_to 11000
  140.0743  134.5819  155.8608 LP  0  0  0  0  0  0  0  0  0  0  0  0  # atno 17395 bound_to 11000

$$$$
