AV-unprocessed.smi:1985|AV-procd|sdf|8043|dock5
  -GOLD-   2272010243D 1   1.00000     0.00000
 Structure written by MMmdl.
 50 51  0  0  0  0  0  0  0  0  1 V2000
  152.1300  144.3259  158.0033 C   0  0  0  0  0  0  0  0  0  0  0  0
  151.6466  143.2641  156.9991 C   0  0  0  0  0  0  0  0  0  0  0  0
  151.2080  141.8982  157.6187 C   0  0  2  0  0  0  0  0  0  0  0  0
  150.0312  142.2143  158.5825 C   0  0  0  0  0  0  0  0  0  0  0  0
  152.3976  141.3424  158.4634 C   0  0  0  0  0  0  0  0  0  0  0  0
  152.1216  140.0153  159.0012 N   0  0  0  0  0  0  0  0  0  0  0  0
  152.9103  138.9345  158.8960 C   0  0  0  0  0  0  0  0  0  0  0  0
  153.9681  138.9364  158.2683 O   0  0  0  0  0  0  0  0  0  0  0  0
  152.4569  137.6461  159.6058 C   0  0  0  0  0  0  0  0  0  0  0  0
  153.4226  137.1136  160.5811 N   0  0  0  0  0  0  0  0  0  0  0  0
  153.7251  137.8504  161.7119 C   0  0  0  0  0  0  0  0  0  0  0  0
  154.6306  137.4608  162.6353 C   0  0  0  0  0  0  0  0  0  0  0  0
  155.3583  136.2072  162.4845 C   0  0  0  0  0  0  0  0  0  0  0  0
  156.2102  135.8185  163.2849 O   0  0  0  0  0  0  0  0  0  0  0  0
  155.0200  135.4647  161.3299 N   0  0  0  0  0  0  0  0  0  0  0  0
  155.7359  134.2231  161.1220 C   0  0  0  0  0  0  0  0  0  0  0  0
  154.0754  135.8797  160.3631 C   0  0  0  0  0  0  0  0  0  0  0  0
  153.8307  135.2173  159.3523 O   0  0  0  0  0  0  0  0  0  0  0  0
  150.7756  140.9422  156.5603 N   0  0  0  0  0  0  0  0  0  0  0  0
  151.8595  140.1915  155.9153 C   0  0  0  0  0  0  0  0  0  0  0  0
  151.3235  139.1268  154.9428 C   0  0  0  0  0  0  0  0  0  0  0  0
  150.4922  139.7429  153.9665 O   0  0  0  0  0  0  0  0  0  0  0  0
  149.3950  140.4372  154.5477 C   0  0  0  0  0  0  0  0  0  0  0  0
  149.9169  141.5130  155.5152 C   0  0  0  0  0  0  0  0  0  0  0  0
  152.3939  145.2472  157.4841 H   0  0  0  0  0  0  0  0  0  0  0  0
  153.0155  143.9957  158.5456 H   0  0  0  0  0  0  0  0  0  0  0  0
  151.3609  144.5743  158.7345 H   0  0  0  0  0  0  0  0  0  0  0  0
  150.8374  143.6862  156.4031 H   0  0  0  0  0  0  0  0  0  0  0  0
  152.4545  143.1087  156.2833 H   0  0  0  0  0  0  0  0  0  0  0  0
  150.2353  143.0812  159.2126 H   0  0  0  0  0  0  0  0  0  0  0  0
  149.8243  141.3849  159.2590 H   0  0  0  0  0  0  0  0  0  0  0  0
  149.1111  142.4266  158.0374 H   0  0  0  0  0  0  0  0  0  0  0  0
  153.3039  141.2616  157.8637 H   0  0  0  0  0  0  0  0  0  0  0  0
  152.6268  142.0194  159.2868 H   0  0  0  0  0  0  0  0  0  0  0  0
  151.2701  139.9179  159.5347 H   0  0  0  0  0  0  0  0  0  0  0  0
  151.5077  137.8505  160.1030 H   0  0  0  0  0  0  0  0  0  0  0  0
  152.2317  136.8909  158.8510 H   0  0  0  0  0  0  0  0  0  0  0  0
  153.2178  138.7923  161.8633 H   0  0  0  0  0  0  0  0  0  0  0  0
  154.8237  138.0881  163.4931 H   0  0  0  0  0  0  0  0  0  0  0  0
  155.2493  133.6139  160.3608 H   0  0  0  0  0  0  0  0  0  0  0  0
  155.7331  133.6695  162.0627 H   0  0  0  0  0  0  0  0  0  0  0  0
  156.7494  134.4888  160.8173 H   0  0  0  0  0  0  0  0  0  0  0  0
  152.5142  140.8679  155.3660 H   0  0  0  0  0  0  0  0  0  0  0  0
  152.4763  139.6839  156.6549 H   0  0  0  0  0  0  0  0  0  0  0  0
  152.1490  138.6227  154.4404 H   0  0  0  0  0  0  0  0  0  0  0  0
  150.7609  138.3619  155.4803 H   0  0  0  0  0  0  0  0  0  0  0  0
  148.8034  140.8949  153.7547 H   0  0  0  0  0  0  0  0  0  0  0  0
  148.7436  139.7335  155.0681 H   0  0  0  0  0  0  0  0  0  0  0  0
  149.0550  142.0169  155.9484 H   0  0  0  0  0  0  0  0  0  0  0  0
  150.4652  142.2601  154.9416 H   0  0  0  0  0  0  0  0  0  0  0  0
  1  2  1  0  0  0  0
  1 25  1  0  0  0  0
  1 26  1  0  0  0  0
  1 27  1  0  0  0  0
  2  3  1  0  0  0  0
  2 28  1  0  0  0  0
  2 29  1  0  0  0  0
  3  4  1  0  0  0  0
  3  5  1  0  0  0  0
  3 19  1  0  0  0  0
  4 30  1  0  0  0  0
  4 31  1  0  0  0  0
  4 32  1  0  0  0  0
  5  6  1  0  0  0  0
  5 33  1  0  0  0  0
  5 34  1  0  0  0  0
  6  7  1  0  0  0  0
  6 35  1  0  0  0  0
  7  8  2  0  0  0  0
  7  9  1  0  0  0  0
  9 10  1  0  0  0  0
  9 36  1  0  0  0  0
  9 37  1  0  0  0  0
 10 17  1  0  0  0  0
 10 11  1  0  0  0  0
 11 12  2  0  0  0  0
 11 38  1  0  0  0  0
 12 13  1  0  0  0  0
 12 39  1  0  0  0  0
 13 14  2  0  0  0  0
 13 15  1  0  0  0  0
 15 16  1  0  0  0  0
 15 17  1  0  0  0  0
 16 40  1  0  0  0  0
 16 41  1  0  0  0  0
 16 42  1  0  0  0  0
 17 18  2  0  0  0  0
 19 24  1  0  0  0  0
 19 20  1  0  0  0  0
 20 21  1  0  0  0  0
 20 43  1  0  0  0  0
 20 44  1  0  0  0  0
 21 22  1  0  0  0  0
 21 45  1  0  0  0  0
 21 46  1  0  0  0  0
 22 23  1  0  0  0  0
 23 24  1  0  0  0  0
 23 47  1  0  0  0  0
 23 48  1  0  0  0  0
 24 49  1  0  0  0  0
 24 50  1  0  0  0  0
M  END
> <s_m_source_file>
AV-unprocessed.smi

> <i_m_source_file_index>
1985

> <i_lp_mmshare_version>
43012

> <i_f3d_flags>
0

> <s_epik_input>
W0NIMl0xW0NIMl1PW0NIMl1bQ0gyXU4xW0NAQF0oW0NIM10pKFtDSDJdW0NIM10pW0NIMl1bTkhdQyg9TylbQ0gyXW4yW2NIXVtjSF1jKD1PKW4oW0NIM10pYzI9Tw==

> <s_epik_cmdline>
J2VwaWtfcHl0aG9uJywgJy1waCcsICc3LjAnLCAnLXRuJywgJzgnLCAnLW1hJywgJzIwMCcsICctbWV0YWxfYmluZGluZycsICctaW1hZScsICc8aW5maWxlLm1hZT4nLCAnLW9tYWUnLCAnPG91dGZpbGUubWFlPic=

> <r_lp_tautomer_probability>
1

> <r_epik_Ionization_Penalty>
0.318667

> <r_epik_Ionization_Penalty_Charging>
1.17294e-08

> <r_epik_Ionization_Penalty_Neutral>
0.318667

> <r_epik_State_Penalty>
0.313095

> <r_epik_Charging_Adjusted_Penalty>
0.313095

> <i_epik_Tot_Q>
0

> <i_epik_Tot_abs_Q>
0

> <r_epik_Metal_State_Penalty>
0.313065

> <b_epik_Metal_Only>
0

> <s_lp_Force_Field>
OPLS_2005

> <r_lp_Energy>
50.9959

> <b_lp_Chiralities_Consistent>
1

> <s_lp_Variant>
AV-unprocessed.smi:1985-2

> <Gold.Version>
5.8.1

> <Gold.Id.Protein>
6NUR|6NUR_protein|mol2

> <Gold.PLP.Fitness>
45.3439

> <Gold.PLP.PLP>
-37.4663

> <Gold.PLP.part.hbond>
-3.0000

> <Gold.PLP.part.metal>
0.0000

> <Gold.PLP.part.buried>
-4.8488

> <Gold.PLP.part.nonpolar>
-30.2431

> <Gold.PLP.part.repulsive>
0.4495

> <Gold.PLP.ligand.clash>
0.0000

> <Gold.PLP.ligand.torsion>
0.6504

> <Gold.PLP.Chemscore.Hbond>
3.0000

> <Gold.PLP.Chemscore.CHOScore>
0.0000

> <Gold.PLP.Chemscore.Metal>
0.0000

> <Gold.Chemscore.Hbonds>
donor molecule, donor type, donor heavy atom, donor atom, acceptor molecule, acceptor atom, score
      P1  H  6896  6909       L1    18  0.39
      P1  H  7989  7998       L1    22  0.80
      P1  H  7997  8010       L1     8  1.00

> <Gold.PLP.Chemscore.Internal.Correction>
0.1785

> <Gold.Rescore>
     Score         DG    S(hbond)    S(metal)    S(lipo)     H(rot)  DE(clash)    DE(int)     intcor
     17.27     -19.29       2.36        0.00      98.60       2.20       1.29       0.73       ----

> <Gold.Chemscore.Fitness>
17.2710

> <Gold.Chemscore.DG>
-19.2946

> <Gold.Chemscore.ZeroCoef>
-5.4800

> <Gold.Chemscore.Hbond>
2.3647

> <Gold.Chemscore.Metal>
0.0000

> <Gold.Chemscore.Lipo>
98.5998

> <Gold.Chemscore.Internal_Hbond>
0.0000

> <Gold.Chemscore.DEClash>
1.2920

> <Gold.Chemscore.DEInternal>
0.7316

> <Gold.Chemscore.Rot>
2.1952

> <Gold.Chemscore.Internal.Correction>
   9.000000E+99

> <Gold.Chemscore.Hbonds>
donor molecule, donor type, donor heavy atom, donor atom, acceptor molecule, acceptor atom, score
      P1  H  6896  6909       L1    18  0.01
      P1  H  7989  7998       L1    22  0.08
      P1  H  7997  8010       L1     8  0.99

> <Gold.Chemscore.Hbond.Weighted>
-7.8981

> <Gold.Chemscore.Metal.Weighted>
-0.0000

> <Gold.Chemscore.Lipo.Weighted>
-11.5362

> <Gold.Chemscore.Internal_Hbond.Weighted>
0.0000

> <Gold.Chemscore.DEClash.Weighted>
1.2920

> <Gold.Chemscore.DEInternal.Weighted>
0.7316

> <Gold.Chemscore.Rot.Weighted>
5.6197

> <Gold.Chemscore.Internal.Correction.Weighted>
   9.000000E+99

> <Gold.Protein.RotatedTorsions>
[ 6907 6896 6895 6894 ] final  170.15 input  -60.11 | X-H torsion
[ 7974 7965 7964 7962 ] final -168.34 input  175.53 | X-H torsion
[ 8008 7997 7996 7995 ] final   36.55 input   59.86 | X-H torsion
[ 10167 10162 10161 10158 ] final   51.17 input  -65.29 | X-H torsion
[ 10718 10713 10712 10709 ] final  112.09 input   66.30 | X-H torsion
[ 10763 10752 10751 10750 ] final -161.97 input  -60.55 | X-H torsion
[ 11005 11000 10999 10996 ] final   22.64 input  -57.11 | X-H torsion

> <Gold.Protein.ActiveResidues>
 VAL166  LYS551  ARG553  GLY616  TRP617  ASP618  TYR619  PRO620  LYS621  CYS622 
 ASP623  PHE694  ASN695  SER759  ASP760  ASP761  ALA762  ILE779  LEU786  VAL792 
 PHE793  MET794  SER795  GLU796  ALA797  LYS798  CYS799  TRP800  GLU811  SER814 

> <Gold.Protein.RotatedAtoms>
  151.8206  133.3394  159.3582 H   0  0  0  0  0  0  0  0  0  0  0  0  # atno 6907 bound_to 6896
  150.7296  134.5577  159.5836 H   0  0  0  0  0  0  0  0  0  0  0  0  # atno 6908 bound_to 6896
  152.3008  134.7614  160.0409 H   0  0  0  0  0  0  0  0  0  0  0  0  # atno 6909 bound_to 6896
  144.7205  140.2385  143.6295 H   0  0  0  0  0  0  0  0  0  0  0  0  # atno 7974 bound_to 7965
  155.1892  140.3306  155.4361 H   0  0  0  0  0  0  0  0  0  0  0  0  # atno 8008 bound_to 7997
  156.2448  140.1913  156.6936 H   0  0  0  0  0  0  0  0  0  0  0  0  # atno 8009 bound_to 7997
  154.6217  140.0594  156.9609 H   0  0  0  0  0  0  0  0  0  0  0  0  # atno 8010 bound_to 7997
  140.2647  144.3333  150.6307 H   0  0  0  0  0  0  0  0  0  0  0  0  # atno 10167 bound_to 10162
  157.6411  131.0962  150.6844 H   0  0  0  0  0  0  0  0  0  0  0  0  # atno 10718 bound_to 10713
  154.7256  135.3035  154.8976 H   0  0  0  0  0  0  0  0  0  0  0  0  # atno 10763 bound_to 10752
  153.9835  135.6727  153.4755 H   0  0  0  0  0  0  0  0  0  0  0  0  # atno 10764 bound_to 10752
  153.0872  135.4978  154.8539 H   0  0  0  0  0  0  0  0  0  0  0  0  # atno 10765 bound_to 10752
  140.3784  134.1947  155.7664 H   0  0  0  0  0  0  0  0  0  0  0  0  # atno 11005 bound_to 11000
  145.8342  139.2100  143.1865 LP  0  0  0  0  0  0  0  0  0  0  0  0  # atno 17320 bound_to 7965
  146.0404  140.8171  142.9832 LP  0  0  0  0  0  0  0  0  0  0  0  0  # atno 17321 bound_to 7965
  140.5937  143.2167  151.7204 LP  0  0  0  0  0  0  0  0  0  0  0  0  # atno 17342 bound_to 10162
  139.5006  144.3899  152.0290 LP  0  0  0  0  0  0  0  0  0  0  0  0  # atno 17343 bound_to 10162
  156.7168  130.4668  149.5533 LP  0  0  0  0  0  0  0  0  0  0  0  0  # atno 17370 bound_to 10713
  156.1693  130.6426  151.0817 LP  0  0  0  0  0  0  0  0  0  0  0  0  # atno 17371 bound_to 10713
  141.1932  133.8157  157.0810 LP  0  0  0  0  0  0  0  0  0  0  0  0  # atno 17394 bound_to 11000
  140.0498  134.9811  157.1115 LP  0  0  0  0  0  0  0  0  0  0  0  0  # atno 17395 bound_to 11000

$$$$
