AV-unprocessed.smi:3009|AV-procd|sdf|11454|dock5
  -GOLD-   2272016383D 1   1.00000     0.00000
 Structure written by MMmdl.
 43 44  0  0  0  0  0  0  0  0  1 V2000
  150.9781  141.3257  158.5993 C   0  0  0  0  0  0  0  0  0  0  0  0
  151.3808  142.0866  157.3255 C   0  0  0  0  0  0  0  0  0  0  0  0
  151.6645  143.5610  157.6462 C   0  0  0  0  0  0  0  0  0  0  0  0
  150.3034  141.9733  156.2252 C   0  0  0  0  0  0  0  0  0  0  0  0
  149.9189  140.6129  155.8457 N   0  0  0  0  0  0  0  0  0  0  0  0
  151.0307  139.8443  155.2898 C   0  0  0  0  0  0  0  0  0  0  0  0
  150.5981  138.4265  154.8784 C   0  0  0  0  0  0  0  0  0  0  0  0
  149.5163  138.4997  153.9562 O   0  0  0  0  0  0  0  0  0  0  0  0
  148.3913  139.2076  154.4706 C   0  0  2  0  0  0  0  0  0  0  0  0
  147.2526  139.1802  153.4330 C   0  0  0  0  0  0  0  0  0  0  0  0
  147.1837  137.9183  152.7010 N   0  0  0  0  0  0  0  0  0  0  0  0
  146.0533  137.2882  152.3528 C   0  0  0  0  0  0  0  0  0  0  0  0
  144.9272  137.7187  152.6019 O   0  0  0  0  0  0  0  0  0  0  0  0
  146.3149  136.1408  151.7056 N   0  0  0  0  0  0  0  0  0  0  0  0
  145.3775  135.2137  151.1839 C   0  0  0  0  0  0  0  0  0  0  0  0
  145.6305  133.8282  150.9915 C   0  0  0  0  0  0  0  0  0  0  0  0
  144.5724  133.2087  150.4881 N   0  0  0  0  0  0  0  0  0  0  0  0
  143.6464  134.1854  150.3575 N   0  0  0  0  0  0  0  0  0  0  0  0
  144.0919  135.4220  150.7693 C   0  0  0  0  0  0  0  0  0  0  0  0
  148.8291  140.6314  154.8764 C   0  0  0  0  0  0  0  0  0  0  0  0
  142.7253  133.9947  149.9892 H   0  0  0  0  0  0  0  0  0  0  0  0
  150.0459  141.7104  159.0136 H   0  0  0  0  0  0  0  0  0  0  0  0
  151.7462  141.4139  159.3680 H   0  0  0  0  0  0  0  0  0  0  0  0
  150.8399  140.2627  158.3994 H   0  0  0  0  0  0  0  0  0  0  0  0
  152.3158  141.6629  156.9607 H   0  0  0  0  0  0  0  0  0  0  0  0
  150.7752  144.0627  158.0295 H   0  0  0  0  0  0  0  0  0  0  0  0
  151.9932  144.0998  156.7571 H   0  0  0  0  0  0  0  0  0  0  0  0
  152.4502  143.6569  158.3961 H   0  0  0  0  0  0  0  0  0  0  0  0
  149.4177  142.5063  156.5738 H   0  0  0  0  0  0  0  0  0  0  0  0
  150.6387  142.5108  155.3367 H   0  0  0  0  0  0  0  0  0  0  0  0
  151.4429  140.3621  154.4225 H   0  0  0  0  0  0  0  0  0  0  0  0
  151.8367  139.7597  156.0174 H   0  0  0  0  0  0  0  0  0  0  0  0
  151.4286  137.8972  154.4110 H   0  0  0  0  0  0  0  0  0  0  0  0
  150.2997  137.8463  155.7527 H   0  0  0  0  0  0  0  0  0  0  0  0
  148.0410  138.6805  155.3598 H   0  0  0  0  0  0  0  0  0  0  0  0
  146.2982  139.4001  153.9141 H   0  0  0  0  0  0  0  0  0  0  0  0
  147.4116  139.9741  152.7030 H   0  0  0  0  0  0  0  0  0  0  0  0
  148.0629  137.4897  152.4515 H   0  0  0  0  0  0  0  0  0  0  0  0
  147.2873  135.9073  151.5685 H   0  0  0  0  0  0  0  0  0  0  0  0
  146.5285  133.2635  151.1950 H   0  0  0  0  0  0  0  0  0  0  0  0
  143.4703  136.3040  150.7276 H   0  0  0  0  0  0  0  0  0  0  0  0
  147.9737  141.1634  155.2947 H   0  0  0  0  0  0  0  0  0  0  0  0
  149.1398  141.1894  153.9918 H   0  0  0  0  0  0  0  0  0  0  0  0
  1  2  1  0  0  0  0
  1 22  1  0  0  0  0
  1 23  1  0  0  0  0
  1 24  1  0  0  0  0
  2  3  1  0  0  0  0
  2  4  1  0  0  0  0
  2 25  1  0  0  0  0
  3 26  1  0  0  0  0
  3 27  1  0  0  0  0
  3 28  1  0  0  0  0
  4  5  1  0  0  0  0
  4 29  1  0  0  0  0
  4 30  1  0  0  0  0
  5 20  1  0  0  0  0
  5  6  1  0  0  0  0
  6  7  1  0  0  0  0
  6 31  1  0  0  0  0
  6 32  1  0  0  0  0
  7  8  1  0  0  0  0
  7 33  1  0  0  0  0
  7 34  1  0  0  0  0
  8  9  1  0  0  0  0
  9 10  1  0  0  0  0
  9 20  1  0  0  0  0
  9 35  1  0  0  0  0
 10 11  1  0  0  0  0
 10 36  1  0  0  0  0
 10 37  1  0  0  0  0
 11 12  1  0  0  0  0
 11 38  1  0  0  0  0
 12 13  2  0  0  0  0
 12 14  1  0  0  0  0
 14 15  1  0  0  0  0
 14 39  1  0  0  0  0
 15 19  2  0  0  0  0
 15 16  1  0  0  0  0
 16 17  2  0  0  0  0
 16 40  1  0  0  0  0
 17 18  1  0  0  0  0
 18 21  1  0  0  0  0
 18 19  1  0  0  0  0
 19 41  1  0  0  0  0
 20 42  1  0  0  0  0
 20 43  1  0  0  0  0
M  END
> <s_m_source_file>
AV-unprocessed.smi

> <i_m_source_file_index>
3009

> <i_lp_mmshare_version>
43012

> <i_f3d_flags>
0

> <s_epik_input>
W0NIM11bQ0hdKFtDSDNdKVtDSDJdTjFbQ0gyXVtDSDJdT1tDQEhdKFtDSDJdMSlbQ0gyXVtOSF1DKD1PKVtOSF1jMltjSF1uW25IXVtjSF0y

> <s_epik_cmdline>
J2VwaWtfcHl0aG9uJywgJy1waCcsICc3LjAnLCAnLXRuJywgJzgnLCAnLW1hJywgJzIwMCcsICctbWV0YWxfYmluZGluZycsICctaW1hZScsICc8aW5maWxlLm1hZT4nLCAnLW9tYWUnLCAnPG91dGZpbGUubWFlPic=

> <r_lp_tautomer_probability>
0.5

> <r_epik_Ionization_Penalty>
1.11801

> <r_epik_Ionization_Penalty_Charging>
0

> <r_epik_Ionization_Penalty_Neutral>
1.11801

> <r_epik_State_Penalty>
1.17654

> <r_epik_Charging_Adjusted_Penalty>
1.17654

> <i_epik_Tot_Q>
0

> <i_epik_Tot_abs_Q>
0

> <r_epik_Metal_State_Penalty>
1.17654

> <b_epik_Metal_Only>
0

> <s_lp_Force_Field>
OPLS_2005

> <r_lp_Energy>
28.7191

> <b_lp_Chiralities_Consistent>
1

> <s_lp_Variant>
AV-unprocessed.smi:3009-6

> <Gold.Version>
5.8.1

> <Gold.Id.Protein>
6NUR|6NUR_protein|mol2

> <Gold.PLP.Fitness>
42.4243

> <Gold.PLP.PLP>
-31.4463

> <Gold.PLP.part.hbond>
-3.0000

> <Gold.PLP.part.metal>
0.0000

> <Gold.PLP.part.buried>
-4.2437

> <Gold.PLP.part.nonpolar>
-27.2305

> <Gold.PLP.part.repulsive>
1.4915

> <Gold.PLP.ligand.clash>
0.0000

> <Gold.PLP.ligand.torsion>
0.5361

> <Gold.PLP.Chemscore.Hbond>
2.9920

> <Gold.PLP.Chemscore.CHOScore>
1.0000

> <Gold.PLP.Chemscore.Metal>
0.0000

> <Gold.Chemscore.Hbonds>
donor molecule, donor type, donor heavy atom, donor atom, acceptor molecule, acceptor atom, score
      L1  H    11    38       P1  7948  1.00
      L1  H    14    39       P1  7948  1.00
      L1  H    18    21       P1 10186  1.00
      L1  C    19    41       P1 10171  1.00

> <Gold.PLP.Chemscore.Internal.Correction>
0.0742

> <Gold.Rescore>
     Score         DG    S(hbond)    S(metal)    S(lipo)     H(rot)  DE(clash)    DE(int)     intcor
     19.16     -19.86       2.89        0.00      78.99       1.76       0.15       0.56       ----

> <Gold.Chemscore.Fitness>
19.1585

> <Gold.Chemscore.DG>
-19.8633

> <Gold.Chemscore.ZeroCoef>
-5.4800

> <Gold.Chemscore.Hbond>
2.8858

> <Gold.Chemscore.Metal>
0.0000

> <Gold.Chemscore.Lipo>
78.9928

> <Gold.Chemscore.Internal_Hbond>
0.0000

> <Gold.Chemscore.DEClash>
0.1489

> <Gold.Chemscore.DEInternal>
0.5559

> <Gold.Chemscore.Rot>
1.7568

> <Gold.Chemscore.Internal.Correction>
   9.000000E+99

> <Gold.Chemscore.Hbonds>
donor molecule, donor type, donor heavy atom, donor atom, acceptor molecule, acceptor atom, score
      L1  H    11    38       P1  7948  0.96
      L1  H    14    39       P1  7948  0.96
      L1  H    18    21       P1 10186  0.97

> <Gold.Chemscore.Hbond.Weighted>
-9.6385

> <Gold.Chemscore.Metal.Weighted>
-0.0000

> <Gold.Chemscore.Lipo.Weighted>
-9.2422

> <Gold.Chemscore.Internal_Hbond.Weighted>
0.0000

> <Gold.Chemscore.DEClash.Weighted>
0.1489

> <Gold.Chemscore.DEInternal.Weighted>
0.5559

> <Gold.Chemscore.Rot.Weighted>
4.4974

> <Gold.Chemscore.Internal.Correction.Weighted>
   9.000000E+99

> <Gold.Protein.RotatedTorsions>
[ 6907 6896 6895 6894 ] final -170.28 input  -60.11 | X-H torsion
[ 7974 7965 7964 7962 ] final  -74.54 input  175.53 | X-H torsion
[ 8008 7997 7996 7995 ] final   -1.05 input   59.86 | X-H torsion
[ 10167 10162 10161 10158 ] final -110.19 input  -65.29 | X-H torsion
[ 10718 10713 10712 10709 ] final -105.60 input   66.30 | X-H torsion
[ 10763 10752 10751 10750 ] final  -82.99 input  -60.55 | X-H torsion
[ 11005 11000 10999 10996 ] final  128.85 input  -57.11 | X-H torsion

> <Gold.Protein.ActiveResidues>
 VAL166  LYS551  ARG553  GLY616  TRP617  ASP618  TYR619  PRO620  LYS621  CYS622 
 ASP623  PHE694  ASN695  SER759  ASP760  ASP761  ALA762  ILE779  LEU786  VAL792 
 PHE793  MET794  SER795  GLU796  ALA797  LYS798  CYS799  TRP800  GLU811  SER814 

> <Gold.Protein.RotatedAtoms>
  151.5052  133.3496  159.2875 H   0  0  0  0  0  0  0  0  0  0  0  0  # atno 6907 bound_to 6896
  150.8747  134.8130  159.7192 H   0  0  0  0  0  0  0  0  0  0  0  0  # atno 6908 bound_to 6896
  152.4723  134.4941  159.9756 H   0  0  0  0  0  0  0  0  0  0  0  0  # atno 6909 bound_to 6896
  145.6377  140.9320  143.1052 H   0  0  0  0  0  0  0  0  0  0  0  0  # atno 7974 bound_to 7965
  154.6511  140.2569  155.7212 H   0  0  0  0  0  0  0  0  0  0  0  0  # atno 8008 bound_to 7997
  156.2575  140.2867  156.0867 H   0  0  0  0  0  0  0  0  0  0  0  0  # atno 8009 bound_to 7997
  155.1449  140.0381  157.2797 H   0  0  0  0  0  0  0  0  0  0  0  0  # atno 8010 bound_to 7997
  140.1471  143.4230  152.1521 H   0  0  0  0  0  0  0  0  0  0  0  0  # atno 10167 bound_to 10162
  156.0353  130.5571  150.7561 H   0  0  0  0  0  0  0  0  0  0  0  0  # atno 10718 bound_to 10713
  154.5824  135.5571  153.7198 H   0  0  0  0  0  0  0  0  0  0  0  0  # atno 10763 bound_to 10752
  153.0086  135.6323  154.1963 H   0  0  0  0  0  0  0  0  0  0  0  0  # atno 10764 bound_to 10752
  154.1904  135.2882  155.3004 H   0  0  0  0  0  0  0  0  0  0  0  0  # atno 10765 bound_to 10752
  139.9583  134.9608  156.9062 H   0  0  0  0  0  0  0  0  0  0  0  0  # atno 11005 bound_to 11000
  144.7169  139.8165  143.7395 LP  0  0  0  0  0  0  0  0  0  0  0  0  # atno 17320 bound_to 7965
  146.1306  139.4340  143.0171 LP  0  0  0  0  0  0  0  0  0  0  0  0  # atno 17321 bound_to 7965
  139.5443  144.7285  151.4632 LP  0  0  0  0  0  0  0  0  0  0  0  0  # atno 17342 bound_to 10162
  140.6725  143.8262  150.7017 LP  0  0  0  0  0  0  0  0  0  0  0  0  # atno 17343 bound_to 10162
  157.5093  131.0924  151.0218 LP  0  0  0  0  0  0  0  0  0  0  0  0  # atno 17370 bound_to 10713
  157.0578  130.5813  149.5381 LP  0  0  0  0  0  0  0  0  0  0  0  0  # atno 17371 bound_to 10713
  140.5558  134.0583  155.7383 LP  0  0  0  0  0  0  0  0  0  0  0  0  # atno 17394 bound_to 11000
  141.1257  133.9386  157.2639 LP  0  0  0  0  0  0  0  0  0  0  0  0  # atno 17395 bound_to 11000

$$$$
