#       Name:                AV-unprocessed.smi:34
#       Creating user name   scv26
#       Creation time:       Thu Mar 26 15:55:47 2020


#       File generated by GOLD software.
#

@<TRIPOS>MOLECULE
AV-unprocessed.smi:34
    66    70     1
SMALL
NO_CHARGES


@<TRIPOS>ATOM
      1 ****        -4.3057   1.2453  -0.6056 O.2            1 S1                 0.0000
      2 ****        -4.4669   0.0762  -0.2540 C.2            1 S1                 0.0000
      3 ****        -3.3522  -0.8331  -0.0560 N.am           1 S1                 0.0000
      4 ****        -2.0288  -0.5651  -0.1500 C.ar           1 S1                 0.0000
      5 ****        -1.5517   0.6937  -0.3363 N.ar           1 S1                 0.0000
      6 ****        -0.2362   0.9068  -0.4267 C.ar           1 S1                 0.0000
      7 ****         0.7567   0.0186  -0.3575 N.ar           1 S1                 0.0000
      8 ****         0.2894  -1.2479  -0.1642 C.ar           1 S1                 0.0000
      9 ****        -1.0802  -1.6160  -0.0478 C.ar           1 S1                 0.0000
     10 ****        -1.1843  -2.9874   0.1431 N.2            1 S1                 0.0000
     11 ****         0.0537  -3.4022   0.1339 C.2            1 S1                 0.0000
     12 ****         1.0056  -2.4244  -0.0518 N.pl3          1 S1                 0.0000
     13 ****         2.4905  -2.6135  -0.1221 C.3            1 S1                 0.0000
     14 ****         3.1429  -1.4750   0.3599 O.3            1 S1                 0.0000
     15 ****         4.2648  -1.1373  -0.4625 C.3            1 S1                 0.0000
     16 ****         3.9778   0.1962  -1.1712 C.3            1 S1                 0.0000
     17 ****         3.9392   1.2323  -0.2030 O.3            1 S1                 0.0000
     18 ****         3.3620   2.4143  -0.4957 C.2            1 S1                 0.0000
     19 ****         2.8848   2.6879  -1.5989 O.2            1 S1                 0.0000
     20 ****         3.3488   3.3544   0.6617 C.ar           1 S1                 0.0000
     21 ****         2.7384   4.6223   0.5179 C.ar           1 S1                 0.0000
     22 ****         2.7059   5.5290   1.5953 C.ar           1 S1                 0.0000
     23 ****         3.2834   5.1789   2.8295 C.ar           1 S1                 0.0000
     24 ****         3.8938   3.9210   2.9851 C.ar           1 S1                 0.0000
     25 ****         3.9267   3.0127   1.9091 C.ar           1 S1                 0.0000
     26 ****         4.4084  -2.3267  -1.4186 C.3            1 S1                 0.0000
     27 ****         4.9870  -2.0477  -2.5881 F              1 S1                 0.0000
     28 ****         2.9977  -2.8687  -1.5470 C.3            1 S1                 0.0000
     29 ****         2.2432  -2.1991  -2.5426 O.3            1 S1                 0.0000
     30 ****        -5.8355  -0.5183  -0.0945 C.ar           1 S1                 0.0000
     31 ****        -6.9152  -0.0198  -0.8574 C.ar           1 S1                 0.0000
     32 ****        -8.2056  -0.5638  -0.7068 C.ar           1 S1                 0.0000
     33 ****        -8.4287  -1.6041   0.2148 C.ar           1 S1                 0.0000
     34 ****        -7.3613  -2.0977   0.9884 C.ar           1 S1                 0.0000
     35 ****        -6.0699  -1.5556   0.8377 C.ar           1 S1                 0.0000
     36 ****        -3.5955  -1.7854   0.1740 H              1 S1                 0.0000
     37 ****         0.0639   1.9335  -0.5776 H              1 S1                 0.0000
     38 ****         0.3090  -4.4449   0.2567 H              1 S1                 0.0000
     39 ****         2.6982  -3.4473   0.5500 H              1 S1                 0.0000
     40 ****         5.1615  -1.0380   0.1504 H              1 S1                 0.0000
     41 ****         4.7655   0.4213  -1.8908 H              1 S1                 0.0000
     42 ****         3.0402   0.1419  -1.7241 H              1 S1                 0.0000
     43 ****         2.2869   4.9122  -0.4198 H              1 S1                 0.0000
     44 ****         2.2360   6.4938   1.4740 H              1 S1                 0.0000
     45 ****         3.2583   5.8739   3.6559 H              1 S1                 0.0000
     46 ****         4.3372   3.6507   3.9320 H              1 S1                 0.0000
     47 ****         4.4021   2.0551   2.0627 H              1 S1                 0.0000
     48 ****         5.0337  -3.0844  -0.9440 H              1 S1                 0.0000
     49 ****         2.9835  -3.9382  -1.7589 H              1 S1                 0.0000
     50 ****         1.3413  -2.4719  -2.4696 H              1 S1                 0.0000
     51 ****        -6.7601   0.7789  -1.5683 H              1 S1                 0.0000
     52 ****        -9.0240  -0.1817  -1.2987 H              1 S1                 0.0000
     53 ****        -9.4186  -2.0204   0.3307 H              1 S1                 0.0000
     54 ****        -7.5331  -2.8915   1.7003 H              1 S1                 0.0000
     55 ****        -5.2661  -1.9428   1.4471 H              1 S1                 0.0000
     56 ****        -3.3831   1.5969  -0.7645 LP             1 S1                 0.0000
     57 ****        -5.0973   1.8430  -0.7322 LP             1 S1                 0.0000
     58 ****        -2.1873   1.4626  -0.4059 LP             1 S1                 0.0000
     59 ****         1.7256   0.2529  -0.4376 LP             1 S1                 0.0000
     60 ****        -2.0151  -3.5315   0.2605 LP             1 S1                 0.0000
     61 ****         3.4618  -1.6510   1.2912 LP             1 S1                 0.0000
     62 ****         2.5005  -0.7087   0.3667 LP             1 S1                 0.0000
     63 ****         2.9136   2.0140  -2.3372 LP             1 S1                 0.0000
     64 ****         2.4690   3.5837  -1.7556 LP             1 S1                 0.0000
     65 ****         2.5949  -2.4356  -3.4484 LP             1 S1                 0.0000
     66 ****         2.3086  -1.2105  -2.4074 LP             1 S1                 0.0000
@<TRIPOS>BOND
    1    1    2 2     
    2    2    3 am    
    3    2   30 1     
    4    3    4 1     
    5    3   36 1     
    6    4    9 ar    
    7    4    5 ar    
    8    5    6 ar    
    9    6    7 ar    
   10    6   37 1     
   11    7    8 ar    
   12    8   12 1     
   13    8    9 ar    
   14    9   10 1     
   15   10   11 2     
   16   11   12 1     
   17   11   38 1     
   18   12   13 1     
   19   13   28 1     
   20   13   14 1     
   21   13   39 1     
   22   14   15 1     
   23   15   16 1     
   24   15   26 1     
   25   15   40 1     
   26   16   17 1     
   27   16   41 1     
   28   16   42 1     
   29   17   18 1     
   30   18   19 2     
   31   18   20 1     
   32   20   25 ar    
   33   20   21 ar    
   34   21   22 ar    
   35   21   43 1     
   36   22   23 ar    
   37   22   44 1     
   38   23   24 ar    
   39   23   45 1     
   40   24   25 ar    
   41   24   46 1     
   42   25   47 1     
   43   26   27 1     
   44   26   28 1     
   45   26   48 1     
   46   28   29 1     
   47   28   49 1     
   48   29   50 1     
   49   30   35 ar    
   50   30   31 ar    
   51   31   32 ar    
   52   31   51 1     
   53   32   33 ar    
   54   32   52 1     
   55   33   34 ar    
   56   33   53 1     
   57   34   35 ar    
   58   34   54 1     
   59   35   55 1     
   60    1   56 1     
   61    1   57 1     
   62    5   58 1     
   63    7   59 1     
   64   10   60 1     
   65   14   61 1     
   66   14   62 1     
   67   19   63 1     
   68   19   64 1     
   69   29   65 1     
   70   29   66 1     
@<TRIPOS>SUBSTRUCTURE
      1 S1             1
@<TRIPOS>SET
LONE_PAIRS      STATIC     ATOMS    <user>   **** ""
11 56 57 58 59 60 61 62 63 64 65 66
DONOR_HYDROGENS      STATIC     ATOMS    <user>   **** ""
2 36 50
ATOM$BLUE        STATIC     ATOMS    COLORGROUP SYSTEM
11 56 57 58 59 60 61 62 63 64 65 66
ATOM$RED        STATIC     ATOMS    COLORGROUP SYSTEM
2 36 50
