#       Name:                AV-unprocessed.smi:967
#       Creating user name   scv26
#       Creation time:       Fri Mar 27 02:19:22 2020


#       File generated by GOLD software.
#

@<TRIPOS>MOLECULE
AV-unprocessed.smi:967
    48    49     1
SMALL
NO_CHARGES


@<TRIPOS>ATOM
      1 ****        -6.5769  -1.6103   0.8518 C.3            1 S1                 0.0000
      2 ****        -5.9480  -0.3797   1.3065 N.3            1 S1                 0.0000
      3 ****        -6.5937   0.8607   0.9061 C.3            1 S1                 0.0000
      4 ****        -4.5624  -0.3615   1.1009 C.ar           1 S1                 0.0000
      5 ****        -4.0118  -0.3704  -0.2009 C.ar           1 S1                 0.0000
      6 ****        -2.6112  -0.3493  -0.3451 C.ar           1 S1                 0.0000
      7 ****        -1.8051  -0.3127   0.8175 C.ar           1 S1                 0.0000
      8 ****        -0.3844  -0.3124   0.8061 N.am           1 S1                 0.0000
      9 ****         0.4444   0.0727  -0.1792 C.2            1 S1                 0.0000
     10 ****         0.0922   0.5351  -1.2640 O.2            1 S1                 0.0000
     11 ****         1.7255  -0.0915   0.1809 N.am           1 S1                 0.0000
     12 ****         2.8953   0.2429  -0.6269 C.3            1 S1                 0.0000
     13 ****         3.7753  -1.0092  -0.8074 C.3            1 S1                 0.0000
     14 ****         5.0712  -0.6835  -1.5674 C.3            1 S1                 0.0000
     15 ****         5.8525   0.4433  -0.8705 C.3            1 S1                 0.0000
     16 ****         7.0023   0.7590  -1.6267 O.3            1 S1                 0.0000
     17 ****         4.9813   1.7006  -0.7084 C.3            1 S1                 0.0000
     18 ****         3.6836   1.3806   0.0508 C.3            1 S1                 0.0000
     19 ****        -2.4563  -0.3201   2.0682 C.ar           1 S1                 0.0000
     20 ****        -3.7979  -0.3379   2.2138 N.ar           1 S1                 0.0000
     21 ****        -6.0304  -2.4817   1.2146 H              1 S1                 0.0000
     22 ****        -6.6129  -1.6538  -0.2373 H              1 S1                 0.0000
     23 ****        -7.5976  -1.6725   1.2296 H              1 S1                 0.0000
     24 ****        -6.0508   1.7243   1.2923 H              1 S1                 0.0000
     25 ****        -7.6097   0.8993   1.2994 H              1 S1                 0.0000
     26 ****        -6.6442   0.9424  -0.1801 H              1 S1                 0.0000
     27 ****        -4.6467  -0.3971  -1.0744 H              1 S1                 0.0000
     28 ****        -2.1877  -0.3769  -1.3370 H              1 S1                 0.0000
     29 ****         0.0544  -0.5881   1.6725 H              1 S1                 0.0000
     30 ****         1.9093  -0.4731   1.0972 H              1 S1                 0.0000
     31 ****         2.5891   0.5842  -1.6175 H              1 S1                 0.0000
     32 ****         4.0269  -1.4293   0.1677 H              1 S1                 0.0000
     33 ****         3.2210  -1.7816  -1.3423 H              1 S1                 0.0000
     34 ****         5.6896  -1.5787  -1.6420 H              1 S1                 0.0000
     35 ****         4.8264  -0.3893  -2.5891 H              1 S1                 0.0000
     36 ****         6.1806   0.1017   0.1122 H              1 S1                 0.0000
     37 ****         6.7281   1.0550  -2.4813 H              1 S1                 0.0000
     38 ****         5.5360   2.4758  -0.1784 H              1 S1                 0.0000
     39 ****         4.7340   2.1106  -1.6888 H              1 S1                 0.0000
     40 ****         3.0653   2.2768   0.1143 H              1 S1                 0.0000
     41 ****         3.9282   1.1007   1.0765 H              1 S1                 0.0000
     42 ****        -1.8837  -0.3065   2.9841 H              1 S1                 0.0000
     43 ****        -6.0999  -0.4064   2.2946 LP             1 S1                 0.0000
     44 ****        -0.8804   0.6492  -1.4669 LP             1 S1                 0.0000
     45 ****         0.7785   0.7968  -1.9425 LP             1 S1                 0.0000
     46 ****         7.5780  -0.0533  -1.7199 LP             1 S1                 0.0000
     47 ****         7.5186   1.4828  -1.1689 LP             1 S1                 0.0000
     48 ****        -4.2152  -0.3337   3.1226 LP             1 S1                 0.0000
@<TRIPOS>BOND
    1    1    2 1     
    2    1   21 1     
    3    1   22 1     
    4    1   23 1     
    5    2    3 1     
    6    2    4 1     
    7    3   24 1     
    8    3   25 1     
    9    3   26 1     
   10    4   20 ar    
   11    4    5 ar    
   12    5    6 ar    
   13    5   27 1     
   14    6    7 ar    
   15    6   28 1     
   16    7    8 1     
   17    7   19 ar    
   18    8    9 am    
   19    8   29 1     
   20    9   10 2     
   21    9   11 am    
   22   11   12 1     
   23   11   30 1     
   24   12   18 1     
   25   12   13 1     
   26   12   31 1     
   27   13   14 1     
   28   13   32 1     
   29   13   33 1     
   30   14   15 1     
   31   14   34 1     
   32   14   35 1     
   33   15   16 1     
   34   15   17 1     
   35   15   36 1     
   36   16   37 1     
   37   17   18 1     
   38   17   38 1     
   39   17   39 1     
   40   18   40 1     
   41   18   41 1     
   42   19   20 ar    
   43   19   42 1     
   44    2   43 1     
   45   10   44 1     
   46   10   45 1     
   47   16   46 1     
   48   16   47 1     
   49   20   48 1     
@<TRIPOS>SUBSTRUCTURE
      1 S1             1
@<TRIPOS>SET
LONE_PAIRS      STATIC     ATOMS    <user>   **** ""
6 43 44 45 46 47 48
DONOR_HYDROGENS      STATIC     ATOMS    <user>   **** ""
3 29 30 37
ATOM$BLUE        STATIC     ATOMS    COLORGROUP SYSTEM
6 43 44 45 46 47 48
ATOM$RED        STATIC     ATOMS    COLORGROUP SYSTEM
3 29 30 37
