#       Name:                AV-unprocessed.smi:271
#       Creating user name   scv26
#       Creation time:       Thu Mar 26 21:28:36 2020


#       File generated by GOLD software.
#

@<TRIPOS>MOLECULE
AV-unprocessed.smi:271
    67    69     1
SMALL
NO_CHARGES


@<TRIPOS>ATOM
      1 ****        -2.3166  -4.0061   0.9410 C.3            1 S1                 0.0000
      2 ****        -2.8842  -2.6713   0.4351 C.3            1 S1                 0.0000
      3 ****        -2.5454  -2.4783  -1.0530 C.3            1 S1                 0.0000
      4 ****        -2.3786  -1.5010   1.3005 C.3            1 S1                 0.0000
      5 ****        -3.1315  -0.1749   1.0527 C.3            1 S1                 0.0000
      6 ****        -2.6562   0.9380   1.8770 N.3            1 S1                 0.0000
      7 ****        -3.4637   2.1526   1.7950 C.3            1 S1                 0.0000
      8 ****        -3.1097   3.1929   2.8695 C.3            1 S1                 0.0000
      9 ****        -3.9967   4.3645   2.8264 C.1            1 S1                 0.0000
     10 ****        -4.6950   5.2864   2.7921 N.1            1 S1                 0.0000
     11 ****        -1.3314   1.1806   1.7513 C.ar           1 S1                 0.0000
     12 ****        -0.5728   1.0757   2.8701 N.ar           1 S1                 0.0000
     13 ****         0.7506   1.2467   2.7972 C.ar           1 S1                 0.0000
     14 ****         1.5010   1.5093   1.7249 N.ar           1 S1                 0.0000
     15 ****         0.7373   1.6218   0.6004 C.ar           1 S1                 0.0000
     16 ****        -0.6772   1.4924   0.5261 C.ar           1 S1                 0.0000
     17 ****        -1.1045   1.6899  -0.7814 N.2            1 S1                 0.0000
     18 ****        -0.0025   1.8991  -1.4478 C.2            1 S1                 0.0000
     19 ****         1.1529   1.8395  -0.7011 N.pl3          1 S1                 0.0000
     20 ****         2.5106   1.9925  -1.1898 C.3            1 S1                 0.0000
     21 ****         3.3799   0.7110  -1.0770 C.3            1 S1                 0.0000
     22 ****         4.8357   1.0483  -1.4747 C.3            1 S1                 0.0000
     23 ****         4.9459   1.3509  -2.8511 O.3            1 S1                 0.0000
     24 ****         2.8182  -0.5259  -1.8418 C.3            1 S1                 0.0000
     25 ****         3.7532  -1.7252  -1.8853 C.3            1 S1                 0.0000
     26 ****         2.8070  -2.8591  -2.2505 C.3            1 S1                 0.0000
     27 ****         1.6238  -2.5737  -1.5221 O.3            1 S1                 0.0000
     28 ****         1.5608  -1.1789  -1.2388 C.3            1 S1                 0.0000
     29 ****        -1.2282  -4.0242   0.8750 H              1 S1                 0.0000
     30 ****        -2.6991  -4.8433   0.3564 H              1 S1                 0.0000
     31 ****        -2.5903  -4.1822   1.9817 H              1 S1                 0.0000
     32 ****        -3.9694  -2.7230   0.5322 H              1 S1                 0.0000
     33 ****        -1.4694  -2.3874  -1.2059 H              1 S1                 0.0000
     34 ****        -3.0161  -1.5853  -1.4627 H              1 S1                 0.0000
     35 ****        -2.8928  -3.3244  -1.6464 H              1 S1                 0.0000
     36 ****        -2.4847  -1.7597   2.3549 H              1 S1                 0.0000
     37 ****        -1.3086  -1.3804   1.1259 H              1 S1                 0.0000
     38 ****        -3.0777   0.1080   0.0024 H              1 S1                 0.0000
     39 ****        -4.1896  -0.3288   1.2673 H              1 S1                 0.0000
     40 ****        -3.3626   2.5937   0.8024 H              1 S1                 0.0000
     41 ****        -4.5132   1.8766   1.9035 H              1 S1                 0.0000
     42 ****        -3.1869   2.7540   3.8647 H              1 S1                 0.0000
     43 ****        -2.0883   3.5537   2.7492 H              1 S1                 0.0000
     44 ****         1.2864   1.1470   3.7296 H              1 S1                 0.0000
     45 ****        -0.0010   2.0751  -2.5137 H              1 S1                 0.0000
     46 ****         2.4645   2.3251  -2.2274 H              1 S1                 0.0000
     47 ****         2.9695   2.8062  -0.6270 H              1 S1                 0.0000
     48 ****         3.4219   0.4398  -0.0216 H              1 S1                 0.0000
     49 ****         5.1972   1.9023  -0.9012 H              1 S1                 0.0000
     50 ****         5.5088   0.2235  -1.2413 H              1 S1                 0.0000
     51 ****         4.4085   2.1056  -3.0372 H              1 S1                 0.0000
     52 ****         2.5974  -0.2394  -2.8715 H              1 S1                 0.0000
     53 ****         4.5636  -1.6140  -2.6064 H              1 S1                 0.0000
     54 ****         4.1899  -1.9079  -0.9022 H              1 S1                 0.0000
     55 ****         2.5812  -2.8420  -3.3176 H              1 S1                 0.0000
     56 ****         3.2061  -3.8420  -1.9997 H              1 S1                 0.0000
     57 ****         1.5293  -1.0599  -0.1554 H              1 S1                 0.0000
     58 ****         0.6434  -0.7617  -1.6516 H              1 S1                 0.0000
     59 ****        -2.7901   0.6088   2.8117 LP             1 S1                 0.0000
     60 ****        -5.2985   6.0831   2.7624 LP             1 S1                 0.0000
     61 ****        -1.0032   0.8705   3.7491 LP             1 S1                 0.0000
     62 ****         2.4957   1.6105   1.7436 LP             1 S1                 0.0000
     63 ****        -2.0413   1.6750  -1.1311 LP             1 S1                 0.0000
     64 ****         4.6322   0.5716  -3.3937 LP             1 S1                 0.0000
     65 ****         5.8991   1.5519  -3.0768 LP             1 S1                 0.0000
     66 ****         1.6292  -3.0875  -0.6642 LP             1 S1                 0.0000
     67 ****         0.8269  -2.8393  -2.0647 LP             1 S1                 0.0000
@<TRIPOS>BOND
    1    1    2 1     
    2    1   29 1     
    3    1   30 1     
    4    1   31 1     
    5    2    3 1     
    6    2    4 1     
    7    2   32 1     
    8    3   33 1     
    9    3   34 1     
   10    3   35 1     
   11    4    5 1     
   12    4   36 1     
   13    4   37 1     
   14    5    6 1     
   15    5   38 1     
   16    5   39 1     
   17    6    7 1     
   18    6   11 1     
   19    7    8 1     
   20    7   40 1     
   21    7   41 1     
   22    8    9 1     
   23    8   42 1     
   24    8   43 1     
   25    9   10 3     
   26   11   16 ar    
   27   11   12 ar    
   28   12   13 ar    
   29   13   14 ar    
   30   13   44 1     
   31   14   15 ar    
   32   15   19 1     
   33   15   16 ar    
   34   16   17 1     
   35   17   18 2     
   36   18   19 1     
   37   18   45 1     
   38   19   20 1     
   39   20   21 1     
   40   20   46 1     
   41   20   47 1     
   42   21   22 1     
   43   21   24 1     
   44   21   48 1     
   45   22   23 1     
   46   22   49 1     
   47   22   50 1     
   48   23   51 1     
   49   24   28 1     
   50   24   25 1     
   51   24   52 1     
   52   25   26 1     
   53   25   53 1     
   54   25   54 1     
   55   26   27 1     
   56   26   55 1     
   57   26   56 1     
   58   27   28 1     
   59   28   57 1     
   60   28   58 1     
   61    6   59 1     
   62   10   60 1     
   63   12   61 1     
   64   14   62 1     
   65   17   63 1     
   66   23   64 1     
   67   23   65 1     
   68   27   66 1     
   69   27   67 1     
@<TRIPOS>SUBSTRUCTURE
      1 S1             1
@<TRIPOS>SET
LONE_PAIRS      STATIC     ATOMS    <user>   **** ""
9 59 60 61 62 63 64 65 66 67
DONOR_HYDROGENS      STATIC     ATOMS    <user>   **** ""
1 51
ATOM$BLUE        STATIC     ATOMS    COLORGROUP SYSTEM
9 59 60 61 62 63 64 65 66 67
ATOM$RED        STATIC     ATOMS    COLORGROUP SYSTEM
1 51
