#       Name:                AV-unprocessed.smi:2532
#       Creating user name   scv26
#       Creation time:       Fri Mar 27 14:01:16 2020


#       File generated by GOLD software.
#

@<TRIPOS>MOLECULE
AV-unprocessed.smi:2532
    41    43     1
SMALL
NO_CHARGES


@<TRIPOS>ATOM
      1 ****        -0.4035  -0.2571   1.0648 O.3            1 S1                 0.0000
      2 ****         0.0560   0.2112  -0.1885 C.3            1 S1                 0.0000
      3 ****         1.5923   0.2476  -0.1627 C.3            1 S1                 0.0000
      4 ****         2.0943  -1.0526  -0.4231 O.3            1 S1                 0.0000
      5 ****         3.5120  -1.1028  -0.4202 C.3            1 S1                 0.0000
      6 ****         3.9197  -2.5150  -0.6950 C.2            1 S1                 0.0000
      7 ****         5.0742  -2.9365  -1.3045 C.2            1 S1                 0.0000
      8 ****         5.1758  -4.3556  -1.4002 C.2            1 S1                 0.0000
      9 ****         4.0998  -5.0029  -0.8543 C.2            1 S1                 0.0000
     10 ****         2.9374  -3.8776  -0.2076 S.3            1 S1                 0.0000
     11 ****        -0.5444   1.6056  -0.4534 C.3            1 S1                 0.0000
     12 ****        -1.9966   1.5942  -0.4806 N.pl3          1 S1                 0.0000
     13 ****        -2.7834   1.2472  -1.5173 C.2            1 S1                 0.0000
     14 ****        -4.0989   1.3114  -1.3326 N.2            1 S1                 0.0000
     15 ****        -4.1759   1.7526  -0.0226 C.ar           1 S1                 0.0000
     16 ****        -5.3007   2.0277   0.7880 C.ar           1 S1                 0.0000
     17 ****        -5.1327   2.4727   2.1160 C.ar           1 S1                 0.0000
     18 ****        -3.8408   2.6480   2.6534 C.ar           1 S1                 0.0000
     19 ****        -2.7051   2.3807   1.8651 C.ar           1 S1                 0.0000
     20 ****        -2.8769   1.9386   0.5400 C.ar           1 S1                 0.0000
     21 ****        -1.3465  -0.3141   1.0356 H              1 S1                 0.0000
     22 ****        -0.2810  -0.4738  -0.9679 H              1 S1                 0.0000
     23 ****         1.9564   0.9144  -0.9462 H              1 S1                 0.0000
     24 ****         1.9621   0.6360   0.7881 H              1 S1                 0.0000
     25 ****         3.9179  -0.4365  -1.1829 H              1 S1                 0.0000
     26 ****         3.9030  -0.7840   0.5470 H              1 S1                 0.0000
     27 ****         5.8432  -2.2797  -1.6838 H              1 S1                 0.0000
     28 ****         6.0235  -4.8444  -1.8576 H              1 S1                 0.0000
     29 ****         3.9208  -6.0661  -0.7894 H              1 S1                 0.0000
     30 ****        -0.2132   2.3153   0.3061 H              1 S1                 0.0000
     31 ****        -0.1919   1.9905  -1.4112 H              1 S1                 0.0000
     32 ****        -2.3660   0.9288  -2.4615 H              1 S1                 0.0000
     33 ****        -6.2948   1.8962   0.3871 H              1 S1                 0.0000
     34 ****        -5.9999   2.6798   2.7259 H              1 S1                 0.0000
     35 ****        -3.7219   2.9876   3.6720 H              1 S1                 0.0000
     36 ****        -1.7144   2.5118   2.2746 H              1 S1                 0.0000
     37 ****        -0.1260   0.3787   1.7850 LP             1 S1                 0.0000
     38 ****        -0.0164  -1.1603   1.2501 LP             1 S1                 0.0000
     39 ****         1.7655  -1.3488  -1.3199 LP             1 S1                 0.0000
     40 ****         1.7507  -1.6750   0.2801 LP             1 S1                 0.0000
     41 ****        -4.8377   1.0974  -1.9716 LP             1 S1                 0.0000
@<TRIPOS>BOND
    1    1    2 1     
    2    1   21 1     
    3    2    3 1     
    4    2   11 1     
    5    2   22 1     
    6    3    4 1     
    7    3   23 1     
    8    3   24 1     
    9    4    5 1     
   10    5    6 1     
   11    5   25 1     
   12    5   26 1     
   13    6   10 1     
   14    6    7 2     
   15    7    8 1     
   16    7   27 1     
   17    8    9 2     
   18    8   28 1     
   19    9   10 1     
   20    9   29 1     
   21   11   12 1     
   22   11   30 1     
   23   11   31 1     
   24   12   20 1     
   25   12   13 1     
   26   13   14 2     
   27   13   32 1     
   28   14   15 1     
   29   15   20 ar    
   30   15   16 ar    
   31   16   17 ar    
   32   16   33 1     
   33   17   18 ar    
   34   17   34 1     
   35   18   19 ar    
   36   18   35 1     
   37   19   20 ar    
   38   19   36 1     
   39    1   37 1     
   40    1   38 1     
   41    4   39 1     
   42    4   40 1     
   43   14   41 1     
@<TRIPOS>SUBSTRUCTURE
      1 S1             1
@<TRIPOS>SET
LONE_PAIRS      STATIC     ATOMS    <user>   **** ""
5 37 38 39 40 41
DONOR_HYDROGENS      STATIC     ATOMS    <user>   **** ""
1 21
ATOM$BLUE        STATIC     ATOMS    COLORGROUP SYSTEM
5 37 38 39 40 41
ATOM$RED        STATIC     ATOMS    COLORGROUP SYSTEM
1 21
