#       Name:                AV-unprocessed.smi:1816
#       Creating user name   scv26
#       Creation time:       Fri Mar 27 09:02:49 2020


#       File generated by GOLD software.
#

@<TRIPOS>MOLECULE
AV-unprocessed.smi:1816
    39    40     1
SMALL
NO_CHARGES


@<TRIPOS>ATOM
      1 ****        -1.5078   1.6143  -0.4095 C.3            1 S1                 0.0000
      2 ****        -0.8016   0.2943  -0.7931 C.3            1 S1                 0.0000
      3 ****         0.7069   0.5356  -1.0619 C.3            1 S1                 0.0000
      4 ****         1.4039   1.1191   0.0803 N.am           1 S1                 0.0000
      5 ****         1.7523   0.4496   1.1880 C.2            1 S1                 0.0000
      6 ****         1.5147  -0.7464   1.3567 O.2            1 S1                 0.0000
      7 ****         2.3779   1.2507   2.0650 N.am           1 S1                 0.0000
      8 ****         2.8793   0.9112   3.3459 C.2            1 S1                 0.0000
      9 ****         3.4762   1.8557   4.0747 N.2            1 S1                 0.0000
     10 ****         3.9143   1.3675   5.3092 C.2            1 S1                 0.0000
     11 ****         3.6387   0.0371   5.5058 C.2            1 S1                 0.0000
     12 ****         2.8132  -0.6643   4.1399 S.3            1 S1                 0.0000
     13 ****        -1.4469  -0.3463  -1.9754 N.4            1 S1                 1.0000
     14 ****        -0.8928  -1.6713  -2.3556 C.3            1 S1                 0.0000
     15 ****        -2.0707  -2.5476  -2.8036 C.3            1 S1                 0.0000
     16 ****        -3.2466  -1.5862  -2.9266 C.3            1 S1                 0.0000
     17 ****        -2.9154  -0.5097  -1.9000 C.3            1 S1                 0.0000
     18 ****        -1.0336   2.0893   0.4494 H              1 S1                 0.0000
     19 ****        -2.5489   1.4552  -0.1296 H              1 S1                 0.0000
     20 ****        -1.4875   2.3281  -1.2334 H              1 S1                 0.0000
     21 ****        -0.9056  -0.3945   0.0468 H              1 S1                 0.0000
     22 ****         1.2177  -0.3878  -1.3380 H              1 S1                 0.0000
     23 ****         0.8275   1.2128  -1.9080 H              1 S1                 0.0000
     24 ****         1.6391   2.0994   0.0209 H              1 S1                 0.0000
     25 ****         2.5082   2.2130   1.7895 H              1 S1                 0.0000
     26 ****         4.4155   2.0391   5.9906 H              1 S1                 0.0000
     27 ****         3.8708  -0.5702   6.3679 H              1 S1                 0.0000
     28 ****        -0.1687  -1.5386  -3.1601 H              1 S1                 0.0000
     29 ****        -0.3775  -2.1489  -1.5206 H              1 S1                 0.0000
     30 ****        -1.8688  -3.0796  -3.7337 H              1 S1                 0.0000
     31 ****        -2.2856  -3.2928  -2.0363 H              1 S1                 0.0000
     32 ****        -3.2686  -1.1515  -3.9270 H              1 S1                 0.0000
     33 ****        -4.2092  -2.0651  -2.7449 H              1 S1                 0.0000
     34 ****        -3.1988  -0.8529  -0.9035 H              1 S1                 0.0000
     35 ****        -3.4416   0.4232  -2.1045 H              1 S1                 0.0000
     36 ****        -1.2816   0.2599  -2.7661 H              1 S1                 0.0000
     37 ****         1.0394  -1.2667   0.6472 LP             1 S1                 0.0000
     38 ****         1.7970  -1.1977   2.2033 LP             1 S1                 0.0000
     39 ****         3.5962   2.8016   3.7734 LP             1 S1                 0.0000
@<TRIPOS>BOND
    1    1    2 1     
    2    1   18 1     
    3    1   19 1     
    4    1   20 1     
    5    2    3 1     
    6    2   13 1     
    7    2   21 1     
    8    3    4 1     
    9    3   22 1     
   10    3   23 1     
   11    4    5 am    
   12    4   24 1     
   13    5    6 2     
   14    5    7 am    
   15    7    8 1     
   16    7   25 1     
   17    8   12 1     
   18    8    9 2     
   19    9   10 1     
   20   10   11 2     
   21   10   26 1     
   22   11   12 1     
   23   11   27 1     
   24   13   17 1     
   25   13   14 1     
   26   13   36 1     
   27   14   15 1     
   28   14   28 1     
   29   14   29 1     
   30   15   16 1     
   31   15   30 1     
   32   15   31 1     
   33   16   17 1     
   34   16   32 1     
   35   16   33 1     
   36   17   34 1     
   37   17   35 1     
   38    6   37 1     
   39    6   38 1     
   40    9   39 1     
@<TRIPOS>SUBSTRUCTURE
      1 S1             1
@<TRIPOS>SET
LONE_PAIRS      STATIC     ATOMS    <user>   **** ""
3 37 38 39
DONOR_HYDROGENS      STATIC     ATOMS    <user>   **** ""
3 24 25 36
ATOM$BLUE        STATIC     ATOMS    COLORGROUP SYSTEM
3 37 38 39
ATOM$RED        STATIC     ATOMS    COLORGROUP SYSTEM
3 24 25 36
