#       Name:                AV-unprocessed.smi:3328
#       Creating user name   scv26
#       Creation time:       Fri Mar 27 19:14:28 2020


#       File generated by GOLD software.
#

@<TRIPOS>MOLECULE
AV-unprocessed.smi:3328
    44    45     1
SMALL
NO_CHARGES


@<TRIPOS>ATOM
      1 ****        -2.1329   1.2432  -5.0080 C.3            1 S1                 0.0000
      2 ****        -1.8089   0.1710  -4.0079 C.2            1 S1                 0.0000
      3 ****        -0.6309  -0.6249  -3.9295 C.2            1 S1                 0.0000
      4 ****        -0.6562  -1.4825  -2.9222 N.2            1 S1                 0.0000
      5 ****        -1.8494  -1.2694  -2.3276 N.pl3          1 S1                 0.0000
      6 ****        -2.2230  -2.0457  -1.1582 C.3            1 S1                 0.0000
      7 ****        -1.7778  -1.3754   0.1565 C.3            1 S1                 0.0000
      8 ****        -2.3389  -2.1326   1.3715 C.3            1 S1                 0.0000
      9 ****        -0.2998  -1.2971   0.2155 N.4            1 S1                 1.0000
     10 ****         0.2466  -0.3319   1.1906 C.3            1 S1                 0.0000
     11 ****         1.7692  -0.2033   1.0338 C.3            1 S1                 0.0000
     12 ****         2.3278   0.7488   1.9894 N.am           1 S1                 0.0000
     13 ****         2.7429   2.0750   1.5643 C.3            1 S1                 0.0000
     14 ****         3.0628   2.8255   2.8650 C.3            1 S1                 0.0000
     15 ****         3.1716   1.7481   3.9495 C.3            1 S1                 0.0000
     16 ****         2.5597   0.5248   3.2880 C.2            1 S1                 0.0000
     17 ****         2.3220  -0.5175   3.8965 O.2            1 S1                 0.0000
     18 ****        -2.5652  -0.2761  -2.9616 C.2            1 S1                 0.0000
     19 ****        -1.3502   1.3461  -5.7601 H              1 S1                 0.0000
     20 ****        -2.2492   2.2164  -4.5310 H              1 S1                 0.0000
     21 ****        -3.0612   1.0313  -5.5388 H              1 S1                 0.0000
     22 ****         0.2383  -0.6029  -4.5704 H              1 S1                 0.0000
     23 ****        -3.3074  -2.1648  -1.1701 H              1 S1                 0.0000
     24 ****        -1.8007  -3.0482  -1.2452 H              1 S1                 0.0000
     25 ****        -2.1787  -0.3605   0.1658 H              1 S1                 0.0000
     26 ****        -3.4250  -2.2115   1.3140 H              1 S1                 0.0000
     27 ****        -2.1048  -1.6267   2.3080 H              1 S1                 0.0000
     28 ****        -1.9370  -3.1446   1.4283 H              1 S1                 0.0000
     29 ****         0.0725  -2.2162   0.4079 H              1 S1                 0.0000
     30 ****        -0.2202   0.6421   1.0372 H              1 S1                 0.0000
     31 ****        -0.0024  -0.6560   2.2011 H              1 S1                 0.0000
     32 ****         2.2473  -1.1746   1.1718 H              1 S1                 0.0000
     33 ****         2.0135   0.1187   0.0203 H              1 S1                 0.0000
     34 ****         3.6291   1.9901   0.9339 H              1 S1                 0.0000
     35 ****         1.9603   2.5735   0.9912 H              1 S1                 0.0000
     36 ****         3.9765   3.4141   2.7783 H              1 S1                 0.0000
     37 ****         2.2523   3.5138   3.1093 H              1 S1                 0.0000
     38 ****         4.2123   1.5412   4.2015 H              1 S1                 0.0000
     39 ****         2.6373   2.0217   4.8599 H              1 S1                 0.0000
     40 ****        -3.5433   0.0292  -2.6192 H              1 S1                 0.0000
     41 ****         0.0195  -1.0114  -0.6998 H              1 S1                 0.0000
     42 ****         0.0498  -2.1406  -2.6602 LP             1 S1                 0.0000
     43 ****         1.9180  -1.2959   3.4161 LP             1 S1                 0.0000
     44 ****         2.5329  -0.5864   4.8716 LP             1 S1                 0.0000
@<TRIPOS>BOND
    1    1    2 1     
    2    1   19 1     
    3    1   20 1     
    4    1   21 1     
    5    2   18 2     
    6    2    3 1     
    7    3    4 2     
    8    3   22 1     
    9    4    5 1     
   10    5    6 1     
   11    5   18 1     
   12    6    7 1     
   13    6   23 1     
   14    6   24 1     
   15    7    8 1     
   16    7    9 1     
   17    7   25 1     
   18    8   26 1     
   19    8   27 1     
   20    8   28 1     
   21    9   10 1     
   22    9   29 1     
   23    9   41 1     
   24   10   11 1     
   25   10   30 1     
   26   10   31 1     
   27   11   12 1     
   28   11   32 1     
   29   11   33 1     
   30   12   16 am    
   31   12   13 1     
   32   13   14 1     
   33   13   34 1     
   34   13   35 1     
   35   14   15 1     
   36   14   36 1     
   37   14   37 1     
   38   15   16 1     
   39   15   38 1     
   40   15   39 1     
   41   16   17 2     
   42   18   40 1     
   43    4   42 1     
   44   17   43 1     
   45   17   44 1     
@<TRIPOS>SUBSTRUCTURE
      1 S1             1
@<TRIPOS>SET
LONE_PAIRS      STATIC     ATOMS    <user>   **** ""
3 42 43 44
DONOR_HYDROGENS      STATIC     ATOMS    <user>   **** ""
2 29 41
ATOM$BLUE        STATIC     ATOMS    COLORGROUP SYSTEM
3 42 43 44
ATOM$RED        STATIC     ATOMS    COLORGROUP SYSTEM
2 29 41
