AV-unprocessed.smi:2198|AV-procd|sdf|8912|dock4
  -GOLD-   2272012133D 1   1.00000     0.00000
 Structure written by MMmdl.
 43 44  0  0  0  0  0  0  0  0  1 V2000
  147.0438  139.3657  152.9180 C   0  0  0  0  0  0  0  0  0  0  0  0
  147.9084  139.0745  154.1264 C   0  0  0  0  0  0  0  0  0  0  0  0
  147.4414  138.7207  155.2785 N   0  0  0  0  0  0  0  0  0  0  0  0
  148.3423  138.4769  156.3245 C   0  0  0  0  0  0  0  0  0  0  0  0
  147.7180  138.0595  157.6451 C   0  0  0  0  0  0  0  0  0  0  0  0
  149.6903  138.6094  156.1536 C   0  0  0  0  0  0  0  0  0  0  0  0
  150.6979  138.3486  157.2727 C   0  0  0  0  0  0  0  0  0  0  0  0
  151.6808  139.4825  157.5761 C   0  0  0  0  0  0  0  0  0  0  0  0
  152.8960  139.2827  157.5573 O   0  0  0  0  0  0  0  0  0  0  0  0
  151.1334  140.6731  157.8630 N   0  0  0  0  0  0  0  0  0  0  0  0
  151.8764  141.8812  158.2080 C   0  0  1  0  0  0  0  0  0  0  0  0
  151.3212  143.0752  157.4112 C   0  0  0  0  0  0  0  0  0  0  0  0
  152.0420  144.3785  157.7873 C   0  0  0  0  0  0  0  0  0  0  0  0
  151.9602  144.6443  159.2988 C   0  0  0  0  0  0  0  0  0  0  0  0
  152.5135  143.4592  160.1135 C   0  0  1  0  0  0  0  0  0  0  0  0
  152.4164  143.7231  161.6232 C   0  0  0  0  0  0  0  0  0  0  0  0
  151.7960  142.1517  159.7248 C   0  0  0  0  0  0  0  0  0  0  0  0
  150.2126  139.0127  154.8337 C   0  0  0  0  0  0  0  0  0  0  0  0
  151.4055  139.1539  154.5691 O   0  0  0  0  0  0  0  0  0  0  0  0
  149.2731  139.2239  153.8848 N   0  0  0  0  0  0  0  0  0  0  0  0
  149.5803  139.4999  152.9635 H   0  0  0  0  0  0  0  0  0  0  0  0
  146.4585  138.4845  152.6545 H   0  0  0  0  0  0  0  0  0  0  0  0
  147.6438  139.6484  152.0518 H   0  0  0  0  0  0  0  0  0  0  0  0
  146.3555  140.1821  153.1368 H   0  0  0  0  0  0  0  0  0  0  0  0
  147.9027  138.8138  158.4100 H   0  0  0  0  0  0  0  0  0  0  0  0
  148.1321  137.1103  157.9855 H   0  0  0  0  0  0  0  0  0  0  0  0
  146.6384  137.9363  157.5509 H   0  0  0  0  0  0  0  0  0  0  0  0
  150.1805  138.0856  158.1962 H   0  0  0  0  0  0  0  0  0  0  0  0
  151.2769  137.4611  157.0168 H   0  0  0  0  0  0  0  0  0  0  0  0
  150.1263  140.7460  157.8522 H   0  0  0  0  0  0  0  0  0  0  0  0
  152.9232  141.7464  157.9285 H   0  0  0  0  0  0  0  0  0  0  0  0
  151.4270  142.8931  156.3410 H   0  0  0  0  0  0  0  0  0  0  0  0
  150.2525  143.1853  157.6026 H   0  0  0  0  0  0  0  0  0  0  0  0
  153.0874  144.3185  157.4821 H   0  0  0  0  0  0  0  0  0  0  0  0
  151.6076  145.2148  157.2389 H   0  0  0  0  0  0  0  0  0  0  0  0
  152.5139  145.5525  159.5390 H   0  0  0  0  0  0  0  0  0  0  0  0
  150.9226  144.8325  159.5784 H   0  0  0  0  0  0  0  0  0  0  0  0
  153.5704  143.3464  159.8674 H   0  0  0  0  0  0  0  0  0  0  0  0
  151.3802  143.8507  161.9376 H   0  0  0  0  0  0  0  0  0  0  0  0
  152.9612  144.6263  161.8998 H   0  0  0  0  0  0  0  0  0  0  0  0
  152.8380  142.8959  162.1947 H   0  0  0  0  0  0  0  0  0  0  0  0
  150.7503  142.2040  160.0324 H   0  0  0  0  0  0  0  0  0  0  0  0
  152.2357  141.3175  160.2732 H   0  0  0  0  0  0  0  0  0  0  0  0
  1  2  1  0  0  0  0
  1 22  1  0  0  0  0
  1 23  1  0  0  0  0
  1 24  1  0  0  0  0
  2 20  1  0  0  0  0
  2  3  2  0  0  0  0
  3  4  1  0  0  0  0
  4  5  1  0  0  0  0
  4  6  2  0  0  0  0
  5 25  1  0  0  0  0
  5 26  1  0  0  0  0
  5 27  1  0  0  0  0
  6  7  1  0  0  0  0
  6 18  1  0  0  0  0
  7  8  1  0  0  0  0
  7 28  1  0  0  0  0
  7 29  1  0  0  0  0
  8  9  2  0  0  0  0
  8 10  1  0  0  0  0
 10 11  1  0  0  0  0
 10 30  1  0  0  0  0
 11 17  1  0  0  0  0
 11 12  1  0  0  0  0
 11 31  1  0  0  0  0
 12 13  1  0  0  0  0
 12 32  1  0  0  0  0
 12 33  1  0  0  0  0
 13 14  1  0  0  0  0
 13 34  1  0  0  0  0
 13 35  1  0  0  0  0
 14 15  1  0  0  0  0
 14 36  1  0  0  0  0
 14 37  1  0  0  0  0
 15 16  1  0  0  0  0
 15 17  1  0  0  0  0
 15 38  1  0  0  0  0
 16 39  1  0  0  0  0
 16 40  1  0  0  0  0
 16 41  1  0  0  0  0
 17 42  1  0  0  0  0
 17 43  1  0  0  0  0
 18 19  2  0  0  0  0
 18 20  1  0  0  0  0
 20 21  1  0  0  0  0
M  END
> <s_m_source_file>
AV-unprocessed.smi

> <i_m_source_file_index>
2198

> <i_lp_mmshare_version>
43012

> <i_f3d_flags>
0

> <s_epik_input>
W0NIM11jMW5jKFtDSDNdKWMoYyg9TylbbkhdMSlbQ0gyXUMoPU8pW05IXVtDQEBIXTJbQ0gyXVtDSDJdW0NIMl1bQ0BASF0oW0NIM10pW0NIMl0y

> <s_epik_cmdline>
J2VwaWtfcHl0aG9uJywgJy1waCcsICc3LjAnLCAnLXRuJywgJzgnLCAnLW1hJywgJzIwMCcsICctbWV0YWxfYmluZGluZycsICctaW1hZScsICc8aW5maWxlLm1hZT4nLCAnLW9tYWUnLCAnPG91dGZpbGUubWFlPic=

> <r_lp_tautomer_probability>
0.839158

> <r_epik_Ionization_Penalty>
0.000372587

> <r_epik_Ionization_Penalty_Charging>
0.000337977

> <r_epik_Ionization_Penalty_Neutral>
3.46101e-05

> <r_epik_State_Penalty>
0.09125

> <r_epik_Charging_Adjusted_Penalty>
0.091588

> <i_epik_Tot_Q>
0

> <i_epik_Tot_abs_Q>
0

> <r_epik_Metal_State_Penalty>
0.25197

> <b_epik_Metal_Only>
0

> <s_lp_Force_Field>
OPLS_2005

> <r_lp_Energy>
10.3452

> <b_lp_Chiralities_Consistent>
1

> <s_lp_Variant>
AV-unprocessed.smi:2198-2

> <Gold.Version>
5.8.1

> <Gold.Id.Protein>
6NUR|6NUR_protein|mol2

> <Gold.PLP.Fitness>
45.1354

> <Gold.PLP.PLP>
-36.6050

> <Gold.PLP.part.hbond>
-3.0000

> <Gold.PLP.part.metal>
0.0000

> <Gold.PLP.part.buried>
-3.8327

> <Gold.PLP.part.nonpolar>
-29.2491

> <Gold.PLP.part.repulsive>
0.3344

> <Gold.PLP.ligand.clash>
0.0000

> <Gold.PLP.ligand.torsion>
0.2378

> <Gold.PLP.Chemscore.Hbond>
3.0000

> <Gold.PLP.Chemscore.CHOScore>
0.0000

> <Gold.PLP.Chemscore.Metal>
0.0000

> <Gold.Chemscore.Hbonds>
donor molecule, donor type, donor heavy atom, donor atom, acceptor molecule, acceptor atom, score
      L1  H    20    21       P1  7957  1.00
      P1  H  7989  7998       L1    19  1.00
      P1  H  7997  8008       L1     9  1.00

> <Gold.PLP.Chemscore.Internal.Correction>
0.0060

> <Gold.Rescore>
     Score         DG    S(hbond)    S(metal)    S(lipo)     H(rot)  DE(clash)    DE(int)     intcor
     22.35     -22.58       2.95        0.00      94.39       1.48       0.05       0.17       ----

> <Gold.Chemscore.Fitness>
22.3516

> <Gold.Chemscore.DG>
-22.5799

> <Gold.Chemscore.ZeroCoef>
-5.4800

> <Gold.Chemscore.Hbond>
2.9478

> <Gold.Chemscore.Metal>
0.0000

> <Gold.Chemscore.Lipo>
94.3870

> <Gold.Chemscore.Internal_Hbond>
0.0000

> <Gold.Chemscore.DEClash>
0.0533

> <Gold.Chemscore.DEInternal>
0.1750

> <Gold.Chemscore.Rot>
1.4801

> <Gold.Chemscore.Internal.Correction>
   9.000000E+99

> <Gold.Chemscore.Hbonds>
donor molecule, donor type, donor heavy atom, donor atom, acceptor molecule, acceptor atom, score
      L1  H    20    21       P1  7957  1.00
      P1  H  7989  7998       L1    19  0.65
      P1  H  7997  8008       L1     9  1.00

> <Gold.Chemscore.Hbond.Weighted>
-9.8458

> <Gold.Chemscore.Metal.Weighted>
-0.0000

> <Gold.Chemscore.Lipo.Weighted>
-11.0433

> <Gold.Chemscore.Internal_Hbond.Weighted>
0.0000

> <Gold.Chemscore.DEClash.Weighted>
0.0533

> <Gold.Chemscore.DEInternal.Weighted>
0.1750

> <Gold.Chemscore.Rot.Weighted>
3.7891

> <Gold.Chemscore.Internal.Correction.Weighted>
   9.000000E+99

> <Gold.Protein.RotatedTorsions>
[ 6907 6896 6895 6894 ] final   76.68 input  -60.11 | X-H torsion
[ 7974 7965 7964 7962 ] final  -64.99 input  175.53 | X-H torsion
[ 8008 7997 7996 7995 ] final  -72.93 input   59.86 | X-H torsion
[ 10167 10162 10161 10158 ] final -119.13 input  -65.29 | X-H torsion
[ 10718 10713 10712 10709 ] final  -35.52 input   66.30 | X-H torsion
[ 10763 10752 10751 10750 ] final   87.83 input  -60.55 | X-H torsion
[ 11005 11000 10999 10996 ] final   41.83 input  -57.11 | X-H torsion

> <Gold.Protein.ActiveResidues>
 VAL166  LYS551  ARG553  GLY616  TRP617  ASP618  TYR619  PRO620  LYS621  CYS622 
 ASP623  PHE694  ASN695  SER759  ASP760  ASP761  ALA762  ILE779  LEU786  VAL792 
 PHE793  MET794  SER795  GLU796  ALA797  LYS798  CYS799  TRP800  GLU811  SER814 

> <Gold.Protein.RotatedAtoms>
  152.5084  134.3932  159.9390 H   0  0  0  0  0  0  0  0  0  0  0  0  # atno 6907 bound_to 6896
  151.3893  133.3788  159.2727 H   0  0  0  0  0  0  0  0  0  0  0  0  # atno 6908 bound_to 6896
  150.9445  134.8872  159.7692 H   0  0  0  0  0  0  0  0  0  0  0  0  # atno 6909 bound_to 6896
  145.7598  140.8867  143.0436 H   0  0  0  0  0  0  0  0  0  0  0  0  # atno 7974 bound_to 7965
  154.5206  140.0788  156.8165 H   0  0  0  0  0  0  0  0  0  0  0  0  # atno 8008 bound_to 7997
  155.3584  140.3416  155.4222 H   0  0  0  0  0  0  0  0  0  0  0  0  # atno 8009 bound_to 7997
  156.1677  140.1609  156.8490 H   0  0  0  0  0  0  0  0  0  0  0  0  # atno 8010 bound_to 7997
  140.0500  143.5069  152.2087 H   0  0  0  0  0  0  0  0  0  0  0  0  # atno 10167 bound_to 10162
  156.3376  130.4289  149.7816 H   0  0  0  0  0  0  0  0  0  0  0  0  # atno 10718 bound_to 10713
  153.1708  135.4529  154.9899 H   0  0  0  0  0  0  0  0  0  0  0  0  # atno 10763 bound_to 10752
  154.7964  135.3239  154.7659 H   0  0  0  0  0  0  0  0  0  0  0  0  # atno 10764 bound_to 10752
  153.8135  135.6953  153.4892 H   0  0  0  0  0  0  0  0  0  0  0  0  # atno 10765 bound_to 10752
  140.1797  134.4120  155.8208 H   0  0  0  0  0  0  0  0  0  0  0  0  # atno 11005 bound_to 11000
  144.6832  139.9707  143.7482 LP  0  0  0  0  0  0  0  0  0  0  0  0  # atno 17320 bound_to 7965
  146.0275  139.3305  143.0775 LP  0  0  0  0  0  0  0  0  0  0  0  0  # atno 17321 bound_to 7965
  139.5959  144.7567  151.3287 LP  0  0  0  0  0  0  0  0  0  0  0  0  # atno 17342 bound_to 10162
  140.7221  143.7106  150.7772 LP  0  0  0  0  0  0  0  0  0  0  0  0  # atno 17343 bound_to 10162
  156.5064  130.8152  151.3152 LP  0  0  0  0  0  0  0  0  0  0  0  0  # atno 17370 bound_to 10713
  157.7441  130.9928  150.2649 LP  0  0  0  0  0  0  0  0  0  0  0  0  # atno 17371 bound_to 10713
  141.2222  133.6994  156.7908 LP  0  0  0  0  0  0  0  0  0  0  0  0  # atno 17394 bound_to 11000
  140.2282  134.8706  157.3449 LP  0  0  0  0  0  0  0  0  0  0  0  0  # atno 17395 bound_to 11000

$$$$
