AV-unprocessed.smi:3004|AV-procd|sdf|11441|dock7
  -GOLD-   2272016373D 1   1.00000     0.00000
 Structure written by MMmdl.
 47 48  0  0  0  0  0  0  0  0  2 V2000
  139.8607  135.0995  160.9952 C   0  0  0  0  0  0  0  0  0  0  0  0
  141.1671  134.4023  160.7555 C   0  0  0  0  0  0  0  0  0  0  0  0
  142.1536  134.0262  161.7092 C   0  0  0  0  0  0  0  0  0  0  0  0
  143.1319  133.4283  160.9660 C   0  0  0  0  0  0  0  0  0  0  0  0
  144.4285  132.8212  161.3907 C   0  0  0  0  0  0  0  0  0  0  0  0
  142.7146  133.4682  159.6472 N   0  0  0  0  0  0  0  0  0  0  0  0
  143.3825  132.9645  158.4570 C   0  0  0  0  0  0  0  0  0  0  0  0
  143.7115  134.0973  157.4836 C   0  0  0  0  0  0  0  0  0  0  0  0
  144.3000  135.1025  157.8820 O   0  0  0  0  0  0  0  0  0  0  0  0
  143.3272  133.9237  156.2093 N   0  0  0  0  0  0  0  0  0  0  0  0
  143.5490  134.8798  155.1324 C   0  0  0  0  0  0  0  0  0  0  0  0
  144.8116  134.5272  154.3207 C   0  0  0  0  0  0  0  0  0  0  0  0
  144.5653  133.5339  153.2401 N   0  3  2  0  0  0  0  0  0  0  0  0
  145.8088  132.8103  152.8596 C   0  0  0  0  0  0  0  0  0  0  0  0
  145.5114  131.6439  151.9040 C   0  0  0  0  0  0  0  0  0  0  0  0
  144.7636  132.1299  150.6583 C   0  0  0  0  0  0  0  0  0  0  0  0
  143.4954  132.8860  151.0765 C   0  0  0  0  0  0  0  0  0  0  0  0
  143.7985  134.0394  152.0569 C   0  0  2  0  0  0  0  0  0  0  0  0
  144.4638  135.2431  151.3555 C   0  0  0  0  0  0  0  0  0  0  0  0
  141.5078  134.0635  159.5229 N   0  0  0  0  0  0  0  0  0  0  0  0
  139.7634  135.4059  162.0369 H   0  0  0  0  0  0  0  0  0  0  0  0
  139.0193  134.4467  160.7618 H   0  0  0  0  0  0  0  0  0  0  0  0
  139.7722  135.9938  160.3777 H   0  0  0  0  0  0  0  0  0  0  0  0
  142.1444  134.1739  162.7790 H   0  0  0  0  0  0  0  0  0  0  0  0
  144.5455  132.8710  162.4734 H   0  0  0  0  0  0  0  0  0  0  0  0
  145.2704  133.3459  160.9387 H   0  0  0  0  0  0  0  0  0  0  0  0
  144.4825  131.7730  161.0966 H   0  0  0  0  0  0  0  0  0  0  0  0
  144.2982  132.4457  158.7453 H   0  0  0  0  0  0  0  0  0  0  0  0
  142.7410  132.2273  157.9725 H   0  0  0  0  0  0  0  0  0  0  0  0
  142.8524  133.0640  155.9719 H   0  0  0  0  0  0  0  0  0  0  0  0
  142.6727  134.8725  154.4838 H   0  0  0  0  0  0  0  0  0  0  0  0
  143.6133  135.8785  155.5646 H   0  0  0  0  0  0  0  0  0  0  0  0
  145.2737  135.4230  153.9054 H   0  0  0  0  0  0  0  0  0  0  0  0
  145.5456  134.1082  155.0107 H   0  0  0  0  0  0  0  0  0  0  0  0
  146.5207  133.5012  152.4068 H   0  0  0  0  0  0  0  0  0  0  0  0
  146.2897  132.4145  153.7549 H   0  0  0  0  0  0  0  0  0  0  0  0
  146.4406  131.1530  151.6134 H   0  0  0  0  0  0  0  0  0  0  0  0
  144.9129  130.8920  152.4202 H   0  0  0  0  0  0  0  0  0  0  0  0
  145.4097  132.7763  150.0632 H   0  0  0  0  0  0  0  0  0  0  0  0
  144.5030  131.2828  150.0232 H   0  0  0  0  0  0  0  0  0  0  0  0
  142.9768  133.2634  150.1943 H   0  0  0  0  0  0  0  0  0  0  0  0
  142.8076  132.1852  151.5516 H   0  0  0  0  0  0  0  0  0  0  0  0
  142.8263  134.3793  152.4110 H   0  0  0  0  0  0  0  0  0  0  0  0
  143.8784  135.5547  150.4902 H   0  0  0  0  0  0  0  0  0  0  0  0
  145.4682  135.0146  151.0004 H   0  0  0  0  0  0  0  0  0  0  0  0
  144.5310  136.1091  152.0135 H   0  0  0  0  0  0  0  0  0  0  0  0
  143.9728  132.8306  153.6578 H   0  0  0  0  0  0  0  0  0  0  0  0
  1  2  1  0  0  0  0
  1 21  1  0  0  0  0
  1 22  1  0  0  0  0
  1 23  1  0  0  0  0
  2 20  2  0  0  0  0
  2  3  1  0  0  0  0
  3  4  2  0  0  0  0
  3 24  1  0  0  0  0
  4  5  1  0  0  0  0
  4  6  1  0  0  0  0
  5 25  1  0  0  0  0
  5 26  1  0  0  0  0
  5 27  1  0  0  0  0
  6  7  1  0  0  0  0
  6 20  1  0  0  0  0
  7  8  1  0  0  0  0
  7 28  1  0  0  0  0
  7 29  1  0  0  0  0
  8  9  2  0  0  0  0
  8 10  1  0  0  0  0
 10 11  1  0  0  0  0
 10 30  1  0  0  0  0
 11 12  1  0  0  0  0
 11 31  1  0  0  0  0
 11 32  1  0  0  0  0
 12 13  1  0  0  0  0
 12 33  1  0  0  0  0
 12 34  1  0  0  0  0
 13 18  1  0  0  0  0
 13 14  1  0  0  0  0
 13 47  1  0  0  0  0
 14 15  1  0  0  0  0
 14 35  1  0  0  0  0
 14 36  1  0  0  0  0
 15 16  1  0  0  0  0
 15 37  1  0  0  0  0
 15 38  1  0  0  0  0
 16 17  1  0  0  0  0
 16 39  1  0  0  0  0
 16 40  1  0  0  0  0
 17 18  1  0  0  0  0
 17 41  1  0  0  0  0
 17 42  1  0  0  0  0
 18 19  1  0  0  0  0
 18 43  1  0  0  0  0
 19 44  1  0  0  0  0
 19 45  1  0  0  0  0
 19 46  1  0  0  0  0
M  CHG  1  13   1
M  END
> <s_m_source_file>
AV-unprocessed.smi

> <i_m_source_file_index>
3004

> <i_lp_mmshare_version>
43012

> <i_f3d_flags>
0

> <s_epik_input>
W0NIM11jMVtjSF1jKFtDSDNdKW4objEpW0NIMl1DKD1PKVtOSF1bQ0gyXVtDSDJdTjJbQ0gyXVtDSDJdW0NIMl1bQ0gyXVtDQEhdMltDSDNd

> <s_epik_cmdline>
J2VwaWtfcHl0aG9uJywgJy1waCcsICc3LjAnLCAnLXRuJywgJzgnLCAnLW1hJywgJzIwMCcsICctbWV0YWxfYmluZGluZycsICctaW1hZScsICc8aW5maWxlLm1hZT4nLCAnLW9tYWUnLCAnPG91dGZpbGUubWFlPic=

> <r_lp_tautomer_probability>
1

> <r_epik_Ionization_Penalty>
0.00303644

> <r_epik_Ionization_Penalty_Charging>
0.00284254

> <r_epik_Ionization_Penalty_Neutral>
0.000193908

> <r_epik_State_Penalty>
-0

> <r_epik_Charging_Adjusted_Penalty>
0.00284254

> <i_epik_Tot_Q>
1

> <i_epik_Tot_abs_Q>
1

> <r_epik_Metal_State_Penalty>
-0

> <b_epik_Metal_Only>
0

> <s_lp_Force_Field>
OPLS_2005

> <r_lp_Energy>
17.6316

> <b_lp_Chiralities_Consistent>
1

> <s_lp_Variant>
AV-unprocessed.smi:3004-3

> <Gold.Version>
5.8.1

> <Gold.Id.Protein>
6NUR|6NUR_protein|mol2

> <Gold.PLP.Fitness>
38.7528

> <Gold.PLP.PLP>
-27.9631

> <Gold.PLP.part.hbond>
-4.0000

> <Gold.PLP.part.metal>
0.0000

> <Gold.PLP.part.buried>
-4.9554

> <Gold.PLP.part.nonpolar>
-19.9386

> <Gold.PLP.part.repulsive>
0.0065

> <Gold.PLP.ligand.clash>
0.0000

> <Gold.PLP.ligand.torsion>
0.5544

> <Gold.PLP.Chemscore.Hbond>
3.9513

> <Gold.PLP.Chemscore.CHOScore>
0.0000

> <Gold.PLP.Chemscore.Metal>
0.0000

> <Gold.Chemscore.Hbonds>
donor molecule, donor type, donor heavy atom, donor atom, acceptor molecule, acceptor atom, score
      L1  H    10    30       P1 10957  0.96
      L1  H    13    47       P1 10957  2.00
      P1  H 11000 11005       L1    20  0.86

> <Gold.PLP.Chemscore.Internal.Correction>
0.0447

> <Gold.Rescore>
     Score         DG    S(hbond)    S(metal)    S(lipo)     H(rot)  DE(clash)    DE(int)     intcor
     17.87     -18.24       2.76        0.00      66.71       1.67       0.00       0.37       ----

> <Gold.Chemscore.Fitness>
17.8704

> <Gold.Chemscore.DG>
-18.2423

> <Gold.Chemscore.ZeroCoef>
-5.4800

> <Gold.Chemscore.Hbond>
2.7609

> <Gold.Chemscore.Metal>
0.0000

> <Gold.Chemscore.Lipo>
66.7104

> <Gold.Chemscore.Internal_Hbond>
0.0000

> <Gold.Chemscore.DEClash>
0.0015

> <Gold.Chemscore.DEInternal>
0.3705

> <Gold.Chemscore.Rot>
1.6657

> <Gold.Chemscore.Internal.Correction>
   9.000000E+99

> <Gold.Chemscore.Hbonds>
donor molecule, donor type, donor heavy atom, donor atom, acceptor molecule, acceptor atom, score
      L1  H    10    30       P1 10957  0.92
      L1  H    13    47       P1 10957  0.74
      P1  H 11000 11005       L1    20  0.74

> <Gold.Chemscore.Hbond.Weighted>
-9.2213

> <Gold.Chemscore.Metal.Weighted>
-0.0000

> <Gold.Chemscore.Lipo.Weighted>
-7.8051

> <Gold.Chemscore.Internal_Hbond.Weighted>
0.0000

> <Gold.Chemscore.DEClash.Weighted>
0.0015

> <Gold.Chemscore.DEInternal.Weighted>
0.3705

> <Gold.Chemscore.Rot.Weighted>
4.2641

> <Gold.Chemscore.Internal.Correction.Weighted>
   9.000000E+99

> <Gold.Protein.RotatedTorsions>
[ 6907 6896 6895 6894 ] final  100.45 input  -60.11 | X-H torsion
[ 7974 7965 7964 7962 ] final   -9.44 input  175.53 | X-H torsion
[ 8008 7997 7996 7995 ] final   12.12 input   59.86 | X-H torsion
[ 10167 10162 10161 10158 ] final -127.05 input  -65.29 | X-H torsion
[ 10718 10713 10712 10709 ] final   -8.29 input   66.30 | X-H torsion
[ 10763 10752 10751 10750 ] final   85.15 input  -60.55 | X-H torsion
[ 11005 11000 10999 10996 ] final -141.26 input  -57.11 | X-H torsion

> <Gold.Protein.ActiveResidues>
 VAL166  LYS551  ARG553  GLY616  TRP617  ASP618  TYR619  PRO620  LYS621  CYS622 
 ASP623  PHE694  ASN695  SER759  ASP760  ASP761  ALA762  ILE779  LEU786  VAL792 
 PHE793  MET794  SER795  GLU796  ALA797  LYS798  CYS799  TRP800  GLU811  SER814 

> <Gold.Protein.RotatedAtoms>
  152.5372  134.0276  159.8009 H   0  0  0  0  0  0  0  0  0  0  0  0  # atno 6907 bound_to 6896
  151.0452  133.5664  159.2654 H   0  0  0  0  0  0  0  0  0  0  0  0  # atno 6908 bound_to 6896
  151.2619  135.0664  159.9155 H   0  0  0  0  0  0  0  0  0  0  0  0  # atno 6909 bound_to 6896
  146.2251  140.2616  142.8352 H   0  0  0  0  0  0  0  0  0  0  0  0  # atno 7974 bound_to 7965
  154.8162  140.2876  155.5818 H   0  0  0  0  0  0  0  0  0  0  0  0  # atno 8008 bound_to 7997
  156.2993  140.2559  156.2991 H   0  0  0  0  0  0  0  0  0  0  0  0  # atno 8009 bound_to 7997
  154.9390  140.0382  157.2076 H   0  0  0  0  0  0  0  0  0  0  0  0  # atno 8010 bound_to 7997
  139.9650  143.5908  152.2432 H   0  0  0  0  0  0  0  0  0  0  0  0  # atno 10167 bound_to 10162
  156.7047  130.5104  149.5908 H   0  0  0  0  0  0  0  0  0  0  0  0  # atno 10718 bound_to 10713
  153.1448  135.4628  154.9549 H   0  0  0  0  0  0  0  0  0  0  0  0  # atno 10763 bound_to 10752
  154.7777  135.3178  154.8060 H   0  0  0  0  0  0  0  0  0  0  0  0  # atno 10764 bound_to 10752
  153.8576  135.6915  153.4840 H   0  0  0  0  0  0  0  0  0  0  0  0  # atno 10765 bound_to 10752
  140.8342  134.2480  157.4842 H   0  0  0  0  0  0  0  0  0  0  0  0  # atno 11005 bound_to 11000
  144.9335  140.8001  143.5674 LP  0  0  0  0  0  0  0  0  0  0  0  0  # atno 17320 bound_to 7965
  145.2562  139.2011  143.4916 LP  0  0  0  0  0  0  0  0  0  0  0  0  # atno 17321 bound_to 7965
  139.6525  144.7661  151.2120 LP  0  0  0  0  0  0  0  0  0  0  0  0  # atno 17342 bound_to 10162
  140.7541  143.6138  150.8579 LP  0  0  0  0  0  0  0  0  0  0  0  0  # atno 17343 bound_to 10162
  156.1704  130.6433  151.0830 LP  0  0  0  0  0  0  0  0  0  0  0  0  # atno 17370 bound_to 10713
  157.6959  131.0794  150.6969 LP  0  0  0  0  0  0  0  0  0  0  0  0  # atno 17371 bound_to 10713
  139.8704  134.9602  156.4356 LP  0  0  0  0  0  0  0  0  0  0  0  0  # atno 17394 bound_to 11000
  140.8965  133.7810  155.9631 LP  0  0  0  0  0  0  0  0  0  0  0  0  # atno 17395 bound_to 11000

$$$$
