AV-unprocessed.smi:2971|AV-procd|sdf|11334|dock1
  -GOLD-   2272016243D 1   1.00000     0.00000
 Structure written by MMmdl.
 37 39  0  0  0  0  0  0  0  0  2 V2000
  150.5351  139.5368  158.1745 O   0  0  0  0  0  0  0  0  0  0  0  0
  151.7534  139.5310  157.4564 C   0  0  2  0  0  0  0  0  0  0  0  0
  152.5260  140.8143  157.8001 C   0  0  0  0  0  0  0  0  0  0  0  0
  152.8990  140.7733  159.1713 O   0  0  0  0  0  0  0  0  0  0  0  0
  152.8318  141.9400  159.9035 C   0  0  0  0  0  0  0  0  0  0  0  0
  152.1042  143.0900  159.5028 C   0  0  0  0  0  0  0  0  0  0  0  0
  152.0888  144.2429  160.3118 C   0  0  0  0  0  0  0  0  0  0  0  0
  152.7974  144.2632  161.5270 C   0  0  0  0  0  0  0  0  0  0  0  0
  153.5226  143.1278  161.9327 C   0  0  0  0  0  0  0  0  0  0  0  0
  153.5382  141.9740  161.1250 C   0  0  0  0  0  0  0  0  0  0  0  0
  154.2403  140.8879  161.5280 F   0  0  0  0  0  0  0  0  0  0  0  0
  151.4540  139.4306  155.9473 C   0  0  0  0  0  0  0  0  0  0  0  0
  150.5798  140.5090  155.4629 N   0  0  0  0  0  0  0  0  0  0  0  0
  150.6946  141.8553  155.6232 C   0  0  0  0  0  0  0  0  0  0  0  0
  149.6341  142.4369  154.9977 N   0  3  0  0  0  0  0  0  0  0  0  0
  148.8302  141.4484  154.4263 C   0  0  0  0  0  0  0  0  0  0  0  0
  147.6515  141.5449  153.6931 C   0  0  0  0  0  0  0  0  0  0  0  0
  147.0818  140.3338  153.2484 C   0  0  0  0  0  0  0  0  0  0  0  0
  147.6821  139.0907  153.5356 C   0  0  0  0  0  0  0  0  0  0  0  0
  148.8761  139.0047  154.2816 C   0  0  0  0  0  0  0  0  0  0  0  0
  149.4328  140.2063  154.7193 C   0  0  0  0  0  0  0  0  0  0  0  0
  150.5470  138.8170  158.7874 H   0  0  0  0  0  0  0  0  0  0  0  0
  152.3374  138.6604  157.7585 H   0  0  0  0  0  0  0  0  0  0  0  0
  153.4353  140.8572  157.1984 H   0  0  0  0  0  0  0  0  0  0  0  0
  151.9309  141.6998  157.5694 H   0  0  0  0  0  0  0  0  0  0  0  0
  151.5492  143.1144  158.5777 H   0  0  0  0  0  0  0  0  0  0  0  0
  151.5318  145.1134  159.9982 H   0  0  0  0  0  0  0  0  0  0  0  0
  152.7850  145.1480  162.1465 H   0  0  0  0  0  0  0  0  0  0  0  0
  154.0681  143.1410  162.8648 H   0  0  0  0  0  0  0  0  0  0  0  0
  152.3724  139.4167  155.3597 H   0  0  0  0  0  0  0  0  0  0  0  0
  150.9431  138.4909  155.7340 H   0  0  0  0  0  0  0  0  0  0  0  0
  151.4837  142.3693  156.1529 H   0  0  0  0  0  0  0  0  0  0  0  0
  147.1905  142.4959  153.4701 H   0  0  0  0  0  0  0  0  0  0  0  0
  146.1670  140.3586  152.6739 H   0  0  0  0  0  0  0  0  0  0  0  0
  147.2188  138.1837  153.1753 H   0  0  0  0  0  0  0  0  0  0  0  0
  149.3302  138.0473  154.4899 H   0  0  0  0  0  0  0  0  0  0  0  0
  149.4737  143.4354  154.9644 H   0  0  0  0  0  0  0  0  0  0  0  0
  1  2  1  0  0  0  0
  1 22  1  0  0  0  0
  2  3  1  0  0  0  0
  2 12  1  0  0  0  0
  2 23  1  0  0  0  0
  3  4  1  0  0  0  0
  3 24  1  0  0  0  0
  3 25  1  0  0  0  0
  4  5  1  0  0  0  0
  5 10  1  0  0  0  0
  5  6  2  0  0  0  0
  6  7  1  0  0  0  0
  6 26  1  0  0  0  0
  7  8  2  0  0  0  0
  7 27  1  0  0  0  0
  8  9  1  0  0  0  0
  8 28  1  0  0  0  0
  9 10  2  0  0  0  0
  9 29  1  0  0  0  0
 10 11  1  0  0  0  0
 12 13  1  0  0  0  0
 12 30  1  0  0  0  0
 12 31  1  0  0  0  0
 13 21  1  0  0  0  0
 13 14  1  0  0  0  0
 14 15  2  0  0  0  0
 14 32  1  0  0  0  0
 15 16  1  0  0  0  0
 15 37  1  0  0  0  0
 16 21  2  0  0  0  0
 16 17  1  0  0  0  0
 17 18  2  0  0  0  0
 17 33  1  0  0  0  0
 18 19  1  0  0  0  0
 18 34  1  0  0  0  0
 19 20  2  0  0  0  0
 19 35  1  0  0  0  0
 20 21  1  0  0  0  0
 20 36  1  0  0  0  0
M  CHG  1  15   1
M  END
> <s_m_source_file>
AV-unprocessed.smi

> <i_m_source_file_index>
2971

> <i_lp_mmshare_version>
43012

> <i_f3d_flags>
0

> <s_epik_input>
W2NIXTFbY0hdW2NIXVtjSF1jKGMxMiluKFtjSF1uMilbQ0gyXVtDQEhdKFtPSF0pW0NIMl1PYzNbY0hdW2NIXVtjSF1bY0hdYzNG

> <s_epik_cmdline>
J2VwaWtfcHl0aG9uJywgJy1waCcsICc3LjAnLCAnLXRuJywgJzgnLCAnLW1hJywgJzIwMCcsICctbWV0YWxfYmluZGluZycsICctaW1hZScsICc8aW5maWxlLm1hZT4nLCAnLW9tYWUnLCAnPG91dGZpbGUubWFlPic=

> <r_lp_tautomer_probability>
1

> <r_epik_Ionization_Penalty>
1.38569

> <r_epik_Ionization_Penalty_Charging>
1.38568

> <r_epik_Ionization_Penalty_Neutral>
2.3993e-06

> <r_epik_State_Penalty>
1.46659

> <r_epik_Charging_Adjusted_Penalty>
2.85227

> <i_epik_Tot_Q>
1

> <i_epik_Tot_abs_Q>
1

> <r_epik_Metal_State_Penalty>
5.50731

> <b_epik_Metal_Only>
0

> <s_lp_Force_Field>
OPLS_2005

> <r_lp_Energy>
22.099

> <b_lp_Chiralities_Consistent>
1

> <s_lp_Variant>
AV-unprocessed.smi:2971-3

> <Gold.Version>
5.8.1

> <Gold.Id.Protein>
6NUR|6NUR_protein|mol2

> <Gold.PLP.Fitness>
53.9385

> <Gold.PLP.PLP>
-49.1051

> <Gold.PLP.part.hbond>
-1.0000

> <Gold.PLP.part.metal>
0.0000

> <Gold.PLP.part.buried>
-4.2348

> <Gold.PLP.part.nonpolar>
-42.4385

> <Gold.PLP.part.repulsive>
0.2130

> <Gold.PLP.ligand.clash>
0.0000

> <Gold.PLP.ligand.torsion>
0.5976

> <Gold.PLP.Chemscore.Hbond>
2.0000

> <Gold.PLP.Chemscore.CHOScore>
0.0000

> <Gold.PLP.Chemscore.Metal>
0.0000

> <Gold.Chemscore.Hbonds>
donor molecule, donor type, donor heavy atom, donor atom, acceptor molecule, acceptor atom, score
      L1  H    15    37       P1  8028  1.98

> <Gold.PLP.Chemscore.Internal.Correction>
0.0287

> <Gold.Rescore>
     Score         DG    S(hbond)    S(metal)    S(lipo)     H(rot)  DE(clash)    DE(int)     intcor
     15.30     -17.14       0.99        0.00     125.12       2.46       0.30       1.54       ----

> <Gold.Chemscore.Fitness>
15.2967

> <Gold.Chemscore.DG>
-17.1411

> <Gold.Chemscore.ZeroCoef>
-5.4800

> <Gold.Chemscore.Hbond>
0.9928

> <Gold.Chemscore.Metal>
0.0000

> <Gold.Chemscore.Lipo>
125.1159

> <Gold.Chemscore.Internal_Hbond>
0.0000

> <Gold.Chemscore.DEClash>
0.3034

> <Gold.Chemscore.DEInternal>
1.5409

> <Gold.Chemscore.Rot>
2.4584

> <Gold.Chemscore.Internal.Correction>
   9.000000E+99

> <Gold.Chemscore.Hbonds>
donor molecule, donor type, donor heavy atom, donor atom, acceptor molecule, acceptor atom, score
      L1  H    15    37       P1  8028  0.91

> <Gold.Chemscore.Hbond.Weighted>
-3.3161

> <Gold.Chemscore.Metal.Weighted>
-0.0000

> <Gold.Chemscore.Lipo.Weighted>
-14.6386

> <Gold.Chemscore.Internal_Hbond.Weighted>
0.0000

> <Gold.Chemscore.DEClash.Weighted>
0.3034

> <Gold.Chemscore.DEInternal.Weighted>
1.5409

> <Gold.Chemscore.Rot.Weighted>
6.2936

> <Gold.Chemscore.Internal.Correction.Weighted>
   9.000000E+99

> <Gold.Protein.RotatedTorsions>
[ 6907 6896 6895 6894 ] final  -81.62 input  -60.11 | X-H torsion
[ 7974 7965 7964 7962 ] final -164.72 input  175.53 | X-H torsion
[ 8008 7997 7996 7995 ] final  169.13 input   59.86 | X-H torsion
[ 10167 10162 10161 10158 ] final  143.93 input  -65.29 | X-H torsion
[ 10718 10713 10712 10709 ] final  165.46 input   66.30 | X-H torsion
[ 10763 10752 10751 10750 ] final  -31.03 input  -60.55 | X-H torsion
[ 11005 11000 10999 10996 ] final  -24.97 input  -57.11 | X-H torsion

> <Gold.Protein.ActiveResidues>
 VAL166  LYS551  ARG553  GLY616  TRP617  ASP618  TYR619  PRO620  LYS621  CYS622 
 ASP623  PHE694  ASN695  SER759  ASP760  ASP761  ALA762  ILE779  LEU786  VAL792 
 PHE793  MET794  SER795  GLU796  ALA797  LYS798  CYS799  TRP800  GLU811  SER814 

> <Gold.Protein.RotatedAtoms>
  150.6909  134.3790  159.5025 H   0  0  0  0  0  0  0  0  0  0  0  0  # atno 6907 bound_to 6896
  152.1595  134.8921  160.0552 H   0  0  0  0  0  0  0  0  0  0  0  0  # atno 6908 bound_to 6896
  151.9988  133.3783  159.4210 H   0  0  0  0  0  0  0  0  0  0  0  0  # atno 6909 bound_to 6896
  144.7289  140.2919  143.6219 H   0  0  0  0  0  0  0  0  0  0  0  0  # atno 7974 bound_to 7965
  156.1485  140.1572  156.8808 H   0  0  0  0  0  0  0  0  0  0  0  0  # atno 8008 bound_to 7997
  154.5049  140.0815  156.7912 H   0  0  0  0  0  0  0  0  0  0  0  0  # atno 8009 bound_to 7997
  155.3942  140.3411  155.4255 H   0  0  0  0  0  0  0  0  0  0  0  0  # atno 8010 bound_to 7997
  139.4958  144.6007  151.6487 H   0  0  0  0  0  0  0  0  0  0  0  0  # atno 10167 bound_to 10162
  157.0798  131.0389  151.2579 H   0  0  0  0  0  0  0  0  0  0  0  0  # atno 10718 bound_to 10713
  153.7907  135.6898  153.4872 H   0  0  0  0  0  0  0  0  0  0  0  0  # atno 10763 bound_to 10752
  153.1751  135.4527  154.9953 H   0  0  0  0  0  0  0  0  0  0  0  0  # atno 10764 bound_to 10752
  154.8046  135.3351  154.7403 H   0  0  0  0  0  0  0  0  0  0  0  0  # atno 10765 bound_to 10752
  140.8895  133.7598  156.0403 H   0  0  0  0  0  0  0  0  0  0  0  0  # atno 11005 bound_to 11000
  145.7846  139.1904  143.2138 LP  0  0  0  0  0  0  0  0  0  0  0  0  # atno 17320 bound_to 7965
  146.0806  140.7769  142.9643 LP  0  0  0  0  0  0  0  0  0  0  0  0  # atno 17321 bound_to 7965
  140.5656  144.0195  150.6191 LP  0  0  0  0  0  0  0  0  0  0  0  0  # atno 17342 bound_to 10162
  140.3296  143.3086  152.0701 LP  0  0  0  0  0  0  0  0  0  0  0  0  # atno 17343 bound_to 10162
  157.4809  130.7764  149.7413 LP  0  0  0  0  0  0  0  0  0  0  0  0  # atno 17370 bound_to 10713
  155.9927  130.3929  150.2932 LP  0  0  0  0  0  0  0  0  0  0  0  0  # atno 17371 bound_to 10713
  140.8364  134.3118  157.5330 LP  0  0  0  0  0  0  0  0  0  0  0  0  # atno 17394 bound_to 11000
  139.8728  134.9392  156.3735 LP  0  0  0  0  0  0  0  0  0  0  0  0  # atno 17395 bound_to 11000

$$$$
