AV-unprocessed.smi:1662|AV-procd|sdf|6661|dock8
  -GOLD-   22720 7373D 1   1.00000     0.00000
 Structure written by MMmdl.
 47 48  0  0  0  0  0  0  0  0  1 V2000
  153.9673  139.7278  160.6153 C   0  0  0  0  0  0  0  0  0  0  0  0
  153.1356  140.7590  159.9007 C   0  0  0  0  0  0  0  0  0  0  0  0
  152.6455  140.4166  158.7547 N   0  0  0  0  0  0  0  0  0  0  0  0
  151.8700  141.2877  158.0141 N   0  0  0  0  0  0  0  0  0  0  0  0
  151.4183  140.7409  156.7260 C   0  0  0  0  0  0  0  0  0  0  0  0
  150.0428  140.0611  156.7973 C   0  0  0  0  0  0  0  0  0  0  0  0
  149.8302  139.1459  157.5940 O   0  0  0  0  0  0  0  0  0  0  0  0
  149.1102  140.5466  155.9631 N   0  0  0  0  0  0  0  0  0  0  0  0
  147.7272  140.0790  155.8411 C   0  0  2  0  0  0  0  0  0  0  0  0
  147.6251  139.0504  154.6999 C   0  0  0  0  0  0  0  0  0  0  0  0
  147.8068  139.7035  153.3220 C   0  0  0  0  0  0  0  0  0  0  0  0
  146.8082  140.8510  153.1216 C   0  0  0  0  0  0  0  0  0  0  0  0
  146.9075  141.9121  154.2374 C   0  0  1  0  0  0  0  0  0  0  0  0
  145.8915  143.0379  153.9734 C   0  0  0  0  0  0  0  0  0  0  0  0
  146.7348  141.2552  155.6358 C   0  0  2  0  0  0  0  0  0  0  0  0
  146.8106  142.2689  156.7955 C   0  0  0  0  0  0  0  0  0  0  0  0
  151.5373  142.5527  158.4021 C   0  0  0  0  0  0  0  0  0  0  0  0
  150.8351  143.2937  157.7124 O   0  0  0  0  0  0  0  0  0  0  0  0
  152.0951  142.9337  159.7015 C   0  0  0  0  0  0  0  0  0  0  0  0
  151.7727  144.2518  160.1446 C   0  0  0  0  0  0  0  0  0  0  0  0
  151.5179  145.3285  160.4855 N   0  0  0  0  0  0  0  0  0  0  0  0
  152.8667  142.0910  160.4330 C   0  0  0  0  0  0  0  0  0  0  0  0
  153.4713  142.4400  161.7862 C   0  0  0  0  0  0  0  0  0  0  0  0
  153.5626  139.5220  161.6064 H   0  0  0  0  0  0  0  0  0  0  0  0
  154.9941  140.0740  160.7335 H   0  0  0  0  0  0  0  0  0  0  0  0
  153.9992  138.7825  160.0712 H   0  0  0  0  0  0  0  0  0  0  0  0
  151.3634  141.5350  155.9792 H   0  0  0  0  0  0  0  0  0  0  0  0
  152.1537  140.0311  156.3422 H   0  0  0  0  0  0  0  0  0  0  0  0
  149.3799  141.3048  155.3535 H   0  0  0  0  0  0  0  0  0  0  0  0
  147.4441  139.5593  156.7582 H   0  0  0  0  0  0  0  0  0  0  0  0
  148.3608  138.2569  154.8385 H   0  0  0  0  0  0  0  0  0  0  0  0
  146.6479  138.5670  154.7392 H   0  0  0  0  0  0  0  0  0  0  0  0
  148.8252  140.0794  153.2176 H   0  0  0  0  0  0  0  0  0  0  0  0
  147.6739  138.9566  152.5388 H   0  0  0  0  0  0  0  0  0  0  0  0
  146.9833  141.3139  152.1500 H   0  0  0  0  0  0  0  0  0  0  0  0
  145.7956  140.4458  153.0896 H   0  0  0  0  0  0  0  0  0  0  0  0
  147.9029  142.3559  154.1870 H   0  0  0  0  0  0  0  0  0  0  0  0
  144.8668  142.6818  154.0840 H   0  0  0  0  0  0  0  0  0  0  0  0
  145.9977  143.4308  152.9619 H   0  0  0  0  0  0  0  0  0  0  0  0
  146.0311  143.8774  154.6540 H   0  0  0  0  0  0  0  0  0  0  0  0
  145.7322  140.8252  155.6675 H   0  0  0  0  0  0  0  0  0  0  0  0
  147.7354  142.8455  156.7675 H   0  0  0  0  0  0  0  0  0  0  0  0
  146.7643  141.7616  157.7597 H   0  0  0  0  0  0  0  0  0  0  0  0
  145.9795  142.9730  156.7698 H   0  0  0  0  0  0  0  0  0  0  0  0
  153.2888  143.4776  162.0645 H   0  0  0  0  0  0  0  0  0  0  0  0
  154.5519  142.2936  161.7749 H   0  0  0  0  0  0  0  0  0  0  0  0
  153.0459  141.8088  162.5671 H   0  0  0  0  0  0  0  0  0  0  0  0
  1  2  1  0  0  0  0
  1 24  1  0  0  0  0
  1 25  1  0  0  0  0
  1 26  1  0  0  0  0
  2 22  1  0  0  0  0
  2  3  2  0  0  0  0
  3  4  1  0  0  0  0
  4  5  1  0  0  0  0
  4 17  1  0  0  0  0
  5  6  1  0  0  0  0
  5 27  1  0  0  0  0
  5 28  1  0  0  0  0
  6  7  2  0  0  0  0
  6  8  1  0  0  0  0
  8  9  1  0  0  0  0
  8 29  1  0  0  0  0
  9 15  1  0  0  0  0
  9 10  1  0  0  0  0
  9 30  1  0  0  0  0
 10 11  1  0  0  0  0
 10 31  1  0  0  0  0
 10 32  1  0  0  0  0
 11 12  1  0  0  0  0
 11 33  1  0  0  0  0
 11 34  1  0  0  0  0
 12 13  1  0  0  0  0
 12 35  1  0  0  0  0
 12 36  1  0  0  0  0
 13 14  1  0  0  0  0
 13 15  1  0  0  0  0
 13 37  1  0  0  0  0
 14 38  1  0  0  0  0
 14 39  1  0  0  0  0
 14 40  1  0  0  0  0
 15 16  1  0  0  0  0
 15 41  1  0  0  0  0
 16 42  1  0  0  0  0
 16 43  1  0  0  0  0
 16 44  1  0  0  0  0
 17 18  2  0  0  0  0
 17 19  1  0  0  0  0
 19 20  1  0  0  0  0
 19 22  2  0  0  0  0
 20 21  3  0  0  0  0
 22 23  1  0  0  0  0
 23 45  1  0  0  0  0
 23 46  1  0  0  0  0
 23 47  1  0  0  0  0
M  END
> <s_m_source_file>
AV-unprocessed.smi

> <i_m_source_file_index>
1662

> <i_lp_mmshare_version>
43012

> <i_f3d_flags>
0

> <s_epik_input>
TiNDYyhjMVtDSDNdKWMoPU8pbihuYzFbQ0gzXSlbQ0gyXUMoPU8pW05IXVtDQEBIXTJbQ0gyXVtDSDJdW0NIMl1bQ0BASF0oW0NIM10pW0NASF0yW0NIM10=

> <s_epik_cmdline>
J2VwaWtfcHl0aG9uJywgJy1waCcsICc3LjAnLCAnLXRuJywgJzgnLCAnLW1hJywgJzIwMCcsICctbWV0YWxfYmluZGluZycsICctaW1hZScsICc8aW5maWxlLm1hZT4nLCAnLW9tYWUnLCAnPG91dGZpbGUubWFlPic=

> <r_lp_tautomer_probability>
1

> <r_epik_Ionization_Penalty>
1.90709e-08

> <r_epik_Ionization_Penalty_Charging>
2.37982e-11

> <r_epik_Ionization_Penalty_Neutral>
1.90471e-08

> <r_epik_State_Penalty>
-0

> <r_epik_Charging_Adjusted_Penalty>
2.37982e-11

> <i_epik_Tot_Q>
0

> <i_epik_Tot_abs_Q>
0

> <r_epik_Metal_State_Penalty>
-0

> <b_epik_Metal_Only>
0

> <s_lp_Force_Field>
OPLS_2005

> <r_lp_Energy>
26.4332

> <b_lp_Chiralities_Consistent>
1

> <s_lp_Variant>
AV-unprocessed.smi:1662-5

> <Gold.Version>
5.8.1

> <Gold.Id.Protein>
6NUR|6NUR_protein|mol2

> <Gold.PLP.Fitness>
37.3708

> <Gold.PLP.PLP>
-38.7714

> <Gold.PLP.part.hbond>
0.0000

> <Gold.PLP.part.metal>
0.0000

> <Gold.PLP.part.buried>
-4.5232

> <Gold.PLP.part.nonpolar>
-35.4473

> <Gold.PLP.part.repulsive>
0.5513

> <Gold.PLP.ligand.clash>
0.0000

> <Gold.PLP.ligand.torsion>
0.7061

> <Gold.PLP.Chemscore.Hbond>
0.0000

> <Gold.PLP.Chemscore.CHOScore>
0.0000

> <Gold.PLP.Chemscore.Metal>
0.0000

> <Gold.PLP.Chemscore.Internal.Correction>
0.0116

> <Gold.Rescore>
     Score         DG    S(hbond)    S(metal)    S(lipo)     H(rot)  DE(clash)    DE(int)     intcor
     11.45     -12.47       0.00        0.00      91.49       1.45       0.30       0.72       ----

> <Gold.Chemscore.Fitness>
11.4496

> <Gold.Chemscore.DG>
-12.4719

> <Gold.Chemscore.ZeroCoef>
-5.4800

> <Gold.Chemscore.Hbond>
0.0000

> <Gold.Chemscore.Metal>
0.0000

> <Gold.Chemscore.Lipo>
91.4942

> <Gold.Chemscore.Internal_Hbond>
0.0000

> <Gold.Chemscore.DEClash>
0.3025

> <Gold.Chemscore.DEInternal>
0.7198

> <Gold.Chemscore.Rot>
1.4504

> <Gold.Chemscore.Internal.Correction>
   9.000000E+99

> <Gold.Chemscore.Hbond.Weighted>
-0.0000

> <Gold.Chemscore.Metal.Weighted>
-0.0000

> <Gold.Chemscore.Lipo.Weighted>
-10.7048

> <Gold.Chemscore.Internal_Hbond.Weighted>
0.0000

> <Gold.Chemscore.DEClash.Weighted>
0.3025

> <Gold.Chemscore.DEInternal.Weighted>
0.7198

> <Gold.Chemscore.Rot.Weighted>
3.7129

> <Gold.Chemscore.Internal.Correction.Weighted>
   9.000000E+99

> <Gold.Protein.RotatedTorsions>
[ 6907 6896 6895 6894 ] final -136.03 input  -60.11 | X-H torsion
[ 7974 7965 7964 7962 ] final  -81.33 input  175.53 | X-H torsion
[ 8008 7997 7996 7995 ] final   22.66 input   59.86 | X-H torsion
[ 10167 10162 10161 10158 ] final   78.28 input  -65.29 | X-H torsion
[ 10718 10713 10712 10709 ] final  120.88 input   66.30 | X-H torsion
[ 10763 10752 10751 10750 ] final   64.11 input  -60.55 | X-H torsion
[ 11005 11000 10999 10996 ] final  101.27 input  -57.11 | X-H torsion

> <Gold.Protein.ActiveResidues>
 VAL166  LYS551  ARG553  GLY616  TRP617  ASP618  TYR619  PRO620  LYS621  CYS622 
 ASP623  PHE694  ASN695  SER759  ASP760  ASP761  ALA762  ILE779  LEU786  VAL792 
 PHE793  MET794  SER795  GLU796  ALA797  LYS798  CYS799  TRP800  GLU811  SER814 

> <Gold.Protein.RotatedAtoms>
  151.0051  133.6018  159.2689 H   0  0  0  0  0  0  0  0  0  0  0  0  # atno 6907 bound_to 6896
  151.3190  135.0813  159.9309 H   0  0  0  0  0  0  0  0  0  0  0  0  # atno 6908 bound_to 6896
  152.5284  133.9702  159.7812 H   0  0  0  0  0  0  0  0  0  0  0  0  # atno 6909 bound_to 6896
  145.5480  140.9500  143.1514 H   0  0  0  0  0  0  0  0  0  0  0  0  # atno 7974 bound_to 7965
  154.9691  140.3088  155.4996 H   0  0  0  0  0  0  0  0  0  0  0  0  # atno 8008 bound_to 7997
  156.2968  140.2287  156.4721 H   0  0  0  0  0  0  0  0  0  0  0  0  # atno 8009 bound_to 7997
  154.7893  140.0441  157.1177 H   0  0  0  0  0  0  0  0  0  0  0  0  # atno 8010 bound_to 7997
  139.9725  144.5884  150.7972 H   0  0  0  0  0  0  0  0  0  0  0  0  # atno 10167 bound_to 10162
  157.5859  131.1070  150.8096 H   0  0  0  0  0  0  0  0  0  0  0  0  # atno 10718 bound_to 10713
  153.0043  135.5405  154.6459 H   0  0  0  0  0  0  0  0  0  0  0  0  # atno 10763 bound_to 10752
  154.5703  135.2841  155.0836 H   0  0  0  0  0  0  0  0  0  0  0  0  # atno 10764 bound_to 10752
  154.2004  135.6485  153.5138 H   0  0  0  0  0  0  0  0  0  0  0  0  # atno 10765 bound_to 10752
  139.8773  134.9176  156.4881 H   0  0  0  0  0  0  0  0  0  0  0  0  # atno 11005 bound_to 11000
  144.7543  139.7113  143.7260 LP  0  0  0  0  0  0  0  0  0  0  0  0  # atno 17320 bound_to 7965
  146.1936  139.5190  142.9789 LP  0  0  0  0  0  0  0  0  0  0  0  0  # atno 17321 bound_to 7965
  140.7517  143.2977  151.3162 LP  0  0  0  0  0  0  0  0  0  0  0  0  # atno 17342 bound_to 10162
  139.6470  144.0433  152.2598 LP  0  0  0  0  0  0  0  0  0  0  0  0  # atno 17343 bound_to 10162
  156.8530  130.5087  149.5310 LP  0  0  0  0  0  0  0  0  0  0  0  0  # atno 17370 bound_to 10713
  156.0908  130.5894  150.9729 LP  0  0  0  0  0  0  0  0  0  0  0  0  # atno 17371 bound_to 10713
  140.8678  133.8011  155.9333 LP  0  0  0  0  0  0  0  0  0  0  0  0  # atno 17394 bound_to 11000
  140.8983  134.2410  157.5056 LP  0  0  0  0  0  0  0  0  0  0  0  0  # atno 17395 bound_to 11000

$$$$
