#       Name:                AV-unprocessed.smi:67
#       Creating user name   scv26
#       Creation time:       Thu Mar 26 16:52:14 2020


#       File generated by GOLD software.
#

@<TRIPOS>MOLECULE
AV-unprocessed.smi:67
    53    55     1
SMALL
NO_CHARGES


@<TRIPOS>ATOM
      1 ****        -3.1397   0.4935  -1.4296 O.3            1 S1                 0.0000
      2 ****        -3.5316   0.2423  -0.0904 C.3            1 S1                 0.0000
      3 ****        -2.8523  -1.0638   0.3805 C.3            1 S1                 0.0000
      4 ****        -1.3678  -0.9815   0.3151 N.4            1 S1                 1.0000
      5 ****        -0.7558  -2.1237  -0.4135 C.3            1 S1                 0.0000
      6 ****         0.7478  -1.8971  -0.6434 C.3            1 S1                 0.0000
      7 ****         1.4641  -1.5969   0.6892 C.3            1 S1                 0.0000
      8 ****         2.8852  -1.4747   0.5925 O.3            1 S1                 0.0000
      9 ****         3.5181  -0.4557  -0.0942 C.ar           1 S1                 0.0000
     10 ****         2.8812   0.6082  -0.7809 C.ar           1 S1                 0.0000
     11 ****         3.6432   1.5915  -1.4401 C.ar           1 S1                 0.0000
     12 ****         5.0480   1.5273  -1.4285 C.ar           1 S1                 0.0000
     13 ****         5.7008   0.4724  -0.7584 C.ar           1 S1                 0.0000
     14 ****         7.2202   0.3942  -0.7308 C.3            1 S1                 0.0000
     15 ****         7.6684   0.9724   0.3827 F              1 S1                 0.0000
     16 ****         7.6258  -0.8760  -0.7486 F              1 S1                 0.0000
     17 ****         7.7545   1.0165  -1.7823 F              1 S1                 0.0000
     18 ****         4.9282  -0.5039  -0.0937 C.ar           1 S1                 0.0000
     19 ****         0.7706  -0.4848   1.5029 C.3            1 S1                 0.0000
     20 ****        -0.7327  -0.7753   1.6439 C.3            1 S1                 0.0000
     21 ****        -3.2425   1.4740   0.7741 C.3            1 S1                 0.0000
     22 ****        -4.4110   2.4162   0.4782 C.3            1 S1                 0.0000
     23 ****        -5.5576   1.5519   0.1391 N.4            1 S1                 1.0000
     24 ****        -5.0679   0.1706  -0.0514 C.3            1 S1                 0.0000
     25 ****        -3.4307  -0.2223  -1.9750 H              1 S1                 0.0000
     26 ****        -3.1700  -1.3166   1.3937 H              1 S1                 0.0000
     27 ****        -3.2114  -1.8831  -0.2450 H              1 S1                 0.0000
     28 ****        -0.9182  -3.0440   0.1498 H              1 S1                 0.0000
     29 ****        -1.2458  -2.2509  -1.3798 H              1 S1                 0.0000
     30 ****         1.1848  -2.7850  -1.1015 H              1 S1                 0.0000
     31 ****         0.8724  -1.0972  -1.3687 H              1 S1                 0.0000
     32 ****         1.3454  -2.5023   1.2863 H              1 S1                 0.0000
     33 ****         1.8112   0.7095  -0.8252 H              1 S1                 0.0000
     34 ****         3.1473   2.4003  -1.9564 H              1 S1                 0.0000
     35 ****         5.6190   2.2919  -1.9343 H              1 S1                 0.0000
     36 ****         5.4246  -1.3077   0.4304 H              1 S1                 0.0000
     37 ****         1.2240  -0.4189   2.4925 H              1 S1                 0.0000
     38 ****         0.8947   0.4969   1.0533 H              1 S1                 0.0000
     39 ****        -1.2091   0.0550   2.1642 H              1 S1                 0.0000
     40 ****        -0.8869  -1.6617   2.2614 H              1 S1                 0.0000
     41 ****        -3.2699   1.2005   1.8299 H              1 S1                 0.0000
     42 ****        -2.2709   1.9279   0.5741 H              1 S1                 0.0000
     43 ****        -4.6397   3.0758   1.3157 H              1 S1                 0.0000
     44 ****        -4.1822   3.0386  -0.3878 H              1 S1                 0.0000
     45 ****        -6.2381   1.5678   0.8858 H              1 S1                 0.0000
     46 ****        -5.5018  -0.2923  -0.9390 H              1 S1                 0.0000
     47 ****        -5.3962  -0.4103   0.8117 H              1 S1                 0.0000
     48 ****        -5.9841   1.8886  -0.7128 H              1 S1                 0.0000
     49 ****        -1.1633  -0.1603  -0.2372 H              1 S1                 0.0000
     50 ****        -2.1438   0.5692  -1.4789 LP             1 S1                 0.0000
     51 ****        -3.5549   1.3465  -1.7460 LP             1 S1                 0.0000
     52 ****         3.2049  -2.3253   0.1751 LP             1 S1                 0.0000
     53 ****         3.2193  -1.4189   1.5334 LP             1 S1                 0.0000
@<TRIPOS>BOND
    1    1    2 1     
    2    1   25 1     
    3    2   24 1     
    4    2    3 1     
    5    2   21 1     
    6    3    4 1     
    7    3   26 1     
    8    3   27 1     
    9    4   20 1     
   10    4    5 1     
   11    4   49 1     
   12    5    6 1     
   13    5   28 1     
   14    5   29 1     
   15    6    7 1     
   16    6   30 1     
   17    6   31 1     
   18    7    8 1     
   19    7   19 1     
   20    7   32 1     
   21    8    9 1     
   22    9   18 ar    
   23    9   10 ar    
   24   10   11 ar    
   25   10   33 1     
   26   11   12 ar    
   27   11   34 1     
   28   12   13 ar    
   29   12   35 1     
   30   13   14 1     
   31   13   18 ar    
   32   14   15 1     
   33   14   16 1     
   34   14   17 1     
   35   18   36 1     
   36   19   20 1     
   37   19   37 1     
   38   19   38 1     
   39   20   39 1     
   40   20   40 1     
   41   21   22 1     
   42   21   41 1     
   43   21   42 1     
   44   22   23 1     
   45   22   43 1     
   46   22   44 1     
   47   23   24 1     
   48   23   45 1     
   49   23   48 1     
   50   24   46 1     
   51   24   47 1     
   52    1   50 1     
   53    1   51 1     
   54    8   52 1     
   55    8   53 1     
@<TRIPOS>SUBSTRUCTURE
      1 S1             1
@<TRIPOS>SET
LONE_PAIRS      STATIC     ATOMS    <user>   **** ""
4 50 51 52 53
DONOR_HYDROGENS      STATIC     ATOMS    <user>   **** ""
4 25 49 45 48
ATOM$BLUE        STATIC     ATOMS    COLORGROUP SYSTEM
4 50 51 52 53
ATOM$RED        STATIC     ATOMS    COLORGROUP SYSTEM
4 25 49 45 48
