AV-unprocessed.smi:113|AV-procd|sdf|1096|dock2
  -GOLD-   2262018203D 1   1.00000     0.00000
 Structure written by MMmdl.
 52 55  0  0  0  0  0  0  0  0  1 V2000
  151.8674  137.5614  158.7637 C   0  0  0  0  0  0  0  0  0  0  0  0
  151.8788  139.0649  158.5809 C   0  0  0  0  0  0  0  0  0  0  0  0
  151.2928  139.6546  157.4469 C   0  0  0  0  0  0  0  0  0  0  0  0
  151.3252  141.0614  157.3112 C   0  0  0  0  0  0  0  0  0  0  0  0
  150.7003  141.7543  156.0954 C   0  0  0  0  0  0  0  0  0  0  0  0
  149.2968  141.4727  155.8288 N   0  0  0  0  0  0  0  0  0  0  0  0
  148.9519  140.9978  154.5396 C   0  0  0  0  0  0  0  0  0  0  0  0
  149.8056  140.8170  153.6687 O   0  0  0  0  0  0  0  0  0  0  0  0
  147.5261  140.7312  154.3355 C   0  0  0  0  0  0  0  0  0  0  0  0
  147.0738  140.2612  152.9619 C   0  0  0  0  0  0  0  0  0  0  0  0
  146.6560  140.9073  155.3586 C   0  0  0  0  0  0  0  0  0  0  0  0
  147.0282  141.3305  156.6232 N   0  0  0  0  0  0  0  0  0  0  0  0
  146.0055  141.4884  157.7253 C   0  0  1  0  0  0  0  0  0  0  0  0
  144.5854  141.4387  157.1591 C   0  0  0  0  0  0  0  0  0  0  0  0
  143.8566  140.6654  158.2378 C   0  0  1  0  0  0  0  0  0  0  0  0
  142.7146  140.0223  157.7102 O   0  0  0  0  0  0  0  0  0  0  0  0
  144.9331  139.6775  158.6974 C   0  0  2  0  0  0  0  0  0  0  0  0
  144.7463  139.1348  160.1227 C   0  0  0  0  0  0  0  0  0  0  0  0
  145.8681  138.3716  160.5125 O   0  0  0  0  0  0  0  0  0  0  0  0
  146.1411  140.4331  158.6328 O   0  0  0  0  0  0  0  0  0  0  0  0
  148.3768  141.6450  156.8878 C   0  0  0  0  0  0  0  0  0  0  0  0
  148.7313  142.0446  157.9995 O   0  0  0  0  0  0  0  0  0  0  0  0
  151.9551  141.8148  158.3385 C   0  0  0  0  0  0  0  0  0  0  0  0
  152.0277  143.2278  158.2813 C   0  0  0  0  0  0  0  0  0  0  0  0
  152.6579  143.9545  159.3070 C   0  0  0  0  0  0  0  0  0  0  0  0
  153.2222  143.2772  160.4005 C   0  0  0  0  0  0  0  0  0  0  0  0
  153.1533  141.8739  160.4654 C   0  0  0  0  0  0  0  0  0  0  0  0
  152.5248  141.1237  159.4484 C   0  0  0  0  0  0  0  0  0  0  0  0
  152.4802  139.7772  159.5534 N   0  0  0  0  0  0  0  0  0  0  0  0
  151.0859  137.0997  158.1593 H   0  0  0  0  0  0  0  0  0  0  0  0
  151.6863  137.2981  159.8065 H   0  0  0  0  0  0  0  0  0  0  0  0
  152.8267  137.1395  158.4636 H   0  0  0  0  0  0  0  0  0  0  0  0
  150.8306  139.0243  156.7020 H   0  0  0  0  0  0  0  0  0  0  0  0
  150.8053  142.8367  156.1845 H   0  0  0  0  0  0  0  0  0  0  0  0
  151.2574  141.5042  155.1914 H   0  0  0  0  0  0  0  0  0  0  0  0
  145.9920  140.1351  152.9112 H   0  0  0  0  0  0  0  0  0  0  0  0
  147.5340  139.3033  152.7172 H   0  0  0  0  0  0  0  0  0  0  0  0
  147.3600  140.9843  152.1971 H   0  0  0  0  0  0  0  0  0  0  0  0
  145.6123  140.7074  155.1694 H   0  0  0  0  0  0  0  0  0  0  0  0
  146.2308  142.4123  158.2594 H   0  0  0  0  0  0  0  0  0  0  0  0
  144.1915  142.4408  156.9868 H   0  0  0  0  0  0  0  0  0  0  0  0
  144.5851  140.8873  156.2168 H   0  0  0  0  0  0  0  0  0  0  0  0
  143.5718  141.3356  159.0504 H   0  0  0  0  0  0  0  0  0  0  0  0
  142.8112  139.9579  156.7721 H   0  0  0  0  0  0  0  0  0  0  0  0
  145.0194  138.8546  157.9857 H   0  0  0  0  0  0  0  0  0  0  0  0
  144.6394  139.9614  160.8254 H   0  0  0  0  0  0  0  0  0  0  0  0
  143.8429  138.5289  160.1980 H   0  0  0  0  0  0  0  0  0  0  0  0
  145.6913  137.4616  160.3275 H   0  0  0  0  0  0  0  0  0  0  0  0
  151.6046  143.7790  157.4556 H   0  0  0  0  0  0  0  0  0  0  0  0
  152.7077  145.0322  159.2539 H   0  0  0  0  0  0  0  0  0  0  0  0
  153.7075  143.8327  161.1894 H   0  0  0  0  0  0  0  0  0  0  0  0
  153.5905  141.3644  161.3117 H   0  0  0  0  0  0  0  0  0  0  0  0
  1  2  1  0  0  0  0
  1 30  1  0  0  0  0
  1 31  1  0  0  0  0
  1 32  1  0  0  0  0
  2 29  1  0  0  0  0
  2  3  2  0  0  0  0
  3  4  1  0  0  0  0
  3 33  1  0  0  0  0
  4  5  1  0  0  0  0
  4 23  2  0  0  0  0
  5  6  1  0  0  0  0
  5 34  1  0  0  0  0
  5 35  1  0  0  0  0
  6 21  1  0  0  0  0
  6  7  1  0  0  0  0
  7  8  2  0  0  0  0
  7  9  1  0  0  0  0
  9 10  1  0  0  0  0
  9 11  2  0  0  0  0
 10 36  1  0  0  0  0
 10 37  1  0  0  0  0
 10 38  1  0  0  0  0
 11 12  1  0  0  0  0
 11 39  1  0  0  0  0
 12 13  1  0  0  0  0
 12 21  1  0  0  0  0
 13 20  1  0  0  0  0
 13 14  1  0  0  0  0
 13 40  1  0  0  0  0
 14 15  1  0  0  0  0
 14 41  1  0  0  0  0
 14 42  1  0  0  0  0
 15 16  1  0  0  0  0
 15 17  1  0  0  0  0
 15 43  1  0  0  0  0
 16 44  1  0  0  0  0
 17 18  1  0  0  0  0
 17 20  1  0  0  0  0
 17 45  1  0  0  0  0
 18 19  1  0  0  0  0
 18 46  1  0  0  0  0
 18 47  1  0  0  0  0
 19 48  1  0  0  0  0
 21 22  2  0  0  0  0
 23 28  1  0  0  0  0
 23 24  1  0  0  0  0
 24 25  2  0  0  0  0
 24 49  1  0  0  0  0
 25 26  1  0  0  0  0
 25 50  1  0  0  0  0
 26 27  2  0  0  0  0
 26 51  1  0  0  0  0
 27 28  1  0  0  0  0
 27 52  1  0  0  0  0
 28 29  2  0  0  0  0
M  END
> <s_m_source_file>
AV-unprocessed.smi

> <i_m_source_file_index>
113

> <i_lp_mmshare_version>
43012

> <i_f3d_flags>
0

> <s_epik_input>
W2NIXTFbY0hdW2NIXVtjSF1jKGMxMiluYyhbQ0gzXSlbY0hdYzJbQ0gyXW4zYyg9TyljKFtDSDNdKVtjSF1uKGMzPU8pW0NAQEhdNFtDSDJdW0NAQEhdKFtPSF0pW0NASF0oTzQpW0NIMl1bT0hd

> <s_epik_cmdline>
J2VwaWtfcHl0aG9uJywgJy1waCcsICc3LjAnLCAnLXRuJywgJzgnLCAnLW1hJywgJzIwMCcsICctbWV0YWxfYmluZGluZycsICctaW1hZScsICc8aW5maWxlLm1hZT4nLCAnLW9tYWUnLCAnPG91dGZpbGUubWFlPic=

> <r_lp_tautomer_probability>
1

> <r_epik_Ionization_Penalty>
0.214728

> <r_epik_Ionization_Penalty_Charging>
3.04883e-08

> <r_epik_Ionization_Penalty_Neutral>
0.214728

> <r_epik_State_Penalty>
0.204913

> <r_epik_Charging_Adjusted_Penalty>
0.204913

> <i_epik_Tot_Q>
0

> <i_epik_Tot_abs_Q>
0

> <r_epik_Metal_State_Penalty>
0.000244761

> <b_epik_Metal_Only>
0

> <s_epik_Chemistry_Notes>
This compound contains an acetal/aminal-like group ( X-CH(R)-Y where X, Y are N, S, or O) that may be acid/base labile, releasing an aldehyde.

> <s_lp_Force_Field>
OPLS_2005

> <r_lp_Energy>
37.2315

> <b_lp_Chiralities_Consistent>
1

> <s_lp_Variant>
AV-unprocessed.smi:113-6

> <Gold.Version>
5.8.1

> <Gold.Id.Protein>
6NUR|6NUR_protein|mol2

> <Gold.PLP.Fitness>
47.4650

> <Gold.PLP.PLP>
-41.0494

> <Gold.PLP.part.hbond>
-3.7570

> <Gold.PLP.part.metal>
0.0000

> <Gold.PLP.part.buried>
-4.0834

> <Gold.PLP.part.nonpolar>
-35.3041

> <Gold.PLP.part.repulsive>
3.3140

> <Gold.PLP.ligand.clash>
0.0000

> <Gold.PLP.ligand.torsion>
0.4243

> <Gold.PLP.Chemscore.Hbond>
2.4149

> <Gold.PLP.Chemscore.CHOScore>
0.0000

> <Gold.PLP.Chemscore.Metal>
0.0000

> <Gold.Chemscore.Hbonds>
donor molecule, donor type, donor heavy atom, donor atom, acceptor molecule, acceptor atom, score
      P1  H  6934  6946       L1    20  0.13
      P1  H  6934  6947       L1    19  0.67
      P1  H  7989  7998       L1     8  0.42
      P1  H  8011  8017       L1     8  0.88

> <Gold.PLP.Chemscore.Internal.Correction>
0.0193

> <Gold.Rescore>
     Score         DG    S(hbond)    S(metal)    S(lipo)     H(rot)  DE(clash)    DE(int)     intcor
     14.45     -17.99       2.13        0.00     110.61       2.95       1.64       1.90       ----

> <Gold.Chemscore.Fitness>
14.4463

> <Gold.Chemscore.DG>
-17.9928

> <Gold.Chemscore.ZeroCoef>
-5.4800

> <Gold.Chemscore.Hbond>
2.1302

> <Gold.Chemscore.Metal>
0.0000

> <Gold.Chemscore.Lipo>
110.6145

> <Gold.Chemscore.Internal_Hbond>
0.0000

> <Gold.Chemscore.DEClash>
1.6416

> <Gold.Chemscore.DEInternal>
1.9049

> <Gold.Chemscore.Rot>
2.9469

> <Gold.Chemscore.Internal.Correction>
   9.000000E+99

> <Gold.Chemscore.Hbonds>
donor molecule, donor type, donor heavy atom, donor atom, acceptor molecule, acceptor atom, score
      P1  H  6934  6946       L1    20  0.10
      P1  H  6934  6947       L1    19  0.63
      P1  H  7989  7998       L1     8  0.42
      P1  H  8011  8017       L1     8  0.61

> <Gold.Chemscore.Hbond.Weighted>
-7.1148

> <Gold.Chemscore.Metal.Weighted>
-0.0000

> <Gold.Chemscore.Lipo.Weighted>
-12.9419

> <Gold.Chemscore.Internal_Hbond.Weighted>
0.0000

> <Gold.Chemscore.DEClash.Weighted>
1.6416

> <Gold.Chemscore.DEInternal.Weighted>
1.9049

> <Gold.Chemscore.Rot.Weighted>
7.5439

> <Gold.Chemscore.Internal.Correction.Weighted>
   9.000000E+99

> <Gold.Protein.RotatedTorsions>
[ 6907 6896 6895 6894 ] final    2.57 input  -60.11 | X-H torsion
[ 7974 7965 7964 7962 ] final -154.79 input  175.53 | X-H torsion
[ 8008 7997 7996 7995 ] final  -13.78 input   59.86 | X-H torsion
[ 10167 10162 10161 10158 ] final -134.62 input  -65.29 | X-H torsion
[ 10718 10713 10712 10709 ] final -115.35 input   66.30 | X-H torsion
[ 10763 10752 10751 10750 ] final  114.56 input  -60.55 | X-H torsion
[ 11005 11000 10999 10996 ] final  177.76 input  -57.11 | X-H torsion

> <Gold.Protein.ActiveResidues>
 VAL166  LYS551  ARG553  GLY616  TRP617  ASP618  TYR619  PRO620  LYS621  CYS622 
 ASP623  PHE694  ASN695  SER759  ASP760  ASP761  ALA762  ILE779  LEU786  VAL792 
 PHE793  MET794  SER795  GLU796  ALA797  LYS798  CYS799  TRP800  GLU811  SER814 

> <Gold.Protein.RotatedAtoms>
  151.6111  135.1040  160.0080 H   0  0  0  0  0  0  0  0  0  0  0  0  # atno 6907 bound_to 6896
  152.4208  133.7109  159.6489 H   0  0  0  0  0  0  0  0  0  0  0  0  # atno 6908 bound_to 6896
  150.8095  133.8374  159.3211 H   0  0  0  0  0  0  0  0  0  0  0  0  # atno 6909 bound_to 6896
  144.7672  140.4339  143.5933 H   0  0  0  0  0  0  0  0  0  0  0  0  # atno 7974 bound_to 7965
  154.5264  140.2240  155.8883 H   0  0  0  0  0  0  0  0  0  0  0  0  # atno 8008 bound_to 7997
  156.1717  140.3120  155.8950 H   0  0  0  0  0  0  0  0  0  0  0  0  # atno 8009 bound_to 7997
  155.3544  140.0457  157.3037 H   0  0  0  0  0  0  0  0  0  0  0  0  # atno 8010 bound_to 7997
  139.8862  143.6778  152.2619 H   0  0  0  0  0  0  0  0  0  0  0  0  # atno 10167 bound_to 10162
  156.0890  130.6076  150.8894 H   0  0  0  0  0  0  0  0  0  0  0  0  # atno 10718 bound_to 10713
  153.5091  135.3621  155.2578 H   0  0  0  0  0  0  0  0  0  0  0  0  # atno 10763 bound_to 10752
  154.8743  135.4018  154.3389 H   0  0  0  0  0  0  0  0  0  0  0  0  # atno 10764 bound_to 10752
  153.4039  135.7076  153.6473 H   0  0  0  0  0  0  0  0  0  0  0  0  # atno 10765 bound_to 10752
  140.3876  134.6890  157.4489 H   0  0  0  0  0  0  0  0  0  0  0  0  # atno 11005 bound_to 11000
  145.6434  139.1553  143.2902 LP  0  0  0  0  0  0  0  0  0  0  0  0  # atno 17320 bound_to 7965
  146.1789  140.6529  142.9198 LP  0  0  0  0  0  0  0  0  0  0  0  0  # atno 17321 bound_to 7965
  139.7151  144.7613  151.1047 LP  0  0  0  0  0  0  0  0  0  0  0  0  # atno 17342 bound_to 10162
  140.7735  143.5280  150.9457 LP  0  0  0  0  0  0  0  0  0  0  0  0  # atno 17343 bound_to 10162
  157.6033  131.0940  150.8923 LP  0  0  0  0  0  0  0  0  0  0  0  0  # atno 17370 bound_to 10713
  156.9076  130.5269  149.5281 LP  0  0  0  0  0  0  0  0  0  0  0  0  # atno 17371 bound_to 10713
  140.0430  134.6239  155.8956 LP  0  0  0  0  0  0  0  0  0  0  0  0  # atno 17394 bound_to 11000
  141.1902  133.6567  156.5400 LP  0  0  0  0  0  0  0  0  0  0  0  0  # atno 17395 bound_to 11000

$$$$
