#       Name:                AV-unprocessed.smi:3195
#       Creating user name   scv26
#       Creation time:       Fri Mar 27 18:05:18 2020


#       File generated by GOLD software.
#

@<TRIPOS>MOLECULE
AV-unprocessed.smi:3195
    34    35     1
SMALL
NO_CHARGES


@<TRIPOS>ATOM
      1 ****        -2.2278  -1.7763   1.2478 C.3            1 S1                 0.0000
      2 ****        -1.6878  -0.9131   0.0945 C.3            1 S1                 0.0000
      3 ****        -0.1450  -0.8750   0.1293 C.2            1 S1                 0.0000
      4 ****         0.4850  -1.9114  -0.0894 O.2            1 S1                 0.0000
      5 ****         0.4274   0.3120   0.4103 N.am           1 S1                 0.0000
      6 ****         1.8088   0.6401   0.4987 C.ar           1 S1                 0.0000
      7 ****         2.7840  -0.2836   0.3079 N.pl3          1 S1                 1.0000
      8 ****         4.1031  -0.0046   0.3834 C.ar           1 S1                 0.0000
      9 ****         4.5258   1.3063   0.6743 C.ar           1 S1                 0.0000
     10 ****         3.5548   2.3057   0.8824 C.ar           1 S1                 0.0000
     11 ****         2.1863   1.9727   0.7944 C.ar           1 S1                 0.0000
     12 ****         1.2451   2.9433   0.9955 O.co2          1 S1                -1.0000
     13 ****        -2.2200  -1.3828  -1.2801 C.3            1 S1                 0.0000
     14 ****        -3.1197  -0.2521  -1.7460 C.3            1 S1                 0.0000
     15 ****        -2.5480   0.9493  -1.0116 C.3            1 S1                 0.0000
     16 ****        -2.2163   0.4074   0.2583 O.3            1 S1                 0.0000
     17 ****        -1.9045  -2.8139   1.1566 H              1 S1                 0.0000
     18 ****        -3.3181  -1.7713   1.2616 H              1 S1                 0.0000
     19 ****        -1.8870  -1.4049   2.2150 H              1 S1                 0.0000
     20 ****        -0.2047   1.0832   0.5740 H              1 S1                 0.0000
     21 ****         4.7741  -0.8328   0.2089 H              1 S1                 0.0000
     22 ****         5.5776   1.5431   0.7367 H              1 S1                 0.0000
     23 ****         3.8583   3.3179   1.1067 H              1 S1                 0.0000
     24 ****         2.5027  -1.2413   0.0952 H              1 S1                 0.0000
     25 ****        -1.4138  -1.5226  -2.0025 H              1 S1                 0.0000
     26 ****        -2.7640  -2.3267  -1.2250 H              1 S1                 0.0000
     27 ****        -3.1257  -0.1268  -2.8290 H              1 S1                 0.0000
     28 ****        -4.1440  -0.4321  -1.4171 H              1 S1                 0.0000
     29 ****        -1.6475   1.3182  -1.5052 H              1 S1                 0.0000
     30 ****        -3.2586   1.7716  -0.9263 H              1 S1                 0.0000
     31 ****        -0.0036  -2.7615  -0.2859 LP             1 S1                 0.0000
     32 ****         1.4848  -1.9022  -0.0703 LP             1 S1                 0.0000
     33 ****        -1.5314   0.9876   0.6990 LP             1 S1                 0.0000
     34 ****        -3.0371   0.3689   0.8283 LP             1 S1                 0.0000
@<TRIPOS>BOND
    1    1    2 1     
    2    1   17 1     
    3    1   18 1     
    4    1   19 1     
    5    2   16 1     
    6    2    3 1     
    7    2   13 1     
    8    3    4 2     
    9    3    5 am    
   10    5   20 1     
   11    5    6 1     
   12    6   11 ar    
   13    6    7 ar    
   14    7   24 1     
   15    7    8 ar    
   16    8   21 1     
   17    8    9 ar    
   18    9   22 1     
   19    9   10 ar    
   20   10   11 ar    
   21   10   23 1     
   22   11   12 ar    
   23   13   14 1     
   24   13   25 1     
   25   13   26 1     
   26   14   15 1     
   27   14   27 1     
   28   14   28 1     
   29   15   16 1     
   30   15   29 1     
   31   15   30 1     
   32    4   31 1     
   33    4   32 1     
   34   16   33 1     
   35   16   34 1     
@<TRIPOS>SUBSTRUCTURE
      1 S1             1
@<TRIPOS>SET
LONE_PAIRS      STATIC     ATOMS    <user>   **** ""
5 31 32 12 33 34
DONOR_HYDROGENS      STATIC     ATOMS    <user>   **** ""
2 20 24
ATOM$BLUE        STATIC     ATOMS    COLORGROUP SYSTEM
5 31 32 12 33 34
ATOM$RED        STATIC     ATOMS    COLORGROUP SYSTEM
2 20 24
