#       Name:                AV-unprocessed.smi:51
#       Creating user name   scv26
#       Creation time:       Thu Mar 26 16:37:46 2020


#       File generated by GOLD software.
#

@<TRIPOS>MOLECULE
AV-unprocessed.smi:51
    33    34     1
SMALL
NO_CHARGES


@<TRIPOS>ATOM
      1 ****        -2.3143   2.5765  -0.2814 O.co2          1 S1                 0.0000
      2 ****        -1.9463   1.6323   0.4502 C.2            1 S1                 0.0000
      3 ****        -2.7057   0.8603   1.0773 O.co2          1 S1                -1.0000
      4 ****        -0.4331   1.3968   0.5648 C.3            1 S1                 0.0000
      5 ****         0.0989   1.7166   1.9725 C.3            1 S1                 0.0000
      6 ****         1.2751   0.7526   2.1256 C.3            1 S1                 0.0000
      7 ****         1.5944   0.4881   3.4751 O.3            1 S1                 0.0000
      8 ****         0.8116  -0.5002   1.3795 C.3            1 S1                 0.0000
      9 ****        -0.0694  -0.0014   0.3339 N.pl3          1 S1                 0.0000
     10 ****        -0.1395  -0.6241  -0.9279 C.ar           1 S1                 0.0000
     11 ****         0.1038  -2.0058  -1.0745 C.ar           1 S1                 0.0000
     12 ****         0.0002  -2.5438  -2.3706 C.ar           1 S1                 0.0000
     13 ****        -0.3175  -1.7484  -3.4202 N.pl3          1 S1                 1.0000
     14 ****        -0.5351  -0.4414  -3.2150 C.ar           1 S1                 0.0000
     15 ****        -0.4500   0.1283  -2.0082 N.ar           1 S1                 0.0000
     16 ****         0.0912   2.0150  -0.1655 H              1 S1                 0.0000
     17 ****         0.3961   2.7601   2.0807 H              1 S1                 0.0000
     18 ****        -0.6538   1.5042   2.7346 H              1 S1                 0.0000
     19 ****         2.1496   1.1715   1.6256 H              1 S1                 0.0000
     20 ****         1.8250   1.3035   3.8934 H              1 S1                 0.0000
     21 ****         1.6637  -1.0592   0.9908 H              1 S1                 0.0000
     22 ****         0.2342  -1.1596   2.0292 H              1 S1                 0.0000
     23 ****         0.3439  -2.6380  -0.2324 H              1 S1                 0.0000
     24 ****         0.1579  -3.5872  -2.6013 H              1 S1                 0.0000
     25 ****        -0.7871   0.1529  -4.0808 H              1 S1                 0.0000
     26 ****        -0.3926  -2.1490  -4.3553 H              1 S1                 0.0000
     27 ****        -3.2890   2.7646  -0.4026 LP             1 S1                 0.0000
     28 ****        -1.6341   3.1438  -0.7456 LP             1 S1                 0.0000
     29 ****        -3.6973   0.9743   1.0148 LP             1 S1                 0.0000
     30 ****        -2.3211   0.1293   1.6410 LP             1 S1                 0.0000
     31 ****         2.3669  -0.1452   3.5212 LP             1 S1                 0.0000
     32 ****         0.8042   0.0840   3.9359 LP             1 S1                 0.0000
     33 ****        -0.6157   1.1090  -1.9046 LP             1 S1                 0.0000
@<TRIPOS>BOND
    1    1    2 ar    
    2    2    3 ar    
    3    2    4 1     
    4    4    9 1     
    5    4    5 1     
    6    4   16 1     
    7    5    6 1     
    8    5   17 1     
    9    5   18 1     
   10    6    7 1     
   11    6    8 1     
   12    6   19 1     
   13    7   20 1     
   14    8    9 1     
   15    8   21 1     
   16    8   22 1     
   17    9   10 1     
   18   10   15 ar    
   19   10   11 ar    
   20   11   12 ar    
   21   11   23 1     
   22   12   13 ar    
   23   12   24 1     
   24   13   14 ar    
   25   13   26 1     
   26   14   15 ar    
   27   14   25 1     
   28    1   27 1     
   29    1   28 1     
   30    3   29 1     
   31    3   30 1     
   32    7   31 1     
   33    7   32 1     
   34   15   33 1     
@<TRIPOS>SUBSTRUCTURE
      1 S1             1
@<TRIPOS>SET
LONE_PAIRS      STATIC     ATOMS    <user>   **** ""
7 27 28 29 30 31 32 33
DONOR_HYDROGENS      STATIC     ATOMS    <user>   **** ""
2 20 26
ATOM$BLUE        STATIC     ATOMS    COLORGROUP SYSTEM
7 27 28 29 30 31 32 33
ATOM$RED        STATIC     ATOMS    COLORGROUP SYSTEM
2 20 26
