#       Name:                AV-unprocessed.smi:2212
#       Creating user name   scv26
#       Creation time:       Fri Mar 27 12:17:00 2020


#       File generated by GOLD software.
#

@<TRIPOS>MOLECULE
AV-unprocessed.smi:2212
    38    39     1
SMALL
NO_CHARGES


@<TRIPOS>ATOM
      1 ****        -1.9946   1.8595  -2.2172 C.3            1 S1                 0.0000
      2 ****        -2.3089   1.0060  -1.1246 O.3            1 S1                 0.0000
      3 ****        -1.8265  -0.3350  -1.2185 C.3            1 S1                 0.0000
      4 ****        -0.2925  -0.3961  -1.2115 C.3            1 S1                 0.0000
      5 ****         0.2462   0.2793  -0.0380 N.am           1 S1                 0.0000
      6 ****         1.5429   0.3171   0.2970 C.2            1 S1                 0.0000
      7 ****         2.4028  -0.2576  -0.3782 O.2            1 S1                 0.0000
      8 ****         1.7165   1.0401   1.4668 N.2            1 S1                 0.0000
      9 ****         2.7547   0.7989   2.2056 C.2            1 S1                 0.0000
     10 ****         3.1184   1.4256   3.3866 N.pl3          1 S1                 0.0000
     11 ****         4.2747   0.8495   3.8352 C.2            1 S1                 0.0000
     12 ****         4.6245  -0.1017   2.9740 C.2            1 S1                 0.0000
     13 ****         3.7129  -0.1588   1.9635 O.3            1 S1                 0.0000
     14 ****        -2.5809  -1.1858  -0.1793 C.3            1 S1                 0.0000
     15 ****        -2.7996  -2.2451  -1.2612 C.3            1 S1                 0.0000
     16 ****        -2.5952  -1.1327  -2.2908 C.3            1 S1                 0.0000
     17 ****        -2.5017   2.8144  -2.0815 H              1 S1                 0.0000
     18 ****        -2.3244   1.4422  -3.1687 H              1 S1                 0.0000
     19 ****        -0.9261   2.0661  -2.2752 H              1 S1                 0.0000
     20 ****         0.0419  -1.4347  -1.2043 H              1 S1                 0.0000
     21 ****         0.1264   0.0483  -2.1147 H              1 S1                 0.0000
     22 ****        -0.4148   0.7613   0.5542 H              1 S1                 0.0000
     23 ****         2.6447   2.1770   3.8672 H              1 S1                 0.0000
     24 ****         4.7369   1.1918   4.7494 H              1 S1                 0.0000
     25 ****         5.4537  -0.7930   2.9404 H              1 S1                 0.0000
     26 ****        -1.9785  -1.5224   0.6650 H              1 S1                 0.0000
     27 ****        -3.5156  -0.7313   0.1547 H              1 S1                 0.0000
     28 ****        -2.0095  -2.9975  -1.2857 H              1 S1                 0.0000
     29 ****        -3.7921  -2.6963  -1.2656 H              1 S1                 0.0000
     30 ****        -3.5359  -0.6654  -2.5875 H              1 S1                 0.0000
     31 ****        -2.0016  -1.4235  -3.1579 H              1 S1                 0.0000
     32 ****        -3.3048   0.9678  -1.0428 LP             1 S1                 0.0000
     33 ****        -1.9219   1.4131  -0.2972 LP             1 S1                 0.0000
     34 ****         2.1378  -0.7668  -1.1970 LP             1 S1                 0.0000
     35 ****         3.3641  -0.2137  -0.1060 LP             1 S1                 0.0000
     36 ****         1.0518   1.7366   1.7368 LP             1 S1                 0.0000
     37 ****         4.1627   0.0236   1.0892 LP             1 S1                 0.0000
     38 ****         3.2897  -1.0645   1.9382 LP             1 S1                 0.0000
@<TRIPOS>BOND
    1    1    2 1     
    2    1   17 1     
    3    1   18 1     
    4    1   19 1     
    5    2    3 1     
    6    3   16 1     
    7    3    4 1     
    8    3   14 1     
    9    4    5 1     
   10    4   20 1     
   11    4   21 1     
   12    5   22 1     
   13    5    6 am    
   14    6    8 1     
   15    6    7 2     
   16    8    9 2     
   17    9   13 1     
   18    9   10 1     
   19   10   23 1     
   20   10   11 1     
   21   11   24 1     
   22   11   12 2     
   23   12   25 1     
   24   12   13 1     
   25   14   15 1     
   26   14   26 1     
   27   14   27 1     
   28   15   16 1     
   29   15   28 1     
   30   15   29 1     
   31   16   30 1     
   32   16   31 1     
   33    2   32 1     
   34    2   33 1     
   35    7   34 1     
   36    7   35 1     
   37    8   36 1     
   38   13   37 1     
   39   13   38 1     
@<TRIPOS>SUBSTRUCTURE
      1 S1             1
@<TRIPOS>SET
LONE_PAIRS      STATIC     ATOMS    <user>   **** ""
7 32 33 34 35 36 37 38
DONOR_HYDROGENS      STATIC     ATOMS    <user>   **** ""
2 22 23
ATOM$BLUE        STATIC     ATOMS    COLORGROUP SYSTEM
7 32 33 34 35 36 37 38
ATOM$RED        STATIC     ATOMS    COLORGROUP SYSTEM
2 22 23
