AV-unprocessed.smi:856|AV-procd|sdf|3959|dock1
  -GOLD-   22720 1433D 1   1.00000     0.00000
 Structure written by MMmdl.
 42 44  0  0  0  0  0  0  0  0  1 V2000
  145.1848  143.4906  159.3683 C   0  0  0  0  0  0  0  0  0  0  0  0
  145.2322  143.5729  157.8964 N   0  0  0  0  0  0  0  0  0  0  0  0
  146.0377  142.6932  157.2220 C   0  0  0  0  0  0  0  0  0  0  0  0
  146.7359  141.8303  157.7551 O   0  0  0  0  0  0  0  0  0  0  0  0
  146.0074  142.8572  155.7637 C   0  0  0  0  0  0  0  0  0  0  0  0
  145.2515  143.7961  155.1424 C   0  0  0  0  0  0  0  0  0  0  0  0
  145.4029  143.7327  153.7614 N   0  0  0  0  0  0  0  0  0  0  0  0
  146.2660  142.7268  153.6206 C   0  0  0  0  0  0  0  0  0  0  0  0
  146.6769  142.1473  154.7665 N   0  0  0  0  0  0  0  0  0  0  0  0
  147.6075  141.0328  154.8731 C   0  0  0  0  0  0  0  0  0  0  0  0
  149.0713  141.4554  154.6352 C   0  0  2  0  0  0  0  0  0  0  0  0
  149.4993  140.9872  153.3712 O   0  0  0  0  0  0  0  0  0  0  0  0
  150.0114  140.8787  155.7040 C   0  0  0  0  0  0  0  0  0  0  0  0
  150.5649  141.9503  156.4566 O   0  0  0  0  0  0  0  0  0  0  0  0
  151.4179  141.5390  157.5167 C   0  0  0  0  0  0  0  0  0  0  0  0
  151.8643  142.7577  158.2591 C   0  0  0  0  0  0  0  0  0  0  0  0
  152.5057  142.9498  159.4516 C   0  0  0  0  0  0  0  0  0  0  0  0
  152.6412  144.3566  159.6118 C   0  0  0  0  0  0  0  0  0  0  0  0
  152.0726  144.9179  158.5040 C   0  0  0  0  0  0  0  0  0  0  0  0
  151.5950  143.9562  157.6680 O   0  0  0  0  0  0  0  0  0  0  0  0
  144.4553  144.6590  155.9390 N   0  0  0  0  0  0  0  0  0  0  0  0
  143.6349  145.6812  155.2834 C   0  0  0  0  0  0  0  0  0  0  0  0
  144.4421  144.5442  157.3065 C   0  0  0  0  0  0  0  0  0  0  0  0
  143.7379  145.2951  157.9879 O   0  0  0  0  0  0  0  0  0  0  0  0
  145.8512  142.7481  159.8085 H   0  0  0  0  0  0  0  0  0  0  0  0
  144.1758  143.2408  159.7005 H   0  0  0  0  0  0  0  0  0  0  0  0
  145.4570  144.4486  159.8146 H   0  0  0  0  0  0  0  0  0  0  0  0
  146.6093  142.3978  152.6507 H   0  0  0  0  0  0  0  0  0  0  0  0
  147.5072  140.6101  155.8737 H   0  0  0  0  0  0  0  0  0  0  0  0
  147.3111  140.2404  154.1874 H   0  0  0  0  0  0  0  0  0  0  0  0
  149.1303  142.5447  154.6446 H   0  0  0  0  0  0  0  0  0  0  0  0
  148.8463  140.3909  153.0374 H   0  0  0  0  0  0  0  0  0  0  0  0
  149.4450  140.2424  156.3855 H   0  0  0  0  0  0  0  0  0  0  0  0
  150.7804  140.2541  155.2463 H   0  0  0  0  0  0  0  0  0  0  0  0
  150.8528  140.8904  158.1862 H   0  0  0  0  0  0  0  0  0  0  0  0
  152.2647  140.9590  157.1463 H   0  0  0  0  0  0  0  0  0  0  0  0
  152.8340  142.1728  160.1260 H   0  0  0  0  0  0  0  0  0  0  0  0
  153.0961  144.8904  160.4332 H   0  0  0  0  0  0  0  0  0  0  0  0
  151.9296  145.9341  158.1673 H   0  0  0  0  0  0  0  0  0  0  0  0
  143.9195  146.6771  155.6262 H   0  0  0  0  0  0  0  0  0  0  0  0
  142.5790  145.5301  155.5131 H   0  0  0  0  0  0  0  0  0  0  0  0
  143.7354  145.6728  154.1981 H   0  0  0  0  0  0  0  0  0  0  0  0
  1  2  1  0  0  0  0
  1 25  1  0  0  0  0
  1 26  1  0  0  0  0
  1 27  1  0  0  0  0
  2 23  1  0  0  0  0
  2  3  1  0  0  0  0
  3  4  2  0  0  0  0
  3  5  1  0  0  0  0
  5  9  1  0  0  0  0
  5  6  2  0  0  0  0
  6  7  1  0  0  0  0
  6 21  1  0  0  0  0
  7  8  2  0  0  0  0
  8  9  1  0  0  0  0
  8 28  1  0  0  0  0
  9 10  1  0  0  0  0
 10 11  1  0  0  0  0
 10 29  1  0  0  0  0
 10 30  1  0  0  0  0
 11 12  1  0  0  0  0
 11 13  1  0  0  0  0
 11 31  1  0  0  0  0
 12 32  1  0  0  0  0
 13 14  1  0  0  0  0
 13 33  1  0  0  0  0
 13 34  1  0  0  0  0
 14 15  1  0  0  0  0
 15 16  1  0  0  0  0
 15 35  1  0  0  0  0
 15 36  1  0  0  0  0
 16 20  1  0  0  0  0
 16 17  2  0  0  0  0
 17 18  1  0  0  0  0
 17 37  1  0  0  0  0
 18 19  2  0  0  0  0
 18 38  1  0  0  0  0
 19 20  1  0  0  0  0
 19 39  1  0  0  0  0
 21 22  1  0  0  0  0
 21 23  1  0  0  0  0
 22 40  1  0  0  0  0
 22 41  1  0  0  0  0
 22 42  1  0  0  0  0
 23 24  2  0  0  0  0
M  END
> <s_m_source_file>
AV-unprocessed.smi

> <i_m_source_file_index>
856

> <i_lp_mmshare_version>
43012

> <i_f3d_flags>
0

> <s_epik_input>
Tz1jMW4oW0NIM10pYyg9TyluKFtDSDNdKWMoYzEyKW5bY0hdbjJbQ0gyXVtDQEhdKFtPSF0pW0NIMl1PW0NIMl1jM1tjSF1bY0hdW2NIXW8z

> <s_epik_cmdline>
J2VwaWtfcHl0aG9uJywgJy1waCcsICc3LjAnLCAnLXRuJywgJzgnLCAnLW1hJywgJzIwMCcsICctbWV0YWxfYmluZGluZycsICctaW1hZScsICc8aW5maWxlLm1hZT4nLCAnLW9tYWUnLCAnPG91dGZpbGUubWFlPic=

> <r_lp_tautomer_probability>
1

> <r_epik_Ionization_Penalty>
1.33189e-06

> <r_epik_Ionization_Penalty_Charging>
3.64616e-09

> <r_epik_Ionization_Penalty_Neutral>
1.32824e-06

> <r_epik_State_Penalty>
-0

> <r_epik_Charging_Adjusted_Penalty>
3.64616e-09

> <i_epik_Tot_Q>
0

> <i_epik_Tot_abs_Q>
0

> <r_epik_Metal_State_Penalty>
-0

> <b_epik_Metal_Only>
0

> <s_lp_Force_Field>
OPLS_2005

> <r_lp_Energy>
33.5677

> <b_lp_Chiralities_Consistent>
1

> <s_lp_Variant>
AV-unprocessed.smi:856-1

> <Gold.Version>
5.8.1

> <Gold.Id.Protein>
6NUR|6NUR_protein|mol2

> <Gold.PLP.Fitness>
45.4507

> <Gold.PLP.PLP>
-44.8374

> <Gold.PLP.part.hbond>
-2.7420

> <Gold.PLP.part.metal>
0.0000

> <Gold.PLP.part.buried>
-9.8954

> <Gold.PLP.part.nonpolar>
-32.6488

> <Gold.PLP.part.repulsive>
0.5522

> <Gold.PLP.ligand.clash>
0.0000

> <Gold.PLP.ligand.torsion>
1.7278

> <Gold.PLP.Chemscore.Hbond>
1.2350

> <Gold.PLP.Chemscore.CHOScore>
0.0000

> <Gold.PLP.Chemscore.Metal>
0.0000

> <Gold.Chemscore.Hbonds>
donor molecule, donor type, donor heavy atom, donor atom, acceptor molecule, acceptor atom, score
      P1  H  7989  7998       L1    12  0.19
      P1  H  8011  8017       L1    12  1.00

> <Gold.PLP.Chemscore.Internal.Correction>
0.3639

> <Gold.Rescore>
     Score         DG    S(hbond)    S(metal)    S(lipo)     H(rot)  DE(clash)    DE(int)     intcor
      9.52     -11.12       1.04        0.00      87.51       3.16       0.04       1.56       ----

> <Gold.Chemscore.Fitness>
9.5156

> <Gold.Chemscore.DG>
-11.1158

> <Gold.Chemscore.ZeroCoef>
-5.4800

> <Gold.Chemscore.Hbond>
1.0437

> <Gold.Chemscore.Metal>
0.0000

> <Gold.Chemscore.Lipo>
87.5145

> <Gold.Chemscore.Internal_Hbond>
0.0000

> <Gold.Chemscore.DEClash>
0.0392

> <Gold.Chemscore.DEInternal>
1.5610

> <Gold.Chemscore.Rot>
3.1599

> <Gold.Chemscore.Internal.Correction>
   9.000000E+99

> <Gold.Chemscore.Hbonds>
donor molecule, donor type, donor heavy atom, donor atom, acceptor molecule, acceptor atom, score
      L1  H    12    32       P1  7957  0.05
      P1  H  7989  7998       L1    12  0.10
      P1  H  8011  8017       L1    12  0.57

> <Gold.Chemscore.Hbond.Weighted>
-3.4858

> <Gold.Chemscore.Metal.Weighted>
-0.0000

> <Gold.Chemscore.Lipo.Weighted>
-10.2392

> <Gold.Chemscore.Internal_Hbond.Weighted>
0.0000

> <Gold.Chemscore.DEClash.Weighted>
0.0392

> <Gold.Chemscore.DEInternal.Weighted>
1.5610

> <Gold.Chemscore.Rot.Weighted>
8.0893

> <Gold.Chemscore.Internal.Correction.Weighted>
   9.000000E+99

> <Gold.Protein.RotatedTorsions>
[ 6907 6896 6895 6894 ] final   42.68 input  -60.11 | X-H torsion
[ 7974 7965 7964 7962 ] final  -63.19 input  175.53 | X-H torsion
[ 8008 7997 7996 7995 ] final   63.31 input   59.86 | X-H torsion
[ 10167 10162 10161 10158 ] final  -10.84 input  -65.29 | X-H torsion
[ 10718 10713 10712 10709 ] final -177.19 input   66.30 | X-H torsion
[ 10763 10752 10751 10750 ] final  -49.35 input  -60.55 | X-H torsion
[ 11005 11000 10999 10996 ] final  -52.19 input  -57.11 | X-H torsion

> <Gold.Protein.ActiveResidues>
 VAL166  LYS551  ARG553  GLY616  TRP617  ASP618  TYR619  PRO620  LYS621  CYS622 
 ASP623  PHE694  ASN695  SER759  ASP760  ASP761  ALA762  ILE779  LEU786  VAL792 
 PHE793  MET794  SER795  GLU796  ALA797  LYS798  CYS799  TRP800  GLU811  SER814 

> <Gold.Protein.RotatedAtoms>
  152.2108  134.8503  160.0497 H   0  0  0  0  0  0  0  0  0  0  0  0  # atno 6907 bound_to 6896
  151.9322  133.3609  159.3943 H   0  0  0  0  0  0  0  0  0  0  0  0  # atno 6908 bound_to 6896
  150.6976  134.4451  159.5354 H   0  0  0  0  0  0  0  0  0  0  0  0  # atno 6909 bound_to 6896
  145.7821  140.8756  143.0325 H   0  0  0  0  0  0  0  0  0  0  0  0  # atno 7974 bound_to 7965
  155.6282  140.3496  155.4674 H   0  0  0  0  0  0  0  0  0  0  0  0  # atno 8008 bound_to 7997
  156.0024  140.1216  157.0558 H   0  0  0  0  0  0  0  0  0  0  0  0  # atno 8009 bound_to 7997
  154.4253  140.1098  156.5701 H   0  0  0  0  0  0  0  0  0  0  0  0  # atno 8010 bound_to 7997
  140.7124  143.5705  150.9098 H   0  0  0  0  0  0  0  0  0  0  0  0  # atno 10167 bound_to 10162
  156.8258  130.9636  151.3109 H   0  0  0  0  0  0  0  0  0  0  0  0  # atno 10718 bound_to 10713
  154.0927  135.6575  153.4855 H   0  0  0  0  0  0  0  0  0  0  0  0  # atno 10763 bound_to 10752
  153.0316  135.5206  154.7364 H   0  0  0  0  0  0  0  0  0  0  0  0  # atno 10764 bound_to 10752
  154.6493  135.2999  154.9976 H   0  0  0  0  0  0  0  0  0  0  0  0  # atno 10765 bound_to 10752
  141.0911  133.6632  156.3987 H   0  0  0  0  0  0  0  0  0  0  0  0  # atno 11005 bound_to 11000
  144.6795  140.0003  143.7484 LP  0  0  0  0  0  0  0  0  0  0  0  0  # atno 17320 bound_to 7965
  146.0063  139.3133  143.0897 LP  0  0  0  0  0  0  0  0  0  0  0  0  # atno 17321 bound_to 7965
  139.9431  143.6359  152.3049 LP  0  0  0  0  0  0  0  0  0  0  0  0  # atno 17342 bound_to 10162
  139.6851  144.7652  151.1539 LP  0  0  0  0  0  0  0  0  0  0  0  0  # atno 17343 bound_to 10162
  157.6433  130.8823  149.9489 LP  0  0  0  0  0  0  0  0  0  0  0  0  # atno 17370 bound_to 10713
  156.0962  130.3659  150.0302 LP  0  0  0  0  0  0  0  0  0  0  0  0  # atno 17371 bound_to 10713
  140.5250  134.6268  157.5331 LP  0  0  0  0  0  0  0  0  0  0  0  0  # atno 17394 bound_to 11000
  139.9737  134.7250  155.9991 LP  0  0  0  0  0  0  0  0  0  0  0  0  # atno 17395 bound_to 11000

$$$$
