AV-unprocessed.smi:527|AV-procd|sdf|2821|dock9
  -GOLD-   2262023303D 1   1.00000     0.00000
 Structure written by MMmdl.
 42 43  0  0  0  0  0  0  0  0  1 V2000
  146.1974  142.3251  153.9502 C   0  0  0  0  0  0  0  0  0  0  0  0
  147.1097  141.1890  154.4419 C   0  0  2  0  0  0  0  0  0  0  0  0
  148.5951  141.6040  154.4372 C   0  0  0  0  0  0  0  0  0  0  0  0
  149.4895  140.5011  155.0252 C   0  0  0  0  0  0  0  0  0  0  0  0
  149.2758  139.1576  154.3114 C   0  0  0  0  0  0  0  0  0  0  0  0
  147.7901  138.7484  154.3230 C   0  0  2  0  0  0  0  0  0  0  0  0
  147.6285  137.4535  153.6655 N   0  0  0  0  0  0  0  0  0  0  0  0
  146.5463  136.6659  153.7537 C   0  0  0  0  0  0  0  0  0  0  0  0
  145.5095  136.9992  154.3315 O   0  0  0  0  0  0  0  0  0  0  0  0
  146.7547  135.4930  153.1266 N   0  0  0  0  0  0  0  0  0  0  0  0
  145.9574  134.4044  153.1270 C   0  0  0  0  0  0  0  0  0  0  0  0
  144.8907  134.3052  153.7360 O   0  0  0  0  0  0  0  0  0  0  0  0
  146.4558  133.2176  152.2984 C   0  0  0  0  0  0  0  0  0  0  0  0
  145.4298  132.7315  151.3930 N   0  0  0  0  0  0  0  0  0  0  0  0
  144.0875  133.0901  151.3756 C   0  0  0  0  0  0  0  0  0  0  0  0
  143.5022  132.3723  150.3571 C   0  0  0  0  0  0  0  0  0  0  0  0
  144.4592  131.5722  149.7373 N   0  0  0  0  0  0  0  0  0  0  0  0
  145.5752  131.8392  150.4029 C   0  0  0  0  0  0  0  0  0  0  0  0
  146.8887  139.8469  153.6941 C   0  0  2  0  0  0  0  0  0  0  0  0
  147.0477  139.9603  152.1600 C   0  0  0  0  0  0  0  0  0  0  0  0
  146.4612  142.6517  152.9443 H   0  0  0  0  0  0  0  0  0  0  0  0
  146.2757  143.1948  154.6032 H   0  0  0  0  0  0  0  0  0  0  0  0
  145.1521  142.0157  153.9412 H   0  0  0  0  0  0  0  0  0  0  0  0
  146.8344  141.0143  155.4833 H   0  0  0  0  0  0  0  0  0  0  0  0
  148.9179  141.8385  153.4224 H   0  0  0  0  0  0  0  0  0  0  0  0
  148.7260  142.5190  155.0160 H   0  0  0  0  0  0  0  0  0  0  0  0
  150.5370  140.7960  154.9573 H   0  0  0  0  0  0  0  0  0  0  0  0
  149.2708  140.3853  156.0875 H   0  0  0  0  0  0  0  0  0  0  0  0
  149.6425  139.2249  153.2867 H   0  0  0  0  0  0  0  0  0  0  0  0
  149.8771  138.3898  154.8000 H   0  0  0  0  0  0  0  0  0  0  0  0
  147.4996  138.6281  155.3688 H   0  0  0  0  0  0  0  0  0  0  0  0
  148.3952  137.1430  153.0869 H   0  0  0  0  0  0  0  0  0  0  0  0
  147.5994  135.4231  152.5786 H   0  0  0  0  0  0  0  0  0  0  0  0
  147.3327  133.5144  151.7216 H   0  0  0  0  0  0  0  0  0  0  0  0
  146.7611  132.4005  152.9537 H   0  0  0  0  0  0  0  0  0  0  0  0
  143.6706  133.8039  152.0707 H   0  0  0  0  0  0  0  0  0  0  0  0
  142.4742  132.3695  150.0260 H   0  0  0  0  0  0  0  0  0  0  0  0
  146.5201  131.3711  150.1686 H   0  0  0  0  0  0  0  0  0  0  0  0
  145.8527  139.5538  153.8710 H   0  0  0  0  0  0  0  0  0  0  0  0
  148.0507  140.2743  151.8735 H   0  0  0  0  0  0  0  0  0  0  0  0
  146.3451  140.6778  151.7379 H   0  0  0  0  0  0  0  0  0  0  0  0
  146.8478  139.0102  151.6647 H   0  0  0  0  0  0  0  0  0  0  0  0
  1  2  1  0  0  0  0
  1 21  1  0  0  0  0
  1 22  1  0  0  0  0
  1 23  1  0  0  0  0
  2 19  1  0  0  0  0
  2  3  1  0  0  0  0
  2 24  1  0  0  0  0
  3  4  1  0  0  0  0
  3 25  1  0  0  0  0
  3 26  1  0  0  0  0
  4  5  1  0  0  0  0
  4 27  1  0  0  0  0
  4 28  1  0  0  0  0
  5  6  1  0  0  0  0
  5 29  1  0  0  0  0
  5 30  1  0  0  0  0
  6  7  1  0  0  0  0
  6 19  1  0  0  0  0
  6 31  1  0  0  0  0
  7  8  1  0  0  0  0
  7 32  1  0  0  0  0
  8  9  2  0  0  0  0
  8 10  1  0  0  0  0
 10 11  1  0  0  0  0
 10 33  1  0  0  0  0
 11 12  2  0  0  0  0
 11 13  1  0  0  0  0
 13 14  1  0  0  0  0
 13 34  1  0  0  0  0
 13 35  1  0  0  0  0
 14 18  1  0  0  0  0
 14 15  1  0  0  0  0
 15 16  2  0  0  0  0
 15 36  1  0  0  0  0
 16 17  1  0  0  0  0
 16 37  1  0  0  0  0
 17 18  2  0  0  0  0
 18 38  1  0  0  0  0
 19 20  1  0  0  0  0
 19 39  1  0  0  0  0
 20 40  1  0  0  0  0
 20 41  1  0  0  0  0
 20 42  1  0  0  0  0
M  END
> <s_m_source_file>
AV-unprocessed.smi

> <i_m_source_file_index>
527

> <i_lp_mmshare_version>
43012

> <i_f3d_flags>
0

> <s_epik_input>
W0NIM11bQ0BASF0xW0NIMl1bQ0gyXVtDSDJdW0NASF0oW0NASF0xW0NIM10pW05IXUMoPU8pW05IXUMoPU8pW0NIMl1uMltjSF1bY0hdbltjSF0y

> <s_epik_cmdline>
J2VwaWtfcHl0aG9uJywgJy1waCcsICc3LjAnLCAnLXRuJywgJzgnLCAnLW1hJywgJzIwMCcsICctbWV0YWxfYmluZGluZycsICctaW1hZScsICc8aW5maWxlLm1hZT4nLCAnLW9tYWUnLCAnPG91dGZpbGUubWFlPic=

> <r_lp_tautomer_probability>
1

> <r_epik_Ionization_Penalty>
0.172132

> <r_epik_Ionization_Penalty_Charging>
0.172105

> <r_epik_Ionization_Penalty_Neutral>
2.71747e-05

> <r_epik_State_Penalty>
0.161503

> <r_epik_Charging_Adjusted_Penalty>
0.333607

> <i_epik_Tot_Q>
0

> <i_epik_Tot_abs_Q>
0

> <r_epik_Metal_State_Penalty>
0.124763

> <b_epik_Metal_Only>
0

> <s_lp_Force_Field>
OPLS_2005

> <r_lp_Energy>
16.867

> <b_lp_Chiralities_Consistent>
1

> <s_lp_Variant>
AV-unprocessed.smi:527-7

> <Gold.Version>
5.8.1

> <Gold.Id.Protein>
6NUR|6NUR_protein|mol2

> <Gold.PLP.Fitness>
47.2937

> <Gold.PLP.PLP>
-33.0004

> <Gold.PLP.part.hbond>
-2.9267

> <Gold.PLP.part.metal>
0.0000

> <Gold.PLP.part.buried>
0.6687

> <Gold.PLP.part.nonpolar>
-31.6309

> <Gold.PLP.part.repulsive>
0.3117

> <Gold.PLP.ligand.clash>
0.0000

> <Gold.PLP.ligand.torsion>
0.3503

> <Gold.PLP.Chemscore.Hbond>
2.3504

> <Gold.PLP.Chemscore.CHOScore>
2.6387

> <Gold.PLP.Chemscore.Metal>
0.0000

> <Gold.Chemscore.Hbonds>
donor molecule, donor type, donor heavy atom, donor atom, acceptor molecule, acceptor atom, score
      L1  H     7    32       P1  7948  1.00
      L1  H    10    33       P1  7948  0.99
      P1  H 10785 10796       L1    17  0.35
      L1  C    16    37       P1 10186  0.88
      L1  C    16    37       P1 10952  0.72
      L1  C    18    38       P1 10747  1.00

> <Gold.PLP.Chemscore.Internal.Correction>
0.0267

> <Gold.Rescore>
     Score         DG    S(hbond)    S(metal)    S(lipo)     H(rot)  DE(clash)    DE(int)     intcor
     14.41     -18.20       2.54        0.00      72.50       1.66       0.80       2.99       ----

> <Gold.Chemscore.Fitness>
14.4094

> <Gold.Chemscore.DG>
-18.2017

> <Gold.Chemscore.ZeroCoef>
-5.4800

> <Gold.Chemscore.Hbond>
2.5436

> <Gold.Chemscore.Metal>
0.0000

> <Gold.Chemscore.Lipo>
72.5048

> <Gold.Chemscore.Internal_Hbond>
0.0000

> <Gold.Chemscore.DEClash>
0.8040

> <Gold.Chemscore.DEInternal>
2.9883

> <Gold.Chemscore.Rot>
1.6629

> <Gold.Chemscore.Internal.Correction>
   9.000000E+99

> <Gold.Chemscore.Hbonds>
donor molecule, donor type, donor heavy atom, donor atom, acceptor molecule, acceptor atom, score
      L1  H     7    32       P1  7948  0.95
      L1  H    10    33       P1  7948  0.93
      P1  H 10785 10796       L1    17  0.12

> <Gold.Chemscore.Hbond.Weighted>
-8.4956

> <Gold.Chemscore.Metal.Weighted>
-0.0000

> <Gold.Chemscore.Lipo.Weighted>
-8.4831

> <Gold.Chemscore.Internal_Hbond.Weighted>
0.0000

> <Gold.Chemscore.DEClash.Weighted>
0.8040

> <Gold.Chemscore.DEInternal.Weighted>
2.9883

> <Gold.Chemscore.Rot.Weighted>
4.2569

> <Gold.Chemscore.Internal.Correction.Weighted>
   9.000000E+99

> <Gold.Protein.RotatedTorsions>
[ 6907 6896 6895 6894 ] final -108.81 input  -60.11 | X-H torsion
[ 7974 7965 7964 7962 ] final  -30.76 input  175.53 | X-H torsion
[ 8008 7997 7996 7995 ] final  -73.82 input   59.86 | X-H torsion
[ 10167 10162 10161 10158 ] final -174.16 input  -65.29 | X-H torsion
[ 10718 10713 10712 10709 ] final   35.69 input   66.30 | X-H torsion
[ 10763 10752 10751 10750 ] final -157.34 input  -60.55 | X-H torsion
[ 11005 11000 10999 10996 ] final  175.33 input  -57.11 | X-H torsion

> <Gold.Protein.ActiveResidues>
 VAL166  LYS551  ARG553  GLY616  TRP617  ASP618  TYR619  PRO620  LYS621  CYS622 
 ASP623  PHE694  ASN695  SER759  ASP760  ASP761  ALA762  ILE779  LEU786  VAL792 
 PHE793  MET794  SER795  GLU796  ALA797  LYS798  CYS799  TRP800  GLU811  SER814 

> <Gold.Protein.RotatedAtoms>
  150.7524  133.9622  159.3518 H   0  0  0  0  0  0  0  0  0  0  0  0  # atno 6907 bound_to 6896
  151.7549  135.0822  160.0346 H   0  0  0  0  0  0  0  0  0  0  0  0  # atno 6908 bound_to 6896
  152.3442  133.6065  159.5934 H   0  0  0  0  0  0  0  0  0  0  0  0  # atno 6909 bound_to 6896
  146.1118  140.5582  142.8774 H   0  0  0  0  0  0  0  0  0  0  0  0  # atno 7974 bound_to 7965
  154.5279  140.0772  156.8292 H   0  0  0  0  0  0  0  0  0  0  0  0  # atno 8008 bound_to 7997
  155.3436  140.3408  155.4221 H   0  0  0  0  0  0  0  0  0  0  0  0  # atno 8009 bound_to 7997
  156.1751  140.1633  156.8364 H   0  0  0  0  0  0  0  0  0  0  0  0  # atno 8010 bound_to 7997
  139.5649  144.1780  152.1296 H   0  0  0  0  0  0  0  0  0  0  0  0  # atno 10167 bound_to 10162
  157.3258  130.7472  149.6814 H   0  0  0  0  0  0  0  0  0  0  0  0  # atno 10718 bound_to 10713
  154.7644  135.3127  154.8316 H   0  0  0  0  0  0  0  0  0  0  0  0  # atno 10763 bound_to 10752
  153.9068  135.6810  153.4757 H   0  0  0  0  0  0  0  0  0  0  0  0  # atno 10764 bound_to 10752
  153.1248  135.4806  154.9186 H   0  0  0  0  0  0  0  0  0  0  0  0  # atno 10765 bound_to 10752
  140.3610  134.7112  157.4331 H   0  0  0  0  0  0  0  0  0  0  0  0  # atno 11005 bound_to 11000
  144.7518  140.5210  143.6796 LP  0  0  0  0  0  0  0  0  0  0  0  0  # atno 17320 bound_to 7965
  145.5647  139.1481  143.3321 LP  0  0  0  0  0  0  0  0  0  0  0  0  # atno 17321 bound_to 7965
  140.1301  144.5296  150.6808 LP  0  0  0  0  0  0  0  0  0  0  0  0  # atno 17342 bound_to 10162
  140.6931  143.2388  151.5075 LP  0  0  0  0  0  0  0  0  0  0  0  0  # atno 17343 bound_to 10162
  155.9690  130.4210  150.4448 LP  0  0  0  0  0  0  0  0  0  0  0  0  # atno 17370 bound_to 10713
  157.2471  131.0538  151.2402 LP  0  0  0  0  0  0  0  0  0  0  0  0  # atno 17371 bound_to 10713
  140.0626  134.5974  155.8731 LP  0  0  0  0  0  0  0  0  0  0  0  0  # atno 17394 bound_to 11000
  141.1984  133.6601  156.5790 LP  0  0  0  0  0  0  0  0  0  0  0  0  # atno 17395 bound_to 11000

$$$$
