AV-unprocessed.smi:588|AV-procd|sdf|3004|dock10
  -GOLD-   2262023513D 1   1.00000     0.00000
 Structure written by MMmdl.
 50 51  0  0  0  0  0  0  0  0  1 V2000
  148.0567  141.5391  153.9654 C   0  0  0  0  0  0  0  0  0  0  0  0
  148.7841  140.5588  154.8908 C   0  0  0  0  0  0  0  0  0  0  0  0
  148.0676  140.3883  156.2406 C   0  0  0  0  0  0  0  0  0  0  0  0
  148.7668  139.4850  157.1330 N   0  0  0  0  0  0  0  0  0  0  0  0
  148.1944  138.3258  157.6650 C   0  0  0  0  0  0  0  0  0  0  0  0
  146.8876  138.0219  157.3123 N   0  0  0  0  0  0  0  0  0  0  0  0
  148.8876  137.5073  158.5115 C   0  0  0  0  0  0  0  0  0  0  0  0
  148.3213  136.3250  159.0213 N   0  0  0  0  0  0  0  0  0  0  0  0
  148.2461  135.1808  158.1002 C   0  0  0  0  0  0  0  0  0  0  0  0
  149.5511  134.9988  157.3090 C   0  0  0  0  0  0  0  0  0  0  0  0
  150.0936  133.7239  157.6068 O   0  0  0  0  0  0  0  0  0  0  0  0
  151.1067  133.3405  156.6934 C   0  0  0  0  0  0  0  0  0  0  0  0
  147.8694  136.2193  160.2994 C   0  0  0  0  0  0  0  0  0  0  0  0
  147.8440  137.1901  161.0585 O   0  0  0  0  0  0  0  0  0  0  0  0
  147.3997  134.8500  160.8516 C   0  0  0  0  0  0  0  0  0  0  0  0
  146.0205  134.4509  160.2768 C   0  0  0  0  0  0  0  0  0  0  0  0
  145.0766  134.2565  161.4690 C   0  0  0  0  0  0  0  0  0  0  0  0
  145.7034  135.0572  162.6056 C   0  0  0  0  0  0  0  0  0  0  0  0
  147.2046  134.8839  162.3819 C   0  0  0  0  0  0  0  0  0  0  0  0
  150.2817  137.8056  158.8667 C   0  0  0  0  0  0  0  0  0  0  0  0
  150.9943  137.1308  159.6086 O   0  0  0  0  0  0  0  0  0  0  0  0
  150.8010  138.9567  158.2803 N   0  0  0  0  0  0  0  0  0  0  0  0
  150.1148  139.8080  157.4215 C   0  0  0  0  0  0  0  0  0  0  0  0
  150.6957  140.7871  156.9517 O   0  0  0  0  0  0  0  0  0  0  0  0
  151.7611  139.1886  158.4899 H   0  0  0  0  0  0  0  0  0  0  0  0
  148.5844  141.6424  153.0172 H   0  0  0  0  0  0  0  0  0  0  0  0
  147.9878  142.5288  154.4177 H   0  0  0  0  0  0  0  0  0  0  0  0
  147.0443  141.1976  153.7483 H   0  0  0  0  0  0  0  0  0  0  0  0
  148.8676  139.5912  154.3947 H   0  0  0  0  0  0  0  0  0  0  0  0
  149.8035  140.9103  155.0536 H   0  0  0  0  0  0  0  0  0  0  0  0
  147.9309  141.3404  156.7564 H   0  0  0  0  0  0  0  0  0  0  0  0
  147.0606  139.9923  156.1120 H   0  0  0  0  0  0  0  0  0  0  0  0
  146.3530  138.6115  156.6903 H   0  0  0  0  0  0  0  0  0  0  0  0
  146.4046  137.2224  157.6966 H   0  0  0  0  0  0  0  0  0  0  0  0
  148.0058  134.2671  158.6466 H   0  0  0  0  0  0  0  0  0  0  0  0
  147.4249  135.3232  157.3961 H   0  0  0  0  0  0  0  0  0  0  0  0
  149.3552  135.0758  156.2384 H   0  0  0  0  0  0  0  0  0  0  0  0
  150.2701  135.7771  157.5687 H   0  0  0  0  0  0  0  0  0  0  0  0
  151.4896  132.3560  156.9622 H   0  0  0  0  0  0  0  0  0  0  0  0
  151.9410  134.0427  156.7120 H   0  0  0  0  0  0  0  0  0  0  0  0
  150.7192  133.2844  155.6753 H   0  0  0  0  0  0  0  0  0  0  0  0
  148.1252  134.0648  160.6430 H   0  0  0  0  0  0  0  0  0  0  0  0
  145.6198  135.2245  159.6190 H   0  0  0  0  0  0  0  0  0  0  0  0
  146.0867  133.5406  159.6801 H   0  0  0  0  0  0  0  0  0  0  0  0
  144.0552  134.5691  161.2502 H   0  0  0  0  0  0  0  0  0  0  0  0
  145.0475  133.2010  161.7426 H   0  0  0  0  0  0  0  0  0  0  0  0
  145.4312  136.1096  162.5136 H   0  0  0  0  0  0  0  0  0  0  0  0
  145.3824  134.7133  163.5893 H   0  0  0  0  0  0  0  0  0  0  0  0
  147.5271  133.9327  162.8077 H   0  0  0  0  0  0  0  0  0  0  0  0
  147.7831  135.6631  162.8808 H   0  0  0  0  0  0  0  0  0  0  0  0
  1  2  1  0  0  0  0
  1 26  1  0  0  0  0
  1 27  1  0  0  0  0
  1 28  1  0  0  0  0
  2  3  1  0  0  0  0
  2 29  1  0  0  0  0
  2 30  1  0  0  0  0
  3  4  1  0  0  0  0
  3 31  1  0  0  0  0
  3 32  1  0  0  0  0
  4 23  1  0  0  0  0
  4  5  1  0  0  0  0
  5  6  1  0  0  0  0
  5  7  2  0  0  0  0
  6 33  1  0  0  0  0
  6 34  1  0  0  0  0
  7  8  1  0  0  0  0
  7 20  1  0  0  0  0
  8  9  1  0  0  0  0
  8 13  1  0  0  0  0
  9 10  1  0  0  0  0
  9 35  1  0  0  0  0
  9 36  1  0  0  0  0
 10 11  1  0  0  0  0
 10 37  1  0  0  0  0
 10 38  1  0  0  0  0
 11 12  1  0  0  0  0
 12 39  1  0  0  0  0
 12 40  1  0  0  0  0
 12 41  1  0  0  0  0
 13 14  2  0  0  0  0
 13 15  1  0  0  0  0
 15 19  1  0  0  0  0
 15 16  1  0  0  0  0
 15 42  1  0  0  0  0
 16 17  1  0  0  0  0
 16 43  1  0  0  0  0
 16 44  1  0  0  0  0
 17 18  1  0  0  0  0
 17 45  1  0  0  0  0
 17 46  1  0  0  0  0
 18 19  1  0  0  0  0
 18 47  1  0  0  0  0
 18 48  1  0  0  0  0
 19 49  1  0  0  0  0
 19 50  1  0  0  0  0
 20 21  2  0  0  0  0
 20 22  1  0  0  0  0
 22 25  1  0  0  0  0
 22 23  1  0  0  0  0
 23 24  2  0  0  0  0
M  END
> <s_m_source_file>
AV-unprocessed.smi

> <i_m_source_file_index>
588

> <i_lp_mmshare_version>
43012

> <i_f3d_flags>
0

> <s_epik_input>
W0NIM11bQ0gyXVtDSDJdbjFjKFtOSDJdKWMoYyg9TylbbkhdYzE9TylOKFtDSDJdW0NIMl1PW0NIM10pQyg9TylbQ0hdMltDSDJdW0NIMl1bQ0gyXVtDSDJdMg==

> <s_epik_cmdline>
J2VwaWtfcHl0aG9uJywgJy1waCcsICc3LjAnLCAnLXRuJywgJzgnLCAnLW1hJywgJzIwMCcsICctbWV0YWxfYmluZGluZycsICctaW1hZScsICc8aW5maWxlLm1hZT4nLCAnLW9tYWUnLCAnPG91dGZpbGUubWFlPic=

> <r_lp_tautomer_probability>
1

> <r_epik_Ionization_Penalty>
2.06963e-05

> <r_epik_Ionization_Penalty_Charging>
5.41733e-06

> <r_epik_Ionization_Penalty_Neutral>
1.52789e-05

> <r_epik_State_Penalty>
-0

> <r_epik_Charging_Adjusted_Penalty>
5.41733e-06

> <i_epik_Tot_Q>
0

> <i_epik_Tot_abs_Q>
0

> <r_epik_Metal_State_Penalty>
-0

> <b_epik_Metal_Only>
0

> <s_epik_Chemistry_Notes>
This compound has an imine and may undergo hydrolysis.

> <s_lp_Force_Field>
OPLS_2005

> <r_lp_Energy>
42.8074

> <b_lp_Chiralities_Consistent>
1

> <s_lp_Variant>
AV-unprocessed.smi:588-1

> <Gold.Version>
5.8.1

> <Gold.Id.Protein>
6NUR|6NUR_protein|mol2

> <Gold.PLP.Fitness>
40.9280

> <Gold.PLP.PLP>
-32.2490

> <Gold.PLP.part.hbond>
-4.0000

> <Gold.PLP.part.metal>
0.0000

> <Gold.PLP.part.buried>
-5.1938

> <Gold.PLP.part.nonpolar>
-23.1401

> <Gold.PLP.part.repulsive>
0.1547

> <Gold.PLP.ligand.clash>
0.0000

> <Gold.PLP.ligand.torsion>
2.3479

> <Gold.PLP.Chemscore.Hbond>
3.6978

> <Gold.PLP.Chemscore.CHOScore>
0.0000

> <Gold.PLP.Chemscore.Metal>
0.0000

> <Gold.Chemscore.Hbonds>
donor molecule, donor type, donor heavy atom, donor atom, acceptor molecule, acceptor atom, score
      P1  H  6896  6907       L1    11  1.00
      P1  H  6896  6908       L1    21  0.96
      P1  H  6931  6943       L1    14  0.94
      P1  H  6934  6947       L1    14  0.80

> <Gold.PLP.Chemscore.Internal.Correction>
2.2813

> <Gold.Rescore>
     Score         DG    S(hbond)    S(metal)    S(lipo)     H(rot)  DE(clash)    DE(int)     intcor
     14.99     -18.66       3.42        0.00      60.31       2.07       0.03       3.64       ----

> <Gold.Chemscore.Fitness>
14.9884

> <Gold.Chemscore.DG>
-18.6632

> <Gold.Chemscore.ZeroCoef>
-5.4800

> <Gold.Chemscore.Hbond>
3.4185

> <Gold.Chemscore.Metal>
0.0000

> <Gold.Chemscore.Lipo>
60.3066

> <Gold.Chemscore.Internal_Hbond>
0.0000

> <Gold.Chemscore.DEClash>
0.0310

> <Gold.Chemscore.DEInternal>
3.6438

> <Gold.Chemscore.Rot>
2.0666

> <Gold.Chemscore.Internal.Correction>
   9.000000E+99

> <Gold.Chemscore.Hbonds>
donor molecule, donor type, donor heavy atom, donor atom, acceptor molecule, acceptor atom, score
      P1  H  6896  6907       L1    11  0.40
      P1  H  6896  6908       L1    21  0.90
      P1  H  6931  6943       L1    14  0.91
      P1  H  6934  6947       L1    14  0.79

> <Gold.Chemscore.Hbond.Weighted>
-11.4178

> <Gold.Chemscore.Metal.Weighted>
-0.0000

> <Gold.Chemscore.Lipo.Weighted>
-7.0559

> <Gold.Chemscore.Internal_Hbond.Weighted>
0.0000

> <Gold.Chemscore.DEClash.Weighted>
0.0310

> <Gold.Chemscore.DEInternal.Weighted>
3.6438

> <Gold.Chemscore.Rot.Weighted>
5.2905

> <Gold.Chemscore.Internal.Correction.Weighted>
   9.000000E+99

> <Gold.Protein.RotatedTorsions>
[ 6907 6896 6895 6894 ] final -125.19 input  -60.11 | X-H torsion
[ 7974 7965 7964 7962 ] final -166.10 input  175.53 | X-H torsion
[ 8008 7997 7996 7995 ] final -105.54 input   59.86 | X-H torsion
[ 10167 10162 10161 10158 ] final  -73.66 input  -65.29 | X-H torsion
[ 10718 10713 10712 10709 ] final  -42.10 input   66.30 | X-H torsion
[ 10763 10752 10751 10750 ] final   84.09 input  -60.55 | X-H torsion
[ 11005 11000 10999 10996 ] final  -50.72 input  -57.11 | X-H torsion

> <Gold.Protein.ActiveResidues>
 VAL166  LYS551  ARG553  GLY616  TRP617  ASP618  TYR619  PRO620  LYS621  CYS622 
 ASP623  PHE694  ASN695  SER759  ASP760  ASP761  ALA762  ILE779  LEU786  VAL792 
 PHE793  MET794  SER795  GLU796  ALA797  LYS798  CYS799  TRP800  GLU811  SER814 

> <Gold.Protein.RotatedAtoms>
  150.8842  133.7330  159.2922 H   0  0  0  0  0  0  0  0  0  0  0  0  # atno 6907 bound_to 6896
  151.4901  135.1055  159.9811 H   0  0  0  0  0  0  0  0  0  0  0  0  # atno 6908 bound_to 6896
  152.4779  133.8137  159.7072 H   0  0  0  0  0  0  0  0  0  0  0  0  # atno 6909 bound_to 6896
  144.7253  140.2717  143.6249 H   0  0  0  0  0  0  0  0  0  0  0  0  # atno 7974 bound_to 7965
  154.9014  140.0412  157.1895 H   0  0  0  0  0  0  0  0  0  0  0  0  # atno 8008 bound_to 7997
  154.8440  140.2919  155.5620 H   0  0  0  0  0  0  0  0  0  0  0  0  # atno 8009 bound_to 7997
  156.2993  140.2477  156.3387 H   0  0  0  0  0  0  0  0  0  0  0  0  # atno 8010 bound_to 7997
  140.5092  143.2348  151.7622 H   0  0  0  0  0  0  0  0  0  0  0  0  # atno 10167 bound_to 10162
  156.2632  130.4199  149.8519 H   0  0  0  0  0  0  0  0  0  0  0  0  # atno 10718 bound_to 10713
  153.1350  135.4667  154.9408 H   0  0  0  0  0  0  0  0  0  0  0  0  # atno 10763 bound_to 10752
  154.7698  135.3155  154.8215 H   0  0  0  0  0  0  0  0  0  0  0  0  # atno 10764 bound_to 10752
  153.8750  135.6900  153.4825 H   0  0  0  0  0  0  0  0  0  0  0  0  # atno 10765 bound_to 10752
  141.0831  133.6648  156.3772 H   0  0  0  0  0  0  0  0  0  0  0  0  # atno 11005 bound_to 11000
  145.8037  139.1974  143.2033 LP  0  0  0  0  0  0  0  0  0  0  0  0  # atno 17320 bound_to 7965
  146.0655  140.7925  142.9714 LP  0  0  0  0  0  0  0  0  0  0  0  0  # atno 17321 bound_to 7965
  139.4891  144.4414  151.9759 LP  0  0  0  0  0  0  0  0  0  0  0  0  # atno 17342 bound_to 10162
  140.3506  144.3093  150.5950 LP  0  0  0  0  0  0  0  0  0  0  0  0  # atno 17343 bound_to 10162
  156.6027  130.8553  151.3435 LP  0  0  0  0  0  0  0  0  0  0  0  0  # atno 17370 bound_to 10713
  157.7258  130.9620  150.1629 LP  0  0  0  0  0  0  0  0  0  0  0  0  # atno 17371 bound_to 10713
  140.5423  134.6108  157.5383 LP  0  0  0  0  0  0  0  0  0  0  0  0  # atno 17394 bound_to 11000
  139.9647  134.7393  156.0163 LP  0  0  0  0  0  0  0  0  0  0  0  0  # atno 17395 bound_to 11000

$$$$
