#       Name:                AV-unprocessed.smi:2474
#       Creating user name   scv26
#       Creation time:       Fri Mar 27 13:39:34 2020


#       File generated by GOLD software.
#

@<TRIPOS>MOLECULE
AV-unprocessed.smi:2474
    43    44     1
SMALL
NO_CHARGES


@<TRIPOS>ATOM
      1 ****        -3.2753  -0.9014  -2.9330 C.3            1 S1                 0.0000
      2 ****        -2.5405   0.3212  -2.4993 C.2            1 S1                 0.0000
      3 ****        -1.9245   1.2574  -3.2924 C.2            1 S1                 0.0000
      4 ****        -1.3142   2.2898  -2.5770 N.2            1 S1                 0.0000
      5 ****        -1.4654   2.1553  -1.2563 C.2            1 S1                 0.0000
      6 ****        -0.8945   3.1080  -0.2498 C.3            1 S1                 0.0000
      7 ****        -1.4880   4.5176  -0.3833 C.3            1 S1                 0.0000
      8 ****         0.6509   3.1056  -0.2158 C.3            1 S1                 0.0000
      9 ****         1.2218   1.7616  -0.1792 N.am           1 S1                 0.0000
     10 ****         1.1888   0.9388   0.8775 C.2            1 S1                 0.0000
     11 ****         0.7001   1.2352   1.9678 O.2            1 S1                 0.0000
     12 ****         1.7316  -0.2532   0.5944 N.am           1 S1                 0.0000
     13 ****         1.7991  -1.3870   1.5114 C.3            1 S1                 0.0000
     14 ****         0.4835  -2.1915   1.4556 C.3            1 S1                 0.0000
     15 ****         0.4715  -3.3730   2.4390 C.3            1 S1                 0.0000
     16 ****         1.5900  -4.3850   2.1540 C.3            1 S1                 0.0000
     17 ****         3.2258  -3.6226   2.3292 S.3            1 S1                 0.0000
     18 ****         3.0158  -2.2576   1.1530 C.3            1 S1                 0.0000
     19 ****        -2.3763   0.7166  -0.8089 S.3            1 S1                 0.0000
     20 ****        -3.2886  -0.9876  -4.0197 H              1 S1                 0.0000
     21 ****        -4.3080  -0.8747  -2.5850 H              1 S1                 0.0000
     22 ****        -2.8048  -1.7983  -2.5298 H              1 S1                 0.0000
     23 ****        -1.8693   1.2658  -4.3709 H              1 S1                 0.0000
     24 ****        -1.2247   2.7431   0.7235 H              1 S1                 0.0000
     25 ****        -2.5742   4.4962  -0.2911 H              1 S1                 0.0000
     26 ****        -1.2441   4.9608  -1.3493 H              1 S1                 0.0000
     27 ****        -1.1036   5.1805   0.3924 H              1 S1                 0.0000
     28 ****         1.0342   3.5899  -1.1144 H              1 S1                 0.0000
     29 ****         1.0177   3.6904   0.6291 H              1 S1                 0.0000
     30 ****         1.6440   1.4248  -1.0322 H              1 S1                 0.0000
     31 ****         2.1058  -0.3964  -0.3321 H              1 S1                 0.0000
     32 ****         1.9412  -1.0100   2.5263 H              1 S1                 0.0000
     33 ****        -0.3579  -1.5365   1.6856 H              1 S1                 0.0000
     34 ****         0.3146  -2.5573   0.4418 H              1 S1                 0.0000
     35 ****         0.5604  -3.0032   3.4613 H              1 S1                 0.0000
     36 ****        -0.4928  -3.8787   2.3800 H              1 S1                 0.0000
     37 ****         1.5216  -5.2269   2.8431 H              1 S1                 0.0000
     38 ****         1.4915  -4.7881   1.1454 H              1 S1                 0.0000
     39 ****         2.9112  -2.6702   0.1488 H              1 S1                 0.0000
     40 ****         3.9272  -1.6590   1.1599 H              1 S1                 0.0000
     41 ****        -0.8191   3.0456  -3.0055 LP             1 S1                 0.0000
     42 ****         0.2946   2.1390   2.1049 LP             1 S1                 0.0000
     43 ****         0.7085   0.5722   2.7164 LP             1 S1                 0.0000
@<TRIPOS>BOND
    1    1    2 1     
    2    1   20 1     
    3    1   21 1     
    4    1   22 1     
    5    2   19 1     
    6    2    3 2     
    7    3    4 1     
    8    3   23 1     
    9    4    5 2     
   10    5    6 1     
   11    5   19 1     
   12    6    7 1     
   13    6    8 1     
   14    6   24 1     
   15    7   25 1     
   16    7   26 1     
   17    7   27 1     
   18    8    9 1     
   19    8   28 1     
   20    8   29 1     
   21    9   10 am    
   22    9   30 1     
   23   10   11 2     
   24   10   12 am    
   25   12   13 1     
   26   12   31 1     
   27   13   18 1     
   28   13   14 1     
   29   13   32 1     
   30   14   15 1     
   31   14   33 1     
   32   14   34 1     
   33   15   16 1     
   34   15   35 1     
   35   15   36 1     
   36   16   17 1     
   37   16   37 1     
   38   16   38 1     
   39   17   18 1     
   40   18   39 1     
   41   18   40 1     
   42    4   41 1     
   43   11   42 1     
   44   11   43 1     
@<TRIPOS>SUBSTRUCTURE
      1 S1             1
@<TRIPOS>SET
LONE_PAIRS      STATIC     ATOMS    <user>   **** ""
3 41 42 43
DONOR_HYDROGENS      STATIC     ATOMS    <user>   **** ""
2 30 31
ATOM$BLUE        STATIC     ATOMS    COLORGROUP SYSTEM
3 41 42 43
ATOM$RED        STATIC     ATOMS    COLORGROUP SYSTEM
2 30 31
