AV-unprocessed.smi:1020|AV-procd|sdf|4453|dock6
  -GOLD-   22720 2423D 1   1.00000     0.00000
 Structure written by MMmdl.
 46 47  0  0  0  0  0  0  0  0  1 V2000
  151.7216  138.6379  155.5066 C   0  0  0  0  0  0  0  0  0  0  0  0
  150.5338  137.8294  154.9729 C   0  0  0  0  0  0  0  0  0  0  0  0
  149.1936  138.4365  155.4162 C   0  0  0  0  0  0  0  0  0  0  0  0
  150.6693  136.5074  155.4774 O   0  0  0  0  0  0  0  0  0  0  0  0
  150.4583  136.3839  156.8772 C   0  0  0  0  0  0  0  0  0  0  0  0
  151.5508  135.4918  157.4805 C   0  0  0  0  0  0  0  0  0  0  0  0
  152.7212  136.2694  157.9851 C   0  0  0  0  0  0  0  0  0  0  0  0
  152.8577  136.8265  159.1858 N   0  0  0  0  0  0  0  0  0  0  0  0
  154.0587  137.4539  159.0491 C   0  0  0  0  0  0  0  0  0  0  0  0
  154.6861  138.2553  160.1455 C   0  0  0  0  0  0  0  0  0  0  0  0
  154.5734  139.7532  159.8543 C   0  0  0  0  0  0  0  0  0  0  0  0
  155.1061  140.2267  158.8506 O   0  0  0  0  0  0  0  0  0  0  0  0
  153.8773  140.4865  160.7382 N   0  0  0  0  0  0  0  0  0  0  0  0
  153.6784  141.9303  160.6675 C   0  0  0  0  0  0  0  0  0  0  0  0
  153.0831  142.4589  161.9891 C   0  0  0  0  0  0  0  0  0  0  0  0
  152.7839  143.9644  161.9124 C   0  0  0  0  0  0  0  0  0  0  0  0
  151.8648  144.2906  160.7251 C   0  0  0  0  0  0  0  0  0  0  0  0
  152.4589  143.7728  159.4057 C   0  0  0  0  0  0  0  0  0  0  0  0
  152.7554  142.2661  159.4808 C   0  0  0  0  0  0  0  0  0  0  0  0
  154.6516  137.3174  157.8682 N   0  0  0  0  0  0  0  0  0  0  0  0
  153.7475  136.5305  157.1403 O   0  0  0  0  0  0  0  0  0  0  0  0
  151.6898  139.6682  155.1518 H   0  0  0  0  0  0  0  0  0  0  0  0
  152.6634  138.2029  155.1742 H   0  0  0  0  0  0  0  0  0  0  0  0
  151.7308  138.6580  156.5968 H   0  0  0  0  0  0  0  0  0  0  0  0
  150.5927  137.8248  153.8831 H   0  0  0  0  0  0  0  0  0  0  0  0
  149.1034  139.4690  155.0778 H   0  0  0  0  0  0  0  0  0  0  0  0
  149.1011  138.4335  156.5027 H   0  0  0  0  0  0  0  0  0  0  0  0
  148.3458  137.8869  155.0083 H   0  0  0  0  0  0  0  0  0  0  0  0
  150.4784  137.3617  157.3584 H   0  0  0  0  0  0  0  0  0  0  0  0
  149.4776  135.9454  157.0682 H   0  0  0  0  0  0  0  0  0  0  0  0
  151.1388  134.9074  158.3040 H   0  0  0  0  0  0  0  0  0  0  0  0
  151.9012  134.7772  156.7353 H   0  0  0  0  0  0  0  0  0  0  0  0
  154.1946  138.0231  161.0913 H   0  0  0  0  0  0  0  0  0  0  0  0
  155.7360  137.9808  160.2573 H   0  0  0  0  0  0  0  0  0  0  0  0
  153.4730  140.0111  161.5324 H   0  0  0  0  0  0  0  0  0  0  0  0
  154.6424  142.4135  160.4957 H   0  0  0  0  0  0  0  0  0  0  0  0
  152.1629  141.9197  162.2191 H   0  0  0  0  0  0  0  0  0  0  0  0
  153.7687  142.2672  162.8154 H   0  0  0  0  0  0  0  0  0  0  0  0
  152.3237  144.2987  162.8425 H   0  0  0  0  0  0  0  0  0  0  0  0
  153.7192  144.5173  161.8138 H   0  0  0  0  0  0  0  0  0  0  0  0
  150.8849  143.8398  160.8866 H   0  0  0  0  0  0  0  0  0  0  0  0
  151.7040  145.3673  160.6635 H   0  0  0  0  0  0  0  0  0  0  0  0
  151.7716  143.9757  158.5838 H   0  0  0  0  0  0  0  0  0  0  0  0
  153.3784  144.3151  159.1810 H   0  0  0  0  0  0  0  0  0  0  0  0
  153.2114  141.9355  158.5468 H   0  0  0  0  0  0  0  0  0  0  0  0
  151.8160  141.7191  159.5763 H   0  0  0  0  0  0  0  0  0  0  0  0
  1  2  1  0  0  0  0
  1 22  1  0  0  0  0
  1 23  1  0  0  0  0
  1 24  1  0  0  0  0
  2  3  1  0  0  0  0
  2  4  1  0  0  0  0
  2 25  1  0  0  0  0
  3 26  1  0  0  0  0
  3 27  1  0  0  0  0
  3 28  1  0  0  0  0
  4  5  1  0  0  0  0
  5  6  1  0  0  0  0
  5 29  1  0  0  0  0
  5 30  1  0  0  0  0
  6  7  1  0  0  0  0
  6 31  1  0  0  0  0
  6 32  1  0  0  0  0
  7 21  1  0  0  0  0
  7  8  2  0  0  0  0
  8  9  1  0  0  0  0
  9 10  1  0  0  0  0
  9 20  2  0  0  0  0
 10 11  1  0  0  0  0
 10 33  1  0  0  0  0
 10 34  1  0  0  0  0
 11 12  2  0  0  0  0
 11 13  1  0  0  0  0
 13 14  1  0  0  0  0
 13 35  1  0  0  0  0
 14 19  1  0  0  0  0
 14 15  1  0  0  0  0
 14 36  1  0  0  0  0
 15 16  1  0  0  0  0
 15 37  1  0  0  0  0
 15 38  1  0  0  0  0
 16 17  1  0  0  0  0
 16 39  1  0  0  0  0
 16 40  1  0  0  0  0
 17 18  1  0  0  0  0
 17 41  1  0  0  0  0
 17 42  1  0  0  0  0
 18 19  1  0  0  0  0
 18 43  1  0  0  0  0
 18 44  1  0  0  0  0
 19 45  1  0  0  0  0
 19 46  1  0  0  0  0
 20 21  1  0  0  0  0
M  END
> <s_m_source_file>
AV-unprocessed.smi

> <i_m_source_file_index>
1020

> <i_lp_mmshare_version>
43012

> <i_f3d_flags>
0

> <s_epik_input>
W0NIM11bQ0hdKFtDSDNdKU9bQ0gyXVtDSDJdYzFuYyhubzEpW0NIMl1DKD1PKVtOSF1bQ0hdMltDSDJdW0NIMl1bQ0gyXVtDSDJdW0NIMl0y

> <s_epik_cmdline>
J2VwaWtfcHl0aG9uJywgJy1waCcsICc3LjAnLCAnLXRuJywgJzgnLCAnLW1hJywgJzIwMCcsICctbWV0YWxfYmluZGluZycsICctaW1hZScsICc8aW5maWxlLm1hZT4nLCAnLW9tYWUnLCAnPG91dGZpbGUubWFlPic=

> <r_lp_tautomer_probability>
1

> <r_epik_Ionization_Penalty>
6.23671e-08

> <r_epik_Ionization_Penalty_Charging>
0

> <r_epik_Ionization_Penalty_Neutral>
6.23671e-08

> <r_epik_State_Penalty>
-0

> <r_epik_Charging_Adjusted_Penalty>
0

> <i_epik_Tot_Q>
0

> <i_epik_Tot_abs_Q>
0

> <r_epik_Metal_State_Penalty>
-0

> <b_epik_Metal_Only>
0

> <s_lp_Force_Field>
OPLS_2005

> <r_lp_Energy>
5.58856

> <b_lp_Chiralities_Consistent>
1

> <s_lp_Variant>
AV-unprocessed.smi:1020-1

> <Gold.Version>
5.8.1

> <Gold.Id.Protein>
6NUR|6NUR_protein|mol2

> <Gold.PLP.Fitness>
50.5755

> <Gold.PLP.PLP>
-42.1789

> <Gold.PLP.part.hbond>
-4.0000

> <Gold.PLP.part.metal>
0.0000

> <Gold.PLP.part.buried>
-5.8414

> <Gold.PLP.part.nonpolar>
-33.9744

> <Gold.PLP.part.repulsive>
0.2335

> <Gold.PLP.ligand.clash>
0.0000

> <Gold.PLP.ligand.torsion>
1.2133

> <Gold.PLP.Chemscore.Hbond>
3.5570

> <Gold.PLP.Chemscore.CHOScore>
0.0000

> <Gold.PLP.Chemscore.Metal>
0.0000

> <Gold.Chemscore.Hbonds>
donor molecule, donor type, donor heavy atom, donor atom, acceptor molecule, acceptor atom, score
      P1  H  6896  6907       L1     8  0.29
      P1  H  7997  8008       L1    12  0.81
      P1  H 10752 10764       L1    21  0.67

> <Gold.PLP.Chemscore.Internal.Correction>
0.1524

> <Gold.Rescore>
     Score         DG    S(hbond)    S(metal)    S(lipo)     H(rot)  DE(clash)    DE(int)     intcor
     19.45     -20.63       2.33        0.00     108.75       2.10       0.06       1.11       ----

> <Gold.Chemscore.Fitness>
19.4545

> <Gold.Chemscore.DG>
-20.6262

> <Gold.Chemscore.ZeroCoef>
-5.4800

> <Gold.Chemscore.Hbond>
2.3333

> <Gold.Chemscore.Metal>
0.0000

> <Gold.Chemscore.Lipo>
108.7546

> <Gold.Chemscore.Internal_Hbond>
0.0000

> <Gold.Chemscore.DEClash>
0.0632

> <Gold.Chemscore.DEInternal>
1.1086

> <Gold.Chemscore.Rot>
2.0982

> <Gold.Chemscore.Internal.Correction>
   9.000000E+99

> <Gold.Chemscore.Hbonds>
donor molecule, donor type, donor heavy atom, donor atom, acceptor molecule, acceptor atom, score
      P1  H  6896  6907       L1     8  0.01
      P1  H  7997  8008       L1    12  0.75
      P1  H 10752 10764       L1    21  0.63

> <Gold.Chemscore.Hbond.Weighted>
-7.7932

> <Gold.Chemscore.Metal.Weighted>
-0.0000

> <Gold.Chemscore.Lipo.Weighted>
-12.7243

> <Gold.Chemscore.Internal_Hbond.Weighted>
0.0000

> <Gold.Chemscore.DEClash.Weighted>
0.0632

> <Gold.Chemscore.DEInternal.Weighted>
1.1086

> <Gold.Chemscore.Rot.Weighted>
5.3713

> <Gold.Chemscore.Internal.Correction.Weighted>
   9.000000E+99

> <Gold.Protein.RotatedTorsions>
[ 6907 6896 6895 6894 ] final   20.11 input  -60.11 | X-H torsion
[ 7974 7965 7964 7962 ] final  -71.43 input  175.53 | X-H torsion
[ 8008 7997 7996 7995 ] final -118.28 input   59.86 | X-H torsion
[ 10167 10162 10161 10158 ] final   98.87 input  -65.29 | X-H torsion
[ 10718 10713 10712 10709 ] final -138.82 input   66.30 | X-H torsion
[ 10763 10752 10751 10750 ] final   29.87 input  -60.55 | X-H torsion
[ 11005 11000 10999 10996 ] final -140.86 input  -57.11 | X-H torsion

> <Gold.Protein.ActiveResidues>
 VAL166  LYS551  ARG553  GLY616  TRP617  ASP618  TYR619  PRO620  LYS621  CYS622 
 ASP623  PHE694  ASN695  SER759  ASP760  ASP761  ALA762  ILE779  LEU786  VAL792 
 PHE793  MET794  SER795  GLU796  ALA797  LYS798  CYS799  TRP800  GLU811  SER814 

> <Gold.Protein.RotatedAtoms>
  151.8914  135.0415  160.0497 H   0  0  0  0  0  0  0  0  0  0  0  0  # atno 6907 bound_to 6896
  152.2433  133.5149  159.5291 H   0  0  0  0  0  0  0  0  0  0  0  0  # atno 6908 bound_to 6896
  150.7060  134.0976  159.3996 H   0  0  0  0  0  0  0  0  0  0  0  0  # atno 6909 bound_to 6896
  145.6782  140.9197  143.0847 H   0  0  0  0  0  0  0  0  0  0  0  0  # atno 7974 bound_to 7965
  155.0971  140.0395  157.2686 H   0  0  0  0  0  0  0  0  0  0  0  0  # atno 8008 bound_to 7997
  154.6786  140.2628  155.6906 H   0  0  0  0  0  0  0  0  0  0  0  0  # atno 8009 bound_to 7997
  156.2686  140.2783  156.1323 H   0  0  0  0  0  0  0  0  0  0  0  0  # atno 8010 bound_to 7997
  139.7669  144.6936  151.0211 H   0  0  0  0  0  0  0  0  0  0  0  0  # atno 10167 bound_to 10162
  156.3037  130.7443  151.1501 H   0  0  0  0  0  0  0  0  0  0  0  0  # atno 10718 bound_to 10713
  153.0405  135.6478  154.0957 H   0  0  0  0  0  0  0  0  0  0  0  0  # atno 10763 bound_to 10752
  154.0664  135.2884  155.3317 H   0  0  0  0  0  0  0  0  0  0  0  0  # atno 10764 bound_to 10752
  154.6623  135.5387  153.8098 H   0  0  0  0  0  0  0  0  0  0  0  0  # atno 10765 bound_to 10752
  140.8381  134.2435  157.4824 H   0  0  0  0  0  0  0  0  0  0  0  0  # atno 11005 bound_to 11000
  144.7035  139.8661  143.7437 LP  0  0  0  0  0  0  0  0  0  0  0  0  # atno 17320 bound_to 7965
  146.0987  139.3981  143.0360 LP  0  0  0  0  0  0  0  0  0  0  0  0  # atno 17321 bound_to 7965
  140.7811  143.4633  151.0248 LP  0  0  0  0  0  0  0  0  0  0  0  0  # atno 17342 bound_to 10162
  139.8317  143.7682  152.3180 LP  0  0  0  0  0  0  0  0  0  0  0  0  # atno 17343 bound_to 10162
  157.7374  131.0552  150.5355 LP  0  0  0  0  0  0  0  0  0  0  0  0  # atno 17370 bound_to 10713
  156.5486  130.4226  149.6119 LP  0  0  0  0  0  0  0  0  0  0  0  0  # atno 17371 bound_to 10713
  139.8703  134.9621  156.4418 LP  0  0  0  0  0  0  0  0  0  0  0  0  # atno 17394 bound_to 11000
  140.8925  133.7838  155.9588 LP  0  0  0  0  0  0  0  0  0  0  0  0  # atno 17395 bound_to 11000

$$$$
