AV-unprocessed.smi:853|AV-procd|sdf|3953|dock3
  -GOLD-   22720 1423D 1   1.00000     0.00000
 Structure written by MMmdl.
 49 51  0  0  0  0  0  0  0  0  1 V2000
  143.5596  133.2325  151.6468 C   0  0  0  0  0  0  0  0  0  0  0  0
  143.2751  134.5217  152.4207 C   0  0  0  0  0  0  0  0  0  0  0  0
  142.6888  134.4310  153.4995 O   0  0  0  0  0  0  0  0  0  0  0  0
  143.6748  135.7079  151.9020 N   0  0  0  0  0  0  0  0  0  0  0  0
  143.5031  136.9818  152.6100 C   0  0  0  0  0  0  0  0  0  0  0  0
  144.8832  137.4850  153.0694 C   0  0  0  0  0  0  0  0  0  0  0  0
  145.8618  137.6079  151.8816 C   0  0  0  0  0  0  0  0  0  0  0  0
  147.2008  137.9066  152.3804 N   0  0  0  0  0  0  0  0  0  0  0  0
  147.4911  138.8068  153.3303 C   0  0  0  0  0  0  0  0  0  0  0  0
  146.6424  139.5024  153.8877 O   0  0  0  0  0  0  0  0  0  0  0  0
  148.8138  138.8511  153.5648 N   0  0  0  0  0  0  0  0  0  0  0  0
  149.5271  139.6355  154.5115 C   0  0  0  0  0  0  0  0  0  0  0  0
  150.8332  139.3481  154.9725 C   0  0  0  0  0  0  0  0  0  0  0  0
  151.4382  140.2212  155.8969 C   0  0  0  0  0  0  0  0  0  0  0  0
  150.7302  141.3668  156.3311 C   0  0  0  0  0  0  0  0  0  0  0  0
  151.3014  142.2656  157.2540 N   0  0  0  0  0  0  0  0  0  0  0  0
  152.2093  141.8141  158.2975 C   0  0  0  0  0  0  0  0  0  0  0  0
  152.4579  143.0530  159.1562 C   0  0  0  0  0  0  0  0  0  0  0  0
  151.1326  143.8086  159.0635 C   0  0  0  0  0  0  0  0  0  0  0  0
  150.6146  143.4858  157.6572 C   0  0  0  0  0  0  0  0  0  0  0  0
  149.4805  141.6406  155.8871 N   0  0  0  0  0  0  0  0  0  0  0  0
  148.9050  140.8010  155.0015 C   0  0  0  0  0  0  0  0  0  0  0  0
  145.8734  136.3210  151.0244 C   0  0  0  0  0  0  0  0  0  0  0  0
  144.4445  135.8779  150.6634 C   0  0  0  0  0  0  0  0  0  0  0  0
  144.6303  133.1069  151.4829 H   0  0  0  0  0  0  0  0  0  0  0  0
  143.0506  133.2410  150.6826 H   0  0  0  0  0  0  0  0  0  0  0  0
  143.2047  132.3641  152.2029 H   0  0  0  0  0  0  0  0  0  0  0  0
  143.0418  137.7092  151.9402 H   0  0  0  0  0  0  0  0  0  0  0  0
  142.8332  136.9025  153.4673 H   0  0  0  0  0  0  0  0  0  0  0  0
  144.7796  138.4482  153.5704 H   0  0  0  0  0  0  0  0  0  0  0  0
  145.2850  136.7923  153.8108 H   0  0  0  0  0  0  0  0  0  0  0  0
  145.5193  138.4349  151.2565 H   0  0  0  0  0  0  0  0  0  0  0  0
  147.9630  137.3848  151.9728 H   0  0  0  0  0  0  0  0  0  0  0  0
  149.3871  138.2727  152.9682 H   0  0  0  0  0  0  0  0  0  0  0  0
  151.3898  138.4894  154.6320 H   0  0  0  0  0  0  0  0  0  0  0  0
  152.4312  139.9994  156.2580 H   0  0  0  0  0  0  0  0  0  0  0  0
  151.7289  141.0298  158.8845 H   0  0  0  0  0  0  0  0  0  0  0  0
  153.1366  141.4177  157.8828 H   0  0  0  0  0  0  0  0  0  0  0  0
  152.7412  142.8102  160.1805 H   0  0  0  0  0  0  0  0  0  0  0  0
  153.2558  143.6532  158.7168 H   0  0  0  0  0  0  0  0  0  0  0  0
  150.4382  143.4147  159.8071 H   0  0  0  0  0  0  0  0  0  0  0  0
  151.2393  144.8794  159.2395 H   0  0  0  0  0  0  0  0  0  0  0  0
  150.8726  144.2816  156.9579 H   0  0  0  0  0  0  0  0  0  0  0  0
  149.5303  143.3690  157.6606 H   0  0  0  0  0  0  0  0  0  0  0  0
  147.9113  141.0711  154.6748 H   0  0  0  0  0  0  0  0  0  0  0  0
  146.4522  136.4802  150.1138 H   0  0  0  0  0  0  0  0  0  0  0  0
  146.3698  135.5166  151.5696 H   0  0  0  0  0  0  0  0  0  0  0  0
  144.4798  134.9832  150.0438 H   0  0  0  0  0  0  0  0  0  0  0  0
  143.9648  136.6389  150.0461 H   0  0  0  0  0  0  0  0  0  0  0  0
  1  2  1  0  0  0  0
  1 25  1  0  0  0  0
  1 26  1  0  0  0  0
  1 27  1  0  0  0  0
  2  3  2  0  0  0  0
  2  4  1  0  0  0  0
  4 24  1  0  0  0  0
  4  5  1  0  0  0  0
  5  6  1  0  0  0  0
  5 28  1  0  0  0  0
  5 29  1  0  0  0  0
  6  7  1  0  0  0  0
  6 30  1  0  0  0  0
  6 31  1  0  0  0  0
  7  8  1  0  0  0  0
  7 23  1  0  0  0  0
  7 32  1  0  0  0  0
  8  9  1  0  0  0  0
  8 33  1  0  0  0  0
  9 10  2  0  0  0  0
  9 11  1  0  0  0  0
 11 12  1  0  0  0  0
 11 34  1  0  0  0  0
 12 22  1  0  0  0  0
 12 13  2  0  0  0  0
 13 14  1  0  0  0  0
 13 35  1  0  0  0  0
 14 15  2  0  0  0  0
 14 36  1  0  0  0  0
 15 16  1  0  0  0  0
 15 21  1  0  0  0  0
 16 20  1  0  0  0  0
 16 17  1  0  0  0  0
 17 18  1  0  0  0  0
 17 37  1  0  0  0  0
 17 38  1  0  0  0  0
 18 19  1  0  0  0  0
 18 39  1  0  0  0  0
 18 40  1  0  0  0  0
 19 20  1  0  0  0  0
 19 41  1  0  0  0  0
 19 42  1  0  0  0  0
 20 43  1  0  0  0  0
 20 44  1  0  0  0  0
 21 22  2  0  0  0  0
 22 45  1  0  0  0  0
 23 24  1  0  0  0  0
 23 46  1  0  0  0  0
 23 47  1  0  0  0  0
 24 48  1  0  0  0  0
 24 49  1  0  0  0  0
M  END
> <s_m_source_file>
AV-unprocessed.smi

> <i_m_source_file_index>
853

> <i_lp_mmshare_version>
43012

> <i_f3d_flags>
0

> <s_epik_input>
W0NIM11DKD1PKU4xW0NIMl1bQ0gyXVtDSF0oW0NIMl1bQ0gyXTEpW05IXUMoPU8pW05IXWMyW2NIXVtjSF1jKG5bY0hdMilOM1tDSDJdW0NIMl1bQ0gyXVtDSDJdMw==

> <s_epik_cmdline>
J2VwaWtfcHl0aG9uJywgJy1waCcsICc3LjAnLCAnLXRuJywgJzgnLCAnLW1hJywgJzIwMCcsICctbWV0YWxfYmluZGluZycsICctaW1hZScsICc8aW5maWxlLm1hZT4nLCAnLW9tYWUnLCAnPG91dGZpbGUubWFlPic=

> <r_lp_tautomer_probability>
1

> <r_epik_Ionization_Penalty>
0.102256

> <r_epik_Ionization_Penalty_Charging>
0

> <r_epik_Ionization_Penalty_Neutral>
0.102256

> <r_epik_State_Penalty>
0.0916633

> <r_epik_Charging_Adjusted_Penalty>
0.0916633

> <i_epik_Tot_Q>
0

> <i_epik_Tot_abs_Q>
0

> <r_epik_Metal_State_Penalty>
0.078099

> <b_epik_Metal_Only>
0

> <s_lp_Force_Field>
OPLS_2005

> <r_lp_Energy>
47.0227

> <b_lp_Chiralities_Consistent>
1

> <s_lp_Variant>
AV-unprocessed.smi:853-1

> <Gold.Version>
5.8.1

> <Gold.Id.Protein>
6NUR|6NUR_protein|mol2

> <Gold.PLP.Fitness>
44.0432

> <Gold.PLP.PLP>
-41.5271

> <Gold.PLP.part.hbond>
-2.5228

> <Gold.PLP.part.metal>
0.0000

> <Gold.PLP.part.buried>
1.3575

> <Gold.PLP.part.nonpolar>
-42.6399

> <Gold.PLP.part.repulsive>
1.5758

> <Gold.PLP.ligand.clash>
0.0000

> <Gold.PLP.ligand.torsion>
0.4920

> <Gold.PLP.Chemscore.Hbond>
1.0956

> <Gold.PLP.Chemscore.CHOScore>
0.0000

> <Gold.PLP.Chemscore.Metal>
0.0000

> <Gold.Chemscore.Hbonds>
donor molecule, donor type, donor heavy atom, donor atom, acceptor molecule, acceptor atom, score
      L1  H     8    33       P1  7948  0.93
      L1  H    11    34       P1  7948  0.17

> <Gold.PLP.Chemscore.Internal.Correction>
0.2131

> <Gold.Rescore>
     Score         DG    S(hbond)    S(metal)    S(lipo)     H(rot)  DE(clash)    DE(int)     intcor
     13.87     -19.20       1.22        0.00     104.35       1.00       2.32       3.01       ----

> <Gold.Chemscore.Fitness>
13.8701

> <Gold.Chemscore.DG>
-19.2045

> <Gold.Chemscore.ZeroCoef>
-5.4800

> <Gold.Chemscore.Hbond>
1.2201

> <Gold.Chemscore.Metal>
0.0000

> <Gold.Chemscore.Lipo>
104.3545

> <Gold.Chemscore.Internal_Hbond>
0.0000

> <Gold.Chemscore.DEClash>
2.3232

> <Gold.Chemscore.DEInternal>
3.0112

> <Gold.Chemscore.Rot>
1.0000

> <Gold.Chemscore.Internal.Correction>
   9.000000E+99

> <Gold.Chemscore.Hbonds>
donor molecule, donor type, donor heavy atom, donor atom, acceptor molecule, acceptor atom, score
      L1  H     8    33       P1  7948  0.88
      L1  H    11    34       P1  7948  0.16

> <Gold.Chemscore.Hbond.Weighted>
-4.0750

> <Gold.Chemscore.Metal.Weighted>
-0.0000

> <Gold.Chemscore.Lipo.Weighted>
-12.2095

> <Gold.Chemscore.Internal_Hbond.Weighted>
0.0000

> <Gold.Chemscore.DEClash.Weighted>
2.3232

> <Gold.Chemscore.DEInternal.Weighted>
3.0112

> <Gold.Chemscore.Rot.Weighted>
2.5600

> <Gold.Chemscore.Internal.Correction.Weighted>
   9.000000E+99

> <Gold.Protein.RotatedTorsions>
[ 6907 6896 6895 6894 ] final   92.22 input  -60.11 | X-H torsion
[ 7974 7965 7964 7962 ] final   58.13 input  175.53 | X-H torsion
[ 8008 7997 7996 7995 ] final  -59.63 input   59.86 | X-H torsion
[ 10167 10162 10161 10158 ] final   97.70 input  -65.29 | X-H torsion
[ 10718 10713 10712 10709 ] final  172.30 input   66.30 | X-H torsion
[ 10763 10752 10751 10750 ] final  -20.67 input  -60.55 | X-H torsion
[ 11005 11000 10999 10996 ] final -173.56 input  -57.11 | X-H torsion

> <Gold.Protein.ActiveResidues>
 VAL166  LYS551  ARG553  GLY616  TRP617  ASP618  TYR619  PRO620  LYS621  CYS622 
 ASP623  PHE694  ASN695  SER759  ASP760  ASP761  ALA762  ILE779  LEU786  VAL792 
 PHE793  MET794  SER795  GLU796  ALA797  LYS798  CYS799  TRP800  GLU811  SER814 

> <Gold.Protein.RotatedAtoms>
  152.5452  134.1536  159.8528 H   0  0  0  0  0  0  0  0  0  0  0  0  # atno 6907 bound_to 6896
  151.1560  133.4869  159.2602 H   0  0  0  0  0  0  0  0  0  0  0  0  # atno 6908 bound_to 6896
  151.1422  135.0196  159.8686 H   0  0  0  0  0  0  0  0  0  0  0  0  # atno 6909 bound_to 6896
  145.9216  139.3734  143.0475 H   0  0  0  0  0  0  0  0  0  0  0  0  # atno 7974 bound_to 7965
  154.4361  140.1057  156.6146 H   0  0  0  0  0  0  0  0  0  0  0  0  # atno 8008 bound_to 7997
  155.5773  140.3490  155.4512 H   0  0  0  0  0  0  0  0  0  0  0  0  # atno 8009 bound_to 7997
  156.0345  140.1268  157.0212 H   0  0  0  0  0  0  0  0  0  0  0  0  # atno 8010 bound_to 7997
  139.7776  144.6900  151.0067 H   0  0  0  0  0  0  0  0  0  0  0  0  # atno 10167 bound_to 10162
  156.9809  131.0119  151.2882 H   0  0  0  0  0  0  0  0  0  0  0  0  # atno 10718 bound_to 10713
  153.6241  135.6991  153.5299 H   0  0  0  0  0  0  0  0  0  0  0  0  # atno 10763 bound_to 10752
  153.2913  135.4156  155.1169 H   0  0  0  0  0  0  0  0  0  0  0  0  # atno 10764 bound_to 10752
  154.8537  135.3626  154.5782 H   0  0  0  0  0  0  0  0  0  0  0  0  # atno 10765 bound_to 10752
  140.4844  134.6045  157.4931 H   0  0  0  0  0  0  0  0  0  0  0  0  # atno 11005 bound_to 11000
  145.8543  140.9511  143.0733 LP  0  0  0  0  0  0  0  0  0  0  0  0  # atno 17320 bound_to 7965
  144.6753  140.0447  143.7480 LP  0  0  0  0  0  0  0  0  0  0  0  0  # atno 17321 bound_to 7965
  140.7817  143.4518  151.0402 LP  0  0  0  0  0  0  0  0  0  0  0  0  # atno 17342 bound_to 10162
  139.8200  143.7833  152.3176 LP  0  0  0  0  0  0  0  0  0  0  0  0  # atno 17343 bound_to 10162
  157.5527  130.8193  149.8165 LP  0  0  0  0  0  0  0  0  0  0  0  0  # atno 17370 bound_to 10713
  156.0245  130.3784  150.1864 LP  0  0  0  0  0  0  0  0  0  0  0  0  # atno 17371 bound_to 10713
  139.9807  134.7142  155.9865 LP  0  0  0  0  0  0  0  0  0  0  0  0  # atno 17394 bound_to 11000
  141.1515  133.6548  156.4029 LP  0  0  0  0  0  0  0  0  0  0  0  0  # atno 17395 bound_to 11000

$$$$
