#       Name:                AV-unprocessed.smi:2198
#       Creating user name   scv26
#       Creation time:       Fri Mar 27 12:13:45 2020


#       File generated by GOLD software.
#

@<TRIPOS>MOLECULE
AV-unprocessed.smi:2198
    48    49     1
SMALL
NO_CHARGES


@<TRIPOS>ATOM
      1 ****        -6.6593  -1.6405  -1.5005 C.3            1 S1                 0.0000
      2 ****        -5.1474  -1.5777  -1.4606 C.2            1 S1                 0.0000
      3 ****        -4.5594  -0.4883  -1.7794 N.2            1 S1                 0.0000
      4 ****        -3.1557  -0.4266  -1.7525 C.2            1 S1                 0.0000
      5 ****        -2.5423   0.9033  -2.1542 C.3            1 S1                 0.0000
      6 ****        -2.4084  -1.5086  -1.3901 C.2            1 S1                 0.0000
      7 ****        -0.8796  -1.4974  -1.3579 C.3            1 S1                 0.0000
      8 ****        -0.2277  -0.8986  -0.1090 C.2            1 S1                 0.0000
      9 ****        -0.9114  -0.5439   0.8518 O.2            1 S1                 0.0000
     10 ****         1.1084  -0.7812  -0.1449 N.am           1 S1                 0.0000
     11 ****         1.9321  -0.2075   0.9147 C.3            1 S1                 0.0000
     12 ****         3.3643  -0.7632   0.8173 C.3            1 S1                 0.0000
     13 ****         4.2758  -0.1399   1.8856 C.3            1 S1                 0.0000
     14 ****         4.2764   1.3939   1.7913 C.3            1 S1                 0.0000
     15 ****         2.8500   1.9673   1.8905 C.3            1 S1                 0.0000
     16 ****         2.8533   3.4991   1.7868 C.3            1 S1                 0.0000
     17 ****         1.9372   1.3330   0.8232 C.3            1 S1                 0.0000
     18 ****        -3.1254  -2.7409  -1.0167 C.2            1 S1                 0.0000
     19 ****        -2.5002  -3.7387  -0.6596 O.2            1 S1                 0.0000
     20 ****        -4.4876  -2.7243  -1.0791 N.pl3          1 S1                -1.0000
     21 ****        -7.0913  -0.6429  -1.5903 H              1 S1                 0.0000
     22 ****        -7.0468  -2.0980  -0.5896 H              1 S1                 0.0000
     23 ****        -6.9871  -2.2351  -2.3534 H              1 S1                 0.0000
     24 ****        -1.9949   0.8016  -3.0913 H              1 S1                 0.0000
     25 ****        -1.8564   1.2612  -1.3862 H              1 S1                 0.0000
     26 ****        -3.3102   1.6651  -2.2939 H              1 S1                 0.0000
     27 ****        -0.4866  -2.5039  -1.5057 H              1 S1                 0.0000
     28 ****        -0.5245  -0.9330  -2.2203 H              1 S1                 0.0000
     29 ****         1.5885  -1.1016  -0.9733 H              1 S1                 0.0000
     30 ****         1.5207  -0.5031   1.8819 H              1 S1                 0.0000
     31 ****         3.3543  -1.8480   0.9308 H              1 S1                 0.0000
     32 ****         3.7753  -0.5590  -0.1726 H              1 S1                 0.0000
     33 ****         3.9386  -0.4454   2.8769 H              1 S1                 0.0000
     34 ****         5.2921  -0.5189   1.7743 H              1 S1                 0.0000
     35 ****         4.9012   1.8077   2.5837 H              1 S1                 0.0000
     36 ****         4.7321   1.6992   0.8485 H              1 S1                 0.0000
     37 ****         2.4501   1.7055   2.8712 H              1 S1                 0.0000
     38 ****         3.2508   3.8304   0.8270 H              1 S1                 0.0000
     39 ****         3.4650   3.9442   2.5721 H              1 S1                 0.0000
     40 ****         1.8451   3.9020   1.8867 H              1 S1                 0.0000
     41 ****         2.2688   1.6399  -0.1700 H              1 S1                 0.0000
     42 ****         0.9216   1.7142   0.9386 H              1 S1                 0.0000
     43 ****        -5.0941   0.3136  -2.0459 LP             1 S1                 0.0000
     44 ****        -1.9058  -0.6455   0.8225 LP             1 S1                 0.0000
     45 ****        -0.4722  -0.1543   1.6613 LP             1 S1                 0.0000
     46 ****        -1.5012  -3.7158  -0.6218 LP             1 S1                 0.0000
     47 ****        -2.9911  -4.5726  -0.4072 LP             1 S1                 0.0000
     48 ****        -5.0080  -3.5462  -0.8475 LP             1 S1                 0.0000
@<TRIPOS>BOND
    1    1    2 1     
    2    1   21 1     
    3    1   22 1     
    4    1   23 1     
    5    2   20 1     
    6    2    3 2     
    7    3    4 1     
    8    4    5 1     
    9    4    6 2     
   10    5   24 1     
   11    5   25 1     
   12    5   26 1     
   13    6    7 1     
   14    6   18 1     
   15    7    8 1     
   16    7   27 1     
   17    7   28 1     
   18    8    9 2     
   19    8   10 am    
   20   10   11 1     
   21   10   29 1     
   22   11   17 1     
   23   11   12 1     
   24   11   30 1     
   25   12   13 1     
   26   12   31 1     
   27   12   32 1     
   28   13   14 1     
   29   13   33 1     
   30   13   34 1     
   31   14   15 1     
   32   14   35 1     
   33   14   36 1     
   34   15   16 1     
   35   15   17 1     
   36   15   37 1     
   37   16   38 1     
   38   16   39 1     
   39   16   40 1     
   40   17   41 1     
   41   17   42 1     
   42   18   19 2     
   43   18   20 1     
   44    3   43 1     
   45    9   44 1     
   46    9   45 1     
   47   19   46 1     
   48   19   47 1     
   49   20   48 1     
@<TRIPOS>SUBSTRUCTURE
      1 S1             1
@<TRIPOS>SET
LONE_PAIRS      STATIC     ATOMS    <user>   **** ""
6 43 44 45 46 47 48
DONOR_HYDROGENS      STATIC     ATOMS    <user>   **** ""
1 29
ATOM$BLUE        STATIC     ATOMS    COLORGROUP SYSTEM
6 43 44 45 46 47 48
ATOM$RED        STATIC     ATOMS    COLORGROUP SYSTEM
1 29
