#       Name:                AV-unprocessed.smi:1127
#       Creating user name   scv26
#       Creation time:       Fri Mar 27 03:40:51 2020


#       File generated by GOLD software.
#

@<TRIPOS>MOLECULE
AV-unprocessed.smi:1127
    46    47     1
SMALL
NO_CHARGES


@<TRIPOS>ATOM
      1 ****        -3.3302   0.7892  -0.0804 C.3            1 S1                 0.0000
      2 ****        -2.9943   0.1044   1.6100 S.o            1 S1                 0.0000
      3 ****        -4.0382   0.7031   2.5545 O.2            1 S1                 0.0000
      4 ****        -3.6352  -1.5621   1.2235 C.2            1 S1                 0.0000
      5 ****        -4.9338  -1.8474   1.0882 N.2            1 S1                 0.0000
      6 ****        -4.9725  -3.1966   0.7912 N.2            1 S1                 0.0000
      7 ****        -3.6937  -3.5786   0.7799 C.2            1 S1                 0.0000
      8 ****        -2.8054  -2.6069   1.0425 N.pl3          1 S1                 0.0000
      9 ****        -1.3556  -2.6903   1.1050 C.3            1 S1                 0.0000
     10 ****        -0.6971  -2.0545  -0.1225 C.2            1 S1                 0.0000
     11 ****        -1.1523  -2.2581  -1.2481 O.2            1 S1                 0.0000
     12 ****         0.3647  -1.2696   0.1162 N.am           1 S1                 0.0000
     13 ****         1.1109  -0.5154  -0.8883 C.3            1 S1                 0.0000
     14 ****         2.6045  -0.4893  -0.4982 C.3            1 S1                 0.0000
     15 ****         3.4906   0.4634  -1.3259 C.3            1 S1                 0.0000
     16 ****         3.8588   1.7798  -0.6109 C.3            1 S1                 0.0000
     17 ****         2.7187   2.7944  -0.3855 C.3            1 S1                 0.0000
     18 ****         1.6573   2.3555   0.6437 C.3            1 S1                 0.0000
     19 ****         0.3378   1.8261   0.0500 C.3            1 S1                 0.0000
     20 ****         0.4476   0.8576  -1.1447 C.3            1 S1                 0.0000
     21 ****        -3.1187   0.0464  -0.8501 H              1 S1                 0.0000
     22 ****        -2.7030   1.6610  -0.2631 H              1 S1                 0.0000
     23 ****        -4.3741   1.0908  -0.1653 H              1 S1                 0.0000
     24 ****        -3.3979  -4.5966   0.5727 H              1 S1                 0.0000
     25 ****        -1.0175  -2.2073   2.0231 H              1 S1                 0.0000
     26 ****        -1.0625  -3.7390   1.1649 H              1 S1                 0.0000
     27 ****         0.6660  -1.1640   1.0743 H              1 S1                 0.0000
     28 ****         1.0601  -1.0590  -1.8336 H              1 S1                 0.0000
     29 ****         2.7323  -0.2946   0.5658 H              1 S1                 0.0000
     30 ****         2.9864  -1.5026  -0.6309 H              1 S1                 0.0000
     31 ****         4.4276  -0.0565  -1.5296 H              1 S1                 0.0000
     32 ****         3.0607   0.6569  -2.3085 H              1 S1                 0.0000
     33 ****         4.3373   1.5537   0.3427 H              1 S1                 0.0000
     34 ****         4.6267   2.2746  -1.2066 H              1 S1                 0.0000
     35 ****         3.1808   3.7074  -0.0079 H              1 S1                 0.0000
     36 ****         2.2598   3.0851  -1.3305 H              1 S1                 0.0000
     37 ****         2.0788   1.6389   1.3466 H              1 S1                 0.0000
     38 ****         1.4047   3.2176   1.2621 H              1 S1                 0.0000
     39 ****        -0.2516   1.3699   0.8452 H              1 S1                 0.0000
     40 ****        -0.2447   2.6856  -0.2837 H              1 S1                 0.0000
     41 ****         0.9311   1.3556  -1.9833 H              1 S1                 0.0000
     42 ****        -0.5656   0.6716  -1.5030 H              1 S1                 0.0000
     43 ****        -5.7081  -1.2215   1.1814 LP             1 S1                 0.0000
     44 ****        -5.7800  -3.7617   0.6221 LP             1 S1                 0.0000
     45 ****        -1.9562  -2.8414  -1.3644 LP             1 S1                 0.0000
     46 ****        -0.7181  -1.8402  -2.0462 LP             1 S1                 0.0000
@<TRIPOS>BOND
    1    1    2 1     
    2    1   21 1     
    3    1   22 1     
    4    1   23 1     
    5    2    3 2     
    6    2    4 1     
    7    4    8 1     
    8    4    5 2     
    9    5    6 1     
   10    6    7 2     
   11    7    8 1     
   12    7   24 1     
   13    8    9 1     
   14    9   10 1     
   15    9   25 1     
   16    9   26 1     
   17   10   11 2     
   18   10   12 am    
   19   12   13 1     
   20   12   27 1     
   21   13   20 1     
   22   13   14 1     
   23   13   28 1     
   24   14   15 1     
   25   14   29 1     
   26   14   30 1     
   27   15   16 1     
   28   15   31 1     
   29   15   32 1     
   30   16   17 1     
   31   16   33 1     
   32   16   34 1     
   33   17   18 1     
   34   17   35 1     
   35   17   36 1     
   36   18   19 1     
   37   18   37 1     
   38   18   38 1     
   39   19   20 1     
   40   19   39 1     
   41   19   40 1     
   42   20   41 1     
   43   20   42 1     
   44    5   43 1     
   45    6   44 1     
   46   11   45 1     
   47   11   46 1     
@<TRIPOS>SUBSTRUCTURE
      1 S1             1
@<TRIPOS>SET
LONE_PAIRS      STATIC     ATOMS    <user>   **** ""
5 3 43 44 45 46
DONOR_HYDROGENS      STATIC     ATOMS    <user>   **** ""
1 27
ATOM$BLUE        STATIC     ATOMS    COLORGROUP SYSTEM
5 3 43 44 45 46
ATOM$RED        STATIC     ATOMS    COLORGROUP SYSTEM
1 27
