AV-unprocessed.smi:2943|AV-procd|sdf|11269|dock5
  -GOLD-   2272016163D 1   1.00000     0.00000
 Structure written by MMmdl.
 36 38  0  0  0  0  0  0  0  0  1 V2000
  148.2406  138.6671  153.9004 C   0  0  0  0  0  0  0  0  0  0  0  0
  149.3939  139.2711  154.6460 C   0  0  0  0  0  0  0  0  0  0  0  0
  149.5061  140.5797  155.0570 C   0  0  0  0  0  0  0  0  0  0  0  0
  148.5271  141.6977  154.8643 C   0  0  0  0  0  0  0  0  0  0  0  0
  150.7162  140.7641  155.7292 N   0  0  0  0  0  0  0  0  0  0  0  0
  151.1882  142.0114  156.3150 C   0  0  0  0  0  0  0  0  0  0  0  0
  151.2608  141.9388  157.8496 C   0  0  1  0  0  0  0  0  0  0  0  0
  152.4508  141.1361  158.3736 C   0  0  0  0  0  0  0  0  0  0  0  0
  152.6548  141.7479  159.7405 C   0  0  0  0  0  0  0  0  0  0  0  0
  152.3742  143.2205  159.4600 C   0  0  0  0  0  0  0  0  0  0  0  0
  151.3946  143.2369  158.4260 O   0  0  0  0  0  0  0  0  0  0  0  0
  151.4064  139.5608  155.7455 C   0  0  0  0  0  0  0  0  0  0  0  0
  152.6314  139.3191  156.3026 N   0  0  0  0  0  0  0  0  0  0  0  0
  153.0143  138.0510  156.1352 C   0  0  0  0  0  0  0  0  0  0  0  0
  152.3654  137.0574  155.5218 N   0  0  0  0  0  0  0  0  0  0  0  0
  151.1533  137.3039  154.9758 C   0  0  0  0  0  0  0  0  0  0  0  0
  150.5123  136.2409  154.3434 N   0  0  0  0  0  0  0  0  0  0  0  0
  150.5982  138.6078  155.0659 C   0  0  0  0  0  0  0  0  0  0  0  0
  147.2999  139.1615  154.1423 H   0  0  0  0  0  0  0  0  0  0  0  0
  148.1139  137.6130  154.1451 H   0  0  0  0  0  0  0  0  0  0  0  0
  148.3884  138.7424  152.8231 H   0  0  0  0  0  0  0  0  0  0  0  0
  147.7909  141.4572  154.0981 H   0  0  0  0  0  0  0  0  0  0  0  0
  149.0261  142.6139  154.5507 H   0  0  0  0  0  0  0  0  0  0  0  0
  147.9911  141.9042  155.7907 H   0  0  0  0  0  0  0  0  0  0  0  0
  152.1647  142.2575  155.8975 H   0  0  0  0  0  0  0  0  0  0  0  0
  150.5178  142.8152  156.0084 H   0  0  0  0  0  0  0  0  0  0  0  0
  150.3426  141.5059  158.2483 H   0  0  0  0  0  0  0  0  0  0  0  0
  152.2583  140.0634  158.4074 H   0  0  0  0  0  0  0  0  0  0  0  0
  153.3342  141.3069  157.7565 H   0  0  0  0  0  0  0  0  0  0  0  0
  151.9214  141.3502  160.4434 H   0  0  0  0  0  0  0  0  0  0  0  0
  153.6513  141.5725  160.1471 H   0  0  0  0  0  0  0  0  0  0  0  0
  152.0305  143.7567  160.3448 H   0  0  0  0  0  0  0  0  0  0  0  0
  153.2732  143.7156  159.0908 H   0  0  0  0  0  0  0  0  0  0  0  0
  153.9770  137.7940  156.5519 H   0  0  0  0  0  0  0  0  0  0  0  0
  150.9341  135.3248  154.2942 H   0  0  0  0  0  0  0  0  0  0  0  0
  149.6041  136.3534  153.9164 H   0  0  0  0  0  0  0  0  0  0  0  0
  1  2  1  0  0  0  0
  1 19  1  0  0  0  0
  1 20  1  0  0  0  0
  1 21  1  0  0  0  0
  2 18  1  0  0  0  0
  2  3  2  0  0  0  0
  3  4  1  0  0  0  0
  3  5  1  0  0  0  0
  4 22  1  0  0  0  0
  4 23  1  0  0  0  0
  4 24  1  0  0  0  0
  5  6  1  0  0  0  0
  5 12  1  0  0  0  0
  6  7  1  0  0  0  0
  6 25  1  0  0  0  0
  6 26  1  0  0  0  0
  7 11  1  0  0  0  0
  7  8  1  0  0  0  0
  7 27  1  0  0  0  0
  8  9  1  0  0  0  0
  8 28  1  0  0  0  0
  8 29  1  0  0  0  0
  9 10  1  0  0  0  0
  9 30  1  0  0  0  0
  9 31  1  0  0  0  0
 10 11  1  0  0  0  0
 10 32  1  0  0  0  0
 10 33  1  0  0  0  0
 12 18  1  0  0  0  0
 12 13  2  0  0  0  0
 13 14  1  0  0  0  0
 14 15  2  0  0  0  0
 14 34  1  0  0  0  0
 15 16  1  0  0  0  0
 16 17  1  0  0  0  0
 16 18  2  0  0  0  0
 17 35  1  0  0  0  0
 17 36  1  0  0  0  0
M  END
> <s_m_source_file>
AV-unprocessed.smi

> <i_m_source_file_index>
2943

> <i_lp_mmshare_version>
43012

> <i_f3d_flags>
0

> <s_epik_input>
bjFbY0hdbmMoW05IMl0pYyhjMTIpYyhbQ0gzXSljKFtDSDNdKW4yW0NIMl1bQ0BASF0zW0NIMl1bQ0gyXVtDSDJdTzM=

> <s_epik_cmdline>
J2VwaWtfcHl0aG9uJywgJy1waCcsICc3LjAnLCAnLXRuJywgJzgnLCAnLW1hJywgJzIwMCcsICctbWV0YWxfYmluZGluZycsICctaW1hZScsICc8aW5maWxlLm1hZT4nLCAnLW9tYWUnLCAnPG91dGZpbGUubWFlPic=

> <r_epik_Ionization_Penalty>
0.0115167

> <r_epik_Ionization_Penalty_Charging>
0

> <r_epik_Ionization_Penalty_Neutral>
0.0115167

> <r_epik_State_Penalty>
0.00863248

> <r_epik_Charging_Adjusted_Penalty>
0.00863248

> <i_epik_Tot_Q>
0

> <i_epik_Tot_abs_Q>
0

> <r_epik_Metal_State_Penalty>
0.00847169

> <b_epik_Metal_Only>
0

> <s_lp_Force_Field>
OPLS_2005

> <r_lp_Energy>
17.4582

> <b_lp_Chiralities_Consistent>
1

> <s_lp_Variant>
AV-unprocessed.smi:2943-2

> <Gold.Version>
5.8.1

> <Gold.Id.Protein>
6NUR|6NUR_protein|mol2

> <Gold.PLP.Fitness>
41.7953

> <Gold.PLP.PLP>
-35.3410

> <Gold.PLP.part.hbond>
-4.0000

> <Gold.PLP.part.metal>
0.0000

> <Gold.PLP.part.buried>
-1.6426

> <Gold.PLP.part.nonpolar>
-29.6833

> <Gold.PLP.part.repulsive>
0.1946

> <Gold.PLP.ligand.clash>
0.0000

> <Gold.PLP.ligand.torsion>
0.1600

> <Gold.PLP.Chemscore.Hbond>
2.2580

> <Gold.PLP.Chemscore.CHOScore>
0.0000

> <Gold.PLP.Chemscore.Metal>
0.0000

> <Gold.Chemscore.Hbonds>
donor molecule, donor type, donor heavy atom, donor atom, acceptor molecule, acceptor atom, score
      L1  H    17    36       P1  7948  0.46
      P1  H  7997  8010       L1    13  0.90
      P1  H 10752 10765       L1    15  0.80

> <Gold.PLP.Chemscore.Internal.Correction>
0.0004

> <Gold.Rescore>
     Score         DG    S(hbond)    S(metal)    S(lipo)     H(rot)  DE(clash)    DE(int)     intcor
     13.48     -16.53       1.74        0.00      72.29       1.26       1.44       1.61       ----

> <Gold.Chemscore.Fitness>
13.4753

> <Gold.Chemscore.DG>
-16.5288

> <Gold.Chemscore.ZeroCoef>
-5.4800

> <Gold.Chemscore.Hbond>
1.7421

> <Gold.Chemscore.Metal>
0.0000

> <Gold.Chemscore.Lipo>
72.2882

> <Gold.Chemscore.Internal_Hbond>
0.0000

> <Gold.Chemscore.DEClash>
1.4390

> <Gold.Chemscore.DEInternal>
1.6144

> <Gold.Chemscore.Rot>
1.2607

> <Gold.Chemscore.Internal.Correction>
   9.000000E+99

> <Gold.Chemscore.Hbonds>
donor molecule, donor type, donor heavy atom, donor atom, acceptor molecule, acceptor atom, score
      L1  H    17    36       P1  7948  0.29
      P1  H  7997  8010       L1    13  0.18
      P1  H 10752 10765       L1    15  0.48

> <Gold.Chemscore.Hbond.Weighted>
-5.8185

> <Gold.Chemscore.Metal.Weighted>
-0.0000

> <Gold.Chemscore.Lipo.Weighted>
-8.4577

> <Gold.Chemscore.Internal_Hbond.Weighted>
0.0000

> <Gold.Chemscore.DEClash.Weighted>
1.4390

> <Gold.Chemscore.DEInternal.Weighted>
1.6144

> <Gold.Chemscore.Rot.Weighted>
3.2274

> <Gold.Chemscore.Internal.Correction.Weighted>
   9.000000E+99

> <Gold.Protein.RotatedTorsions>
[ 6907 6896 6895 6894 ] final -129.27 input  -60.11 | X-H torsion
[ 7974 7965 7964 7962 ] final   12.66 input  175.53 | X-H torsion
[ 8008 7997 7996 7995 ] final   78.35 input   59.86 | X-H torsion
[ 10167 10162 10161 10158 ] final  173.10 input  -65.29 | X-H torsion
[ 10718 10713 10712 10709 ] final  -16.21 input   66.30 | X-H torsion
[ 10763 10752 10751 10750 ] final -171.61 input  -60.55 | X-H torsion
[ 11005 11000 10999 10996 ] final -140.86 input  -57.11 | X-H torsion

> <Gold.Protein.ActiveResidues>
 VAL166  LYS551  ARG553  GLY616  TRP617  ASP618  TYR619  PRO620  LYS621  CYS622 
 ASP623  PHE694  ASN695  SER759  ASP760  ASP761  ALA762  ILE779  LEU786  VAL792 
 PHE793  MET794  SER795  GLU796  ALA797  LYS798  CYS799  TRP800  GLU811  SER814 

> <Gold.Protein.RotatedAtoms>
  150.9269  133.6813  159.2819 H   0  0  0  0  0  0  0  0  0  0  0  0  # atno 6907 bound_to 6896
  151.4248  135.1001  159.9634 H   0  0  0  0  0  0  0  0  0  0  0  0  # atno 6908 bound_to 6896
  152.5007  133.8713  159.7354 H   0  0  0  0  0  0  0  0  0  0  0  0  # atno 6909 bound_to 6896
  146.2346  139.9303  142.8497 H   0  0  0  0  0  0  0  0  0  0  0  0  # atno 7974 bound_to 7965
  155.8545  140.3456  155.5715 H   0  0  0  0  0  0  0  0  0  0  0  0  # atno 8008 bound_to 7997
  155.8001  140.0884  157.1981 H   0  0  0  0  0  0  0  0  0  0  0  0  # atno 8009 bound_to 7997
  154.4009  140.1467  156.3251 H   0  0  0  0  0  0  0  0  0  0  0  0  # atno 8010 bound_to 7997
  139.5097  144.3299  152.0122 H   0  0  0  0  0  0  0  0  0  0  0  0  # atno 10167 bound_to 10162
  156.5909  130.4798  149.6280 H   0  0  0  0  0  0  0  0  0  0  0  0  # atno 10718 bound_to 10713
  154.6285  135.2883  155.0244 H   0  0  0  0  0  0  0  0  0  0  0  0  # atno 10763 bound_to 10752
  154.1413  135.6518  153.4946 H   0  0  0  0  0  0  0  0  0  0  0  0  # atno 10764 bound_to 10752
  153.0268  135.5333  154.7103 H   0  0  0  0  0  0  0  0  0  0  0  0  # atno 10765 bound_to 10752
  140.8381  134.2435  157.4823 H   0  0  0  0  0  0  0  0  0  0  0  0  # atno 11005 bound_to 11000
  145.2051  140.9871  143.4133 LP  0  0  0  0  0  0  0  0  0  0  0  0  # atno 17320 bound_to 7965
  144.9740  139.3851  143.6295 LP  0  0  0  0  0  0  0  0  0  0  0  0  # atno 17321 bound_to 7965
  140.2738  144.3934  150.6142 LP  0  0  0  0  0  0  0  0  0  0  0  0  # atno 17342 bound_to 10162
  140.6068  143.2168  151.6964 LP  0  0  0  0  0  0  0  0  0  0  0  0  # atno 17343 bound_to 10162
  156.2551  130.6930  151.1680 LP  0  0  0  0  0  0  0  0  0  0  0  0  # atno 17370 bound_to 10713
  157.7304  131.0617  150.5729 LP  0  0  0  0  0  0  0  0  0  0  0  0  # atno 17371 bound_to 10713
  139.8703  134.9621  156.4419 LP  0  0  0  0  0  0  0  0  0  0  0  0  # atno 17394 bound_to 11000
  140.8925  133.7838  155.9587 LP  0  0  0  0  0  0  0  0  0  0  0  0  # atno 17395 bound_to 11000

$$$$
