AV-unprocessed.smi:734|AV-procd|sdf|3530|dock1
  -GOLD-   22720 0523D 1   1.00000     0.00000
 Structure written by MMmdl.
 39 40  0  0  0  0  0  0  0  0  2 V2000
  151.5607  143.5865  157.6473 C   0  0  0  0  0  0  0  0  0  0  0  0
  150.8450  142.2527  157.9057 C   0  0  0  0  0  0  0  0  0  0  0  0
  151.5232  141.4063  158.9931 C   0  0  0  0  0  0  0  0  0  0  0  0
  150.6228  141.4775  156.6442 C   0  0  0  0  0  0  0  0  0  0  0  0
  151.6210  140.9204  155.9452 N   0  0  0  0  0  0  0  0  0  0  0  0
  151.1679  140.2532  154.8166 N   0  0  0  0  0  0  0  0  0  0  0  0
  149.8354  140.3221  154.6964 C   0  0  0  0  0  0  0  0  0  0  0  0
  149.1082  139.7263  153.6315 N   0  0  0  0  0  0  0  0  0  0  0  0
  147.8739  139.1934  153.6641 C   0  0  0  0  0  0  0  0  0  0  0  0
  147.1453  139.1428  154.6550 O   0  0  0  0  0  0  0  0  0  0  0  0
  147.5181  138.7107  152.4647 N   0  0  0  0  0  0  0  0  0  0  0  0
  146.2212  138.1148  152.1502 C   0  0  0  0  0  0  0  0  0  0  0  0
  145.9925  136.7434  152.8223 C   0  0  0  0  0  0  0  0  0  0  0  0
  146.2972  135.6011  151.9283 N   0  3  0  0  0  0  0  0  0  0  0  0
  145.4139  135.4854  150.7331 C   0  0  0  0  0  0  0  0  0  0  0  0
  145.2311  134.0013  150.5853 C   0  0  0  0  0  0  0  0  0  0  0  0
  145.7453  133.3435  151.6184 C   0  0  0  0  0  0  0  0  0  0  0  0
  146.3541  134.2835  152.6207 C   0  0  0  0  0  0  0  0  0  0  0  0
  149.0193  141.2236  155.9618 S   0  0  0  0  0  0  0  0  0  0  0  0
  151.0093  144.1955  156.9302 H   0  0  0  0  0  0  0  0  0  0  0  0
  152.5635  143.4280  157.2489 H   0  0  0  0  0  0  0  0  0  0  0  0
  151.6571  144.1648  158.5664 H   0  0  0  0  0  0  0  0  0  0  0  0
  149.8556  142.5064  158.2885 H   0  0  0  0  0  0  0  0  0  0  0  0
  150.9419  140.5099  159.2121 H   0  0  0  0  0  0  0  0  0  0  0  0
  151.6256  141.9685  159.9216 H   0  0  0  0  0  0  0  0  0  0  0  0
  152.5205  141.0896  158.6857 H   0  0  0  0  0  0  0  0  0  0  0  0
  149.5813  139.7134  152.7400 H   0  0  0  0  0  0  0  0  0  0  0  0
  148.1750  138.8001  151.7028 H   0  0  0  0  0  0  0  0  0  0  0  0
  145.4236  138.8054  152.4283 H   0  0  0  0  0  0  0  0  0  0  0  0
  146.1634  138.0071  151.0669 H   0  0  0  0  0  0  0  0  0  0  0  0
  146.6320  136.6673  153.7025 H   0  0  0  0  0  0  0  0  0  0  0  0
  144.9664  136.6675  153.1848 H   0  0  0  0  0  0  0  0  0  0  0  0
  144.4425  135.9571  150.8889 H   0  0  0  0  0  0  0  0  0  0  0  0
  145.8883  135.9216  149.8538 H   0  0  0  0  0  0  0  0  0  0  0  0
  144.7206  133.5556  149.7440 H   0  0  0  0  0  0  0  0  0  0  0  0
  145.7235  132.2726  151.7586 H   0  0  0  0  0  0  0  0  0  0  0  0
  147.3831  134.0109  152.8561 H   0  0  0  0  0  0  0  0  0  0  0  0
  145.7612  134.2725  153.5365 H   0  0  0  0  0  0  0  0  0  0  0  0
  147.2290  135.7528  151.5696 H   0  0  0  0  0  0  0  0  0  0  0  0
  1  2  1  0  0  0  0
  1 20  1  0  0  0  0
  1 21  1  0  0  0  0
  1 22  1  0  0  0  0
  2  3  1  0  0  0  0
  2  4  1  0  0  0  0
  2 23  1  0  0  0  0
  3 24  1  0  0  0  0
  3 25  1  0  0  0  0
  3 26  1  0  0  0  0
  4 19  1  0  0  0  0
  4  5  2  0  0  0  0
  5  6  1  0  0  0  0
  6  7  2  0  0  0  0
  7  8  1  0  0  0  0
  7 19  1  0  0  0  0
  8  9  1  0  0  0  0
  8 27  1  0  0  0  0
  9 10  2  0  0  0  0
  9 11  1  0  0  0  0
 11 12  1  0  0  0  0
 11 28  1  0  0  0  0
 12 13  1  0  0  0  0
 12 29  1  0  0  0  0
 12 30  1  0  0  0  0
 13 14  1  0  0  0  0
 13 31  1  0  0  0  0
 13 32  1  0  0  0  0
 14 18  1  0  0  0  0
 14 15  1  0  0  0  0
 14 39  1  0  0  0  0
 15 16  1  0  0  0  0
 15 33  1  0  0  0  0
 15 34  1  0  0  0  0
 16 17  2  0  0  0  0
 16 35  1  0  0  0  0
 17 18  1  0  0  0  0
 17 36  1  0  0  0  0
 18 37  1  0  0  0  0
 18 38  1  0  0  0  0
M  CHG  1  14   1
M  END
> <s_m_source_file>
AV-unprocessed.smi

> <i_m_source_file_index>
734

> <i_lp_mmshare_version>
43012

> <i_f3d_flags>
0

> <s_epik_input>
W0NIM11bQ0hdKFtDSDNdKWMxbm5jKHMxKVtOSF1DKD1PKVtOSF1bQ0gyXVtDSDJdTjJbQ0gyXVtDSF09W0NIXVtDSDJdMg==

> <s_epik_cmdline>
J2VwaWtfcHl0aG9uJywgJy1waCcsICc3LjAnLCAnLXRuJywgJzgnLCAnLW1hJywgJzIwMCcsICctbWV0YWxfYmluZGluZycsICctaW1hZScsICc8aW5maWxlLm1hZT4nLCAnLW9tYWUnLCAnPG91dGZpbGUubWFlPic=

> <r_lp_tautomer_probability>
1

> <r_epik_Ionization_Penalty>
0.00760515

> <r_epik_Ionization_Penalty_Charging>
0.00331807

> <r_epik_Ionization_Penalty_Neutral>
0.00428708

> <r_epik_State_Penalty>
0.0025644

> <r_epik_Charging_Adjusted_Penalty>
0.00588246

> <i_epik_Tot_Q>
1

> <i_epik_Tot_abs_Q>
1

> <r_epik_Metal_State_Penalty>
0.375529

> <b_epik_Metal_Only>
0

> <s_lp_Force_Field>
OPLS_2005

> <r_lp_Energy>
21.5214

> <b_lp_Chiralities_Consistent>
1

> <s_lp_Variant>
AV-unprocessed.smi:734-1

> <Gold.Version>
5.8.1

> <Gold.Id.Protein>
6NUR|6NUR_protein|mol2

> <Gold.PLP.Fitness>
47.3840

> <Gold.PLP.PLP>
-34.2888

> <Gold.PLP.part.hbond>
-5.5286

> <Gold.PLP.part.metal>
0.0000

> <Gold.PLP.part.buried>
-3.5843

> <Gold.PLP.part.nonpolar>
-25.5419

> <Gold.PLP.part.repulsive>
0.4050

> <Gold.PLP.ligand.clash>
0.0000

> <Gold.PLP.ligand.torsion>
0.6439

> <Gold.PLP.Chemscore.Hbond>
4.7440

> <Gold.PLP.Chemscore.CHOScore>
0.0000

> <Gold.PLP.Chemscore.Metal>
0.0000

> <Gold.Chemscore.Hbonds>
donor molecule, donor type, donor heavy atom, donor atom, acceptor molecule, acceptor atom, score
      L1  H     8    27       P1  7957  1.00
      L1  H    11    28       P1  7957  0.78
      L1  H    14    39       P1  7948  2.00
      P1  H  7989  7998       L1     6  0.99

> <Gold.PLP.Chemscore.Internal.Correction>
0.1509

> <Gold.Rescore>
     Score         DG    S(hbond)    S(metal)    S(lipo)     H(rot)  DE(clash)    DE(int)     intcor
     19.99     -21.16       3.63        0.00      67.94       1.72       0.05       1.12       ----

> <Gold.Chemscore.Fitness>
19.9862

> <Gold.Chemscore.DG>
-21.1571

> <Gold.Chemscore.ZeroCoef>
-5.4800

> <Gold.Chemscore.Hbond>
3.6344

> <Gold.Chemscore.Metal>
0.0000

> <Gold.Chemscore.Lipo>
67.9365

> <Gold.Chemscore.Internal_Hbond>
0.0000

> <Gold.Chemscore.DEClash>
0.0509

> <Gold.Chemscore.DEInternal>
1.1200

> <Gold.Chemscore.Rot>
1.7227

> <Gold.Chemscore.Internal.Correction>
   9.000000E+99

> <Gold.Chemscore.Hbonds>
donor molecule, donor type, donor heavy atom, donor atom, acceptor molecule, acceptor atom, score
      L1  H     8    27       P1  7957  0.94
      L1  H    11    28       P1  7957  0.61
      L1  H    14    39       P1  7948  0.95
      P1  H  7989  7998       L1     6  0.28

> <Gold.Chemscore.Hbond.Weighted>
-12.1388

> <Gold.Chemscore.Metal.Weighted>
-0.0000

> <Gold.Chemscore.Lipo.Weighted>
-7.9486

> <Gold.Chemscore.Internal_Hbond.Weighted>
0.0000

> <Gold.Chemscore.DEClash.Weighted>
0.0509

> <Gold.Chemscore.DEInternal.Weighted>
1.1200

> <Gold.Chemscore.Rot.Weighted>
4.4102

> <Gold.Chemscore.Internal.Correction.Weighted>
   9.000000E+99

> <Gold.Protein.RotatedTorsions>
[ 6907 6896 6895 6894 ] final -148.83 input  -60.11 | X-H torsion
[ 7974 7965 7964 7962 ] final -160.24 input  175.53 | X-H torsion
[ 8008 7997 7996 7995 ] final  109.28 input   59.86 | X-H torsion
[ 10167 10162 10161 10158 ] final  -27.11 input  -65.29 | X-H torsion
[ 10718 10713 10712 10709 ] final -150.74 input   66.30 | X-H torsion
[ 10763 10752 10751 10750 ] final  -72.50 input  -60.55 | X-H torsion
[ 11005 11000 10999 10996 ] final  157.98 input  -57.11 | X-H torsion

> <Gold.Protein.ActiveResidues>
 VAL166  LYS551  ARG553  GLY616  TRP617  ASP618  TYR619  PRO620  LYS621  CYS622 
 ASP623  PHE694  ASN695  SER759  ASP760  ASP761  ALA762  ILE779  LEU786  VAL792 
 PHE793  MET794  SER795  GLU796  ALA797  LYS798  CYS799  TRP800  GLU811  SER814 

> <Gold.Protein.RotatedAtoms>
  151.1755  133.4758  159.2593 H   0  0  0  0  0  0  0  0  0  0  0  0  # atno 6907 bound_to 6896
  151.1313  135.0131  159.8593 H   0  0  0  0  0  0  0  0  0  0  0  0  # atno 6908 bound_to 6896
  152.5460  134.1657  159.8629 H   0  0  0  0  0  0  0  0  0  0  0  0  # atno 6909 bound_to 6896
  144.7434  140.3570  143.6104 H   0  0  0  0  0  0  0  0  0  0  0  0  # atno 7974 bound_to 7965
  156.1967  140.3060  155.9442 H   0  0  0  0  0  0  0  0  0  0  0  0  # atno 8008 bound_to 7997
  155.3049  140.0448  157.3048 H   0  0  0  0  0  0  0  0  0  0  0  0  # atno 8009 bound_to 7997
  154.5518  140.2294  155.8481 H   0  0  0  0  0  0  0  0  0  0  0  0  # atno 8010 bound_to 7997
  140.7279  143.4121  151.1088 H   0  0  0  0  0  0  0  0  0  0  0  0  # atno 10167 bound_to 10162
  156.4500  130.8163  151.2394 H   0  0  0  0  0  0  0  0  0  0  0  0  # atno 10718 bound_to 10713
  154.4466  135.5928  153.6164 H   0  0  0  0  0  0  0  0  0  0  0  0  # atno 10763 bound_to 10752
  152.9810  135.6011  154.3657 H   0  0  0  0  0  0  0  0  0  0  0  0  # atno 10764 bound_to 10752
  154.3513  135.2841  155.2349 H   0  0  0  0  0  0  0  0  0  0  0  0  # atno 10765 bound_to 10752
  140.1821  134.8468  157.2815 H   0  0  0  0  0  0  0  0  0  0  0  0  # atno 11005 bound_to 11000
  145.7216  139.1711  143.2481 LP  0  0  0  0  0  0  0  0  0  0  0  0  # atno 17320 bound_to 7965
  146.1272  140.7232  142.9429 LP  0  0  0  0  0  0  0  0  0  0  0  0  # atno 17321 bound_to 7965
  139.7756  143.8430  152.3128 LP  0  0  0  0  0  0  0  0  0  0  0  0  # atno 17342 bound_to 10162
  139.8364  144.7230  150.9386 LP  0  0  0  0  0  0  0  0  0  0  0  0  # atno 17343 bound_to 10162
  157.7503  131.0141  150.3449 LP  0  0  0  0  0  0  0  0  0  0  0  0  # atno 17370 bound_to 10713
  156.3826  130.3883  149.7090 LP  0  0  0  0  0  0  0  0  0  0  0  0  # atno 17371 bound_to 10713
  140.2256  134.3971  155.7545 LP  0  0  0  0  0  0  0  0  0  0  0  0  # atno 17394 bound_to 11000
  141.2223  133.7188  156.8559 LP  0  0  0  0  0  0  0  0  0  0  0  0  # atno 17395 bound_to 11000

$$$$
