AV-unprocessed.smi:2215|AV-procd|sdf|8960|dock7
  -GOLD-   2272012183D 1   1.00000     0.00000
 Structure written by MMmdl.
 40 41  0  0  0  0  0  0  0  0  1 V2000
  151.0012  142.2943  156.5570 C   0  0  0  0  0  0  0  0  0  0  0  0
  150.2838  141.2551  155.7213 C   0  0  0  0  0  0  0  0  0  0  0  0
  150.9387  140.0858  155.2908 C   0  0  0  0  0  0  0  0  0  0  0  0
  150.2235  139.1542  154.5139 C   0  0  0  0  0  0  0  0  0  0  0  0
  148.8738  139.4131  154.1848 C   0  0  0  0  0  0  0  0  0  0  0  0
  148.2469  138.4148  153.3925 N   0  0  0  0  0  0  0  0  0  0  0  0
  146.9320  138.1790  153.2381 C   0  0  0  0  0  0  0  0  0  0  0  0
  146.0254  138.8015  153.7921 O   0  0  0  0  0  0  0  0  0  0  0  0
  146.7188  137.1618  152.3909 N   0  0  0  0  0  0  0  0  0  0  0  0
  145.4059  136.6565  152.0009 C   0  0  0  0  0  0  0  0  0  0  0  0
  145.4718  135.2647  151.3263 C   0  0  2  0  0  0  0  0  0  0  0  0
  144.1125  134.8729  150.7001 C   0  0  0  0  0  0  0  0  0  0  0  0
  144.1513  133.4785  150.0562 C   0  0  0  0  0  0  0  0  0  0  0  0
  144.5956  132.4138  151.0678 C   0  0  0  0  0  0  0  0  0  0  0  0
  145.9588  132.7747  151.6730 C   0  0  0  0  0  0  0  0  0  0  0  0
  145.9346  134.1713  152.3213 C   0  0  1  0  0  0  0  0  0  0  0  0
  147.2382  134.4535  152.7894 O   0  0  0  0  0  0  0  0  0  0  0  0
  148.2506  140.5415  154.6069 N   0  0  0  0  0  0  0  0  0  0  0  0
  148.9364  141.4332  155.3523 C   0  0  0  0  0  0  0  0  0  0  0  0
  152.0686  142.0815  156.6218 H   0  0  0  0  0  0  0  0  0  0  0  0
  150.5936  142.3129  157.5680 H   0  0  0  0  0  0  0  0  0  0  0  0
  150.8781  143.2849  156.1184 H   0  0  0  0  0  0  0  0  0  0  0  0
  151.9714  139.9019  155.5486 H   0  0  0  0  0  0  0  0  0  0  0  0
  150.7115  138.2522  154.1745 H   0  0  0  0  0  0  0  0  0  0  0  0
  148.8731  137.8180  152.8731 H   0  0  0  0  0  0  0  0  0  0  0  0
  147.5208  136.7059  151.9810 H   0  0  0  0  0  0  0  0  0  0  0  0
  144.7617  136.6318  152.8812 H   0  0  0  0  0  0  0  0  0  0  0  0
  144.9573  137.3785  151.3181 H   0  0  0  0  0  0  0  0  0  0  0  0
  146.2053  135.3110  150.5194 H   0  0  0  0  0  0  0  0  0  0  0  0
  143.3356  134.8951  151.4657 H   0  0  0  0  0  0  0  0  0  0  0  0
  143.8182  135.6002  149.9429 H   0  0  0  0  0  0  0  0  0  0  0  0
  143.1680  133.2258  149.6588 H   0  0  0  0  0  0  0  0  0  0  0  0
  144.8355  133.4863  149.2068 H   0  0  0  0  0  0  0  0  0  0  0  0
  143.8521  132.3262  151.8611 H   0  0  0  0  0  0  0  0  0  0  0  0
  144.6492  131.4382  150.5836 H   0  0  0  0  0  0  0  0  0  0  0  0
  146.2421  132.0239  152.4118 H   0  0  0  0  0  0  0  0  0  0  0  0
  146.7190  132.7416  150.8911 H   0  0  0  0  0  0  0  0  0  0  0  0
  145.2641  134.1541  153.1815 H   0  0  0  0  0  0  0  0  0  0  0  0
  147.6348  135.0862  152.2101 H   0  0  0  0  0  0  0  0  0  0  0  0
  148.3933  142.3145  155.6612 H   0  0  0  0  0  0  0  0  0  0  0  0
  1  2  1  0  0  0  0
  1 20  1  0  0  0  0
  1 21  1  0  0  0  0
  1 22  1  0  0  0  0
  2 19  1  0  0  0  0
  2  3  2  0  0  0  0
  3  4  1  0  0  0  0
  3 23  1  0  0  0  0
  4  5  2  0  0  0  0
  4 24  1  0  0  0  0
  5  6  1  0  0  0  0
  5 18  1  0  0  0  0
  6  7  1  0  0  0  0
  6 25  1  0  0  0  0
  7  8  2  0  0  0  0
  7  9  1  0  0  0  0
  9 10  1  0  0  0  0
  9 26  1  0  0  0  0
 10 11  1  0  0  0  0
 10 27  1  0  0  0  0
 10 28  1  0  0  0  0
 11 16  1  0  0  0  0
 11 12  1  0  0  0  0
 11 29  1  0  0  0  0
 12 13  1  0  0  0  0
 12 30  1  0  0  0  0
 12 31  1  0  0  0  0
 13 14  1  0  0  0  0
 13 32  1  0  0  0  0
 13 33  1  0  0  0  0
 14 15  1  0  0  0  0
 14 34  1  0  0  0  0
 14 35  1  0  0  0  0
 15 16  1  0  0  0  0
 15 36  1  0  0  0  0
 15 37  1  0  0  0  0
 16 17  1  0  0  0  0
 16 38  1  0  0  0  0
 17 39  1  0  0  0  0
 18 19  2  0  0  0  0
 19 40  1  0  0  0  0
M  END
> <s_m_source_file>
AV-unprocessed.smi

> <i_m_source_file_index>
2215

> <i_lp_mmshare_version>
43012

> <i_f3d_flags>
0

> <s_epik_input>
W0NIM11jMVtjSF1bY0hdYyhuW2NIXTEpW05IXUMoPU8pW05IXVtDSDJdW0NAQEhdMltDSDJdW0NIMl1bQ0gyXVtDSDJdW0NASF0yW09IXQ==

> <s_epik_cmdline>
J2VwaWtfcHl0aG9uJywgJy1waCcsICc3LjAnLCAnLXRuJywgJzgnLCAnLW1hJywgJzIwMCcsICctbWV0YWxfYmluZGluZycsICctaW1hZScsICc8aW5maWxlLm1hZT4nLCAnLW9tYWUnLCAnPG91dGZpbGUubWFlPic=

> <r_lp_tautomer_probability>
1

> <r_epik_Ionization_Penalty>
6.08491e-05

> <r_epik_Ionization_Penalty_Charging>
0

> <r_epik_Ionization_Penalty_Neutral>
6.08491e-05

> <r_epik_State_Penalty>
-0

> <r_epik_Charging_Adjusted_Penalty>
0

> <i_epik_Tot_Q>
0

> <i_epik_Tot_abs_Q>
0

> <r_epik_Metal_State_Penalty>
-0

> <b_epik_Metal_Only>
0

> <s_lp_Force_Field>
OPLS_2005

> <r_lp_Energy>
13.8041

> <b_lp_Chiralities_Consistent>
1

> <s_lp_Variant>
AV-unprocessed.smi:2215-1

> <Gold.Version>
5.8.1

> <Gold.Id.Protein>
6NUR|6NUR_protein|mol2

> <Gold.PLP.Fitness>
45.6305

> <Gold.PLP.PLP>
-34.6127

> <Gold.PLP.part.hbond>
-3.6421

> <Gold.PLP.part.metal>
0.0000

> <Gold.PLP.part.buried>
-3.5743

> <Gold.PLP.part.nonpolar>
-29.5919

> <Gold.PLP.part.repulsive>
0.3548

> <Gold.PLP.ligand.clash>
0.0000

> <Gold.PLP.ligand.torsion>
0.2269

> <Gold.PLP.Chemscore.Hbond>
2.8223

> <Gold.PLP.Chemscore.CHOScore>
1.0000

> <Gold.PLP.Chemscore.Metal>
0.0000

> <Gold.Chemscore.Hbonds>
donor molecule, donor type, donor heavy atom, donor atom, acceptor molecule, acceptor atom, score
      L1  H     6    25       P1  7948  0.90
      L1  H     9    26       P1  7948  0.91
      L1  H    17    39       P1  7948  1.00
      L1  C    19    40       P1  8028  1.00

> <Gold.PLP.Chemscore.Internal.Correction>
0.0049

> <Gold.Rescore>
     Score         DG    S(hbond)    S(metal)    S(lipo)     H(rot)  DE(clash)    DE(int)     intcor
     16.88     -19.79       2.87        0.00      78.34       1.73       0.12       2.79       ----

> <Gold.Chemscore.Fitness>
16.8839

> <Gold.Chemscore.DG>
-19.7949

> <Gold.Chemscore.ZeroCoef>
-5.4800

> <Gold.Chemscore.Hbond>
2.8706

> <Gold.Chemscore.Metal>
0.0000

> <Gold.Chemscore.Lipo>
78.3402

> <Gold.Chemscore.Internal_Hbond>
0.0000

> <Gold.Chemscore.DEClash>
0.1186

> <Gold.Chemscore.DEInternal>
2.7924

> <Gold.Chemscore.Rot>
1.7339

> <Gold.Chemscore.Internal.Correction>
   9.000000E+99

> <Gold.Chemscore.Hbonds>
donor molecule, donor type, donor heavy atom, donor atom, acceptor molecule, acceptor atom, score
      L1  H     6    25       P1  7948  0.88
      L1  H     9    26       P1  7948  0.87
      L1  H    17    39       P1  7948  0.90

> <Gold.Chemscore.Hbond.Weighted>
-9.5878

> <Gold.Chemscore.Metal.Weighted>
-0.0000

> <Gold.Chemscore.Lipo.Weighted>
-9.1658

> <Gold.Chemscore.Internal_Hbond.Weighted>
0.0000

> <Gold.Chemscore.DEClash.Weighted>
0.1186

> <Gold.Chemscore.DEInternal.Weighted>
2.7924

> <Gold.Chemscore.Rot.Weighted>
4.4387

> <Gold.Chemscore.Internal.Correction.Weighted>
   9.000000E+99

> <Gold.Protein.RotatedTorsions>
[ 6907 6896 6895 6894 ] final -140.01 input  -60.11 | X-H torsion
[ 7974 7965 7964 7962 ] final   77.38 input  175.53 | X-H torsion
[ 8008 7997 7996 7995 ] final  -76.81 input   59.86 | X-H torsion
[ 10167 10162 10161 10158 ] final   90.00 input  -65.29 | X-H torsion
[ 10718 10713 10712 10709 ] final  -69.64 input   66.30 | X-H torsion
[ 10763 10752 10751 10750 ] final  -10.92 input  -60.55 | X-H torsion
[ 11005 11000 10999 10996 ] final   67.06 input  -57.11 | X-H torsion

> <Gold.Protein.ActiveResidues>
 VAL166  LYS551  ARG553  GLY616  TRP617  ASP618  TYR619  PRO620  LYS621  CYS622 
 ASP623  PHE694  ASN695  SER759  ASP760  ASP761  ALA762  ILE779  LEU786  VAL792 
 PHE793  MET794  SER795  GLU796  ALA797  LYS798  CYS799  TRP800  GLU811  SER814 

> <Gold.Protein.RotatedAtoms>
  151.0552  133.5590  159.2638 H   0  0  0  0  0  0  0  0  0  0  0  0  # atno 6907 bound_to 6896
  151.2587  135.0646  159.9099 H   0  0  0  0  0  0  0  0  0  0  0  0  # atno 6908 bound_to 6896
  152.5388  134.0301  159.8074 H   0  0  0  0  0  0  0  0  0  0  0  0  # atno 6909 bound_to 6896
  145.6907  139.2551  143.1761 H   0  0  0  0  0  0  0  0  0  0  0  0  # atno 7974 bound_to 7965
  154.5539  140.0721  156.8712 H   0  0  0  0  0  0  0  0  0  0  0  0  # atno 8008 bound_to 7997
  155.2940  140.3380  155.4233 H   0  0  0  0  0  0  0  0  0  0  0  0  # atno 8009 bound_to 7997
  156.1985  140.1712  156.7934 H   0  0  0  0  0  0  0  0  0  0  0  0  # atno 8010 bound_to 7997
  139.8517  144.6590  150.9162 H   0  0  0  0  0  0  0  0  0  0  0  0  # atno 10167 bound_to 10162
  156.0446  130.4316  150.2177 H   0  0  0  0  0  0  0  0  0  0  0  0  # atno 10718 bound_to 10713
  153.4763  135.7017  153.5964 H   0  0  0  0  0  0  0  0  0  0  0  0  # atno 10763 bound_to 10752
  153.4197  135.3828  155.2103 H   0  0  0  0  0  0  0  0  0  0  0  0  # atno 10764 bound_to 10752
  154.8723  135.3924  154.4207 H   0  0  0  0  0  0  0  0  0  0  0  0  # atno 10765 bound_to 10752
  139.9793  134.6770  156.0292 H   0  0  0  0  0  0  0  0  0  0  0  0  # atno 11005 bound_to 11000
  146.0884  140.7684  142.9607 LP  0  0  0  0  0  0  0  0  0  0  0  0  # atno 17320 bound_to 7965
  144.6997  140.3598  143.7166 LP  0  0  0  0  0  0  0  0  0  0  0  0  # atno 17321 bound_to 7965
  140.7786  143.3821  151.1458 LP  0  0  0  0  0  0  0  0  0  0  0  0  # atno 17342 bound_to 10162
  139.7459  143.8853  152.3063 LP  0  0  0  0  0  0  0  0  0  0  0  0  # atno 17343 bound_to 10162
  157.0268  130.9995  151.3324 LP  0  0  0  0  0  0  0  0  0  0  0  0  # atno 17370 bound_to 10713
  157.5305  130.8055  149.7912 LP  0  0  0  0  0  0  0  0  0  0  0  0  # atno 17371 bound_to 10713
  141.1467  133.6555  156.3889 LP  0  0  0  0  0  0  0  0  0  0  0  0  # atno 17394 bound_to 11000
  140.5129  134.6378  157.5291 LP  0  0  0  0  0  0  0  0  0  0  0  0  # atno 17395 bound_to 11000

$$$$
