#       Name:                AV-unprocessed.smi:2801
#       Creating user name   scv26
#       Creation time:       Fri Mar 27 15:23:38 2020


#       File generated by GOLD software.
#

@<TRIPOS>MOLECULE
AV-unprocessed.smi:2801
    36    36     1
SMALL
NO_CHARGES


@<TRIPOS>ATOM
      1 ****        -3.8208   0.1527   1.0400 C.3            1 S1                 0.0000
      2 ****        -2.2981   0.2904   0.9793 C.3            1 S1                 0.0000
      3 ****        -1.7251  -1.0115   0.9518 O.3            1 S1                 0.0000
      4 ****        -0.2996  -1.0526   0.9719 C.3            1 S1                 0.0000
      5 ****         0.1272  -2.4990   1.2865 C.3            1 S1                 0.0000
      6 ****        -0.2346  -2.9284   2.7139 C.3            1 S1                 0.0000
      7 ****         0.2624  -0.5885  -0.3823 C.2            1 S1                 0.0000
      8 ****         0.0469  -1.2611  -1.3905 O.2            1 S1                 0.0000
      9 ****         0.9433   0.5719  -0.3591 N.am           1 S1                 0.0000
     10 ****         1.5853   1.2746  -1.4181 C.ar           1 S1                 0.0000
     11 ****         1.8986   0.6997  -2.6739 C.ar           1 S1                 0.0000
     12 ****         2.5532   1.4927  -3.6367 C.ar           1 S1                 0.0000
     13 ****         2.9092   2.7771  -3.4289 N.ar           1 S1                 0.0000
     14 ****         2.6208   3.3205  -2.2279 C.ar           1 S1                 0.0000
     15 ****         1.9678   2.6187  -1.1933 C.ar           1 S1                 0.0000
     16 ****         1.7176   3.2453  -0.0032 O.co2          1 S1                -1.0000
     17 ****        -4.2997   1.1317   1.0613 H              1 S1                 0.0000
     18 ****        -4.1294  -0.3911   1.9330 H              1 S1                 0.0000
     19 ****        -4.1992  -0.3864   0.1713 H              1 S1                 0.0000
     20 ****        -2.0194   0.8635   0.0944 H              1 S1                 0.0000
     21 ****        -1.9415   0.8380   1.8529 H              1 S1                 0.0000
     22 ****         0.0736  -0.4008   1.7648 H              1 S1                 0.0000
     23 ****        -0.3329  -3.1875   0.5760 H              1 S1                 0.0000
     24 ****         1.2057  -2.6007   1.1567 H              1 S1                 0.0000
     25 ****         0.0917  -3.9505   2.9060 H              1 S1                 0.0000
     26 ****        -1.3117  -2.8878   2.8783 H              1 S1                 0.0000
     27 ****         0.2421  -2.2827   3.4519 H              1 S1                 0.0000
     28 ****         0.9713   1.0479   0.5313 H              1 S1                 0.0000
     29 ****         1.6667  -0.3245  -2.9169 H              1 S1                 0.0000
     30 ****         2.8043   1.0791  -4.6021 H              1 S1                 0.0000
     31 ****         2.9237   4.3480  -2.0886 H              1 S1                 0.0000
     32 ****        -2.0352  -1.4676   0.1177 LP             1 S1                 0.0000
     33 ****        -2.0595  -1.5127   1.7498 LP             1 S1                 0.0000
     34 ****        -0.4900  -2.1022  -1.3251 LP             1 S1                 0.0000
     35 ****         0.4087  -0.9663  -2.2749 LP             1 S1                 0.0000
     36 ****         3.3706   3.3079  -4.1398 LP             1 S1                 0.0000
@<TRIPOS>BOND
    1    1    2 1     
    2    1   17 1     
    3    1   18 1     
    4    1   19 1     
    5    2    3 1     
    6    2   20 1     
    7    2   21 1     
    8    3    4 1     
    9    4    5 1     
   10    4    7 1     
   11    4   22 1     
   12    5    6 1     
   13    5   23 1     
   14    5   24 1     
   15    6   25 1     
   16    6   26 1     
   17    6   27 1     
   18    7    8 2     
   19    7    9 am    
   20    9   28 1     
   21    9   10 1     
   22   10   11 ar    
   23   10   15 ar    
   24   11   12 ar    
   25   11   29 1     
   26   12   13 ar    
   27   12   30 1     
   28   13   14 ar    
   29   14   15 ar    
   30   14   31 1     
   31   15   16 ar    
   32    3   32 1     
   33    3   33 1     
   34    8   34 1     
   35    8   35 1     
   36   13   36 1     
@<TRIPOS>SUBSTRUCTURE
      1 S1             1
@<TRIPOS>SET
LONE_PAIRS      STATIC     ATOMS    <user>   **** ""
6 32 33 34 35 36 16
DONOR_HYDROGENS      STATIC     ATOMS    <user>   **** ""
1 28
ATOM$BLUE        STATIC     ATOMS    COLORGROUP SYSTEM
6 32 33 34 35 36 16
ATOM$RED        STATIC     ATOMS    COLORGROUP SYSTEM
1 28
