AV-unprocessed.smi:2439|AV-procd|sdf|9607|dock8
  -GOLD-   2272013243D 1   1.00000     0.00000
 Structure written by MMmdl.
 41 43  0  0  0  0  0  0  0  0  2 V2000
  151.0357  145.8978  160.1361 N   0  0  0  0  0  0  0  0  0  0  0  0
  151.5777  144.9136  160.4121 C   0  0  0  0  0  0  0  0  0  0  0  0
  152.2588  143.6727  160.7609 C   0  0  0  0  0  0  0  0  0  0  0  0
  152.6639  143.4654  162.0963 C   0  0  0  0  0  0  0  0  0  0  0  0
  153.3252  142.2704  162.4347 C   0  0  0  0  0  0  0  0  0  0  0  0
  153.5540  141.3249  161.4187 C   0  0  0  0  0  0  0  0  0  0  0  0
  153.1709  141.5097  160.1380 N   0  0  0  0  0  0  0  0  0  0  0  0
  152.5359  142.6599  159.8039 C   0  0  0  0  0  0  0  0  0  0  0  0
  152.1497  142.8219  158.4615 N   0  0  0  0  0  0  0  0  0  0  0  0
  151.7814  141.6692  157.6515 C   0  0  0  0  0  0  0  0  0  0  0  0
  150.6073  141.9865  156.7159 C   0  0  2  0  0  0  0  0  0  0  0  0
  149.2799  142.0839  157.4903 C   0  0  0  0  0  0  0  0  0  0  0  0
  148.1428  142.2902  156.5593 N   0  3  2  0  0  0  0  0  0  0  0  0
  146.8298  142.4448  157.2387 C   0  0  0  0  0  0  0  0  0  0  0  0
  146.2849  141.1032  157.7655 C   0  0  0  0  0  0  0  0  0  0  0  0
  146.2250  140.0537  156.6471 C   0  0  0  0  0  0  0  0  0  0  0  0
  147.5963  139.9120  155.9714 C   0  0  0  0  0  0  0  0  0  0  0  0
  148.1105  141.2786  155.4672 C   0  0  2  0  0  0  0  0  0  0  0  0
  149.4926  141.1814  154.7927 C   0  0  0  0  0  0  0  0  0  0  0  0
  150.4982  140.9308  155.7666 O   0  0  0  0  0  0  0  0  0  0  0  0
  152.4735  144.2100  162.8561 H   0  0  0  0  0  0  0  0  0  0  0  0
  153.6486  142.0833  163.4480 H   0  0  0  0  0  0  0  0  0  0  0  0
  154.0574  140.3952  161.6388 H   0  0  0  0  0  0  0  0  0  0  0  0
  152.3604  143.6917  157.9933 H   0  0  0  0  0  0  0  0  0  0  0  0
  152.6432  141.3345  157.0725 H   0  0  0  0  0  0  0  0  0  0  0  0
  151.5043  140.8529  158.3196 H   0  0  0  0  0  0  0  0  0  0  0  0
  150.8008  142.9305  156.2021 H   0  0  0  0  0  0  0  0  0  0  0  0
  149.1298  141.1795  158.0802 H   0  0  0  0  0  0  0  0  0  0  0  0
  149.3235  142.9152  158.1949 H   0  0  0  0  0  0  0  0  0  0  0  0
  146.9126  143.1690  158.0501 H   0  0  0  0  0  0  0  0  0  0  0  0
  146.1226  142.8661  156.5229 H   0  0  0  0  0  0  0  0  0  0  0  0
  146.9087  140.7372  158.5815 H   0  0  0  0  0  0  0  0  0  0  0  0
  145.2904  141.2491  158.1879 H   0  0  0  0  0  0  0  0  0  0  0  0
  145.9027  139.0931  157.0494 H   0  0  0  0  0  0  0  0  0  0  0  0
  145.4798  140.3478  155.9068 H   0  0  0  0  0  0  0  0  0  0  0  0
  148.3070  139.4719  156.6718 H   0  0  0  0  0  0  0  0  0  0  0  0
  147.5210  139.2129  155.1379 H   0  0  0  0  0  0  0  0  0  0  0  0
  147.4042  141.6376  154.7172 H   0  0  0  0  0  0  0  0  0  0  0  0
  149.5021  140.3787  154.0549 H   0  0  0  0  0  0  0  0  0  0  0  0
  149.7238  142.1020  154.2542 H   0  0  0  0  0  0  0  0  0  0  0  0
  148.3270  143.1761  156.1104 H   0  0  0  0  0  0  0  0  0  0  0  0
  1  2  3  0  0  0  0
  2  3  1  0  0  0  0
  3  8  1  0  0  0  0
  3  4  2  0  0  0  0
  4  5  1  0  0  0  0
  4 21  1  0  0  0  0
  5  6  2  0  0  0  0
  5 22  1  0  0  0  0
  6  7  1  0  0  0  0
  6 23  1  0  0  0  0
  7  8  2  0  0  0  0
  8  9  1  0  0  0  0
  9 10  1  0  0  0  0
  9 24  1  0  0  0  0
 10 11  1  0  0  0  0
 10 25  1  0  0  0  0
 10 26  1  0  0  0  0
 11 20  1  0  0  0  0
 11 12  1  0  0  0  0
 11 27  1  0  0  0  0
 12 13  1  0  0  0  0
 12 28  1  0  0  0  0
 12 29  1  0  0  0  0
 13 18  1  0  0  0  0
 13 14  1  0  0  0  0
 13 41  1  0  0  0  0
 14 15  1  0  0  0  0
 14 30  1  0  0  0  0
 14 31  1  0  0  0  0
 15 16  1  0  0  0  0
 15 32  1  0  0  0  0
 15 33  1  0  0  0  0
 16 17  1  0  0  0  0
 16 34  1  0  0  0  0
 16 35  1  0  0  0  0
 17 18  1  0  0  0  0
 17 36  1  0  0  0  0
 17 37  1  0  0  0  0
 18 19  1  0  0  0  0
 18 38  1  0  0  0  0
 19 20  1  0  0  0  0
 19 39  1  0  0  0  0
 19 40  1  0  0  0  0
M  CHG  1  13   1
M  END
> <s_m_source_file>
AV-unprocessed.smi

> <i_m_source_file_index>
2439

> <i_lp_mmshare_version>
43012

> <i_f3d_flags>
0

> <s_epik_input>
TiNDYzFbY0hdW2NIXVtjSF1uYzFbTkhdW0NIMl1bQ0BIXShbQ0gyXTIpT1tDSDJdW0NAQEhdKE4yMylbQ0gyXVtDSDJdW0NIMl1bQ0gyXTM=

> <s_epik_cmdline>
J2VwaWtfcHl0aG9uJywgJy1waCcsICc3LjAnLCAnLXRuJywgJzgnLCAnLW1hJywgJzIwMCcsICctbWV0YWxfYmluZGluZycsICctaW1hZScsICc8aW5maWxlLm1hZT4nLCAnLW9tYWUnLCAnPG91dGZpbGUubWFlPic=

> <r_epik_Ionization_Penalty>
0.0803594

> <r_epik_Ionization_Penalty_Charging>
0.0803403

> <r_epik_Ionization_Penalty_Neutral>
1.90988e-05

> <r_epik_State_Penalty>
0.0711481

> <r_epik_Charging_Adjusted_Penalty>
0.151488

> <i_epik_Tot_Q>
1

> <i_epik_Tot_abs_Q>
1

> <r_epik_Metal_State_Penalty>
0.0711482

> <b_epik_Metal_Only>
0

> <s_lp_Force_Field>
OPLS_2005

> <r_lp_Energy>
31.0257

> <b_lp_Chiralities_Consistent>
1

> <s_lp_Variant>
AV-unprocessed.smi:2439-5

> <Gold.Version>
5.8.1

> <Gold.Id.Protein>
6NUR|6NUR_protein|mol2

> <Gold.PLP.Fitness>
44.4671

> <Gold.PLP.PLP>
-39.3557

> <Gold.PLP.part.hbond>
-2.8527

> <Gold.PLP.part.metal>
0.0000

> <Gold.PLP.part.buried>
-5.8780

> <Gold.PLP.part.nonpolar>
-30.3374

> <Gold.PLP.part.repulsive>
0.3512

> <Gold.PLP.ligand.clash>
0.0000

> <Gold.PLP.ligand.torsion>
0.4446

> <Gold.PLP.Chemscore.Hbond>
2.0000

> <Gold.PLP.Chemscore.CHOScore>
0.0000

> <Gold.PLP.Chemscore.Metal>
0.0000

> <Gold.Chemscore.Hbonds>
donor molecule, donor type, donor heavy atom, donor atom, acceptor molecule, acceptor atom, score
      L1  H    13    41       P1  8028  2.00

> <Gold.PLP.Chemscore.Internal.Correction>
0.0006

> <Gold.Rescore>
     Score         DG    S(hbond)    S(metal)    S(lipo)     H(rot)  DE(clash)    DE(int)     intcor
     14.47     -14.93       0.96        0.00      81.19       1.27       0.08       0.39       ----

> <Gold.Chemscore.Fitness>
14.4653

> <Gold.Chemscore.DG>
-14.9319

> <Gold.Chemscore.ZeroCoef>
-5.4800

> <Gold.Chemscore.Hbond>
0.9562

> <Gold.Chemscore.Metal>
0.0000

> <Gold.Chemscore.Lipo>
81.1878

> <Gold.Chemscore.Internal_Hbond>
0.0000

> <Gold.Chemscore.DEClash>
0.0791

> <Gold.Chemscore.DEInternal>
0.3875

> <Gold.Chemscore.Rot>
1.2659

> <Gold.Chemscore.Internal.Correction>
   9.000000E+99

> <Gold.Chemscore.Hbonds>
donor molecule, donor type, donor heavy atom, donor atom, acceptor molecule, acceptor atom, score
      L1  H    13    41       P1  8028  0.78

> <Gold.Chemscore.Hbond.Weighted>
-3.1937

> <Gold.Chemscore.Metal.Weighted>
-0.0000

> <Gold.Chemscore.Lipo.Weighted>
-9.4990

> <Gold.Chemscore.Internal_Hbond.Weighted>
0.0000

> <Gold.Chemscore.DEClash.Weighted>
0.0791

> <Gold.Chemscore.DEInternal.Weighted>
0.3875

> <Gold.Chemscore.Rot.Weighted>
3.2408

> <Gold.Chemscore.Internal.Correction.Weighted>
   9.000000E+99

> <Gold.Protein.RotatedTorsions>
[ 6907 6896 6895 6894 ] final  130.51 input  -60.11 | X-H torsion
[ 7974 7965 7964 7962 ] final   75.27 input  175.53 | X-H torsion
[ 8008 7997 7996 7995 ] final -158.02 input   59.86 | X-H torsion
[ 10167 10162 10161 10158 ] final  -84.98 input  -65.29 | X-H torsion
[ 10718 10713 10712 10709 ] final  -17.79 input   66.30 | X-H torsion
[ 10763 10752 10751 10750 ] final -112.01 input  -60.55 | X-H torsion
[ 11005 11000 10999 10996 ] final  -73.76 input  -57.11 | X-H torsion

> <Gold.Protein.ActiveResidues>
 VAL166  LYS551  ARG553  GLY616  TRP617  ASP618  TYR619  PRO620  LYS621  CYS622 
 ASP623  PHE694  ASN695  SER759  ASP760  ASP761  ALA762  ILE779  LEU786  VAL792 
 PHE793  MET794  SER795  GLU796  ALA797  LYS798  CYS799  TRP800  GLU811  SER814 

> <Gold.Protein.RotatedAtoms>
  152.3519  133.6190  159.5950 H   0  0  0  0  0  0  0  0  0  0  0  0  # atno 6907 bound_to 6896
  150.7543  133.9561  159.3509 H   0  0  0  0  0  0  0  0  0  0  0  0  # atno 6908 bound_to 6896
  151.7411  135.0855  160.0367 H   0  0  0  0  0  0  0  0  0  0  0  0  # atno 6909 bound_to 6896
  145.7178  139.2637  143.1614 H   0  0  0  0  0  0  0  0  0  0  0  0  # atno 7974 bound_to 7965
  155.7412  140.0814  157.2245 H   0  0  0  0  0  0  0  0  0  0  0  0  # atno 8008 bound_to 7997
  154.4022  140.1577  156.2673 H   0  0  0  0  0  0  0  0  0  0  0  0  # atno 8009 bound_to 7997
  155.9018  140.3409  155.6035 H   0  0  0  0  0  0  0  0  0  0  0  0  # atno 8010 bound_to 7997
  140.4081  143.2634  151.9054 H   0  0  0  0  0  0  0  0  0  0  0  0  # atno 10167 bound_to 10162
  156.5686  130.4744  149.6373 H   0  0  0  0  0  0  0  0  0  0  0  0  # atno 10718 bound_to 10713
  154.8328  135.4506  154.1127 H   0  0  0  0  0  0  0  0  0  0  0  0  # atno 10763 bound_to 10752
  153.2385  135.6913  153.7816 H   0  0  0  0  0  0  0  0  0  0  0  0  # atno 10764 bound_to 10752
  153.7172  135.3347  155.3235 H   0  0  0  0  0  0  0  0  0  0  0  0  # atno 10765 bound_to 10752
  141.1627  133.6889  156.7261 H   0  0  0  0  0  0  0  0  0  0  0  0  # atno 11005 bound_to 11000
  146.0654  140.7926  142.9714 LP  0  0  0  0  0  0  0  0  0  0  0  0  # atno 17320 bound_to 7965
  144.6925  140.3260  143.7224 LP  0  0  0  0  0  0  0  0  0  0  0  0  # atno 17321 bound_to 7965
  139.4783  144.5565  151.8305 LP  0  0  0  0  0  0  0  0  0  0  0  0  # atno 17342 bound_to 10162
  140.4668  144.1644  150.5913 LP  0  0  0  0  0  0  0  0  0  0  0  0  # atno 17343 bound_to 10162
  156.2735  130.7030  151.1834 LP  0  0  0  0  0  0  0  0  0  0  0  0  # atno 17370 bound_to 10713
  157.7353  131.0573  150.5477 LP  0  0  0  0  0  0  0  0  0  0  0  0  # atno 17371 bound_to 10713
  140.2780  134.8340  157.3907 LP  0  0  0  0  0  0  0  0  0  0  0  0  # atno 17394 bound_to 11000
  140.1460  134.4911  155.7996 LP  0  0  0  0  0  0  0  0  0  0  0  0  # atno 17395 bound_to 11000

$$$$
