AV-unprocessed.smi:2620|AV-procd|sdf|10223|dock10
  -GOLD-   2272014233D 1   1.00000     0.00000
 Structure written by MMmdl.
 36 37  0  0  0  0  0  0  0  0  1 V2000
  149.3579  132.2246  153.7747 C   0  0  0  0  0  0  0  0  0  0  0  0
  149.6574  133.6071  153.8524 O   0  0  0  0  0  0  0  0  0  0  0  0
  149.3368  134.1623  155.1164 C   0  0  0  0  0  0  0  0  0  0  0  0
  150.5999  134.8010  155.7135 C   0  0  0  0  0  0  0  0  0  0  0  0
  150.2721  135.9811  156.5245 N   0  0  0  0  0  0  0  0  0  0  0  0
  150.7242  137.2264  156.0463 C   0  0  0  0  0  0  0  0  0  0  0  0
  150.4959  138.3751  156.7100 C   0  0  0  0  0  0  0  0  0  0  0  0
  150.9963  139.6652  156.1773 C   0  0  0  0  0  0  0  0  0  0  0  0
  151.1329  139.8424  154.9659 O   0  0  0  0  0  0  0  0  0  0  0  0
  151.3129  140.7598  157.1409 C   0  0  0  0  0  0  0  0  0  0  0  0
  152.0355  140.4241  158.3085 C   0  0  0  0  0  0  0  0  0  0  0  0
  152.3769  141.4120  159.2515 C   0  0  0  0  0  0  0  0  0  0  0  0
  151.9923  142.7480  159.0404 C   0  0  0  0  0  0  0  0  0  0  0  0
  151.2594  143.0931  157.8900 C   0  0  0  0  0  0  0  0  0  0  0  0
  150.9122  142.1092  156.9418 C   0  0  0  0  0  0  0  0  0  0  0  0
  150.1653  142.4911  155.8618 O   0  0  0  0  0  0  0  0  0  0  0  0
  149.7445  138.2998  157.9476 C   0  0  0  0  0  0  0  0  0  0  0  0
  149.3172  137.1102  158.4148 C   0  0  0  0  0  0  0  0  0  0  0  0
  148.5815  137.0142  159.6319 C   0  0  0  0  0  0  0  0  0  0  0  0
  147.9665  136.9533  160.6105 N   0  0  0  0  0  0  0  0  0  0  0  0
  149.5832  135.8543  157.6991 C   0  0  0  0  0  0  0  0  0  0  0  0
  149.2142  134.7572  158.1215 O   0  0  0  0  0  0  0  0  0  0  0  0
  149.6279  131.8458  152.7892 H   0  0  0  0  0  0  0  0  0  0  0  0
  148.2931  132.0435  153.9245 H   0  0  0  0  0  0  0  0  0  0  0  0
  149.9179  131.6561  154.5182 H   0  0  0  0  0  0  0  0  0  0  0  0
  148.5496  134.9097  155.0060 H   0  0  0  0  0  0  0  0  0  0  0  0
  148.9602  133.3820  155.7802 H   0  0  0  0  0  0  0  0  0  0  0  0
  151.1279  134.0642  156.3205 H   0  0  0  0  0  0  0  0  0  0  0  0
  151.2982  135.0616  154.9163 H   0  0  0  0  0  0  0  0  0  0  0  0
  151.2771  137.1783  155.1185 H   0  0  0  0  0  0  0  0  0  0  0  0
  152.3438  139.4034  158.4851 H   0  0  0  0  0  0  0  0  0  0  0  0
  152.9350  141.1439  160.1364 H   0  0  0  0  0  0  0  0  0  0  0  0
  152.2528  143.5068  159.7634 H   0  0  0  0  0  0  0  0  0  0  0  0
  150.9569  144.1193  157.7406 H   0  0  0  0  0  0  0  0  0  0  0  0
  149.8739  143.3888  155.9120 H   0  0  0  0  0  0  0  0  0  0  0  0
  149.5175  139.1969  158.5054 H   0  0  0  0  0  0  0  0  0  0  0  0
  1  2  1  0  0  0  0
  1 23  1  0  0  0  0
  1 24  1  0  0  0  0
  1 25  1  0  0  0  0
  2  3  1  0  0  0  0
  3  4  1  0  0  0  0
  3 26  1  0  0  0  0
  3 27  1  0  0  0  0
  4  5  1  0  0  0  0
  4 28  1  0  0  0  0
  4 29  1  0  0  0  0
  5 21  1  0  0  0  0
  5  6  1  0  0  0  0
  6  7  2  0  0  0  0
  6 30  1  0  0  0  0
  7  8  1  0  0  0  0
  7 17  1  0  0  0  0
  8  9  2  0  0  0  0
  8 10  1  0  0  0  0
 10 15  1  0  0  0  0
 10 11  2  0  0  0  0
 11 12  1  0  0  0  0
 11 31  1  0  0  0  0
 12 13  2  0  0  0  0
 12 32  1  0  0  0  0
 13 14  1  0  0  0  0
 13 33  1  0  0  0  0
 14 15  2  0  0  0  0
 14 34  1  0  0  0  0
 15 16  1  0  0  0  0
 16 35  1  0  0  0  0
 17 18  2  0  0  0  0
 17 36  1  0  0  0  0
 18 19  1  0  0  0  0
 18 21  1  0  0  0  0
 19 20  3  0  0  0  0
 21 22  2  0  0  0  0
M  END
> <s_m_source_file>
AV-unprocessed.smi

> <i_m_source_file_index>
2620

> <i_lp_mmshare_version>
43012

> <i_f3d_flags>
0

> <s_epik_input>
W0NIM11PW0NIMl1bQ0gyXW4xW2NIXWMoW2NIXWMoQyNOKWMxPU8pQyg9TyljMltjSF1bY0hdW2NIXVtjSF1jMltPSF0=

> <s_epik_cmdline>
J2VwaWtfcHl0aG9uJywgJy1waCcsICc3LjAnLCAnLXRuJywgJzgnLCAnLW1hJywgJzIwMCcsICctbWV0YWxfYmluZGluZycsICctaW1hZScsICc8aW5maWxlLm1hZT4nLCAnLW9tYWUnLCAnPG91dGZpbGUubWFlPic=

> <r_epik_Ionization_Penalty>
0.219503

> <r_epik_Ionization_Penalty_Charging>
5.62591e-11

> <r_epik_Ionization_Penalty_Neutral>
0.219503

> <r_epik_State_Penalty>
0.209817

> <r_epik_Charging_Adjusted_Penalty>
0.209817

> <i_epik_Tot_Q>
0

> <i_epik_Tot_abs_Q>
0

> <r_epik_Metal_State_Penalty>
0.209817

> <b_epik_Metal_Only>
0

> <s_lp_Force_Field>
OPLS_2005

> <r_lp_Energy>
23.6774

> <b_lp_Chiralities_Consistent>
1

> <s_lp_Variant>
AV-unprocessed.smi:2620-1

> <Gold.Version>
5.8.1

> <Gold.Id.Protein>
6NUR|6NUR_protein|mol2

> <Gold.PLP.Fitness>
45.7225

> <Gold.PLP.PLP>
-34.2841

> <Gold.PLP.part.hbond>
-4.9943

> <Gold.PLP.part.metal>
0.0000

> <Gold.PLP.part.buried>
-6.1810

> <Gold.PLP.part.nonpolar>
-24.8509

> <Gold.PLP.part.repulsive>
0.2302

> <Gold.PLP.ligand.clash>
0.0000

> <Gold.PLP.ligand.torsion>
1.7160

> <Gold.PLP.Chemscore.Hbond>
4.3770

> <Gold.PLP.Chemscore.CHOScore>
0.0000

> <Gold.PLP.Chemscore.Metal>
0.0000

> <Gold.Chemscore.Hbonds>
donor molecule, donor type, donor heavy atom, donor atom, acceptor molecule, acceptor atom, score
      L1  H    16    35       P1  8028  1.00
      P1  H  6896  6909       L1    22  1.00
      P1  H  6931  6943       L1    20  0.70
      P1  H  6934  6947       L1    20  0.41
      P1  H  7989  7998       L1     9  1.00

> <Gold.PLP.Chemscore.Internal.Correction>
1.7393

> <Gold.Rescore>
     Score         DG    S(hbond)    S(metal)    S(lipo)     H(rot)  DE(clash)    DE(int)     intcor
     20.54     -22.38       3.79        0.00      79.62       1.98       0.05       1.78       ----

> <Gold.Chemscore.Fitness>
20.5424

> <Gold.Chemscore.DG>
-22.3788

> <Gold.Chemscore.ZeroCoef>
-5.4800

> <Gold.Chemscore.Hbond>
3.7907

> <Gold.Chemscore.Metal>
0.0000

> <Gold.Chemscore.Lipo>
79.6223

> <Gold.Chemscore.Internal_Hbond>
0.0000

> <Gold.Chemscore.DEClash>
0.0519

> <Gold.Chemscore.DEInternal>
1.7845

> <Gold.Chemscore.Rot>
1.9836

> <Gold.Chemscore.Internal.Correction>
   9.000000E+99

> <Gold.Chemscore.Hbonds>
donor molecule, donor type, donor heavy atom, donor atom, acceptor molecule, acceptor atom, score
      L1  H    16    35       P1  8028  0.99
      P1  H  6896  6909       L1    22  0.53
      P1  H  6931  6943       L1    20  0.23
      P1  H  6934  6947       L1    20  0.20
      P1  H  7989  7998       L1     9  1.00

> <Gold.Chemscore.Hbond.Weighted>
-12.6610

> <Gold.Chemscore.Metal.Weighted>
-0.0000

> <Gold.Chemscore.Lipo.Weighted>
-9.3158

> <Gold.Chemscore.Internal_Hbond.Weighted>
0.0000

> <Gold.Chemscore.DEClash.Weighted>
0.0519

> <Gold.Chemscore.DEInternal.Weighted>
1.7845

> <Gold.Chemscore.Rot.Weighted>
5.0780

> <Gold.Chemscore.Internal.Correction.Weighted>
   9.000000E+99

> <Gold.Protein.RotatedTorsions>
[ 6907 6896 6895 6894 ] final   20.25 input  -60.11 | X-H torsion
[ 7974 7965 7964 7962 ] final  -50.40 input  175.53 | X-H torsion
[ 8008 7997 7996 7995 ] final   85.54 input   59.86 | X-H torsion
[ 10167 10162 10161 10158 ] final  -23.34 input  -65.29 | X-H torsion
[ 10718 10713 10712 10709 ] final   36.47 input   66.30 | X-H torsion
[ 10763 10752 10751 10750 ] final  107.26 input  -60.55 | X-H torsion
[ 11005 11000 10999 10996 ] final   48.28 input  -57.11 | X-H torsion

> <Gold.Protein.ActiveResidues>
 VAL166  LYS551  ARG553  GLY616  TRP617  ASP618  TYR619  PRO620  LYS621  CYS622 
 ASP623  PHE694  ASN695  SER759  ASP760  ASP761  ALA762  ILE779  LEU786  VAL792 
 PHE793  MET794  SER795  GLU796  ALA797  LYS798  CYS799  TRP800  GLU811  SER814 

> <Gold.Protein.RotatedAtoms>
  151.8934  135.0407  160.0499 H   0  0  0  0  0  0  0  0  0  0  0  0  # atno 6907 bound_to 6896
  152.2417  133.5137  159.5282 H   0  0  0  0  0  0  0  0  0  0  0  0  # atno 6908 bound_to 6896
  150.7056  134.0996  159.4003 H   0  0  0  0  0  0  0  0  0  0  0  0  # atno 6909 bound_to 6896
  145.9302  140.7756  142.9603 H   0  0  0  0  0  0  0  0  0  0  0  0  # atno 7974 bound_to 7965
  155.9513  140.3400  155.6410 H   0  0  0  0  0  0  0  0  0  0  0  0  # atno 8008 bound_to 7997
  155.6916  140.0749  157.2464 H   0  0  0  0  0  0  0  0  0  0  0  0  # atno 8009 bound_to 7997
  154.4122  140.1656  156.2080 H   0  0  0  0  0  0  0  0  0  0  0  0  # atno 8010 bound_to 7997
  140.7288  143.4452  151.0598 H   0  0  0  0  0  0  0  0  0  0  0  0  # atno 10167 bound_to 10162
  157.3353  130.7519  149.6874 H   0  0  0  0  0  0  0  0  0  0  0  0  # atno 10718 bound_to 10713
  153.4043  135.3850  155.2008 H   0  0  0  0  0  0  0  0  0  0  0  0  # atno 10763 bound_to 10752
  154.8732  135.3779  154.4580 H   0  0  0  0  0  0  0  0  0  0  0  0  # atno 10764 bound_to 10752
  153.5081  135.7087  153.5858 H   0  0  0  0  0  0  0  0  0  0  0  0  # atno 10765 bound_to 10752
  140.1204  134.4837  155.8602 H   0  0  0  0  0  0  0  0  0  0  0  0  # atno 11005 bound_to 11000
  144.6764  140.2115  143.7376 LP  0  0  0  0  0  0  0  0  0  0  0  0  # atno 17320 bound_to 7965
  145.8436  139.2141  143.1813 LP  0  0  0  0  0  0  0  0  0  0  0  0  # atno 17321 bound_to 7965
  139.8123  143.7934  152.3172 LP  0  0  0  0  0  0  0  0  0  0  0  0  # atno 17342 bound_to 10162
  139.7988  144.7382  150.9853 LP  0  0  0  0  0  0  0  0  0  0  0  0  # atno 17343 bound_to 10162
  155.9700  130.4183  150.4323 LP  0  0  0  0  0  0  0  0  0  0  0  0  # atno 17370 bound_to 10713
  157.2361  131.0515  151.2464 LP  0  0  0  0  0  0  0  0  0  0  0  0  # atno 17371 bound_to 10713
  141.2150  133.6758  156.6877 LP  0  0  0  0  0  0  0  0  0  0  0  0  # atno 17394 bound_to 11000
  140.2973  134.8192  157.4067 LP  0  0  0  0  0  0  0  0  0  0  0  0  # atno 17395 bound_to 11000

$$$$
