#       Name:                AV-unprocessed.smi:103
#       Creating user name   scv26
#       Creation time:       Thu Mar 26 17:56:29 2020


#       File generated by GOLD software.
#

@<TRIPOS>MOLECULE
AV-unprocessed.smi:103
    64    66     1
SMALL
NO_CHARGES


@<TRIPOS>ATOM
      1 ****        -2.6768   3.7349  -3.2173 C.3            1 S1                 0.0000
      2 ****        -2.2416   2.4355  -2.5535 C.2            1 S1                 0.0000
      3 ****        -1.4142   1.6911  -3.0800 O.2            1 S1                 0.0000
      4 ****        -2.8590   2.2296  -1.3758 O.3            1 S1                 0.0000
      5 ****        -2.5686   1.0721  -0.6050 C.3            1 S1                 0.0000
      6 ****        -1.4438   1.3578   0.4147 C.3            1 S1                 0.0000
      7 ****        -0.1943   1.4584  -0.2575 O.3            1 S1                 0.0000
      8 ****         0.3300   0.1825  -0.4523 C.3            1 S1                 0.0000
      9 ****         1.8172   0.2606  -0.3180 N.pl3          1 S1                 0.0000
     10 ****         2.8078  -0.0946  -1.2124 C.2            1 S1                 0.0000
     11 ****         2.5722  -0.8109  -2.8360 S.o2           1 S1                 0.0000
     12 ****         1.9631  -2.4977  -2.4275 C.3            1 S1                 0.0000
     13 ****         1.4998  -0.0490  -3.4938 O.2            1 S1                 0.0000
     14 ****         3.9019  -0.9175  -3.4571 O.2            1 S1                 0.0000
     15 ****         4.0409   0.0495  -0.8082 N.2            1 S1                 0.0000
     16 ****         3.8951   0.5989   0.4577 C.ar           1 S1                 0.0000
     17 ****         4.8050   1.0253   1.4577 C.ar           1 S1                 0.0000
     18 ****         6.1355   0.9546   1.3136 N.pl3          1 S1                 0.0000
     19 ****         4.3085   1.5290   2.6117 N.ar           1 S1                 0.0000
     20 ****         2.9845   1.6108   2.7788 C.ar           1 S1                 0.0000
     21 ****         2.0121   1.2501   1.9370 N.ar           1 S1                 0.0000
     22 ****         2.5135   0.7430   0.7725 C.ar           1 S1                 0.0000
     23 ****        -0.2768  -0.7437   0.6118 C.3            1 S1                 0.0000
     24 ****        -1.0133  -1.7696  -0.0472 O.3            1 S1                 0.0000
     25 ****        -1.0323  -3.0205   0.4437 C.2            1 S1                 0.0000
     26 ****        -1.8632  -3.9643  -0.4145 C.3            1 S1                 0.0000
     27 ****        -0.4642  -3.4103   1.4637 O.2            1 S1                 0.0000
     28 ****        -1.1752   0.2104   1.3969 C.3            1 S1                 0.0000
     29 ****        -2.3468  -0.4212   1.9037 O.3            1 S1                 0.0000
     30 ****        -3.0029   0.1052   2.9511 C.2            1 S1                 0.0000
     31 ****        -4.2179  -0.7223   3.3479 C.3            1 S1                 0.0000
     32 ****        -2.7017   1.1365   3.5516 O.2            1 S1                 0.0000
     33 ****        -3.7484   3.7179  -3.4154 H              1 S1                 0.0000
     34 ****        -2.1528   3.8763  -4.1627 H              1 S1                 0.0000
     35 ****        -2.4564   4.5838  -2.5698 H              1 S1                 0.0000
     36 ****        -3.4828   0.8145  -0.0706 H              1 S1                 0.0000
     37 ****        -2.3359   0.2158  -1.2391 H              1 S1                 0.0000
     38 ****        -1.6604   2.2807   0.9536 H              1 S1                 0.0000
     39 ****         0.1325  -0.1523  -1.4674 H              1 S1                 0.0000
     40 ****         1.8041  -3.0574  -3.3485 H              1 S1                 0.0000
     41 ****         1.0242  -2.4285  -1.8810 H              1 S1                 0.0000
     42 ****         2.7023  -3.0117  -1.8136 H              1 S1                 0.0000
     43 ****         6.5293   0.5836   0.4609 H              1 S1                 0.0000
     44 ****         6.7413   1.2780   2.0538 H              1 S1                 0.0000
     45 ****         2.6570   2.0226   3.7221 H              1 S1                 0.0000
     46 ****         0.5122  -1.1540   1.2442 H              1 S1                 0.0000
     47 ****        -1.4368  -4.0389  -1.4149 H              1 S1                 0.0000
     48 ****        -2.8860  -3.5969  -0.4989 H              1 S1                 0.0000
     49 ****        -1.8890  -4.9613   0.0258 H              1 S1                 0.0000
     50 ****        -0.5842   0.6011   2.2262 H              1 S1                 0.0000
     51 ****        -3.9214  -1.7475   3.5699 H              1 S1                 0.0000
     52 ****        -4.9455  -0.7393   2.5362 H              1 S1                 0.0000
     53 ****        -4.6960  -0.3015   4.2327 H              1 S1                 0.0000
     54 ****        -1.0126   1.9349  -3.9628 LP             1 S1                 0.0000
     55 ****        -1.1439   0.8427  -2.6249 LP             1 S1                 0.0000
     56 ****         0.4396   1.9988   0.2957 LP             1 S1                 0.0000
     57 ****        -0.3267   1.9036  -1.1431 LP             1 S1                 0.0000
     58 ****         4.8849  -0.1801  -1.2929 LP             1 S1                 0.0000
     59 ****         4.9273   1.8377   3.3340 LP             1 S1                 0.0000
     60 ****         1.0361   1.3404   2.1353 LP             1 S1                 0.0000
     61 ****         0.0745  -2.7703   2.0116 LP             1 S1                 0.0000
     62 ****        -0.5414  -4.3669   1.7444 LP             1 S1                 0.0000
     63 ****        -1.9013   1.6646   3.2679 LP             1 S1                 0.0000
     64 ****        -3.2574   1.4463   4.3231 LP             1 S1                 0.0000
@<TRIPOS>BOND
    1    1    2 1     
    2    1   33 1     
    3    1   34 1     
    4    1   35 1     
    5    2    3 2     
    6    2    4 1     
    7    4    5 1     
    8    5    6 1     
    9    5   36 1     
   10    5   37 1     
   11    6   28 1     
   12    6    7 1     
   13    6   38 1     
   14    7    8 1     
   15    8    9 1     
   16    8   23 1     
   17    8   39 1     
   18    9   22 1     
   19    9   10 1     
   20   10   11 1     
   21   10   15 2     
   22   11   12 1     
   23   11   13 2     
   24   11   14 2     
   25   12   40 1     
   26   12   41 1     
   27   12   42 1     
   28   15   16 1     
   29   16   22 ar    
   30   16   17 ar    
   31   17   18 1     
   32   17   19 ar    
   33   18   43 1     
   34   18   44 1     
   35   19   20 ar    
   36   20   21 ar    
   37   20   45 1     
   38   21   22 ar    
   39   23   24 1     
   40   23   28 1     
   41   23   46 1     
   42   24   25 1     
   43   25   26 1     
   44   25   27 2     
   45   26   47 1     
   46   26   48 1     
   47   26   49 1     
   48   28   29 1     
   49   28   50 1     
   50   29   30 1     
   51   30   31 1     
   52   30   32 2     
   53   31   51 1     
   54   31   52 1     
   55   31   53 1     
   56    3   54 1     
   57    3   55 1     
   58    7   56 1     
   59    7   57 1     
   60   15   58 1     
   61   19   59 1     
   62   21   60 1     
   63   27   61 1     
   64   27   62 1     
   65   32   63 1     
   66   32   64 1     
@<TRIPOS>SUBSTRUCTURE
      1 S1             1
@<TRIPOS>SET
LONE_PAIRS      STATIC     ATOMS    <user>   **** ""
13 54 55 56 57 13 14 58 59 60 61 62 63 64
DONOR_HYDROGENS      STATIC     ATOMS    <user>   **** ""
2 43 44
ATOM$BLUE        STATIC     ATOMS    COLORGROUP SYSTEM
13 54 55 56 57 13 14 58 59 60 61 62 63 64
ATOM$RED        STATIC     ATOMS    COLORGROUP SYSTEM
2 43 44
