AV-unprocessed.smi:148|AV-procd|sdf|1226|dock8
  -GOLD-   2262018423D 1   1.00000     0.00000
 Structure written by MMmdl.
 63 67  0  0  0  0  0  0  0  0  1 V2000
  146.6734  135.7103  151.8193 O   0  0  0  0  0  0  0  0  0  0  0  0
  145.8872  135.4734  152.9691 C   0  0  0  0  0  0  0  0  0  0  0  0
  145.3817  134.0105  153.0169 C   0  0  2  0  0  0  0  0  0  0  0  0
  146.2891  133.0921  153.8727 C   0  0  0  0  0  0  0  0  0  0  0  0
  146.2837  133.4338  155.2848 N   0  0  0  0  0  0  0  0  0  0  0  0
  145.1781  133.7007  156.0608 C   0  0  0  0  0  0  0  0  0  0  0  0
  145.4289  133.9813  157.3109 N   0  0  0  0  0  0  0  0  0  0  0  0
  146.8117  133.8924  157.4020 C   0  0  0  0  0  0  0  0  0  0  0  0
  147.7428  134.0576  158.4603 C   0  0  0  0  0  0  0  0  0  0  0  0
  147.3510  134.3798  159.7123 N   0  0  0  0  0  0  0  0  0  0  0  0
  147.7992  135.7353  160.0407 C   0  0  0  0  0  0  0  0  0  0  0  0
  147.1382  136.2490  161.3231 C   0  0  0  0  0  0  0  0  0  0  0  0
  147.4087  135.2743  162.4700 C   0  0  0  0  0  0  0  0  0  0  0  0
  146.9261  133.8700  162.0849 C   0  0  0  0  0  0  0  0  0  0  0  0
  147.5561  133.3581  160.7606 C   0  0  1  0  0  0  0  0  0  0  0  0
  146.9778  131.9463  160.3910 C   0  0  2  0  0  0  0  0  0  0  0  0
  146.9994  130.9110  161.5318 C   0  0  0  0  0  0  0  0  0  0  0  0
  146.8151  129.5383  160.8763 C   0  0  0  0  0  0  0  0  0  0  0  0
  147.1566  129.7244  159.3939 C   0  0  0  0  0  0  0  0  0  0  0  0
  147.6664  131.1628  159.2488 C   0  0  2  0  0  0  0  0  0  0  0  0
  149.0740  131.1658  159.3979 O   0  0  0  0  0  0  0  0  0  0  0  0
  149.0628  133.8864  158.1836 N   0  0  0  0  0  0  0  0  0  0  0  0
  149.4458  133.5637  156.9443 C   0  0  0  0  0  0  0  0  0  0  0  0
  148.6902  133.3694  155.8608 N   0  0  0  0  0  0  0  0  0  0  0  0
  147.3664  133.5464  156.1390 C   0  0  0  0  0  0  0  0  0  0  0  0
  145.1503  133.4258  151.6006 C   0  0  1  0  0  0  0  0  0  0  0  0
  146.3837  132.8316  150.9436 C   0  0  0  0  0  0  0  0  0  0  0  0
  145.7734  131.9666  149.8473 C   0  0  0  0  0  0  0  0  0  0  0  0
  144.5507  131.4791  150.3868 O   0  0  0  0  0  0  0  0  0  0  0  0
  144.1997  132.2243  151.5493 C   0  0  0  0  0  0  0  0  0  0  0  0
  147.5781  135.5382  152.0315 H   0  0  0  0  0  0  0  0  0  0  0  0
  146.4786  135.7135  153.8526 H   0  0  0  0  0  0  0  0  0  0  0  0
  145.0516  136.1732  152.9703 H   0  0  0  0  0  0  0  0  0  0  0  0
  144.4102  134.0403  153.5124 H   0  0  0  0  0  0  0  0  0  0  0  0
  145.9728  132.0524  153.7875 H   0  0  0  0  0  0  0  0  0  0  0  0
  147.3159  133.1308  153.5070 H   0  0  0  0  0  0  0  0  0  0  0  0
  144.1725  133.6831  155.6658 H   0  0  0  0  0  0  0  0  0  0  0  0
  148.8835  135.7419  160.1637 H   0  0  0  0  0  0  0  0  0  0  0  0
  147.5686  136.4146  159.2182 H   0  0  0  0  0  0  0  0  0  0  0  0
  147.5203  137.2394  161.5713 H   0  0  0  0  0  0  0  0  0  0  0  0
  146.0635  136.3550  161.1697 H   0  0  0  0  0  0  0  0  0  0  0  0
  148.4762  135.2503  162.6934 H   0  0  0  0  0  0  0  0  0  0  0  0
  146.9055  135.6104  163.3768 H   0  0  0  0  0  0  0  0  0  0  0  0
  147.1632  133.2016  162.9119 H   0  0  0  0  0  0  0  0  0  0  0  0
  145.8388  133.8769  161.9936 H   0  0  0  0  0  0  0  0  0  0  0  0
  148.6296  133.2688  160.9305 H   0  0  0  0  0  0  0  0  0  0  0  0
  145.9300  132.0793  160.1149 H   0  0  0  0  0  0  0  0  0  0  0  0
  147.9669  130.9361  162.0359 H   0  0  0  0  0  0  0  0  0  0  0  0
  146.2317  131.0993  162.2831 H   0  0  0  0  0  0  0  0  0  0  0  0
  147.4580  128.7938  161.3471 H   0  0  0  0  0  0  0  0  0  0  0  0
  145.7851  129.1954  160.9829 H   0  0  0  0  0  0  0  0  0  0  0  0
  147.8716  128.9836  159.0329 H   0  0  0  0  0  0  0  0  0  0  0  0
  146.2478  129.6038  158.8027 H   0  0  0  0  0  0  0  0  0  0  0  0
  147.4206  131.5392  158.2582 H   0  0  0  0  0  0  0  0  0  0  0  0
  149.4541  130.7285  158.6507 H   0  0  0  0  0  0  0  0  0  0  0  0
  150.5091  133.4407  156.8009 H   0  0  0  0  0  0  0  0  0  0  0  0
  144.7591  134.2048  150.9439 H   0  0  0  0  0  0  0  0  0  0  0  0
  147.0664  133.5835  150.5470 H   0  0  0  0  0  0  0  0  0  0  0  0
  146.9326  132.2078  151.6508 H   0  0  0  0  0  0  0  0  0  0  0  0
  145.5486  132.5713  148.9677 H   0  0  0  0  0  0  0  0  0  0  0  0
  146.4304  131.1523  149.5409 H   0  0  0  0  0  0  0  0  0  0  0  0
  144.3393  131.5810  152.4191 H   0  0  0  0  0  0  0  0  0  0  0  0
  143.1521  132.5253  151.5184 H   0  0  0  0  0  0  0  0  0  0  0  0
  1  2  1  0  0  0  0
  1 31  1  0  0  0  0
  2  3  1  0  0  0  0
  2 32  1  0  0  0  0
  2 33  1  0  0  0  0
  3  4  1  0  0  0  0
  3 26  1  0  0  0  0
  3 34  1  0  0  0  0
  4  5  1  0  0  0  0
  4 35  1  0  0  0  0
  4 36  1  0  0  0  0
  5 25  1  0  0  0  0
  5  6  1  0  0  0  0
  6  7  2  0  0  0  0
  6 37  1  0  0  0  0
  7  8  1  0  0  0  0
  8 25  2  0  0  0  0
  8  9  1  0  0  0  0
  9 10  1  0  0  0  0
  9 22  2  0  0  0  0
 10 15  1  0  0  0  0
 10 11  1  0  0  0  0
 11 12  1  0  0  0  0
 11 38  1  0  0  0  0
 11 39  1  0  0  0  0
 12 13  1  0  0  0  0
 12 40  1  0  0  0  0
 12 41  1  0  0  0  0
 13 14  1  0  0  0  0
 13 42  1  0  0  0  0
 13 43  1  0  0  0  0
 14 15  1  0  0  0  0
 14 44  1  0  0  0  0
 14 45  1  0  0  0  0
 15 16  1  0  0  0  0
 15 46  1  0  0  0  0
 16 20  1  0  0  0  0
 16 17  1  0  0  0  0
 16 47  1  0  0  0  0
 17 18  1  0  0  0  0
 17 48  1  0  0  0  0
 17 49  1  0  0  0  0
 18 19  1  0  0  0  0
 18 50  1  0  0  0  0
 18 51  1  0  0  0  0
 19 20  1  0  0  0  0
 19 52  1  0  0  0  0
 19 53  1  0  0  0  0
 20 21  1  0  0  0  0
 20 54  1  0  0  0  0
 21 55  1  0  0  0  0
 22 23  1  0  0  0  0
 23 24  2  0  0  0  0
 23 56  1  0  0  0  0
 24 25  1  0  0  0  0
 26 30  1  0  0  0  0
 26 27  1  0  0  0  0
 26 57  1  0  0  0  0
 27 28  1  0  0  0  0
 27 58  1  0  0  0  0
 27 59  1  0  0  0  0
 28 29  1  0  0  0  0
 28 60  1  0  0  0  0
 28 61  1  0  0  0  0
 29 30  1  0  0  0  0
 30 62  1  0  0  0  0
 30 63  1  0  0  0  0
M  END
> <s_m_source_file>
AV-unprocessed.smi

> <i_m_source_file_index>
148

> <i_lp_mmshare_version>
43012

> <i_f3d_flags>
0

> <s_epik_input>
W0NIMl0xT1tDSDJdW0NIMl1bQ0BIXTFbQ0BIXShbQ0gyXVtPSF0pW0NIMl1uKFtjSF1uMiljKGMyMyluW2NIXW5jM040W0NIMl1bQ0gyXVtDSDJdW0NIMl1bQ0BIXTRbQ0BASF01W0NIMl1bQ0gyXVtDSDJdW0NASF01W09IXQ==

> <s_epik_cmdline>
J2VwaWtfcHl0aG9uJywgJy1waCcsICc3LjAnLCAnLXRuJywgJzgnLCAnLW1hJywgJzIwMCcsICctbWV0YWxfYmluZGluZycsICctaW1hZScsICc8aW5maWxlLm1hZT4nLCAnLW9tYWUnLCAnPG91dGZpbGUubWFlPic=

> <r_lp_tautomer_probability>
1

> <r_epik_Ionization_Penalty>
0.00556303

> <r_epik_Ionization_Penalty_Charging>
0

> <r_epik_Ionization_Penalty_Neutral>
0.00556303

> <r_epik_State_Penalty>
0.00401767

> <r_epik_Charging_Adjusted_Penalty>
0.00401767

> <i_epik_Tot_Q>
0

> <i_epik_Tot_abs_Q>
0

> <r_epik_Metal_State_Penalty>
-0

> <b_epik_Metal_Only>
0

> <s_lp_Force_Field>
OPLS_2005

> <r_lp_Energy>
70.5735

> <b_lp_Chiralities_Consistent>
1

> <s_lp_Variant>
AV-unprocessed.smi:148-25

> <Gold.Version>
5.8.1

> <Gold.Id.Protein>
6NUR|6NUR_protein|mol2

> <Gold.PLP.Fitness>
42.1836

> <Gold.PLP.PLP>
-34.9369

> <Gold.PLP.part.hbond>
-2.0683

> <Gold.PLP.part.metal>
0.0000

> <Gold.PLP.part.buried>
-6.3419

> <Gold.PLP.part.nonpolar>
-27.9042

> <Gold.PLP.part.repulsive>
0.1608

> <Gold.PLP.ligand.clash>
0.0000

> <Gold.PLP.ligand.torsion>
1.2023

> <Gold.PLP.Chemscore.Hbond>
2.0000

> <Gold.PLP.Chemscore.CHOScore>
1.0000

> <Gold.PLP.Chemscore.Metal>
0.0000

> <Gold.Chemscore.Hbonds>
donor molecule, donor type, donor heavy atom, donor atom, acceptor molecule, acceptor atom, score
      L1  H     1    31       P1  7948  0.75
      P1  H  6896  6908       L1    22  1.00
      L1  C     6    37       P1 10957  0.87

> <Gold.PLP.Chemscore.Internal.Correction>
0.6512

> <Gold.Rescore>
     Score         DG    S(hbond)    S(metal)    S(lipo)     H(rot)  DE(clash)    DE(int)     intcor
     12.61     -14.28       1.97        0.00      91.72       3.32       0.00       1.67       ----

> <Gold.Chemscore.Fitness>
12.6124

> <Gold.Chemscore.DG>
-14.2844

> <Gold.Chemscore.ZeroCoef>
-5.4800

> <Gold.Chemscore.Hbond>
1.9680

> <Gold.Chemscore.Metal>
0.0000

> <Gold.Chemscore.Lipo>
91.7217

> <Gold.Chemscore.Internal_Hbond>
0.0000

> <Gold.Chemscore.DEClash>
0.0004

> <Gold.Chemscore.DEInternal>
1.6717

> <Gold.Chemscore.Rot>
3.3203

> <Gold.Chemscore.Internal.Correction>
   9.000000E+99

> <Gold.Chemscore.Hbonds>
donor molecule, donor type, donor heavy atom, donor atom, acceptor molecule, acceptor atom, score
      L1  H     1    31       P1  7948  0.69
      P1  H  6896  6908       L1    22  0.77
      P1  H 10785 10796       L1    29  0.01

> <Gold.Chemscore.Hbond.Weighted>
-6.5730

> <Gold.Chemscore.Metal.Weighted>
-0.0000

> <Gold.Chemscore.Lipo.Weighted>
-10.7314

> <Gold.Chemscore.Internal_Hbond.Weighted>
0.0000

> <Gold.Chemscore.DEClash.Weighted>
0.0004

> <Gold.Chemscore.DEInternal.Weighted>
1.6717

> <Gold.Chemscore.Rot.Weighted>
8.5000

> <Gold.Chemscore.Internal.Correction.Weighted>
   9.000000E+99

> <Gold.Protein.RotatedTorsions>
[ 6907 6896 6895 6894 ] final  148.67 input  -60.11 | X-H torsion
[ 7974 7965 7964 7962 ] final  177.22 input  175.53 | X-H torsion
[ 8008 7997 7996 7995 ] final   40.83 input   59.86 | X-H torsion
[ 10167 10162 10161 10158 ] final -160.84 input  -65.29 | X-H torsion
[ 10718 10713 10712 10709 ] final   65.41 input   66.30 | X-H torsion
[ 10763 10752 10751 10750 ] final  143.41 input  -60.55 | X-H torsion
[ 11005 11000 10999 10996 ] final -120.97 input  -57.11 | X-H torsion

> <Gold.Protein.ActiveResidues>
 VAL166  LYS551  ARG553  GLY616  TRP617  ASP618  TYR619  PRO620  LYS621  CYS622 
 ASP623  PHE694  ASN695  SER759  ASP760  ASP761  ALA762  ILE779  LEU786  VAL792 
 PHE793  MET794  SER795  GLU796  ALA797  LYS798  CYS799  TRP800  GLU811  SER814 

> <Gold.Protein.RotatedAtoms>
  152.1384  133.4449  159.4754 H   0  0  0  0  0  0  0  0  0  0  0  0  # atno 6907 bound_to 6896
  150.6884  134.2336  159.4453 H   0  0  0  0  0  0  0  0  0  0  0  0  # atno 6908 bound_to 6896
  152.0224  134.9814  160.0621 H   0  0  0  0  0  0  0  0  0  0  0  0  # atno 6909 bound_to 6896
  144.7172  140.0214  143.6440 H   0  0  0  0  0  0  0  0  0  0  0  0  # atno 7974 bound_to 7965
  155.2596  140.3358  155.4274 H   0  0  0  0  0  0  0  0  0  0  0  0  # atno 8008 bound_to 7997
  156.2180  140.1797  156.7586 H   0  0  0  0  0  0  0  0  0  0  0  0  # atno 8009 bound_to 7997
  154.5782  140.0658  156.9051 H   0  0  0  0  0  0  0  0  0  0  0  0  # atno 8010 bound_to 7997
  139.6509  144.0085  152.2161 H   0  0  0  0  0  0  0  0  0  0  0  0  # atno 10167 bound_to 10162
  157.6104  130.9213  149.9973 H   0  0  0  0  0  0  0  0  0  0  0  0  # atno 10718 bound_to 10713
  153.9719  135.2950  155.3426 H   0  0  0  0  0  0  0  0  0  0  0  0  # atno 10763 bound_to 10752
  154.7317  135.5064  153.8978 H   0  0  0  0  0  0  0  0  0  0  0  0  # atno 10764 bound_to 10752
  153.0896  135.6703  153.9993 H   0  0  0  0  0  0  0  0  0  0  0  0  # atno 10765 bound_to 10752
  141.0104  134.0273  157.3421 H   0  0  0  0  0  0  0  0  0  0  0  0  # atno 11005 bound_to 11000
  146.0177  139.3224  143.0832 LP  0  0  0  0  0  0  0  0  0  0  0  0  # atno 17320 bound_to 7965
  145.8606  140.9477  143.0702 LP  0  0  0  0  0  0  0  0  0  0  0  0  # atno 17321 bound_to 7965
  139.9799  144.6435  150.7910 LP  0  0  0  0  0  0  0  0  0  0  0  0  # atno 17342 bound_to 10162
  140.7537  143.3013  151.3072 LP  0  0  0  0  0  0  0  0  0  0  0  0  # atno 17343 bound_to 10162
  156.1204  130.3646  149.9896 LP  0  0  0  0  0  0  0  0  0  0  0  0  # atno 17370 bound_to 10713
  156.7978  130.9279  151.3646 LP  0  0  0  0  0  0  0  0  0  0  0  0  # atno 17371 bound_to 10713
  139.9087  135.0185  156.7597 LP  0  0  0  0  0  0  0  0  0  0  0  0  # atno 17394 bound_to 11000
  140.6743  133.9532  155.7874 LP  0  0  0  0  0  0  0  0  0  0  0  0  # atno 17395 bound_to 11000

$$$$
