AV-unprocessed.smi:2061|AV-procd|sdf|8385|dock1
  -GOLD-   2272011 63D 1   1.00000     0.00000
 Structure written by MMmdl.
 45 46  0  0  0  0  0  0  0  0  3 V2000
  145.8861  129.6040  151.6983 C   0  0  0  0  0  0  0  0  0  0  0  0
  145.9341  131.0875  151.8355 C   0  0  0  0  0  0  0  0  0  0  0  0
  145.9530  132.1027  150.9219 C   0  0  0  0  0  0  0  0  0  0  0  0
  145.9894  133.2696  151.7333 C   0  0  0  0  0  0  0  0  0  0  0  0
  146.0267  134.5363  151.2920 N   0  5  0  0  0  0  0  0  0  0  0  0
  145.4152  135.5184  151.9920 C   0  0  0  0  0  0  0  0  0  0  0  0
  144.2538  135.5073  152.4059 O   0  0  0  0  0  0  0  0  0  0  0  0
  146.1967  136.5855  152.2143 N   0  0  0  0  0  0  0  0  0  0  0  0
  145.8206  137.8002  152.9336 C   0  0  0  0  0  0  0  0  0  0  0  0
  146.7933  138.9814  152.6786 C   0  0  1  0  0  0  0  0  0  0  0  0
  146.8566  139.3307  151.1710 C   0  0  0  0  0  0  0  0  0  0  0  0
  146.4147  140.1452  153.5460 N   0  3  1  0  0  0  0  0  0  0  0  0
  146.1944  139.7533  154.9632 C   0  0  0  0  0  0  0  0  0  0  0  0
  145.6410  140.9322  155.7804 C   0  0  1  0  0  0  0  0  0  0  0  0
  145.4613  140.5722  157.2593 C   0  0  0  0  0  0  0  0  0  0  0  0
  146.5521  142.0226  155.7042 O   0  0  0  0  0  0  0  0  0  0  0  0
  146.8182  142.4783  154.3799 C   0  0  2  0  0  0  0  0  0  0  0  0
  145.6210  143.2320  153.7726 C   0  0  0  0  0  0  0  0  0  0  0  0
  147.3282  141.3202  153.4978 C   0  0  0  0  0  0  0  0  0  0  0  0
  146.0111  132.9868  153.0248 N   0  0  0  0  0  0  0  0  0  0  0  0
  145.9693  131.5894  153.0992 O   0  0  0  0  0  0  0  0  0  0  0  0
  146.7928  129.2324  151.2213 H   0  0  0  0  0  0  0  0  0  0  0  0
  145.0342  129.3012  151.0894 H   0  0  0  0  0  0  0  0  0  0  0  0
  145.7935  129.1210  152.6714 H   0  0  0  0  0  0  0  0  0  0  0  0
  145.9367  132.0247  149.8452 H   0  0  0  0  0  0  0  0  0  0  0  0
  147.1389  136.5442  151.8534 H   0  0  0  0  0  0  0  0  0  0  0  0
  144.7992  138.0997  152.6932 H   0  0  0  0  0  0  0  0  0  0  0  0
  145.8049  137.5235  153.9858 H   0  0  0  0  0  0  0  0  0  0  0  0
  147.7988  138.6680  152.9648 H   0  0  0  0  0  0  0  0  0  0  0  0
  147.1394  138.4688  150.5678 H   0  0  0  0  0  0  0  0  0  0  0  0
  147.6091  140.0889  150.9550 H   0  0  0  0  0  0  0  0  0  0  0  0
  145.8932  139.6850  150.8029 H   0  0  0  0  0  0  0  0  0  0  0  0
  145.4945  138.9233  155.0373 H   0  0  0  0  0  0  0  0  0  0  0  0
  147.1358  139.4072  155.3935 H   0  0  0  0  0  0  0  0  0  0  0  0
  144.6688  141.2292  155.3863 H   0  0  0  0  0  0  0  0  0  0  0  0
  144.7613  139.7450  157.3800 H   0  0  0  0  0  0  0  0  0  0  0  0
  145.0714  141.4207  157.8222 H   0  0  0  0  0  0  0  0  0  0  0  0
  146.4082  140.2788  157.7133 H   0  0  0  0  0  0  0  0  0  0  0  0
  147.6278  143.2031  154.4710 H   0  0  0  0  0  0  0  0  0  0  0  0
  145.8955  143.6907  152.8225 H   0  0  0  0  0  0  0  0  0  0  0  0
  145.2859  144.0290  154.4368 H   0  0  0  0  0  0  0  0  0  0  0  0
  144.7721  142.5764  153.5802 H   0  0  0  0  0  0  0  0  0  0  0  0
  148.3204  141.0117  153.8311 H   0  0  0  0  0  0  0  0  0  0  0  0
  147.4325  141.7007  152.4821 H   0  0  0  0  0  0  0  0  0  0  0  0
  145.5285  140.4750  153.1906 H   0  0  0  0  0  0  0  0  0  0  0  0
  1  2  1  0  0  0  0
  1 22  1  0  0  0  0
  1 23  1  0  0  0  0
  1 24  1  0  0  0  0
  2 21  1  0  0  0  0
  2  3  2  0  0  0  0
  3  4  1  0  0  0  0
  3 25  1  0  0  0  0
  4  5  1  0  0  0  0
  4 20  2  0  0  0  0
  5  6  1  0  0  0  0
  6  7  2  0  0  0  0
  6  8  1  0  0  0  0
  8  9  1  0  0  0  0
  8 26  1  0  0  0  0
  9 10  1  0  0  0  0
  9 27  1  0  0  0  0
  9 28  1  0  0  0  0
 10 11  1  0  0  0  0
 10 12  1  0  0  0  0
 10 29  1  0  0  0  0
 11 30  1  0  0  0  0
 11 31  1  0  0  0  0
 11 32  1  0  0  0  0
 12 19  1  0  0  0  0
 12 13  1  0  0  0  0
 12 45  1  0  0  0  0
 13 14  1  0  0  0  0
 13 33  1  0  0  0  0
 13 34  1  0  0  0  0
 14 15  1  0  0  0  0
 14 16  1  0  0  0  0
 14 35  1  0  0  0  0
 15 36  1  0  0  0  0
 15 37  1  0  0  0  0
 15 38  1  0  0  0  0
 16 17  1  0  0  0  0
 17 18  1  0  0  0  0
 17 19  1  0  0  0  0
 17 39  1  0  0  0  0
 18 40  1  0  0  0  0
 18 41  1  0  0  0  0
 18 42  1  0  0  0  0
 19 43  1  0  0  0  0
 19 44  1  0  0  0  0
 20 21  1  0  0  0  0
M  CHG  1   5  -1
M  CHG  1  12   1
M  END
> <s_m_source_file>
AV-unprocessed.smi

> <i_m_source_file_index>
2061

> <i_lp_mmshare_version>
43012

> <i_f3d_flags>
0

> <s_epik_input>
W0NIM11jMVtjSF1jKG5vMSlbTkhdQyg9TylbTkhdW0NIMl1bQ0BIXShbQ0gzXSlOMltDSDJdW0NAQEhdKFtDSDNdKU9bQ0BASF0oW0NIM10pW0NIMl0y

> <s_epik_cmdline>
J2VwaWtfcHl0aG9uJywgJy1waCcsICc3LjAnLCAnLXRuJywgJzgnLCAnLW1hJywgJzIwMCcsICctbWV0YWxfYmluZGluZycsICctaW1hZScsICc8aW5maWxlLm1hZT4nLCAnLW9tYWUnLCAnPG91dGZpbGUubWFlPic=

> <r_epik_Ionization_Penalty>
6.73511

> <r_epik_Ionization_Penalty_Charging>
6.73502

> <r_epik_Ionization_Penalty_Neutral>
9.50841e-05

> <r_epik_State_Penalty>
6.93549

> <r_epik_Charging_Adjusted_Penalty>
13.6705

> <i_epik_Tot_Q>
0

> <i_epik_Tot_abs_Q>
2

> <r_epik_Metal_State_Penalty>
2.87211

> <b_epik_Metal_Only>
1

> <s_lp_Force_Field>
OPLS_2005

> <r_lp_Energy>
11.2627

> <b_lp_Chiralities_Consistent>
1

> <s_lp_Variant>
AV-unprocessed.smi:2061-26

> <Gold.Version>
5.8.1

> <Gold.Id.Protein>
6NUR|6NUR_protein|mol2

> <Gold.PLP.Fitness>
39.3949

> <Gold.PLP.PLP>
-31.8637

> <Gold.PLP.part.hbond>
-2.0000

> <Gold.PLP.part.metal>
0.0000

> <Gold.PLP.part.buried>
-2.8267

> <Gold.PLP.part.nonpolar>
-27.1170

> <Gold.PLP.part.repulsive>
0.7154

> <Gold.PLP.ligand.clash>
0.0000

> <Gold.PLP.ligand.torsion>
0.8428

> <Gold.PLP.Chemscore.Hbond>
3.0000

> <Gold.PLP.Chemscore.CHOScore>
0.0000

> <Gold.PLP.Chemscore.Metal>
0.0000

> <Gold.Chemscore.Hbonds>
donor molecule, donor type, donor heavy atom, donor atom, acceptor molecule, acceptor atom, score
      L1  H     8    26       P1  7948  1.00
      L1  H    12    45       P1 10175  2.00

> <Gold.PLP.Chemscore.Internal.Correction>
0.2169

> <Gold.Rescore>
     Score         DG    S(hbond)    S(metal)    S(lipo)     H(rot)  DE(clash)    DE(int)     intcor
     15.86     -17.20       1.98        0.00      77.59       1.56       0.44       0.90       ----

> <Gold.Chemscore.Fitness>
15.8580

> <Gold.Chemscore.DG>
-17.1991

> <Gold.Chemscore.ZeroCoef>
-5.4800

> <Gold.Chemscore.Hbond>
1.9827

> <Gold.Chemscore.Metal>
0.0000

> <Gold.Chemscore.Lipo>
77.5886

> <Gold.Chemscore.Internal_Hbond>
0.0000

> <Gold.Chemscore.DEClash>
0.4362

> <Gold.Chemscore.DEInternal>
0.9049

> <Gold.Chemscore.Rot>
1.5550

> <Gold.Chemscore.Internal.Correction>
   9.000000E+99

> <Gold.Chemscore.Hbonds>
donor molecule, donor type, donor heavy atom, donor atom, acceptor molecule, acceptor atom, score
      L1  H     8    26       P1  7948  0.99
      L1  H    12    45       P1 10175  0.90

> <Gold.Chemscore.Hbond.Weighted>
-6.6221

> <Gold.Chemscore.Metal.Weighted>
-0.0000

> <Gold.Chemscore.Lipo.Weighted>
-9.0779

> <Gold.Chemscore.Internal_Hbond.Weighted>
0.0000

> <Gold.Chemscore.DEClash.Weighted>
0.4362

> <Gold.Chemscore.DEInternal.Weighted>
0.9049

> <Gold.Chemscore.Rot.Weighted>
3.9809

> <Gold.Chemscore.Internal.Correction.Weighted>
   9.000000E+99

> <Gold.Protein.RotatedTorsions>
[ 6907 6896 6895 6894 ] final    9.74 input  -60.11 | X-H torsion
[ 7974 7965 7964 7962 ] final  -68.95 input  175.53 | X-H torsion
[ 8008 7997 7996 7995 ] final  -51.35 input   59.86 | X-H torsion
[ 10167 10162 10161 10158 ] final -130.00 input  -65.29 | X-H torsion
[ 10718 10713 10712 10709 ] final  106.81 input   66.30 | X-H torsion
[ 10763 10752 10751 10750 ] final    2.26 input  -60.55 | X-H torsion
[ 11005 11000 10999 10996 ] final   -0.80 input  -57.11 | X-H torsion

> <Gold.Protein.ActiveResidues>
 VAL166  LYS551  ARG553  GLY616  TRP617  ASP618  TYR619  PRO620  LYS621  CYS622 
 ASP623  PHE694  ASN695  SER759  ASP760  ASP761  ALA762  ILE779  LEU786  VAL792 
 PHE793  MET794  SER795  GLU796  ALA797  LYS798  CYS799  TRP800  GLU811  SER814 

> <Gold.Protein.RotatedAtoms>
  151.7270  135.0882  160.0293 H   0  0  0  0  0  0  0  0  0  0  0  0  # atno 6907 bound_to 6896
  152.3565  133.6240  159.5992 H   0  0  0  0  0  0  0  0  0  0  0  0  # atno 6908 bound_to 6896
  150.7575  133.9407  159.3497 H   0  0  0  0  0  0  0  0  0  0  0  0  # atno 6909 bound_to 6896
  145.7100  140.9082  143.0686 H   0  0  0  0  0  0  0  0  0  0  0  0  # atno 7974 bound_to 7965
  154.4081  140.1250  156.4815 H   0  0  0  0  0  0  0  0  0  0  0  0  # atno 8008 bound_to 7997
  155.7080  140.3494  155.4942 H   0  0  0  0  0  0  0  0  0  0  0  0  # atno 8009 bound_to 7997
  155.9326  140.1072  157.1110 H   0  0  0  0  0  0  0  0  0  0  0  0  # atno 8010 bound_to 7997
  139.9338  143.6241  152.2522 H   0  0  0  0  0  0  0  0  0  0  0  0  # atno 10167 bound_to 10162
  157.6653  131.0859  150.6062 H   0  0  0  0  0  0  0  0  0  0  0  0  # atno 10718 bound_to 10713
  153.2977  135.6953  153.7232 H   0  0  0  0  0  0  0  0  0  0  0  0  # atno 10763 bound_to 10752
  153.6158  135.3436  155.2995 H   0  0  0  0  0  0  0  0  0  0  0  0  # atno 10764 bound_to 10752
  154.8542  135.4374  154.2079 H   0  0  0  0  0  0  0  0  0  0  0  0  # atno 10765 bound_to 10752
  140.6403  133.9496  155.8322 H   0  0  0  0  0  0  0  0  0  0  0  0  # atno 11005 bound_to 11000
  144.6944  139.9061  143.7461 LP  0  0  0  0  0  0  0  0  0  0  0  0  # atno 17320 bound_to 7965
  146.0721  139.3710  143.0516 LP  0  0  0  0  0  0  0  0  0  0  0  0  # atno 17321 bound_to 7965
  139.6760  144.7658  151.1695 LP  0  0  0  0  0  0  0  0  0  0  0  0  # atno 17342 bound_to 10162
  140.7630  143.5794  150.8910 LP  0  0  0  0  0  0  0  0  0  0  0  0  # atno 17343 bound_to 10162
  156.6363  130.4446  149.5768 LP  0  0  0  0  0  0  0  0  0  0  0  0  # atno 17370 bound_to 10713
  156.2243  130.6756  151.1400 LP  0  0  0  0  0  0  0  0  0  0  0  0  # atno 17371 bound_to 10713
  141.0612  134.0344  157.3656 LP  0  0  0  0  0  0  0  0  0  0  0  0  # atno 17394 bound_to 11000
  139.9083  135.0184  156.7581 LP  0  0  0  0  0  0  0  0  0  0  0  0  # atno 17395 bound_to 11000

$$$$
