AV-unprocessed.smi:3193|AV-procd|sdf|12205|dock9
  -GOLD-   2272018 43D 1   1.00000     0.00000
 Structure written by MMmdl.
 41 42  0  0  0  0  0  0  0  0  3 V2000
  152.7367  141.3570  159.7924 C   0  0  0  0  0  0  0  0  0  0  0  0
  152.4566  142.8176  159.3948 C   0  0  2  0  0  0  0  0  0  0  0  0
  152.4320  143.6995  160.6614 C   0  0  0  0  0  0  0  0  0  0  0  0
  152.2113  145.1809  160.3287 C   0  0  0  0  0  0  0  0  0  0  0  0
  150.9236  145.3704  159.5201 C   0  0  0  0  0  0  0  0  0  0  0  0
  150.9430  144.5058  158.2519 C   0  0  0  0  0  0  0  0  0  0  0  0
  151.1506  143.0072  158.5668 C   0  0  1  0  0  0  0  0  0  0  0  0
  151.1293  142.1992  157.2489 C   0  0  0  0  0  0  0  0  0  0  0  0
  149.8135  142.2582  156.5803 N   0  3  0  0  0  0  0  0  0  0  0  0
  149.7037  141.3972  155.3867 C   0  0  0  0  0  0  0  0  0  0  0  0
  148.2875  141.4495  154.7962 C   0  0  0  0  0  0  0  0  0  0  0  0
  147.9449  140.2146  154.0861 N   0  0  0  0  0  0  0  0  0  0  0  0
  146.7910  139.9443  153.3956 C   0  0  0  0  0  0  0  0  0  0  0  0
  146.9203  138.6722  152.9004 C   0  0  0  0  0  0  0  0  0  0  0  0
  148.1456  138.2192  153.3106 N   0  3  0  0  0  0  0  0  0  0  0  0
  148.7675  139.1585  154.0312 C   0  0  0  0  0  0  0  0  0  0  0  0
  151.8920  140.9201  160.3259 H   0  0  0  0  0  0  0  0  0  0  0  0
  153.6080  141.2903  160.4447 H   0  0  0  0  0  0  0  0  0  0  0  0
  152.9517  140.7356  158.9240 H   0  0  0  0  0  0  0  0  0  0  0  0
  153.2962  143.1507  158.7824 H   0  0  0  0  0  0  0  0  0  0  0  0
  151.6435  143.3570  161.3334 H   0  0  0  0  0  0  0  0  0  0  0  0
  153.3689  143.5934  161.2098 H   0  0  0  0  0  0  0  0  0  0  0  0
  152.1642  145.7666  161.2473 H   0  0  0  0  0  0  0  0  0  0  0  0
  153.0616  145.5610  159.7612 H   0  0  0  0  0  0  0  0  0  0  0  0
  150.0612  145.1064  160.1335 H   0  0  0  0  0  0  0  0  0  0  0  0
  150.8040  146.4208  159.2531 H   0  0  0  0  0  0  0  0  0  0  0  0
  150.0055  144.6493  157.7130 H   0  0  0  0  0  0  0  0  0  0  0  0
  151.7347  144.8560  157.5879 H   0  0  0  0  0  0  0  0  0  0  0  0
  150.3032  142.6890  159.1768 H   0  0  0  0  0  0  0  0  0  0  0  0
  151.8624  142.6013  156.5482 H   0  0  0  0  0  0  0  0  0  0  0  0
  151.4126  141.1624  157.4365 H   0  0  0  0  0  0  0  0  0  0  0  0
  149.1107  141.9720  157.2471 H   0  0  0  0  0  0  0  0  0  0  0  0
  150.4333  141.7187  154.6420 H   0  0  0  0  0  0  0  0  0  0  0  0
  149.9538  140.3720  155.6631 H   0  0  0  0  0  0  0  0  0  0  0  0
  147.5451  141.6076  155.5802 H   0  0  0  0  0  0  0  0  0  0  0  0
  148.1928  142.2774  154.0921 H   0  0  0  0  0  0  0  0  0  0  0  0
  145.9830  140.6566  153.3097 H   0  0  0  0  0  0  0  0  0  0  0  0
  146.2496  138.0702  152.3044 H   0  0  0  0  0  0  0  0  0  0  0  0
  149.7420  139.0772  154.4795 H   0  0  0  0  0  0  0  0  0  0  0  0
  149.6325  143.2155  156.3126 H   0  0  0  0  0  0  0  0  0  0  0  0
  148.5271  137.3046  153.1019 H   0  0  0  0  0  0  0  0  0  0  0  0
  1  2  1  0  0  0  0
  1 17  1  0  0  0  0
  1 18  1  0  0  0  0
  1 19  1  0  0  0  0
  2  7  1  0  0  0  0
  2  3  1  0  0  0  0
  2 20  1  0  0  0  0
  3  4  1  0  0  0  0
  3 21  1  0  0  0  0
  3 22  1  0  0  0  0
  4  5  1  0  0  0  0
  4 23  1  0  0  0  0
  4 24  1  0  0  0  0
  5  6  1  0  0  0  0
  5 25  1  0  0  0  0
  5 26  1  0  0  0  0
  6  7  1  0  0  0  0
  6 27  1  0  0  0  0
  6 28  1  0  0  0  0
  7  8  1  0  0  0  0
  7 29  1  0  0  0  0
  8  9  1  0  0  0  0
  8 30  1  0  0  0  0
  8 31  1  0  0  0  0
  9 10  1  0  0  0  0
  9 32  1  0  0  0  0
  9 40  1  0  0  0  0
 10 11  1  0  0  0  0
 10 33  1  0  0  0  0
 10 34  1  0  0  0  0
 11 12  1  0  0  0  0
 11 35  1  0  0  0  0
 11 36  1  0  0  0  0
 12 16  1  0  0  0  0
 12 13  1  0  0  0  0
 13 14  2  0  0  0  0
 13 37  1  0  0  0  0
 14 15  1  0  0  0  0
 14 38  1  0  0  0  0
 15 16  2  0  0  0  0
 15 41  1  0  0  0  0
 16 39  1  0  0  0  0
M  CHG  1   9   1
M  CHG  1  15   1
M  END
> <s_m_source_file>
AV-unprocessed.smi

> <i_m_source_file_index>
3193

> <i_lp_mmshare_version>
43012

> <i_f3d_flags>
0

> <s_epik_input>
W0NIM11bQ0BASF0xW0NIMl1bQ0gyXVtDSDJdW0NIMl1bQ0BIXTFbQ0gyXVtOSF1bQ0gyXVtDSDJdbjJbY0hdW2NIXW5bY0hdMg==

> <s_epik_cmdline>
J2VwaWtfcHl0aG9uJywgJy1waCcsICc3LjAnLCAnLXRuJywgJzgnLCAnLW1hJywgJzIwMCcsICctbWV0YWxfYmluZGluZycsICctaW1hZScsICc8aW5maWxlLm1hZT4nLCAnLW9tYWUnLCAnPG91dGZpbGUubWFlPic=

> <r_lp_tautomer_probability>
1

> <r_epik_Ionization_Penalty>
1.50262

> <r_epik_Ionization_Penalty_Charging>
0.00193432

> <r_epik_Ionization_Penalty_Neutral>
1.50068

> <r_epik_State_Penalty>
1.11854

> <r_epik_Charging_Adjusted_Penalty>
1.12048

> <i_epik_Tot_Q>
2

> <i_epik_Tot_abs_Q>
2

> <r_epik_Metal_State_Penalty>
5.11322

> <b_epik_Metal_Only>
0

> <s_lp_Force_Field>
OPLS_2005

> <r_lp_Energy>
26.3387

> <b_lp_Chiralities_Consistent>
1

> <s_lp_Variant>
AV-unprocessed.smi:3193-5

> <Gold.Version>
5.8.1

> <Gold.Id.Protein>
6NUR|6NUR_protein|mol2

> <Gold.PLP.Fitness>
55.4294

> <Gold.PLP.PLP>
-40.8181

> <Gold.PLP.part.hbond>
-3.0000

> <Gold.PLP.part.metal>
0.0000

> <Gold.PLP.part.buried>
-2.0916

> <Gold.PLP.part.nonpolar>
-37.0584

> <Gold.PLP.part.repulsive>
0.1091

> <Gold.PLP.ligand.clash>
0.0000

> <Gold.PLP.ligand.torsion>
0.2028

> <Gold.PLP.Chemscore.Hbond>
4.0000

> <Gold.PLP.Chemscore.CHOScore>
0.9908

> <Gold.PLP.Chemscore.Metal>
0.0000

> <Gold.Chemscore.Hbonds>
donor molecule, donor type, donor heavy atom, donor atom, acceptor molecule, acceptor atom, score
      L1  H     9    40       P1  8028  2.00
      L1  H    15    41       P1  7948  1.79
      L1  C    13    37       P1 10175  1.00

> <Gold.PLP.Chemscore.Internal.Correction>
0.0443

> <Gold.Rescore>
     Score         DG    S(hbond)    S(metal)    S(lipo)     H(rot)  DE(clash)    DE(int)     intcor
     19.52     -19.90       1.95        0.00     110.86       1.98       0.11       0.26       ----

> <Gold.Chemscore.Fitness>
19.5210

> <Gold.Chemscore.DG>
-19.8976

> <Gold.Chemscore.ZeroCoef>
-5.4800

> <Gold.Chemscore.Hbond>
1.9489

> <Gold.Chemscore.Metal>
0.0000

> <Gold.Chemscore.Lipo>
110.8575

> <Gold.Chemscore.Internal_Hbond>
0.0000

> <Gold.Chemscore.DEClash>
0.1149

> <Gold.Chemscore.DEInternal>
0.2616

> <Gold.Chemscore.Rot>
1.9774

> <Gold.Chemscore.Internal.Correction>
   9.000000E+99

> <Gold.Chemscore.Hbonds>
donor molecule, donor type, donor heavy atom, donor atom, acceptor molecule, acceptor atom, score
      L1  H     9    40       P1  8028  1.00
      L1  H    15    41       P1  7948  0.86

> <Gold.Chemscore.Hbond.Weighted>
-6.5094

> <Gold.Chemscore.Metal.Weighted>
-0.0000

> <Gold.Chemscore.Lipo.Weighted>
-12.9703

> <Gold.Chemscore.Internal_Hbond.Weighted>
0.0000

> <Gold.Chemscore.DEClash.Weighted>
0.1149

> <Gold.Chemscore.DEInternal.Weighted>
0.2616

> <Gold.Chemscore.Rot.Weighted>
5.0622

> <Gold.Chemscore.Internal.Correction.Weighted>
   9.000000E+99

> <Gold.Protein.RotatedTorsions>
[ 6907 6896 6895 6894 ] final  -29.56 input  -60.11 | X-H torsion
[ 7974 7965 7964 7962 ] final  154.59 input  175.53 | X-H torsion
[ 8008 7997 7996 7995 ] final    1.06 input   59.86 | X-H torsion
[ 10167 10162 10161 10158 ] final  -27.43 input  -65.29 | X-H torsion
[ 10718 10713 10712 10709 ] final   16.24 input   66.30 | X-H torsion
[ 10763 10752 10751 10750 ] final -150.84 input  -60.55 | X-H torsion
[ 11005 11000 10999 10996 ] final -171.07 input  -57.11 | X-H torsion

> <Gold.Protein.ActiveResidues>
 VAL166  LYS551  ARG553  GLY616  TRP617  ASP618  TYR619  PRO620  LYS621  CYS622 
 ASP623  PHE694  ASN695  SER759  ASP760  ASP761  ALA762  ILE779  LEU786  VAL792 
 PHE793  MET794  SER795  GLU796  ALA797  LYS798  CYS799  TRP800  GLU811  SER814 

> <Gold.Protein.RotatedAtoms>
  151.1174  135.0061  159.8522 H   0  0  0  0  0  0  0  0  0  0  0  0  # atno 6907 bound_to 6896
  152.5446  134.1763  159.8627 H   0  0  0  0  0  0  0  0  0  0  0  0  # atno 6908 bound_to 6896
  151.1818  133.4675  159.2627 H   0  0  0  0  0  0  0  0  0  0  0  0  # atno 6909 bound_to 6896
  144.8079  139.6954  143.6154 H   0  0  0  0  0  0  0  0  0  0  0  0  # atno 7974 bound_to 7965
  154.6753  140.2621  155.6964 H   0  0  0  0  0  0  0  0  0  0  0  0  # atno 8008 bound_to 7997
  156.2675  140.2821  156.1200 H   0  0  0  0  0  0  0  0  0  0  0  0  # atno 8009 bound_to 7997
  155.1109  140.0375  157.2714 H   0  0  0  0  0  0  0  0  0  0  0  0  # atno 8010 bound_to 7997
  140.7277  143.4094  151.1131 H   0  0  0  0  0  0  0  0  0  0  0  0  # atno 10167 bound_to 10162
  157.0649  130.6324  149.5793 H   0  0  0  0  0  0  0  0  0  0  0  0  # atno 10718 bound_to 10713
  154.8094  135.3274  154.7344 H   0  0  0  0  0  0  0  0  0  0  0  0  # atno 10763 bound_to 10752
  153.7996  135.6904  153.4862 H   0  0  0  0  0  0  0  0  0  0  0  0  # atno 10764 bound_to 10752
  153.1862  135.4568  155.0038 H   0  0  0  0  0  0  0  0  0  0  0  0  # atno 10765 bound_to 10752
  140.5124  134.5789  157.5023 H   0  0  0  0  0  0  0  0  0  0  0  0  # atno 11005 bound_to 11000
  146.2373  139.5931  142.9515 LP  0  0  0  0  0  0  0  0  0  0  0  0  # atno 17320 bound_to 7965
  145.5394  141.0422  143.2339 LP  0  0  0  0  0  0  0  0  0  0  0  0  # atno 17321 bound_to 7965
  139.7725  143.8473  152.3123 LP  0  0  0  0  0  0  0  0  0  0  0  0  # atno 17342 bound_to 10162
  139.8397  144.7216  150.9347 LP  0  0  0  0  0  0  0  0  0  0  0  0  # atno 17343 bound_to 10162
  155.9967  130.5037  150.7507 LP  0  0  0  0  0  0  0  0  0  0  0  0  # atno 17370 bound_to 10713
  157.4924  131.0912  151.0411 LP  0  0  0  0  0  0  0  0  0  0  0  0  # atno 17371 bound_to 10713
  139.9651  134.7386  156.0154 LP  0  0  0  0  0  0  0  0  0  0  0  0  # atno 17394 bound_to 11000
  141.1378  133.6571  156.3644 LP  0  0  0  0  0  0  0  0  0  0  0  0  # atno 17395 bound_to 11000

$$$$
