AV-unprocessed.smi:2230|AV-procd|sdf|9036|dock9
  -GOLD-   2272012243D 1   1.00000     0.00000
 Structure written by MMmdl.
 29 30  0  0  0  0  0  0  0  0  2 V2000
  151.4412  134.7590  156.2353 O   0  0  0  0  0  0  0  0  0  0  0  0
  150.9931  135.5030  157.1364 C   0  0  0  0  0  0  0  0  0  0  0  0
  150.6177  135.1127  158.2641 O   0  5  0  0  0  0  0  0  0  0  0  0
  150.9256  137.0127  156.8580 C   0  0  1  0  0  0  0  0  0  0  0  0
  151.7378  137.8227  157.8963 C   0  0  0  0  0  0  0  0  0  0  0  0
  151.7243  139.2397  157.5519 N   0  0  0  0  0  0  0  0  0  0  0  0
  152.3263  140.0661  158.5133 C   0  0  0  0  0  0  0  0  0  0  0  0
  153.4072  139.5726  159.1662 N   0  0  0  0  0  0  0  0  0  0  0  0
  154.0098  140.3437  160.0939 C   0  0  0  0  0  0  0  0  0  0  0  0
  153.5727  141.6407  160.4178 C   0  0  0  0  0  0  0  0  0  0  0  0
  152.4520  142.1555  159.7407 C   0  0  0  0  0  0  0  0  0  0  0  0
  151.8064  141.3626  158.7650 C   0  0  0  0  0  0  0  0  0  0  0  0
  150.5903  141.8960  158.0116 C   0  0  0  0  0  0  0  0  0  0  0  0
  150.1234  143.0163  158.5640 F   0  0  0  0  0  0  0  0  0  0  0  0
  150.9185  142.1664  156.7479 F   0  0  0  0  0  0  0  0  0  0  0  0
  149.6107  140.9919  158.0225 F   0  0  0  0  0  0  0  0  0  0  0  0
  152.1750  139.4938  156.1908 C   0  0  0  0  0  0  0  0  0  0  0  0
  151.3387  138.6647  155.2039 C   0  0  0  0  0  0  0  0  0  0  0  0
  151.4296  137.2864  155.5490 O   0  0  0  0  0  0  0  0  0  0  0  0
  149.8750  137.3057  156.9014 H   0  0  0  0  0  0  0  0  0  0  0  0
  151.3173  137.6936  158.8947 H   0  0  0  0  0  0  0  0  0  0  0  0
  152.7676  137.4633  157.9304 H   0  0  0  0  0  0  0  0  0  0  0  0
  154.8669  139.9147  160.5911 H   0  0  0  0  0  0  0  0  0  0  0  0
  154.0846  142.2263  161.1672 H   0  0  0  0  0  0  0  0  0  0  0  0
  152.1020  143.1496  159.9751 H   0  0  0  0  0  0  0  0  0  0  0  0
  152.0830  140.5562  155.9620 H   0  0  0  0  0  0  0  0  0  0  0  0
  153.2293  139.2304  156.0954 H   0  0  0  0  0  0  0  0  0  0  0  0
  150.2957  138.9854  155.2099 H   0  0  0  0  0  0  0  0  0  0  0  0
  151.7097  138.8016  154.1883 H   0  0  0  0  0  0  0  0  0  0  0  0
  1  2  2  0  0  0  0
  2  3  1  0  0  0  0
  2  4  1  0  0  0  0
  4 19  1  0  0  0  0
  4  5  1  0  0  0  0
  4 20  1  0  0  0  0
  5  6  1  0  0  0  0
  5 21  1  0  0  0  0
  5 22  1  0  0  0  0
  6  7  1  0  0  0  0
  6 17  1  0  0  0  0
  7 12  1  0  0  0  0
  7  8  2  0  0  0  0
  8  9  1  0  0  0  0
  9 10  2  0  0  0  0
  9 23  1  0  0  0  0
 10 11  1  0  0  0  0
 10 24  1  0  0  0  0
 11 12  2  0  0  0  0
 11 25  1  0  0  0  0
 12 13  1  0  0  0  0
 13 14  1  0  0  0  0
 13 15  1  0  0  0  0
 13 16  1  0  0  0  0
 17 18  1  0  0  0  0
 17 26  1  0  0  0  0
 17 27  1  0  0  0  0
 18 19  1  0  0  0  0
 18 28  1  0  0  0  0
 18 29  1  0  0  0  0
M  CHG  1   3  -1
M  END
> <s_m_source_file>
AV-unprocessed.smi

> <i_m_source_file_index>
2230

> <i_lp_mmshare_version>
43012

> <i_f3d_flags>
0

> <s_epik_input>
Tz1DKFtPSF0pW0NAQEhdMVtDSDJdTihbQ0gyXVtDSDJdTzEpYzJuW2NIXVtjSF1bY0hdYzJDKEYpKEYpRg==

> <s_epik_cmdline>
J2VwaWtfcHl0aG9uJywgJy1waCcsICc3LjAnLCAnLXRuJywgJzgnLCAnLW1hJywgJzIwMCcsICctbWV0YWxfYmluZGluZycsICctaW1hZScsICc8aW5maWxlLm1hZT4nLCAnLW9tYWUnLCAnPG91dGZpbGUubWFlPic=

> <r_lp_tautomer_probability>
1

> <r_epik_Ionization_Penalty>
0.000150991

> <r_epik_Ionization_Penalty_Charging>
0.000148814

> <r_epik_Ionization_Penalty_Neutral>
2.17728e-06

> <r_epik_State_Penalty>
-0

> <r_epik_Charging_Adjusted_Penalty>
0.000148814

> <i_epik_Tot_Q>
-1

> <i_epik_Tot_abs_Q>
1

> <r_epik_Metal_State_Penalty>
-0

> <b_epik_Metal_Only>
0

> <s_lp_Force_Field>
OPLS_2005

> <r_lp_Energy>
24.6169

> <b_lp_Chiralities_Consistent>
1

> <s_lp_Variant>
AV-unprocessed.smi:2230-2

> <Gold.Version>
5.8.1

> <Gold.Id.Protein>
6NUR|6NUR_protein|mol2

> <Gold.PLP.Fitness>
36.4717

> <Gold.PLP.PLP>
-30.2749

> <Gold.PLP.part.hbond>
-2.0000

> <Gold.PLP.part.metal>
0.0000

> <Gold.PLP.part.buried>
-4.1937

> <Gold.PLP.part.nonpolar>
-23.9752

> <Gold.PLP.part.repulsive>
0.1462

> <Gold.PLP.ligand.clash>
0.0953

> <Gold.PLP.ligand.torsion>
1.0578

> <Gold.PLP.Chemscore.Hbond>
2.5920

> <Gold.PLP.Chemscore.CHOScore>
0.0000

> <Gold.PLP.Chemscore.Metal>
0.0000

> <Gold.Chemscore.Hbonds>
donor molecule, donor type, donor heavy atom, donor atom, acceptor molecule, acceptor atom, score
      P1  H  6896  6907       L1     3  0.45
      P1  H 10752 10765       L1     1  0.76

> <Gold.PLP.Chemscore.Internal.Correction>
0.6317

> <Gold.Rescore>
     Score         DG    S(hbond)    S(metal)    S(lipo)     H(rot)  DE(clash)    DE(int)     intcor
     11.82     -14.04       1.51        0.00      62.60       1.49       0.05       2.18       ----

> <Gold.Chemscore.Fitness>
11.8204

> <Gold.Chemscore.DG>
-14.0407

> <Gold.Chemscore.ZeroCoef>
-5.4800

> <Gold.Chemscore.Hbond>
1.5134

> <Gold.Chemscore.Metal>
0.0000

> <Gold.Chemscore.Lipo>
62.6026

> <Gold.Chemscore.Internal_Hbond>
0.0000

> <Gold.Chemscore.DEClash>
0.0450

> <Gold.Chemscore.DEInternal>
2.1752

> <Gold.Chemscore.Rot>
1.4916

> <Gold.Chemscore.Internal.Correction>
   9.000000E+99

> <Gold.Chemscore.Hbonds>
donor molecule, donor type, donor heavy atom, donor atom, acceptor molecule, acceptor atom, score
      P1  H  6896  6907       L1     3  0.21
      P1  H 10752 10765       L1     1  0.37

> <Gold.Chemscore.Hbond.Weighted>
-5.0546

> <Gold.Chemscore.Metal.Weighted>
-0.0000

> <Gold.Chemscore.Lipo.Weighted>
-7.3245

> <Gold.Chemscore.Internal_Hbond.Weighted>
0.0000

> <Gold.Chemscore.DEClash.Weighted>
0.0450

> <Gold.Chemscore.DEInternal.Weighted>
2.1752

> <Gold.Chemscore.Rot.Weighted>
3.8185

> <Gold.Chemscore.Internal.Correction.Weighted>
   9.000000E+99

> <Gold.Protein.RotatedTorsions>
[ 6907 6896 6895 6894 ] final -111.18 input  -60.11 | X-H torsion
[ 7974 7965 7964 7962 ] final  -74.28 input  175.53 | X-H torsion
[ 8008 7997 7996 7995 ] final  -67.92 input   59.86 | X-H torsion
[ 10167 10162 10161 10158 ] final  -78.16 input  -65.29 | X-H torsion
[ 10718 10713 10712 10709 ] final  169.86 input   66.30 | X-H torsion
[ 10763 10752 10751 10750 ] final -166.94 input  -60.55 | X-H torsion
[ 11005 11000 10999 10996 ] final   81.22 input  -57.11 | X-H torsion

> <Gold.Protein.ActiveResidues>
 VAL166  LYS551  ARG553  GLY616  TRP617  ASP618  TYR619  PRO620  LYS621  CYS622 
 ASP623  PHE694  ASN695  SER759  ASP760  ASP761  ALA762  ILE779  LEU786  VAL792 
 PHE793  MET794  SER795  GLU796  ALA797  LYS798  CYS799  TRP800  GLU811  SER814 

> <Gold.Protein.RotatedAtoms>
  150.7673  133.9273  159.3415 H   0  0  0  0  0  0  0  0  0  0  0  0  # atno 6907 bound_to 6896
  151.7168  135.0900  160.0286 H   0  0  0  0  0  0  0  0  0  0  0  0  # atno 6908 bound_to 6896
  152.3675  133.6338  159.6097 H   0  0  0  0  0  0  0  0  0  0  0  0  # atno 6909 bound_to 6896
  145.6412  140.9310  143.1035 H   0  0  0  0  0  0  0  0  0  0  0  0  # atno 7974 bound_to 7965
  154.4832  140.0883  156.7427 H   0  0  0  0  0  0  0  0  0  0  0  0  # atno 8008 bound_to 7997
  155.4416  140.3454  155.4272 H   0  0  0  0  0  0  0  0  0  0  0  0  # atno 8009 bound_to 7997
  156.1223  140.1477  156.9174 H   0  0  0  0  0  0  0  0  0  0  0  0  # atno 8010 bound_to 7997
  140.4706  143.2428  151.8210 H   0  0  0  0  0  0  0  0  0  0  0  0  # atno 10167 bound_to 10162
  157.0165  131.0219  151.2787 H   0  0  0  0  0  0  0  0  0  0  0  0  # atno 10718 bound_to 10713
  154.6782  135.2950  154.9649 H   0  0  0  0  0  0  0  0  0  0  0  0  # atno 10763 bound_to 10752
  154.0653  135.6625  153.4821 H   0  0  0  0  0  0  0  0  0  0  0  0  # atno 10764 bound_to 10752
  153.0530  135.5162  154.7812 H   0  0  0  0  0  0  0  0  0  0  0  0  # atno 10765 bound_to 10752
  139.9106  134.7980  156.2013 H   0  0  0  0  0  0  0  0  0  0  0  0  # atno 11005 bound_to 11000
  144.7157  139.8207  143.7399 LP  0  0  0  0  0  0  0  0  0  0  0  0  # atno 17320 bound_to 7965
  146.1279  139.4309  143.0187 LP  0  0  0  0  0  0  0  0  0  0  0  0  # atno 17321 bound_to 7965
  139.4818  144.4896  151.9202 LP  0  0  0  0  0  0  0  0  0  0  0  0  # atno 17342 bound_to 10162
  140.3981  144.2528  150.5895 LP  0  0  0  0  0  0  0  0  0  0  0  0  # atno 17343 bound_to 10162
  157.5281  130.8041  149.7885 LP  0  0  0  0  0  0  0  0  0  0  0  0  # atno 17370 bound_to 10713
  156.0117  130.3830  150.2242 LP  0  0  0  0  0  0  0  0  0  0  0  0  # atno 17371 bound_to 10713
  141.0523  133.6882  156.1795 LP  0  0  0  0  0  0  0  0  0  0  0  0  # atno 17394 bound_to 11000
  140.6791  134.4786  157.5588 LP  0  0  0  0  0  0  0  0  0  0  0  0  # atno 17395 bound_to 11000

$$$$
