#       Name:                AV-unprocessed.smi:1269
#       Creating user name   scv26
#       Creation time:       Fri Mar 27 04:45:45 2020


#       File generated by GOLD software.
#

@<TRIPOS>MOLECULE
AV-unprocessed.smi:1269
    51    52     1
SMALL
NO_CHARGES


@<TRIPOS>ATOM
      1 ****        -5.8954   5.2198   0.6073 C.3            1 S1                 0.0000
      2 ****        -6.2172   3.8550   0.3623 O.3            1 S1                 0.0000
      3 ****        -5.2122   2.9156   0.4705 C.ar           1 S1                 0.0000
      4 ****        -5.5243   1.5634   0.2278 C.ar           1 S1                 0.0000
      5 ****        -4.5023   0.6016   0.3364 C.ar           1 S1                 0.0000
      6 ****        -3.1988   1.0171   0.6748 C.ar           1 S1                 0.0000
      7 ****        -2.1924   0.0206   0.7935 N.am           1 S1                 0.0000
      8 ****        -0.8570   0.1685   0.7528 C.2            1 S1                 0.0000
      9 ****        -0.2629   1.2306   0.5700 O.2            1 S1                 0.0000
     10 ****        -0.2356  -1.0089   0.9157 N.am           1 S1                 0.0000
     11 ****         1.2116  -1.2124   0.9234 C.3            1 S1                 0.0000
     12 ****         1.5082  -2.4195   1.8270 C.3            1 S1                 0.0000
     13 ****         1.7106  -1.3478  -0.5371 C.3            1 S1                 0.0000
     14 ****         3.1602  -1.2722  -0.7418 N.3            1 S1                 0.0000
     15 ****         3.4716  -0.7599  -2.0740 C.3            1 S1                 0.0000
     16 ****         4.9876  -0.6627  -2.3175 C.3            1 S1                 0.0000
     17 ****         5.5835  -1.9414  -2.1292 O.3            1 S1                 0.0000
     18 ****         5.3395  -2.4718  -0.8311 C.3            1 S1                 0.0000
     19 ****         3.8230  -2.5678  -0.5890 C.3            1 S1                 0.0000
     20 ****        -2.9886   2.3978   0.9114 C.ar           1 S1                 0.0000
     21 ****        -3.9651   3.3248   0.8104 N.ar           1 S1                 0.0000
     22 ****        -6.7906   5.8292   0.4833 H              1 S1                 0.0000
     23 ****        -5.1462   5.5853  -0.0965 H              1 S1                 0.0000
     24 ****        -5.5329   5.3685   1.6255 H              1 S1                 0.0000
     25 ****        -6.5294   1.2694  -0.0360 H              1 S1                 0.0000
     26 ****        -4.7195  -0.4415   0.1580 H              1 S1                 0.0000
     27 ****        -2.5307  -0.9274   0.8693 H              1 S1                 0.0000
     28 ****        -0.8067  -1.8301   1.0515 H              1 S1                 0.0000
     29 ****         1.6791  -0.3357   1.3758 H              1 S1                 0.0000
     30 ****         2.5591  -2.4587   2.1088 H              1 S1                 0.0000
     31 ****         1.2418  -3.3594   1.3427 H              1 S1                 0.0000
     32 ****         0.9474  -2.3569   2.7604 H              1 S1                 0.0000
     33 ****         1.3119  -2.2552  -0.9934 H              1 S1                 0.0000
     34 ****         1.2508  -0.5290  -1.0929 H              1 S1                 0.0000
     35 ****         3.0239  -1.4034  -2.8334 H              1 S1                 0.0000
     36 ****         3.0292   0.2287  -2.2033 H              1 S1                 0.0000
     37 ****         5.1880  -0.3221  -3.3334 H              1 S1                 0.0000
     38 ****         5.4418   0.0619  -1.6400 H              1 S1                 0.0000
     39 ****         5.7979  -3.4580  -0.7580 H              1 S1                 0.0000
     40 ****         5.8121  -1.8410  -0.0767 H              1 S1                 0.0000
     41 ****         3.6608  -2.9771   0.4033 H              1 S1                 0.0000
     42 ****         3.3960  -3.2864  -1.2903 H              1 S1                 0.0000
     43 ****        -2.0290   2.7885   1.2108 H              1 S1                 0.0000
     44 ****        -6.5763   3.7982  -0.5693 LP             1 S1                 0.0000
     45 ****        -6.9331   3.5986   1.0117 LP             1 S1                 0.0000
     46 ****        -0.7798   2.0761   0.4365 LP             1 S1                 0.0000
     47 ****         0.7369   1.2481   0.5550 LP             1 S1                 0.0000
     48 ****         3.5016  -0.6521  -0.0354 LP             1 S1                 0.0000
     49 ****         6.5713  -1.8572  -2.2605 LP             1 S1                 0.0000
     50 ****         5.2095  -2.5725  -2.8088 LP             1 S1                 0.0000
     51 ****        -3.7729   4.2910   0.9824 LP             1 S1                 0.0000
@<TRIPOS>BOND
    1    1    2 1     
    2    1   22 1     
    3    1   23 1     
    4    1   24 1     
    5    2    3 1     
    6    3   21 ar    
    7    3    4 ar    
    8    4    5 ar    
    9    4   25 1     
   10    5    6 ar    
   11    5   26 1     
   12    6    7 1     
   13    6   20 ar    
   14    7    8 am    
   15    7   27 1     
   16    8    9 2     
   17    8   10 am    
   18   10   11 1     
   19   10   28 1     
   20   11   12 1     
   21   11   13 1     
   22   11   29 1     
   23   12   30 1     
   24   12   31 1     
   25   12   32 1     
   26   13   14 1     
   27   13   33 1     
   28   13   34 1     
   29   14   19 1     
   30   14   15 1     
   31   15   16 1     
   32   15   35 1     
   33   15   36 1     
   34   16   17 1     
   35   16   37 1     
   36   16   38 1     
   37   17   18 1     
   38   18   19 1     
   39   18   39 1     
   40   18   40 1     
   41   19   41 1     
   42   19   42 1     
   43   20   21 ar    
   44   20   43 1     
   45    2   44 1     
   46    2   45 1     
   47    9   46 1     
   48    9   47 1     
   49   14   48 1     
   50   17   49 1     
   51   17   50 1     
   52   21   51 1     
@<TRIPOS>SUBSTRUCTURE
      1 S1             1
@<TRIPOS>SET
LONE_PAIRS      STATIC     ATOMS    <user>   **** ""
8 44 45 46 47 48 49 50 51
DONOR_HYDROGENS      STATIC     ATOMS    <user>   **** ""
2 27 28
ATOM$BLUE        STATIC     ATOMS    COLORGROUP SYSTEM
8 44 45 46 47 48 49 50 51
ATOM$RED        STATIC     ATOMS    COLORGROUP SYSTEM
2 27 28
