#       Name:                AV-unprocessed.smi:2150
#       Creating user name   scv26
#       Creation time:       Fri Mar 27 11:53:31 2020


#       File generated by GOLD software.
#

@<TRIPOS>MOLECULE
AV-unprocessed.smi:2150
    42    43     1
SMALL
NO_CHARGES


@<TRIPOS>ATOM
      1 ****         0.2996   1.5250  -0.4587 O.2            1 S1                 0.0000
      2 ****         0.9535   0.5575  -0.0666 C.2            1 S1                 0.0000
      3 ****         2.4880   0.5999  -0.0435 C.3            1 S1                 0.0000
      4 ****         3.0579   1.5870  -0.9749 N.am           1 S1                 0.0000
      5 ****         3.4258   2.8374  -0.4506 C.2            1 S1                 0.0000
      6 ****         3.9481   3.7877  -1.2391 C.2            1 S1                 0.0000
      7 ****         4.1080   3.4435  -2.6579 C.2            1 S1                 0.0000
      8 ****         3.7699   2.3060  -3.1399 N.2            1 S1                 0.0000
      9 ****         3.2170   1.3116  -2.3105 C.2            1 S1                 0.0000
     10 ****         2.8830   0.2185  -2.7682 O.2            1 S1                 0.0000
     11 ****         0.3917  -0.5767   0.3811 N.am           1 S1                 0.0000
     12 ****        -1.0471  -0.8350   0.4733 C.3            1 S1                 0.0000
     13 ****        -1.2505  -2.3663   0.4104 C.3            1 S1                 0.0000
     14 ****        -2.6602  -2.7877  -0.0394 C.3            1 S1                 0.0000
     15 ****        -3.7927  -2.3997   0.9233 C.3            1 S1                 0.0000
     16 ****        -3.9497  -0.8815   1.1141 C.3            1 S1                 0.0000
     17 ****        -2.9408  -0.3346   2.0120 N.am           1 S1                 0.0000
     18 ****        -1.6146  -0.3022   1.8102 C.2            1 S1                 0.0000
     19 ****        -0.8646   0.1408   2.6801 O.2            1 S1                 0.0000
     20 ****         2.8049   0.8132   0.9783 H              1 S1                 0.0000
     21 ****         2.8834  -0.3932  -0.2646 H              1 S1                 0.0000
     22 ****         3.2517   2.9694   0.6075 H              1 S1                 0.0000
     23 ****         4.2481   4.7687  -0.9021 H              1 S1                 0.0000
     24 ****         4.5384   4.2293  -3.2838 H              1 S1                 0.0000
     25 ****         1.0051  -1.3138   0.6967 H              1 S1                 0.0000
     26 ****        -1.5509  -0.3537  -0.3670 H              1 S1                 0.0000
     27 ****        -0.5482  -2.7881  -0.3106 H              1 S1                 0.0000
     28 ****        -1.0026  -2.8341   1.3649 H              1 S1                 0.0000
     29 ****        -2.8647  -2.3703  -1.0260 H              1 S1                 0.0000
     30 ****        -2.6731  -3.8704  -0.1685 H              1 S1                 0.0000
     31 ****        -4.7265  -2.7954   0.5225 H              1 S1                 0.0000
     32 ****        -3.6516  -2.8885   1.8884 H              1 S1                 0.0000
     33 ****        -3.9353  -0.3582   0.1570 H              1 S1                 0.0000
     34 ****        -4.9219  -0.6751   1.5619 H              1 S1                 0.0000
     35 ****        -3.2785   0.0307   2.8908 H              1 S1                 0.0000
     36 ****         0.7678   2.3528  -0.7677 LP             1 S1                 0.0000
     37 ****        -0.6995   1.4826  -0.4680 LP             1 S1                 0.0000
     38 ****         3.8998   2.1224  -4.1143 LP             1 S1                 0.0000
     39 ****         2.4922  -0.4775  -2.1658 LP             1 S1                 0.0000
     40 ****         3.0025   0.0266  -3.7423 LP             1 S1                 0.0000
     41 ****         0.1234   0.1590   2.5266 LP             1 S1                 0.0000
     42 ****        -1.2434   0.4824   3.5402 LP             1 S1                 0.0000
@<TRIPOS>BOND
    1    1    2 2     
    2    2    3 1     
    3    2   11 am    
    4    3    4 1     
    5    3   20 1     
    6    3   21 1     
    7    4    9 am    
    8    4    5 1     
    9    5    6 2     
   10    5   22 1     
   11    6    7 1     
   12    6   23 1     
   13    7    8 2     
   14    7   24 1     
   15    8    9 1     
   16    9   10 2     
   17   11   12 1     
   18   11   25 1     
   19   12   18 1     
   20   12   13 1     
   21   12   26 1     
   22   13   14 1     
   23   13   27 1     
   24   13   28 1     
   25   14   15 1     
   26   14   29 1     
   27   14   30 1     
   28   15   16 1     
   29   15   31 1     
   30   15   32 1     
   31   16   17 1     
   32   16   33 1     
   33   16   34 1     
   34   17   18 am    
   35   17   35 1     
   36   18   19 2     
   37    1   36 1     
   38    1   37 1     
   39    8   38 1     
   40   10   39 1     
   41   10   40 1     
   42   19   41 1     
   43   19   42 1     
@<TRIPOS>SUBSTRUCTURE
      1 S1             1
@<TRIPOS>SET
LONE_PAIRS      STATIC     ATOMS    <user>   **** ""
7 36 37 38 39 40 41 42
DONOR_HYDROGENS      STATIC     ATOMS    <user>   **** ""
2 25 35
ATOM$BLUE        STATIC     ATOMS    COLORGROUP SYSTEM
7 36 37 38 39 40 41 42
ATOM$RED        STATIC     ATOMS    COLORGROUP SYSTEM
2 25 35
