AV-unprocessed.smi:1622|AV-procd|sdf|6497|dock10
  -GOLD-   22720 7163D 1   1.00000     0.00000
 Structure written by MMmdl.
 41 42  0  0  0  0  0  0  0  0  2 V2000
  143.3211  137.2770  152.3894 C   0  0  0  0  0  0  0  0  0  0  0  0
  144.4901  137.1710  153.3823 C   0  0  0  0  0  0  0  0  0  0  0  0
  145.8938  137.0612  152.7274 C   0  0  2  0  0  0  0  0  0  0  0  0
  146.2389  138.2815  151.8331 C   0  0  0  0  0  0  0  0  0  0  0  0
  147.4736  138.9475  152.2426 N   0  0  0  0  0  0  0  0  0  0  0  0
  147.7317  139.4224  153.4703 C   0  0  0  0  0  0  0  0  0  0  0  0
  146.9354  139.3533  154.4063 O   0  0  0  0  0  0  0  0  0  0  0  0
  148.9577  139.9716  153.5336 N   0  0  0  0  0  0  0  0  0  0  0  0
  149.6058  140.5431  154.6608 C   0  0  0  0  0  0  0  0  0  0  0  0
  150.8867  140.3107  154.9794 N   0  0  0  0  0  0  0  0  0  0  0  0
  151.2687  140.9982  156.1226 N   0  0  0  0  0  0  0  0  0  0  0  0
  150.2694  141.7268  156.6343 C   0  0  0  0  0  0  0  0  0  0  0  0
  150.4250  142.5593  157.8608 C   0  0  0  0  0  0  0  0  0  0  0  0
  148.7555  141.6332  155.7423 S   0  0  0  0  0  0  0  0  0  0  0  0
  146.0504  135.7750  151.9839 N   0  3  0  0  0  0  0  0  0  0  0  0
  145.7615  134.5496  152.7589 C   0  0  0  0  0  0  0  0  0  0  0  0
  145.5670  133.4407  151.7247 C   0  0  0  0  0  0  0  0  0  0  0  0
  145.1482  134.1567  150.4385 C   0  0  0  0  0  0  0  0  0  0  0  0
  145.2408  135.6537  150.7508 C   0  0  0  0  0  0  0  0  0  0  0  0
  142.3735  137.3579  152.9220 H   0  0  0  0  0  0  0  0  0  0  0  0
  143.2599  136.4002  151.7450 H   0  0  0  0  0  0  0  0  0  0  0  0
  143.4097  138.1544  151.7506 H   0  0  0  0  0  0  0  0  0  0  0  0
  144.4603  138.0315  154.0503 H   0  0  0  0  0  0  0  0  0  0  0  0
  144.3172  136.3171  154.0373 H   0  0  0  0  0  0  0  0  0  0  0  0
  146.6217  137.0470  153.5405 H   0  0  0  0  0  0  0  0  0  0  0  0
  146.4007  137.9648  150.8032 H   0  0  0  0  0  0  0  0  0  0  0  0
  145.3997  138.9781  151.8023 H   0  0  0  0  0  0  0  0  0  0  0  0
  148.1871  139.0534  151.5359 H   0  0  0  0  0  0  0  0  0  0  0  0
  149.4954  139.9737  152.6795 H   0  0  0  0  0  0  0  0  0  0  0  0
  151.2500  142.1904  158.4712 H   0  0  0  0  0  0  0  0  0  0  0  0
  149.5116  142.5267  158.4550 H   0  0  0  0  0  0  0  0  0  0  0  0
  150.6278  143.5939  157.5846 H   0  0  0  0  0  0  0  0  0  0  0  0
  146.5612  134.3074  153.4596 H   0  0  0  0  0  0  0  0  0  0  0  0
  144.8397  134.6870  153.3269 H   0  0  0  0  0  0  0  0  0  0  0  0
  146.5082  132.9139  151.5614 H   0  0  0  0  0  0  0  0  0  0  0  0
  144.8307  132.7052  152.0503 H   0  0  0  0  0  0  0  0  0  0  0  0
  145.8234  133.8900  149.6245 H   0  0  0  0  0  0  0  0  0  0  0  0
  144.1389  133.8811  150.1309 H   0  0  0  0  0  0  0  0  0  0  0  0
  144.2395  136.0482  150.9318 H   0  0  0  0  0  0  0  0  0  0  0  0
  145.6777  136.2113  149.9220 H   0  0  0  0  0  0  0  0  0  0  0  0
  147.0173  135.7088  151.6987 H   0  0  0  0  0  0  0  0  0  0  0  0
  1  2  1  0  0  0  0
  1 20  1  0  0  0  0
  1 21  1  0  0  0  0
  1 22  1  0  0  0  0
  2  3  1  0  0  0  0
  2 23  1  0  0  0  0
  2 24  1  0  0  0  0
  3  4  1  0  0  0  0
  3 15  1  0  0  0  0
  3 25  1  0  0  0  0
  4  5  1  0  0  0  0
  4 26  1  0  0  0  0
  4 27  1  0  0  0  0
  5  6  1  0  0  0  0
  5 28  1  0  0  0  0
  6  7  2  0  0  0  0
  6  8  1  0  0  0  0
  8  9  1  0  0  0  0
  8 29  1  0  0  0  0
  9 14  1  0  0  0  0
  9 10  2  0  0  0  0
 10 11  1  0  0  0  0
 11 12  2  0  0  0  0
 12 13  1  0  0  0  0
 12 14  1  0  0  0  0
 13 30  1  0  0  0  0
 13 31  1  0  0  0  0
 13 32  1  0  0  0  0
 15 19  1  0  0  0  0
 15 16  1  0  0  0  0
 15 41  1  0  0  0  0
 16 17  1  0  0  0  0
 16 33  1  0  0  0  0
 16 34  1  0  0  0  0
 17 18  1  0  0  0  0
 17 35  1  0  0  0  0
 17 36  1  0  0  0  0
 18 19  1  0  0  0  0
 18 37  1  0  0  0  0
 18 38  1  0  0  0  0
 19 39  1  0  0  0  0
 19 40  1  0  0  0  0
M  CHG  1  15   1
M  END
> <s_m_source_file>
AV-unprocessed.smi

> <i_m_source_file_index>
1622

> <i_lp_mmshare_version>
43012

> <i_f3d_flags>
0

> <s_epik_input>
W0NIMl0xW0NIMl1bQ0gyXVtDSDJdTjFbQ0BIXShbQ0gyXVtDSDNdKVtDSDJdW05IXUMoPU8pW05IXWMybm5jKHMyKVtDSDNd

> <s_epik_cmdline>
J2VwaWtfcHl0aG9uJywgJy1waCcsICc3LjAnLCAnLXRuJywgJzgnLCAnLW1hJywgJzIwMCcsICctbWV0YWxfYmluZGluZycsICctaW1hZScsICc8aW5maWxlLm1hZT4nLCAnLW9tYWUnLCAnPG91dGZpbGUubWFlPic=

> <r_lp_tautomer_probability>
1

> <r_epik_Ionization_Penalty>
0.00164835

> <r_epik_Ionization_Penalty_Charging>
0.00115997

> <r_epik_Ionization_Penalty_Neutral>
0.00048838

> <r_epik_State_Penalty>
-0

> <r_epik_Charging_Adjusted_Penalty>
0.00115997

> <i_epik_Tot_Q>
1

> <i_epik_Tot_abs_Q>
1

> <r_epik_Metal_State_Penalty>
0.216651

> <b_epik_Metal_Only>
0

> <s_lp_Force_Field>
OPLS_2005

> <r_lp_Energy>
32.351

> <b_lp_Chiralities_Consistent>
1

> <s_lp_Variant>
AV-unprocessed.smi:1622-1

> <Gold.Version>
5.8.1

> <Gold.Id.Protein>
6NUR|6NUR_protein|mol2

> <Gold.PLP.Fitness>
44.3714

> <Gold.PLP.PLP>
-31.9595

> <Gold.PLP.part.hbond>
-4.9989

> <Gold.PLP.part.metal>
0.0000

> <Gold.PLP.part.buried>
-2.9313

> <Gold.PLP.part.nonpolar>
-24.5061

> <Gold.PLP.part.repulsive>
0.4082

> <Gold.PLP.ligand.clash>
0.0000

> <Gold.PLP.ligand.torsion>
1.1515

> <Gold.PLP.Chemscore.Hbond>
4.8800

> <Gold.PLP.Chemscore.CHOScore>
0.0000

> <Gold.PLP.Chemscore.Metal>
0.0000

> <Gold.Chemscore.Hbonds>
donor molecule, donor type, donor heavy atom, donor atom, acceptor molecule, acceptor atom, score
      L1  H     5    28       P1  7957  0.85
      L1  H     8    29       P1  7957  0.99
      L1  H    15    41       P1  7948  2.00
      P1  H  7989  7998       L1    10  0.95

> <Gold.PLP.Chemscore.Internal.Correction>
0.0749

> <Gold.Rescore>
     Score         DG    S(hbond)    S(metal)    S(lipo)     H(rot)  DE(clash)    DE(int)     intcor
     18.09     -19.42       3.62        0.00      54.53       1.77       0.13       1.20       ----

> <Gold.Chemscore.Fitness>
18.0898

> <Gold.Chemscore.DG>
-19.4206

> <Gold.Chemscore.ZeroCoef>
-5.4800

> <Gold.Chemscore.Hbond>
3.6233

> <Gold.Chemscore.Metal>
0.0000

> <Gold.Chemscore.Lipo>
54.5288

> <Gold.Chemscore.Internal_Hbond>
0.0000

> <Gold.Chemscore.DEClash>
0.1293

> <Gold.Chemscore.DEInternal>
1.2016

> <Gold.Chemscore.Rot>
1.7738

> <Gold.Chemscore.Internal.Correction>
   9.000000E+99

> <Gold.Chemscore.Hbonds>
donor molecule, donor type, donor heavy atom, donor atom, acceptor molecule, acceptor atom, score
      L1  H     5    28       P1  7957  0.70
      L1  H     8    29       P1  7957  0.89
      L1  H    15    41       P1  7948  0.95
      P1  H  7989  7998       L1    10  0.19

> <Gold.Chemscore.Hbond.Weighted>
-12.1018

> <Gold.Chemscore.Metal.Weighted>
-0.0000

> <Gold.Chemscore.Lipo.Weighted>
-6.3799

> <Gold.Chemscore.Internal_Hbond.Weighted>
0.0000

> <Gold.Chemscore.DEClash.Weighted>
0.1293

> <Gold.Chemscore.DEInternal.Weighted>
1.2016

> <Gold.Chemscore.Rot.Weighted>
4.5411

> <Gold.Chemscore.Internal.Correction.Weighted>
   9.000000E+99

> <Gold.Protein.RotatedTorsions>
[ 6907 6896 6895 6894 ] final  -80.04 input  -60.11 | X-H torsion
[ 7974 7965 7964 7962 ] final  132.79 input  175.53 | X-H torsion
[ 8008 7997 7996 7995 ] final   55.07 input   59.86 | X-H torsion
[ 10167 10162 10161 10158 ] final  107.58 input  -65.29 | X-H torsion
[ 10718 10713 10712 10709 ] final -132.74 input   66.30 | X-H torsion
[ 10763 10752 10751 10750 ] final -120.01 input  -60.55 | X-H torsion
[ 11005 11000 10999 10996 ] final -115.71 input  -57.11 | X-H torsion

> <Gold.Protein.ActiveResidues>
 VAL166  LYS551  ARG553  GLY616  TRP617  ASP618  TYR619  PRO620  LYS621  CYS622 
 ASP623  PHE694  ASN695  SER759  ASP760  ASP761  ALA762  ILE779  LEU786  VAL792 
 PHE793  MET794  SER795  GLU796  ALA797  LYS798  CYS799  TRP800  GLU811  SER814 

> <Gold.Protein.RotatedAtoms>
  150.6937  134.4029  159.5126 H   0  0  0  0  0  0  0  0  0  0  0  0  # atno 6907 bound_to 6896
  152.1800  134.8759  160.0536 H   0  0  0  0  0  0  0  0  0  0  0  0  # atno 6908 bound_to 6896
  151.9753  133.3704  159.4124 H   0  0  0  0  0  0  0  0  0  0  0  0  # atno 6909 bound_to 6896
  144.9931  139.4386  143.5329 H   0  0  0  0  0  0  0  0  0  0  0  0  # atno 7974 bound_to 7965
  155.4951  140.3472  155.4361 H   0  0  0  0  0  0  0  0  0  0  0  0  # atno 8008 bound_to 7997
  156.0951  140.1421  156.9569 H   0  0  0  0  0  0  0  0  0  0  0  0  # atno 8009 bound_to 7997
  154.4659  140.0918  156.6995 H   0  0  0  0  0  0  0  0  0  0  0  0  # atno 8010 bound_to 7997
  139.6915  144.7107  151.1340 H   0  0  0  0  0  0  0  0  0  0  0  0  # atno 10167 bound_to 10162
  156.2377  130.7076  151.0924 H   0  0  0  0  0  0  0  0  0  0  0  0  # atno 10718 bound_to 10713
  154.8633  135.4218  154.2391 H   0  0  0  0  0  0  0  0  0  0  0  0  # atno 10763 bound_to 10752
  153.3360  135.6991  153.6912 H   0  0  0  0  0  0  0  0  0  0  0  0  # atno 10764 bound_to 10752
  153.5910  135.3555  155.2884 H   0  0  0  0  0  0  0  0  0  0  0  0  # atno 10765 bound_to 10752
  141.0470  133.9747  157.2901 H   0  0  0  0  0  0  0  0  0  0  0  0  # atno 11005 bound_to 11000
  146.3436  139.9275  142.8758 LP  0  0  0  0  0  0  0  0  0  0  0  0  # atno 17320 bound_to 7965
  145.2257  140.9953  143.4020 LP  0  0  0  0  0  0  0  0  0  0  0  0  # atno 17321 bound_to 7965
  140.7684  143.5552  150.9160 LP  0  0  0  0  0  0  0  0  0  0  0  0  # atno 17342 bound_to 10162
  139.9230  143.6584  152.3093 LP  0  0  0  0  0  0  0  0  0  0  0  0  # atno 17343 bound_to 10162
  157.7161  131.0708  150.6319 LP  0  0  0  0  0  0  0  0  0  0  0  0  # atno 17370 bound_to 10713
  156.6391  130.4453  149.5759 LP  0  0  0  0  0  0  0  0  0  0  0  0  # atno 17371 bound_to 10713
  139.9320  135.0199  156.8431 LP  0  0  0  0  0  0  0  0  0  0  0  0  # atno 17394 bound_to 11000
  140.6128  134.0067  155.7584 LP  0  0  0  0  0  0  0  0  0  0  0  0  # atno 17395 bound_to 11000

$$$$
