#       Name:                AV-unprocessed.smi:1483
#       Creating user name   scv26
#       Creation time:       Fri Mar 27 06:08:46 2020


#       File generated by GOLD software.
#

@<TRIPOS>MOLECULE
AV-unprocessed.smi:1483
    52    53     1
SMALL
NO_CHARGES


@<TRIPOS>ATOM
      1 ****        -4.2589   2.2080   4.9306 C.3            1 S1                 0.0000
      2 ****        -3.8196   2.2205   3.4818 C.ar           1 S1                 0.0000
      3 ****        -3.6547   1.0346   2.7344 C.ar           1 S1                 0.0000
      4 ****        -3.2456   1.1206   1.3874 C.ar           1 S1                 0.0000
      5 ****        -3.0098   2.3898   0.8137 C.ar           1 S1                 0.0000
      6 ****        -2.5675   2.5164  -0.6333 C.3            1 S1                 0.0000
      7 ****        -1.0515   2.6974  -0.7089 C.2            1 S1                 0.0000
      8 ****        -0.5711   3.8300  -0.7149 O.2            1 S1                 0.0000
      9 ****        -0.3175   1.5742  -0.7536 N.am           1 S1                 0.0000
     10 ****         1.1433   1.5039  -0.7982 C.3            1 S1                 0.0000
     11 ****         1.6218   0.8650  -2.1133 C.3            1 S1                 0.0000
     12 ****         1.3178  -0.6430  -2.1701 C.3            1 S1                 0.0000
     13 ****         1.8936  -1.3531  -0.9971 N.4            1 S1                 1.0000
     14 ****         1.7405  -2.8295  -1.0711 C.3            1 S1                 0.0000
     15 ****         2.7541  -3.4958  -2.0266 C.3            1 S1                 0.0000
     16 ****         2.4643  -4.9987  -2.1575 C.3            1 S1                 0.0000
     17 ****         4.2059  -3.2673  -1.5728 C.3            1 S1                 0.0000
     18 ****         1.3812  -0.7979   0.2822 C.3            1 S1                 0.0000
     19 ****         1.6846   0.7068   0.4009 C.3            1 S1                 0.0000
     20 ****        -3.1934   3.5416   1.6100 C.ar           1 S1                 0.0000
     21 ****        -3.5853   3.4168   2.8968 N.pl3          1 S1                 1.0000
     22 ****        -4.1447   1.2145   5.3653 H              1 S1                 0.0000
     23 ****        -5.3070   2.4979   5.0096 H              1 S1                 0.0000
     24 ****        -3.6628   2.9054   5.5202 H              1 S1                 0.0000
     25 ****        -3.8400   0.0705   3.1857 H              1 S1                 0.0000
     26 ****        -3.1142   0.2210   0.8040 H              1 S1                 0.0000
     27 ****        -2.8706   1.6353  -1.2010 H              1 S1                 0.0000
     28 ****        -3.0624   3.3726  -1.0939 H              1 S1                 0.0000
     29 ****        -0.8125   0.6943  -0.7473 H              1 S1                 0.0000
     30 ****         1.5598   2.5111  -0.7439 H              1 S1                 0.0000
     31 ****         1.1700   1.3721  -2.9668 H              1 S1                 0.0000
     32 ****         2.6983   1.0126  -2.2099 H              1 S1                 0.0000
     33 ****         0.2402  -0.8100  -2.2060 H              1 S1                 0.0000
     34 ****         1.7260  -1.0464  -3.0957 H              1 S1                 0.0000
     35 ****         1.8766  -3.2620  -0.0786 H              1 S1                 0.0000
     36 ****         0.7176  -3.0692  -1.3660 H              1 S1                 0.0000
     37 ****         2.6438  -3.0683  -3.0227 H              1 S1                 0.0000
     38 ****         2.5683  -5.5088  -1.1994 H              1 S1                 0.0000
     39 ****         3.1499  -5.4715  -2.8615 H              1 S1                 0.0000
     40 ****         1.4512  -5.1760  -2.5196 H              1 S1                 0.0000
     41 ****         4.3768  -3.6669  -0.5725 H              1 S1                 0.0000
     42 ****         4.4580  -2.2069  -1.5556 H              1 S1                 0.0000
     43 ****         4.9089  -3.7547  -2.2491 H              1 S1                 0.0000
     44 ****         0.3074  -0.9779   0.3554 H              1 S1                 0.0000
     45 ****         1.8460  -1.3179   1.1208 H              1 S1                 0.0000
     46 ****         2.7648   0.8466   0.4626 H              1 S1                 0.0000
     47 ****         1.2758   1.1000   1.3328 H              1 S1                 0.0000
     48 ****        -3.0354   4.5516   1.2601 H              1 S1                 0.0000
     49 ****         2.8876  -1.1725  -1.0015 H              1 S1                 0.0000
     50 ****        -3.7099   4.2636   3.4523 H              1 S1                 0.0000
     51 ****        -1.1719   4.6282  -0.6704 LP             1 S1                 0.0000
     52 ****         0.4202   3.9524  -0.7642 LP             1 S1                 0.0000
@<TRIPOS>BOND
    1    1    2 1     
    2    1   22 1     
    3    1   23 1     
    4    1   24 1     
    5    2   21 ar    
    6    2    3 ar    
    7    3    4 ar    
    8    3   25 1     
    9    4    5 ar    
   10    4   26 1     
   11    5    6 1     
   12    5   20 ar    
   13    6    7 1     
   14    6   27 1     
   15    6   28 1     
   16    7    8 2     
   17    7    9 am    
   18    9   10 1     
   19    9   29 1     
   20   10   19 1     
   21   10   11 1     
   22   10   30 1     
   23   11   12 1     
   24   11   31 1     
   25   11   32 1     
   26   12   13 1     
   27   12   33 1     
   28   12   34 1     
   29   13   14 1     
   30   13   18 1     
   31   13   49 1     
   32   14   15 1     
   33   14   35 1     
   34   14   36 1     
   35   15   16 1     
   36   15   17 1     
   37   15   37 1     
   38   16   38 1     
   39   16   39 1     
   40   16   40 1     
   41   17   41 1     
   42   17   42 1     
   43   17   43 1     
   44   18   19 1     
   45   18   44 1     
   46   18   45 1     
   47   19   46 1     
   48   19   47 1     
   49   20   21 ar    
   50   20   48 1     
   51   21   50 1     
   52    8   51 1     
   53    8   52 1     
@<TRIPOS>SUBSTRUCTURE
      1 S1             1
@<TRIPOS>SET
LONE_PAIRS      STATIC     ATOMS    <user>   **** ""
2 51 52
DONOR_HYDROGENS      STATIC     ATOMS    <user>   **** ""
3 29 49 50
ATOM$BLUE        STATIC     ATOMS    COLORGROUP SYSTEM
2 51 52
ATOM$RED        STATIC     ATOMS    COLORGROUP SYSTEM
3 29 49 50
