AV-unprocessed.smi:1075|AV-procd|sdf|4695|dock6
  -GOLD-   22720 3213D 1   1.00000     0.00000
 Structure written by MMmdl.
 50 51  0  0  0  0  0  0  0  0  1 V2000
  146.6561  139.1174  157.1589 C   0  0  0  0  0  0  0  0  0  0  0  0
  147.8800  138.6081  156.4526 C   0  0  0  0  0  0  0  0  0  0  0  0
  148.1287  137.3099  156.4475 N   0  0  0  0  0  0  0  0  0  0  0  0
  149.2756  137.1827  155.7528 N   0  0  0  0  0  0  0  0  0  0  0  0
  149.8419  135.8623  155.5567 C   0  0  0  0  0  0  0  0  0  0  0  0
  149.7563  138.4037  155.3202 C   0  0  0  0  0  0  0  0  0  0  0  0
  151.0244  138.5158  154.5336 C   0  0  0  0  0  0  0  0  0  0  0  0
  148.8710  139.3592  155.7533 C   0  0  0  0  0  0  0  0  0  0  0  0
  148.8995  140.8642  155.5721 C   0  0  2  0  0  0  0  0  0  0  0  0
  148.6885  141.2661  154.1000 C   0  0  0  0  0  0  0  0  0  0  0  0
  150.1901  141.4376  156.1815 C   0  0  0  0  0  0  0  0  0  0  0  0
  151.2927  141.0922  155.7564 O   0  0  0  0  0  0  0  0  0  0  0  0
  150.0207  142.3142  157.1889 N   0  0  0  0  0  0  0  0  0  0  0  0
  151.0379  142.9758  158.0146 C   0  0  1  0  0  0  0  0  0  0  0  0
  151.9475  143.8509  157.1205 C   0  0  0  0  0  0  0  0  0  0  0  0
  150.2539  143.8598  159.0174 C   0  0  0  0  0  0  0  0  0  0  0  0
  151.1205  144.4377  160.1500 C   0  0  0  0  0  0  0  0  0  0  0  0
  151.8691  143.3315  160.9108 C   0  0  2  0  0  0  0  0  0  0  0  0
  152.7306  143.9090  162.0427 C   0  0  0  0  0  0  0  0  0  0  0  0
  152.7100  142.4977  159.9308 C   0  0  0  0  0  0  0  0  0  0  0  0
  151.8514  141.9087  158.7980 C   0  0  0  0  0  0  0  0  0  0  0  0
  146.9236  139.8471  157.9233 H   0  0  0  0  0  0  0  0  0  0  0  0
  146.1058  138.3133  157.6490 H   0  0  0  0  0  0  0  0  0  0  0  0
  145.9771  139.6034  156.4582 H   0  0  0  0  0  0  0  0  0  0  0  0
  150.7589  135.7683  156.1385 H   0  0  0  0  0  0  0  0  0  0  0  0
  150.0707  135.7131  154.5014 H   0  0  0  0  0  0  0  0  0  0  0  0
  149.1398  135.0908  155.8760 H   0  0  0  0  0  0  0  0  0  0  0  0
  151.4294  139.5262  154.5690 H   0  0  0  0  0  0  0  0  0  0  0  0
  150.8521  138.2593  153.4883 H   0  0  0  0  0  0  0  0  0  0  0  0
  151.7907  137.8463  154.9244 H   0  0  0  0  0  0  0  0  0  0  0  0
  148.0833  141.3187  156.1347 H   0  0  0  0  0  0  0  0  0  0  0  0
  149.4711  140.8725  153.4512 H   0  0  0  0  0  0  0  0  0  0  0  0
  148.6756  142.3503  153.9827 H   0  0  0  0  0  0  0  0  0  0  0  0
  147.7346  140.8889  153.7306 H   0  0  0  0  0  0  0  0  0  0  0  0
  149.0645  142.5198  157.4403 H   0  0  0  0  0  0  0  0  0  0  0  0
  152.6624  144.4275  157.7062 H   0  0  0  0  0  0  0  0  0  0  0  0
  151.3610  144.5608  156.5365 H   0  0  0  0  0  0  0  0  0  0  0  0
  152.5285  143.2519  156.4195 H   0  0  0  0  0  0  0  0  0  0  0  0
  149.7523  144.6727  158.4907 H   0  0  0  0  0  0  0  0  0  0  0  0
  149.4589  143.2677  159.4746 H   0  0  0  0  0  0  0  0  0  0  0  0
  151.8312  145.1590  159.7460 H   0  0  0  0  0  0  0  0  0  0  0  0
  150.4855  144.9946  160.8399 H   0  0  0  0  0  0  0  0  0  0  0  0
  151.1275  142.6727  161.3651 H   0  0  0  0  0  0  0  0  0  0  0  0
  153.4998  144.5775  161.6546 H   0  0  0  0  0  0  0  0  0  0  0  0
  153.2290  143.1157  162.6004 H   0  0  0  0  0  0  0  0  0  0  0  0
  152.1226  144.4756  162.7484 H   0  0  0  0  0  0  0  0  0  0  0  0
  153.5059  143.1119  159.5088 H   0  0  0  0  0  0  0  0  0  0  0  0
  153.2052  141.6866  160.4658 H   0  0  0  0  0  0  0  0  0  0  0  0
  151.1649  141.1808  159.2339 H   0  0  0  0  0  0  0  0  0  0  0  0
  152.4964  141.3441  158.1245 H   0  0  0  0  0  0  0  0  0  0  0  0
  1  2  1  0  0  0  0
  1 22  1  0  0  0  0
  1 23  1  0  0  0  0
  1 24  1  0  0  0  0
  2  8  1  0  0  0  0
  2  3  2  0  0  0  0
  3  4  1  0  0  0  0
  4  5  1  0  0  0  0
  4  6  1  0  0  0  0
  5 25  1  0  0  0  0
  5 26  1  0  0  0  0
  5 27  1  0  0  0  0
  6  7  1  0  0  0  0
  6  8  2  0  0  0  0
  7 28  1  0  0  0  0
  7 29  1  0  0  0  0
  7 30  1  0  0  0  0
  8  9  1  0  0  0  0
  9 10  1  0  0  0  0
  9 11  1  0  0  0  0
  9 31  1  0  0  0  0
 10 32  1  0  0  0  0
 10 33  1  0  0  0  0
 10 34  1  0  0  0  0
 11 12  2  0  0  0  0
 11 13  1  0  0  0  0
 13 14  1  0  0  0  0
 13 35  1  0  0  0  0
 14 21  1  0  0  0  0
 14 15  1  0  0  0  0
 14 16  1  0  0  0  0
 15 36  1  0  0  0  0
 15 37  1  0  0  0  0
 15 38  1  0  0  0  0
 16 17  1  0  0  0  0
 16 39  1  0  0  0  0
 16 40  1  0  0  0  0
 17 18  1  0  0  0  0
 17 41  1  0  0  0  0
 17 42  1  0  0  0  0
 18 19  1  0  0  0  0
 18 20  1  0  0  0  0
 18 43  1  0  0  0  0
 19 44  1  0  0  0  0
 19 45  1  0  0  0  0
 19 46  1  0  0  0  0
 20 21  1  0  0  0  0
 20 47  1  0  0  0  0
 20 48  1  0  0  0  0
 21 49  1  0  0  0  0
 21 50  1  0  0  0  0
M  END
> <s_m_source_file>
AV-unprocessed.smi

> <i_m_source_file_index>
1075

> <i_lp_mmshare_version>
43012

> <i_f3d_flags>
0

> <s_epik_input>
W0NIM11jMW5uKFtDSDNdKWMoW0NIM10pYzFbQ0BIXShbQ0gzXSlDKD1PKVtOSF1bQ0BAXTIoW0NIM10pW0NIMl1bQ0gyXVtDQEBIXShbQ0gzXSlbQ0gyXVtDSDJdMg==

> <s_epik_cmdline>
J2VwaWtfcHl0aG9uJywgJy1waCcsICc3LjAnLCAnLXRuJywgJzgnLCAnLW1hJywgJzIwMCcsICctbWV0YWxfYmluZGluZycsICctaW1hZScsICc8aW5maWxlLm1hZT4nLCAnLW9tYWUnLCAnPG91dGZpbGUubWFlPic=

> <r_lp_tautomer_probability>
1

> <r_epik_Ionization_Penalty>
0.00502928

> <r_epik_Ionization_Penalty_Charging>
0

> <r_epik_Ionization_Penalty_Neutral>
0.00502928

> <r_epik_State_Penalty>
0.0036576

> <r_epik_Charging_Adjusted_Penalty>
0.0036576

> <i_epik_Tot_Q>
0

> <i_epik_Tot_abs_Q>
0

> <r_epik_Metal_State_Penalty>
-0

> <b_epik_Metal_Only>
0

> <s_lp_Force_Field>
OPLS_2005

> <r_lp_Energy>
7.43589

> <b_lp_Chiralities_Consistent>
1

> <s_lp_Variant>
AV-unprocessed.smi:1075-3

> <Gold.Version>
5.8.1

> <Gold.Id.Protein>
6NUR|6NUR_protein|mol2

> <Gold.PLP.Fitness>
35.9168

> <Gold.PLP.PLP>
-35.0924

> <Gold.PLP.part.hbond>
-1.8882

> <Gold.PLP.part.metal>
0.0000

> <Gold.PLP.part.buried>
-3.7194

> <Gold.PLP.part.nonpolar>
-28.7003

> <Gold.PLP.part.repulsive>
0.0741

> <Gold.PLP.ligand.clash>
0.0000

> <Gold.PLP.ligand.torsion>
0.0812

> <Gold.PLP.Chemscore.Hbond>
0.3006

> <Gold.PLP.Chemscore.CHOScore>
0.0000

> <Gold.PLP.Chemscore.Metal>
0.0000

> <Gold.Chemscore.Hbonds>
donor molecule, donor type, donor heavy atom, donor atom, acceptor molecule, acceptor atom, score
      P1  H  7989  7998       L1    12  0.23

> <Gold.PLP.Chemscore.Internal.Correction>
0.0851

> <Gold.Rescore>
     Score         DG    S(hbond)    S(metal)    S(lipo)     H(rot)  DE(clash)    DE(int)     intcor
     15.02     -16.56       0.22        0.00     115.30       1.23       0.41       1.13       ----

> <Gold.Chemscore.Fitness>
15.0153

> <Gold.Chemscore.DG>
-16.5578

> <Gold.Chemscore.ZeroCoef>
-5.4800

> <Gold.Chemscore.Hbond>
0.2220

> <Gold.Chemscore.Metal>
0.0000

> <Gold.Chemscore.Lipo>
115.3039

> <Gold.Chemscore.Internal_Hbond>
0.0000

> <Gold.Chemscore.DEClash>
0.4123

> <Gold.Chemscore.DEInternal>
1.1302

> <Gold.Chemscore.Rot>
1.2321

> <Gold.Chemscore.Internal.Correction>
   9.000000E+99

> <Gold.Chemscore.Hbonds>
donor molecule, donor type, donor heavy atom, donor atom, acceptor molecule, acceptor atom, score
      P1  H  7989  7998       L1    12  0.22

> <Gold.Chemscore.Hbond.Weighted>
-0.7413

> <Gold.Chemscore.Metal.Weighted>
-0.0000

> <Gold.Chemscore.Lipo.Weighted>
-13.4906

> <Gold.Chemscore.Internal_Hbond.Weighted>
0.0000

> <Gold.Chemscore.DEClash.Weighted>
0.4123

> <Gold.Chemscore.DEInternal.Weighted>
1.1302

> <Gold.Chemscore.Rot.Weighted>
3.1541

> <Gold.Chemscore.Internal.Correction.Weighted>
   9.000000E+99

> <Gold.Protein.RotatedTorsions>
[ 6907 6896 6895 6894 ] final  -12.19 input  -60.11 | X-H torsion
[ 7974 7965 7964 7962 ] final   40.38 input  175.53 | X-H torsion
[ 8008 7997 7996 7995 ] final  -79.66 input   59.86 | X-H torsion
[ 10167 10162 10161 10158 ] final  -62.17 input  -65.29 | X-H torsion
[ 10718 10713 10712 10709 ] final   -0.62 input   66.30 | X-H torsion
[ 10763 10752 10751 10750 ] final  -25.30 input  -60.55 | X-H torsion
[ 11005 11000 10999 10996 ] final   84.57 input  -57.11 | X-H torsion

> <Gold.Protein.ActiveResidues>
 VAL166  LYS551  ARG553  GLY616  TRP617  ASP618  TYR619  PRO620  LYS621  CYS622 
 ASP623  PHE694  ASN695  SER759  ASP760  ASP761  ALA762  ILE779  LEU786  VAL792 
 PHE793  MET794  SER795  GLU796  ALA797  LYS798  CYS799  TRP800  GLU811  SER814 

> <Gold.Protein.RotatedAtoms>
  151.3745  135.0928  159.9475 H   0  0  0  0  0  0  0  0  0  0  0  0  # atno 6907 bound_to 6896
  152.5126  133.9133  159.7509 H   0  0  0  0  0  0  0  0  0  0  0  0  # atno 6908 bound_to 6896
  150.9553  133.6449  159.2793 H   0  0  0  0  0  0  0  0  0  0  0  0  # atno 6909 bound_to 6896
  146.0909  139.5539  142.9476 H   0  0  0  0  0  0  0  0  0  0  0  0  # atno 7974 bound_to 7965
  154.5806  140.0675  156.9099 H   0  0  0  0  0  0  0  0  0  0  0  0  # atno 8008 bound_to 7997
  155.2469  140.3349  155.4268 H   0  0  0  0  0  0  0  0  0  0  0  0  # atno 8009 bound_to 7997
  156.2186  140.1789  156.7514 H   0  0  0  0  0  0  0  0  0  0  0  0  # atno 8010 bound_to 7997
  140.5957  143.2350  151.6042 H   0  0  0  0  0  0  0  0  0  0  0  0  # atno 10167 bound_to 10162
  156.8177  130.5446  149.5701 H   0  0  0  0  0  0  0  0  0  0  0  0  # atno 10718 bound_to 10713
  153.6976  135.6958  153.5072 H   0  0  0  0  0  0  0  0  0  0  0  0  # atno 10763 bound_to 10752
  153.2367  135.4319  155.0653 H   0  0  0  0  0  0  0  0  0  0  0  0  # atno 10764 bound_to 10752
  154.8354  135.3497  154.6516 H   0  0  0  0  0  0  0  0  0  0  0  0  # atno 10765 bound_to 10752
  139.8996  134.8225  156.2463 H   0  0  0  0  0  0  0  0  0  0  0  0  # atno 11005 bound_to 11000
  145.6040  141.0350  143.2002 LP  0  0  0  0  0  0  0  0  0  0  0  0  # atno 17320 bound_to 7965
  144.7359  139.7586  143.7329 LP  0  0  0  0  0  0  0  0  0  0  0  0  # atno 17321 bound_to 7965
  139.5256  144.3069  152.1026 LP  0  0  0  0  0  0  0  0  0  0  0  0  # atno 17342 bound_to 10162
  140.2240  144.4437  150.6329 LP  0  0  0  0  0  0  0  0  0  0  0  0  # atno 17343 bound_to 10162
  156.1007  130.5967  150.9889 LP  0  0  0  0  0  0  0  0  0  0  0  0  # atno 17370 bound_to 10713
  157.6473  131.0902  150.8126 LP  0  0  0  0  0  0  0  0  0  0  0  0  # atno 17371 bound_to 10713
  141.0253  133.7019  156.1337 LP  0  0  0  0  0  0  0  0  0  0  0  0  # atno 17394 bound_to 11000
  140.7175  134.4394  157.5577 LP  0  0  0  0  0  0  0  0  0  0  0  0  # atno 17395 bound_to 11000

$$$$
