AV-unprocessed.smi:3074|AV-procd|sdf|11721|dock6
  -GOLD-   2272017123D 1   1.00000     0.00000
 Structure written by MMmdl.
 19 20  0  0  0  0  0  0  0  0  2 V2000
  153.1940  142.5336  162.3125 C   0  0  0  0  0  0  0  0  0  0  0  0
  152.4518  143.6059  161.8714 C   0  0  0  0  0  0  0  0  0  0  0  0
  152.5308  143.5968  160.4850 N   0  0  0  0  0  0  0  0  0  0  0  0
  151.9561  144.5615  159.5965 C   0  0  0  0  0  0  0  0  0  0  0  0
  150.4412  144.6697  159.4292 C   0  0  0  0  0  0  0  0  0  0  0  0
  150.6813  145.0260  158.0365 N   0  3  0  0  0  0  0  0  0  0  0  0
  151.9693  144.3446  158.0840 C   0  0  0  0  0  0  0  0  0  0  0  0
  153.3408  142.5747  160.1766 C   0  0  0  0  0  0  0  0  0  0  0  0
  153.7638  141.8782  161.2233 N   0  0  0  0  0  0  0  0  0  0  0  0
  153.3733  142.1955  163.3226 H   0  0  0  0  0  0  0  0  0  0  0  0
  151.8868  144.3481  162.4161 H   0  0  0  0  0  0  0  0  0  0  0  0
  152.3930  145.5278  159.8587 H   0  0  0  0  0  0  0  0  0  0  0  0
  149.9205  143.7147  159.5247 H   0  0  0  0  0  0  0  0  0  0  0  0
  149.9675  145.4574  160.0157 H   0  0  0  0  0  0  0  0  0  0  0  0
  150.0229  144.6180  157.3879 H   0  0  0  0  0  0  0  0  0  0  0  0
  152.7666  144.8627  157.5505 H   0  0  0  0  0  0  0  0  0  0  0  0
  151.8900  143.2959  157.7906 H   0  0  0  0  0  0  0  0  0  0  0  0
  153.6257  142.3333  159.1627 H   0  0  0  0  0  0  0  0  0  0  0  0
  150.7944  146.0236  157.9251 H   0  0  0  0  0  0  0  0  0  0  0  0
  1  9  1  0  0  0  0
  1  2  2  0  0  0  0
  1 10  1  0  0  0  0
  2  3  1  0  0  0  0
  2 11  1  0  0  0  0
  3  4  1  0  0  0  0
  3  8  1  0  0  0  0
  4  7  1  0  0  0  0
  4  5  1  0  0  0  0
  4 12  1  0  0  0  0
  5  6  1  0  0  0  0
  5 13  1  0  0  0  0
  5 14  1  0  0  0  0
  6  7  1  0  0  0  0
  6 15  1  0  0  0  0
  6 19  1  0  0  0  0
  7 16  1  0  0  0  0
  7 17  1  0  0  0  0
  8  9  2  0  0  0  0
  8 18  1  0  0  0  0
M  CHG  1   6   1
M  END
> <s_m_source_file>
AV-unprocessed.smi

> <i_m_source_file_index>
3074

> <i_lp_mmshare_version>
43012

> <i_f3d_flags>
0

> <s_epik_input>
W2NIXTFuW2NIXVtjSF1uMVtDSF0yW0NIMl1bTkhdW0NIMl0y

> <s_epik_cmdline>
J2VwaWtfcHl0aG9uJywgJy1waCcsICc3LjAnLCAnLXRuJywgJzgnLCAnLW1hJywgJzIwMCcsICctbWV0YWxfYmluZGluZycsICctaW1hZScsICc8aW5maWxlLm1hZT4nLCAnLW9tYWUnLCAnPG91dGZpbGUubWFlPic=

> <r_lp_tautomer_probability>
1

> <r_epik_Ionization_Penalty>
0.0670812

> <r_epik_Ionization_Penalty_Charging>
0.0670812

> <r_epik_Ionization_Penalty_Neutral>
0

> <r_epik_State_Penalty>
0.102677

> <r_epik_Charging_Adjusted_Penalty>
0.169758

> <i_epik_Tot_Q>
1

> <i_epik_Tot_abs_Q>
1

> <r_epik_Metal_State_Penalty>
0.000102988

> <b_epik_Metal_Only>
0

> <s_lp_Force_Field>
OPLS_2005

> <r_lp_Energy>
18.1517

> <b_lp_Chiralities_Consistent>
1

> <s_lp_Variant>
AV-unprocessed.smi:3074-1

> <Gold.Version>
5.8.1

> <Gold.Id.Protein>
6NUR|6NUR_protein|mol2

> <Gold.PLP.Fitness>
37.7030

> <Gold.PLP.PLP>
-31.7679

> <Gold.PLP.part.hbond>
-1.9596

> <Gold.PLP.part.metal>
0.0000

> <Gold.PLP.part.buried>
-3.3153

> <Gold.PLP.part.nonpolar>
-26.0739

> <Gold.PLP.part.repulsive>
0.1660

> <Gold.PLP.ligand.clash>
0.0000

> <Gold.PLP.ligand.torsion>
0.1490

> <Gold.PLP.Chemscore.Hbond>
1.9840

> <Gold.PLP.Chemscore.CHOScore>
0.0000

> <Gold.PLP.Chemscore.Metal>
0.0000

> <Gold.Chemscore.Hbonds>
donor molecule, donor type, donor heavy atom, donor atom, acceptor molecule, acceptor atom, score
      L1  H     6    15       P1  8028  1.87

> <Gold.PLP.Chemscore.Internal.Correction>
0.2811

> <Gold.Rescore>
     Score         DG    S(hbond)    S(metal)    S(lipo)     H(rot)  DE(clash)    DE(int)     intcor
     12.29     -12.69       0.80        0.00      60.63       1.00       0.23       0.16       ----

> <Gold.Chemscore.Fitness>
12.2931

> <Gold.Chemscore.DG>
-12.6876

> <Gold.Chemscore.ZeroCoef>
-5.4800

> <Gold.Chemscore.Hbond>
0.8005

> <Gold.Chemscore.Metal>
0.0000

> <Gold.Chemscore.Lipo>
60.6302

> <Gold.Chemscore.Internal_Hbond>
0.0000

> <Gold.Chemscore.DEClash>
0.2339

> <Gold.Chemscore.DEInternal>
0.1606

> <Gold.Chemscore.Rot>
1.0000

> <Gold.Chemscore.Internal.Correction>
   9.000000E+99

> <Gold.Chemscore.Hbonds>
donor molecule, donor type, donor heavy atom, donor atom, acceptor molecule, acceptor atom, score
      L1  H     6    15       P1  8028  0.19

> <Gold.Chemscore.Hbond.Weighted>
-2.6738

> <Gold.Chemscore.Metal.Weighted>
-0.0000

> <Gold.Chemscore.Lipo.Weighted>
-7.0937

> <Gold.Chemscore.Internal_Hbond.Weighted>
0.0000

> <Gold.Chemscore.DEClash.Weighted>
0.2339

> <Gold.Chemscore.DEInternal.Weighted>
0.1606

> <Gold.Chemscore.Rot.Weighted>
2.5600

> <Gold.Chemscore.Internal.Correction.Weighted>
   9.000000E+99

> <Gold.Protein.RotatedTorsions>
[ 6907 6896 6895 6894 ] final -174.97 input  -60.11 | X-H torsion
[ 7974 7965 7964 7962 ] final  -39.98 input  175.53 | X-H torsion
[ 8008 7997 7996 7995 ] final   13.18 input   59.86 | X-H torsion
[ 10167 10162 10161 10158 ] final  -56.92 input  -65.29 | X-H torsion
[ 10718 10713 10712 10709 ] final  148.46 input   66.30 | X-H torsion
[ 10763 10752 10751 10750 ] final  -15.49 input  -60.55 | X-H torsion
[ 11005 11000 10999 10996 ] final  179.81 input  -57.11 | X-H torsion

> <Gold.Protein.ActiveResidues>
 VAL166  LYS551  ARG553  GLY616  TRP617  ASP618  TYR619  PRO620  LYS621  CYS622 
 ASP623  PHE694  ASN695  SER759  ASP760  ASP761  ALA762  ILE779  LEU786  VAL792 
 PHE793  MET794  SER795  GLU796  ALA797  LYS798  CYS799  TRP800  GLU811  SER814 

> <Gold.Protein.RotatedAtoms>
  151.5810  133.3378  159.3008 H   0  0  0  0  0  0  0  0  0  0  0  0  # atno 6907 bound_to 6896
  150.8313  134.7571  159.6867 H   0  0  0  0  0  0  0  0  0  0  0  0  # atno 6908 bound_to 6896
  152.4396  134.5623  159.9949 H   0  0  0  0  0  0  0  0  0  0  0  0  # atno 6909 bound_to 6896
  146.0347  140.6687  142.9116 H   0  0  0  0  0  0  0  0  0  0  0  0  # atno 7974 bound_to 7965
  154.8309  140.2899  155.5723 H   0  0  0  0  0  0  0  0  0  0  0  0  # atno 8008 bound_to 7997
  156.3005  140.2532  156.3165 H   0  0  0  0  0  0  0  0  0  0  0  0  # atno 8009 bound_to 7997
  154.9232  140.0385  157.1998 H   0  0  0  0  0  0  0  0  0  0  0  0  # atno 8010 bound_to 7997
  140.6289  143.2450  151.5292 H   0  0  0  0  0  0  0  0  0  0  0  0  # atno 10167 bound_to 10162
  157.3084  131.0883  151.1336 H   0  0  0  0  0  0  0  0  0  0  0  0  # atno 10718 bound_to 10713
  153.5441  135.7013  153.5622 H   0  0  0  0  0  0  0  0  0  0  0  0  # atno 10763 bound_to 10752
  153.3575  135.3978  155.1693 H   0  0  0  0  0  0  0  0  0  0  0  0  # atno 10764 bound_to 10752
  154.8670  135.3780  154.4947 H   0  0  0  0  0  0  0  0  0  0  0  0  # atno 10765 bound_to 10752
  140.4103  134.6698  157.4610 H   0  0  0  0  0  0  0  0  0  0  0  0  # atno 11005 bound_to 11000
  144.7046  140.3798  143.7128 LP  0  0  0  0  0  0  0  0  0  0  0  0  # atno 17320 bound_to 7965
  145.6984  139.1655  143.2607 LP  0  0  0  0  0  0  0  0  0  0  0  0  # atno 17321 bound_to 7965
  139.5505  144.2407  152.1522 LP  0  0  0  0  0  0  0  0  0  0  0  0  # atno 17342 bound_to 10162
  140.1645  144.4994  150.6613 LP  0  0  0  0  0  0  0  0  0  0  0  0  # atno 17343 bound_to 10162
  157.2668  130.6685  149.6000 LP  0  0  0  0  0  0  0  0  0  0  0  0  # atno 17370 bound_to 10713
  155.9676  130.4491  150.5647 LP  0  0  0  0  0  0  0  0  0  0  0  0  # atno 17371 bound_to 10713
  140.0272  134.6459  155.9156 LP  0  0  0  0  0  0  0  0  0  0  0  0  # atno 17394 bound_to 11000
  141.1823  133.6549  156.5073 LP  0  0  0  0  0  0  0  0  0  0  0  0  # atno 17395 bound_to 11000

$$$$
