#       Name:                AV-unprocessed.smi:534
#       Creating user name   scv26
#       Creation time:       Thu Mar 26 23:34:52 2020


#       File generated by GOLD software.
#

@<TRIPOS>MOLECULE
AV-unprocessed.smi:534
    49    50     1
SMALL
NO_CHARGES


@<TRIPOS>ATOM
      1 ****        -3.3401  -1.3333   4.6638 C.3            1 S1                 0.0000
      2 ****        -3.2521  -0.7496   3.3764 O.3            1 S1                 0.0000
      3 ****        -2.6127  -1.5988   2.4372 C.3            1 S1                 0.0000
      4 ****        -2.4875  -0.8595   1.0997 C.3            1 S1                 0.0000
      5 ****        -1.5157   0.2139   1.1774 N.pl3          1 S1                 0.0000
      6 ****        -0.1263   0.2080   1.1872 C.2            1 S1                 0.0000
      7 ****         0.6338   1.3029   1.2382 N.2            1 S1                 0.0000
      8 ****         1.9195   0.7810   1.1903 C.2            1 S1                 0.0000
      9 ****         1.8984  -0.5771   1.1077 C.2            1 S1                 0.0000
     10 ****         3.1111  -1.4176   1.0137 C.2            1 S1                 0.0000
     11 ****         3.0291  -2.6411   0.9228 O.2            1 S1                 0.0000
     12 ****         4.2597  -0.6697   1.0349 N.pl3          1 S1                -1.0000
     13 ****         4.3300   0.7046   1.1213 C.2            1 S1                 0.0000
     14 ****         5.4079   1.3009   1.1287 O.2            1 S1                 0.0000
     15 ****         3.1777   1.4427   1.2004 N.am           1 S1                 0.0000
     16 ****         3.2219   2.9051   1.2894 C.3            1 S1                 0.0000
     17 ****         0.5555  -0.9615   1.1153 N.pl3          1 S1                 0.0000
     18 ****         0.0001  -2.3095   1.0346 C.3            1 S1                 0.0000
     19 ****        -0.1400  -2.7840  -0.4191 C.3            1 S1                 0.0000
     20 ****        -1.0022  -1.9059  -1.1258 O.3            1 S1                 0.0000
     21 ****        -1.1381  -2.2555  -2.4910 C.3            1 S1                 0.0000
     22 ****        -3.8546  -0.6511   5.3402 H              1 S1                 0.0000
     23 ****        -2.3487  -1.5293   5.0744 H              1 S1                 0.0000
     24 ****        -3.9002  -2.2687   4.6369 H              1 S1                 0.0000
     25 ****        -1.6300  -1.9099   2.7967 H              1 S1                 0.0000
     26 ****        -3.2107  -2.5011   2.3025 H              1 S1                 0.0000
     27 ****        -2.1698  -1.5536   0.3212 H              1 S1                 0.0000
     28 ****        -3.4521  -0.4550   0.7927 H              1 S1                 0.0000
     29 ****        -1.9268   1.1120   1.3877 H              1 S1                 0.0000
     30 ****         3.8254   3.2207   2.1414 H              1 S1                 0.0000
     31 ****         2.2341   3.3483   1.4132 H              1 S1                 0.0000
     32 ****         3.6604   3.3275   0.3846 H              1 S1                 0.0000
     33 ****         0.6290  -2.9926   1.6039 H              1 S1                 0.0000
     34 ****        -0.9710  -2.3314   1.5294 H              1 S1                 0.0000
     35 ****         0.8399  -2.8125  -0.8982 H              1 S1                 0.0000
     36 ****        -0.5431  -3.7973  -0.4408 H              1 S1                 0.0000
     37 ****        -1.8130  -1.5548  -2.9822 H              1 S1                 0.0000
     38 ****        -1.5527  -3.2581  -2.6023 H              1 S1                 0.0000
     39 ****        -0.1772  -2.2135  -3.0056 H              1 S1                 0.0000
     40 ****        -2.7319   0.1017   3.4451 LP             1 S1                 0.0000
     41 ****        -4.1764  -0.5500   3.0509 LP             1 S1                 0.0000
     42 ****         0.3490   2.2598   1.2964 LP             1 S1                 0.0000
     43 ****         2.1319  -3.0826   0.9116 LP             1 S1                 0.0000
     44 ****         3.8596  -3.1946   0.8601 LP             1 S1                 0.0000
     45 ****         5.1261  -1.1663   0.9830 LP             1 S1                 0.0000
     46 ****         6.2639   0.7872   1.0711 LP             1 S1                 0.0000
     47 ****         5.4269   2.2987   1.1924 LP             1 S1                 0.0000
     48 ****        -0.6318  -0.9788  -1.0682 LP             1 S1                 0.0000
     49 ****        -1.9055  -1.9311  -0.6976 LP             1 S1                 0.0000
@<TRIPOS>BOND
    1    1    2 1     
    2    1   22 1     
    3    1   23 1     
    4    1   24 1     
    5    2    3 1     
    6    3    4 1     
    7    3   25 1     
    8    3   26 1     
    9    4    5 1     
   10    4   27 1     
   11    4   28 1     
   12    5    6 1     
   13    5   29 1     
   14    6   17 1     
   15    6    7 2     
   16    7    8 1     
   17    8   15 1     
   18    8    9 2     
   19    9   10 1     
   20    9   17 1     
   21   10   11 2     
   22   10   12 1     
   23   12   13 1     
   24   13   14 2     
   25   13   15 am    
   26   15   16 1     
   27   16   30 1     
   28   16   31 1     
   29   16   32 1     
   30   17   18 1     
   31   18   19 1     
   32   18   33 1     
   33   18   34 1     
   34   19   20 1     
   35   19   35 1     
   36   19   36 1     
   37   20   21 1     
   38   21   37 1     
   39   21   38 1     
   40   21   39 1     
   41    2   40 1     
   42    2   41 1     
   43    7   42 1     
   44   11   43 1     
   45   11   44 1     
   46   12   45 1     
   47   14   46 1     
   48   14   47 1     
   49   20   48 1     
   50   20   49 1     
@<TRIPOS>SUBSTRUCTURE
      1 S1             1
@<TRIPOS>SET
LONE_PAIRS      STATIC     ATOMS    <user>   **** ""
10 40 41 42 43 44 45 46 47 48 49
DONOR_HYDROGENS      STATIC     ATOMS    <user>   **** ""
1 29
ATOM$BLUE        STATIC     ATOMS    COLORGROUP SYSTEM
10 40 41 42 43 44 45 46 47 48 49
ATOM$RED        STATIC     ATOMS    COLORGROUP SYSTEM
1 29
