AV-unprocessed.smi:2528|AV-procd|sdf|9951|dock3
  -GOLD-   2272013593D 1   1.00000     0.00000
 Structure written by MMmdl.
 44 46  0  0  0  0  0  0  0  0  2 V2000
  144.7203  134.4658  158.3312 O   0  0  0  0  0  0  0  0  0  0  0  0
  144.3879  133.8776  157.3019 C   0  0  0  0  0  0  0  0  0  0  0  0
  144.7591  134.2714  156.0750 N   0  0  0  0  0  0  0  0  0  0  0  0
  145.6154  135.4172  155.7857 C   0  0  0  0  0  0  0  0  0  0  0  0
  145.8229  135.6020  154.2719 C   0  0  1  0  0  0  0  0  0  0  0  0
  146.3321  134.3129  153.6021 C   0  0  0  0  0  0  0  0  0  0  0  0
  146.4664  134.5059  152.1370 N   0  3  1  0  0  0  0  0  0  0  0  0
  147.0179  133.3253  151.4223 C   0  0  0  0  0  0  0  0  0  0  0  0
  145.9794  132.1977  151.2697 C   0  0  0  0  0  0  0  0  0  0  0  0
  144.6971  132.7150  150.6040 C   0  0  0  0  0  0  0  0  0  0  0  0
  144.1465  133.9251  151.3720 C   0  0  0  0  0  0  0  0  0  0  0  0
  145.2188  135.0278  151.5134 C   0  0  1  0  0  0  0  0  0  0  0  0
  144.7091  136.2576  152.2902 C   0  0  0  0  0  0  0  0  0  0  0  0
  144.5792  135.9499  153.6722 O   0  0  0  0  0  0  0  0  0  0  0  0
  143.6288  132.7691  157.2488 N   0  0  0  0  0  0  0  0  0  0  0  0
  143.0541  132.0471  158.3287 C   0  0  0  0  0  0  0  0  0  0  0  0
  142.5185  130.7849  157.9864 C   0  0  0  0  0  0  0  0  0  0  0  0
  141.9271  129.9890  158.9867 C   0  0  0  0  0  0  0  0  0  0  0  0
  141.8835  130.4781  160.3043 C   0  0  0  0  0  0  0  0  0  0  0  0
  142.4365  131.7464  160.5597 C   0  0  0  0  0  0  0  0  0  0  0  0
  143.0062  132.5098  159.6031 N   0  0  0  0  0  0  0  0  0  0  0  0
  144.4361  133.7330  155.2845 H   0  0  0  0  0  0  0  0  0  0  0  0
  145.1263  136.2997  156.1987 H   0  0  0  0  0  0  0  0  0  0  0  0
  146.5736  135.3287  156.3007 H   0  0  0  0  0  0  0  0  0  0  0  0
  146.5452  136.4051  154.1112 H   0  0  0  0  0  0  0  0  0  0  0  0
  147.3017  134.0379  154.0185 H   0  0  0  0  0  0  0  0  0  0  0  0
  145.6512  133.4894  153.8179 H   0  0  0  0  0  0  0  0  0  0  0  0
  147.3470  133.6488  150.4341 H   0  0  0  0  0  0  0  0  0  0  0  0
  147.9073  132.9594  151.9370 H   0  0  0  0  0  0  0  0  0  0  0  0
  146.4010  131.3858  150.6764 H   0  0  0  0  0  0  0  0  0  0  0  0
  145.7425  131.7692  152.2439 H   0  0  0  0  0  0  0  0  0  0  0  0
  144.9087  132.9997  149.5725 H   0  0  0  0  0  0  0  0  0  0  0  0
  143.9489  131.9231  150.5610 H   0  0  0  0  0  0  0  0  0  0  0  0
  143.2742  134.3197  150.8500 H   0  0  0  0  0  0  0  0  0  0  0  0
  143.7936  133.6083  152.3541 H   0  0  0  0  0  0  0  0  0  0  0  0
  145.4779  135.3611  150.5074 H   0  0  0  0  0  0  0  0  0  0  0  0
  145.3894  137.1015  152.1648 H   0  0  0  0  0  0  0  0  0  0  0  0
  143.7412  136.5786  151.9043 H   0  0  0  0  0  0  0  0  0  0  0  0
  143.4489  132.3907  156.3308 H   0  0  0  0  0  0  0  0  0  0  0  0
  142.5601  130.4243  156.9689 H   0  0  0  0  0  0  0  0  0  0  0  0
  141.5143  129.0206  158.7458 H   0  0  0  0  0  0  0  0  0  0  0  0
  141.4376  129.8973  161.0981 H   0  0  0  0  0  0  0  0  0  0  0  0
  142.4214  132.1591  161.5575 H   0  0  0  0  0  0  0  0  0  0  0  0
  147.1539  135.2383  152.0314 H   0  0  0  0  0  0  0  0  0  0  0  0
  1  2  2  0  0  0  0
  2  3  1  0  0  0  0
  2 15  1  0  0  0  0
  3  4  1  0  0  0  0
  3 22  1  0  0  0  0
  4  5  1  0  0  0  0
  4 23  1  0  0  0  0
  4 24  1  0  0  0  0
  5 14  1  0  0  0  0
  5  6  1  0  0  0  0
  5 25  1  0  0  0  0
  6  7  1  0  0  0  0
  6 26  1  0  0  0  0
  6 27  1  0  0  0  0
  7 12  1  0  0  0  0
  7  8  1  0  0  0  0
  7 44  1  0  0  0  0
  8  9  1  0  0  0  0
  8 28  1  0  0  0  0
  8 29  1  0  0  0  0
  9 10  1  0  0  0  0
  9 30  1  0  0  0  0
  9 31  1  0  0  0  0
 10 11  1  0  0  0  0
 10 32  1  0  0  0  0
 10 33  1  0  0  0  0
 11 12  1  0  0  0  0
 11 34  1  0  0  0  0
 11 35  1  0  0  0  0
 12 13  1  0  0  0  0
 12 36  1  0  0  0  0
 13 14  1  0  0  0  0
 13 37  1  0  0  0  0
 13 38  1  0  0  0  0
 15 16  1  0  0  0  0
 15 39  1  0  0  0  0
 16 21  1  0  0  0  0
 16 17  2  0  0  0  0
 17 18  1  0  0  0  0
 17 40  1  0  0  0  0
 18 19  2  0  0  0  0
 18 41  1  0  0  0  0
 19 20  1  0  0  0  0
 19 42  1  0  0  0  0
 20 21  2  0  0  0  0
 20 43  1  0  0  0  0
M  CHG  1   7   1
M  END
> <s_m_source_file>
AV-unprocessed.smi

> <i_m_source_file_index>
2528

> <i_lp_mmshare_version>
43012

> <i_f3d_flags>
0

> <s_epik_input>
bjFbY0hdW2NIXVtjSF1bY0hdYzFbTkhdQyg9TylbTkhdW0NIMl1bQ0BIXShbQ0gyXTIpT1tDSDJdW0NAQEhdKE4yMylbQ0gyXVtDSDJdW0NIMl1bQ0gyXTM=

> <s_epik_cmdline>
J2VwaWtfcHl0aG9uJywgJy1waCcsICc3LjAnLCAnLXRuJywgJzgnLCAnLW1hJywgJzIwMCcsICctbWV0YWxfYmluZGluZycsICctaW1hZScsICc8aW5maWxlLm1hZT4nLCAnLW9tYWUnLCAnPG91dGZpbGUubWFlPic=

> <r_epik_Ionization_Penalty>
0.0932337

> <r_epik_Ionization_Penalty_Charging>
0.0931942

> <r_epik_Ionization_Penalty_Neutral>
3.9565e-05

> <r_epik_State_Penalty>
0.0834605

> <r_epik_Charging_Adjusted_Penalty>
0.176655

> <i_epik_Tot_Q>
1

> <i_epik_Tot_abs_Q>
1

> <r_epik_Metal_State_Penalty>
0.0834607

> <b_epik_Metal_Only>
0

> <s_lp_Force_Field>
OPLS_2005

> <r_lp_Energy>
26.7775

> <b_lp_Chiralities_Consistent>
1

> <s_lp_Variant>
AV-unprocessed.smi:2528-4

> <Gold.Version>
5.8.1

> <Gold.Id.Protein>
6NUR|6NUR_protein|mol2

> <Gold.PLP.Fitness>
38.5976

> <Gold.PLP.PLP>
-29.6979

> <Gold.PLP.part.hbond>
-2.0000

> <Gold.PLP.part.metal>
0.0000

> <Gold.PLP.part.buried>
-5.5027

> <Gold.PLP.part.nonpolar>
-22.3627

> <Gold.PLP.part.repulsive>
0.0779

> <Gold.PLP.ligand.clash>
0.0000

> <Gold.PLP.ligand.torsion>
0.0507

> <Gold.PLP.Chemscore.Hbond>
3.0000

> <Gold.PLP.Chemscore.CHOScore>
0.0000

> <Gold.PLP.Chemscore.Metal>
0.0000

> <Gold.Chemscore.Hbonds>
donor molecule, donor type, donor heavy atom, donor atom, acceptor molecule, acceptor atom, score
      L1  H     7    44       P1  7948  2.00
      L1  H    15    39       P1 10957  1.00

> <Gold.PLP.Chemscore.Internal.Correction>
0.0012

> <Gold.Rescore>
     Score         DG    S(hbond)    S(metal)    S(lipo)     H(rot)  DE(clash)    DE(int)     intcor
     14.98     -16.32       1.98        0.00      64.16       1.29       0.00       1.34       ----

> <Gold.Chemscore.Fitness>
14.9804

> <Gold.Chemscore.DG>
-16.3209

> <Gold.Chemscore.ZeroCoef>
-5.4800

> <Gold.Chemscore.Hbond>
1.9849

> <Gold.Chemscore.Metal>
0.0000

> <Gold.Chemscore.Lipo>
64.1551

> <Gold.Chemscore.Internal_Hbond>
0.0000

> <Gold.Chemscore.DEClash>
0.0000

> <Gold.Chemscore.DEInternal>
1.3405

> <Gold.Chemscore.Rot>
1.2870

> <Gold.Chemscore.Internal.Correction>
   9.000000E+99

> <Gold.Chemscore.Hbonds>
donor molecule, donor type, donor heavy atom, donor atom, acceptor molecule, acceptor atom, score
      L1  H     7    44       P1  7948  0.93
      L1  H    15    39       P1 10957  1.00

> <Gold.Chemscore.Hbond.Weighted>
-6.6296

> <Gold.Chemscore.Metal.Weighted>
-0.0000

> <Gold.Chemscore.Lipo.Weighted>
-7.5061

> <Gold.Chemscore.Internal_Hbond.Weighted>
0.0000

> <Gold.Chemscore.DEClash.Weighted>
0.0000

> <Gold.Chemscore.DEInternal.Weighted>
1.3405

> <Gold.Chemscore.Rot.Weighted>
3.2948

> <Gold.Chemscore.Internal.Correction.Weighted>
   9.000000E+99

> <Gold.Protein.RotatedTorsions>
[ 6907 6896 6895 6894 ] final  -78.73 input  -60.11 | X-H torsion
[ 7974 7965 7964 7962 ] final -114.53 input  175.53 | X-H torsion
[ 8008 7997 7996 7995 ] final   20.61 input   59.86 | X-H torsion
[ 10167 10162 10161 10158 ] final   29.02 input  -65.29 | X-H torsion
[ 10718 10713 10712 10709 ] final -146.57 input   66.30 | X-H torsion
[ 10763 10752 10751 10750 ] final  164.06 input  -60.55 | X-H torsion
[ 11005 11000 10999 10996 ] final   -0.70 input  -57.11 | X-H torsion

> <Gold.Protein.ActiveResidues>
 VAL166  LYS551  ARG553  GLY616  TRP617  ASP618  TYR619  PRO620  LYS621  CYS622 
 ASP623  PHE694  ASN695  SER759  ASP760  ASP761  ALA762  ILE779  LEU786  VAL792 
 PHE793  MET794  SER795  GLU796  ALA797  LYS798  CYS799  TRP800  GLU811  SER814 

> <Gold.Protein.RotatedAtoms>
  150.6966  134.4228  159.5212 H   0  0  0  0  0  0  0  0  0  0  0  0  # atno 6907 bound_to 6896
  152.1968  134.8621  160.0521 H   0  0  0  0  0  0  0  0  0  0  0  0  # atno 6908 bound_to 6896
  151.9556  133.3644  159.4053 H   0  0  0  0  0  0  0  0  0  0  0  0  # atno 6909 bound_to 6896
  145.1191  140.8658  143.3824 H   0  0  0  0  0  0  0  0  0  0  0  0  # atno 7974 bound_to 7965
  154.9382  140.3049  155.5134 H   0  0  0  0  0  0  0  0  0  0  0  0  # atno 8008 bound_to 7997
  156.2998  140.2341  156.4386 H   0  0  0  0  0  0  0  0  0  0  0  0  # atno 8009 bound_to 7997
  154.8171  140.0425  157.1373 H   0  0  0  0  0  0  0  0  0  0  0  0  # atno 8010 bound_to 7997
  140.4802  144.0628  150.6263 H   0  0  0  0  0  0  0  0  0  0  0  0  # atno 10167 bound_to 10162
  156.3965  130.7912  151.2119 H   0  0  0  0  0  0  0  0  0  0  0  0  # atno 10718 bound_to 10713
  154.3031  135.2758  155.2601 H   0  0  0  0  0  0  0  0  0  0  0  0  # atno 10763 bound_to 10752
  154.5029  135.5803  153.6548 H   0  0  0  0  0  0  0  0  0  0  0  0  # atno 10764 bound_to 10752
  152.9898  135.6162  154.3203 H   0  0  0  0  0  0  0  0  0  0  0  0  # atno 10765 bound_to 10752
  140.6391  133.9505  155.8316 H   0  0  0  0  0  0  0  0  0  0  0  0  # atno 11005 bound_to 11000
  145.0761  139.2995  143.5807 LP  0  0  0  0  0  0  0  0  0  0  0  0  # atno 17320 bound_to 7965
  146.3522  140.0251  142.8655 LP  0  0  0  0  0  0  0  0  0  0  0  0  # atno 17321 bound_to 7965
  140.3867  143.2774  152.0107 LP  0  0  0  0  0  0  0  0  0  0  0  0  # atno 17342 bound_to 10162
  139.4832  144.6110  151.7433 LP  0  0  0  0  0  0  0  0  0  0  0  0  # atno 17343 bound_to 10162
  157.7502  131.0299  150.4116 LP  0  0  0  0  0  0  0  0  0  0  0  0  # atno 17370 bound_to 10713
  156.4387  130.3987  149.6711 LP  0  0  0  0  0  0  0  0  0  0  0  0  # atno 17371 bound_to 10713
  141.0620  134.0333  157.3646 LP  0  0  0  0  0  0  0  0  0  0  0  0  # atno 17394 bound_to 11000
  139.9087  135.0185  156.7598 LP  0  0  0  0  0  0  0  0  0  0  0  0  # atno 17395 bound_to 11000

$$$$
