AV-unprocessed.smi:1640|AV-procd|sdf|6554|dock5
  -GOLD-   22720 7233D 1   1.00000     0.00000
 Structure written by MMmdl.
 47 48  0  0  0  0  0  0  0  0  1 V2000
  152.9773  142.9099  162.4170 C   0  0  0  0  0  0  0  0  0  0  0  0
  152.7903  143.3594  160.9583 C   0  0  0  0  0  0  0  0  0  0  0  0
  151.8377  144.5624  160.8864 C   0  0  0  0  0  0  0  0  0  0  0  0
  152.2942  142.2166  160.0500 C   0  0  0  0  0  0  0  0  0  0  0  0
  152.0365  142.6400  158.5959 C   0  0  0  0  0  0  0  0  0  0  0  0
  150.3610  142.1098  158.0492 S   0  0  0  0  0  0  0  0  0  0  0  0
  150.3215  140.6397  158.0188 O   0  0  0  0  0  0  0  0  0  0  0  0
  149.3488  142.8533  158.8141 O   0  0  0  0  0  0  0  0  0  0  0  0
  150.2989  142.6677  156.4211 N   0  0  0  0  0  0  0  0  0  0  0  0
  150.4885  141.6975  155.3441 C   0  0  0  0  0  0  0  0  0  0  0  0
  149.1717  141.1577  154.8070 C   0  0  0  0  0  0  0  0  0  0  0  0
  148.1928  142.0564  154.3324 C   0  0  0  0  0  0  0  0  0  0  0  0
  146.9732  141.5499  153.8478 C   0  0  0  0  0  0  0  0  0  0  0  0
  146.7778  140.1567  153.8600 C   0  0  0  0  0  0  0  0  0  0  0  0
  147.7031  139.2849  154.3115 N   0  0  0  0  0  0  0  0  0  0  0  0
  148.8806  139.7682  154.7776 C   0  0  0  0  0  0  0  0  0  0  0  0
  149.8348  138.8351  155.2186 N   0  0  0  0  0  0  0  0  0  0  0  0
  149.3510  137.4722  155.4069 C   0  0  0  0  0  0  0  0  0  0  0  0
  150.4544  136.6101  156.0428 C   0  0  0  0  0  0  0  0  0  0  0  0
  151.6227  136.6584  155.2285 O   0  0  0  0  0  0  0  0  0  0  0  0
  152.1350  137.9823  155.1024 C   0  0  0  0  0  0  0  0  0  0  0  0
  151.0752  138.8914  154.4562 C   0  0  0  0  0  0  0  0  0  0  0  0
  152.0474  142.5229  162.8348 H   0  0  0  0  0  0  0  0  0  0  0  0
  153.3017  143.7412  163.0435 H   0  0  0  0  0  0  0  0  0  0  0  0
  153.7331  142.1302  162.5048 H   0  0  0  0  0  0  0  0  0  0  0  0
  153.7592  143.6927  160.5844 H   0  0  0  0  0  0  0  0  0  0  0  0
  150.8405  144.3003  161.2416 H   0  0  0  0  0  0  0  0  0  0  0  0
  151.7411  144.9286  159.8640 H   0  0  0  0  0  0  0  0  0  0  0  0
  152.2010  145.3896  161.4967 H   0  0  0  0  0  0  0  0  0  0  0  0
  153.0070  141.3912  160.0706 H   0  0  0  0  0  0  0  0  0  0  0  0
  151.3639  141.8201  160.4592 H   0  0  0  0  0  0  0  0  0  0  0  0
  152.0994  143.7231  158.4903 H   0  0  0  0  0  0  0  0  0  0  0  0
  152.7636  142.1941  157.9179 H   0  0  0  0  0  0  0  0  0  0  0  0
  149.4978  143.2750  156.2502 H   0  0  0  0  0  0  0  0  0  0  0  0
  151.0659  142.1661  154.5466 H   0  0  0  0  0  0  0  0  0  0  0  0
  151.0896  140.8641  155.7093 H   0  0  0  0  0  0  0  0  0  0  0  0
  148.3704  143.1218  154.3400 H   0  0  0  0  0  0  0  0  0  0  0  0
  146.2056  142.2131  153.4775 H   0  0  0  0  0  0  0  0  0  0  0  0
  145.8545  139.7307  153.4963 H   0  0  0  0  0  0  0  0  0  0  0  0
  148.4654  137.4793  156.0434 H   0  0  0  0  0  0  0  0  0  0  0  0
  149.0595  137.0436  154.4472 H   0  0  0  0  0  0  0  0  0  0  0  0
  150.6850  136.9534  157.0524 H   0  0  0  0  0  0  0  0  0  0  0  0
  150.1221  135.5754  156.1258 H   0  0  0  0  0  0  0  0  0  0  0  0
  152.4310  138.3633  156.0806 H   0  0  0  0  0  0  0  0  0  0  0  0
  153.0342  137.9573  154.4867 H   0  0  0  0  0  0  0  0  0  0  0  0
  150.8835  138.5703  153.4312 H   0  0  0  0  0  0  0  0  0  0  0  0
  151.4423  139.9171  154.4079 H   0  0  0  0  0  0  0  0  0  0  0  0
  1  2  1  0  0  0  0
  1 23  1  0  0  0  0
  1 24  1  0  0  0  0
  1 25  1  0  0  0  0
  2  3  1  0  0  0  0
  2  4  1  0  0  0  0
  2 26  1  0  0  0  0
  3 27  1  0  0  0  0
  3 28  1  0  0  0  0
  3 29  1  0  0  0  0
  4  5  1  0  0  0  0
  4 30  1  0  0  0  0
  4 31  1  0  0  0  0
  5  6  1  0  0  0  0
  5 32  1  0  0  0  0
  5 33  1  0  0  0  0
  6  7  2  0  0  0  0
  6  8  2  0  0  0  0
  6  9  1  0  0  0  0
  9 10  1  0  0  0  0
  9 34  1  0  0  0  0
 10 11  1  0  0  0  0
 10 35  1  0  0  0  0
 10 36  1  0  0  0  0
 11 16  1  0  0  0  0
 11 12  2  0  0  0  0
 12 13  1  0  0  0  0
 12 37  1  0  0  0  0
 13 14  2  0  0  0  0
 13 38  1  0  0  0  0
 14 15  1  0  0  0  0
 14 39  1  0  0  0  0
 15 16  2  0  0  0  0
 16 17  1  0  0  0  0
 17 22  1  0  0  0  0
 17 18  1  0  0  0  0
 18 19  1  0  0  0  0
 18 40  1  0  0  0  0
 18 41  1  0  0  0  0
 19 20  1  0  0  0  0
 19 42  1  0  0  0  0
 19 43  1  0  0  0  0
 20 21  1  0  0  0  0
 21 22  1  0  0  0  0
 21 44  1  0  0  0  0
 21 45  1  0  0  0  0
 22 46  1  0  0  0  0
 22 47  1  0  0  0  0
M  END
> <s_m_source_file>
AV-unprocessed.smi

> <i_m_source_file_index>
1640

> <i_lp_mmshare_version>
43012

> <i_f3d_flags>
0

> <s_epik_input>
W0NIM11bQ0hdKFtDSDNdKVtDSDJdW0NIMl1TKD1PKSg9TylbTkhdW0NIMl1jMVtjSF1bY0hdW2NIXW5jMU4yW0NIMl1bQ0gyXU9bQ0gyXVtDSDJdMg==

> <s_epik_cmdline>
J2VwaWtfcHl0aG9uJywgJy1waCcsICc3LjAnLCAnLXRuJywgJzgnLCAnLW1hJywgJzIwMCcsICctbWV0YWxfYmluZGluZycsICctaW1hZScsICc8aW5maWxlLm1hZT4nLCAnLW9tYWUnLCAnPG91dGZpbGUubWFlPic=

> <r_lp_tautomer_probability>
1

> <r_epik_Ionization_Penalty>
0.00729723

> <r_epik_Ionization_Penalty_Charging>
0

> <r_epik_Ionization_Penalty_Neutral>
0.00729723

> <r_epik_State_Penalty>
0.00542751

> <r_epik_Charging_Adjusted_Penalty>
0.00542751

> <i_epik_Tot_Q>
0

> <i_epik_Tot_abs_Q>
0

> <r_epik_Metal_State_Penalty>
0.0195039

> <b_epik_Metal_Only>
0

> <s_lp_Force_Field>
OPLS_2005

> <r_lp_Energy>
17.806

> <b_lp_Chiralities_Consistent>
1

> <s_lp_Variant>
AV-unprocessed.smi:1640-1

> <Gold.Version>
5.8.1

> <Gold.Id.Protein>
6NUR|6NUR_protein|mol2

> <Gold.PLP.Fitness>
48.5298

> <Gold.PLP.PLP>
-41.5623

> <Gold.PLP.part.hbond>
-2.9295

> <Gold.PLP.part.metal>
0.0000

> <Gold.PLP.part.buried>
-2.8143

> <Gold.PLP.part.nonpolar>
-35.5317

> <Gold.PLP.part.repulsive>
0.4466

> <Gold.PLP.ligand.clash>
0.0000

> <Gold.PLP.ligand.torsion>
1.1380

> <Gold.PLP.Chemscore.Hbond>
1.9760

> <Gold.PLP.Chemscore.CHOScore>
1.0000

> <Gold.PLP.Chemscore.Metal>
0.0000

> <Gold.Chemscore.Hbonds>
donor molecule, donor type, donor heavy atom, donor atom, acceptor molecule, acceptor atom, score
      L1  H     9    34       P1  8028  0.98
      P1  H 10752 10765       L1    20  1.00
      L1  C    14    39       P1 10175  1.00

> <Gold.PLP.Chemscore.Internal.Correction>
0.3154

> <Gold.Rescore>
     Score         DG    S(hbond)    S(metal)    S(lipo)     H(rot)  DE(clash)    DE(int)     intcor
     15.27     -20.18       1.79        0.00     118.00       1.99       2.54       2.37       ----

> <Gold.Chemscore.Fitness>
15.2728

> <Gold.Chemscore.DG>
-20.1838

> <Gold.Chemscore.ZeroCoef>
-5.4800

> <Gold.Chemscore.Hbond>
1.7906

> <Gold.Chemscore.Metal>
0.0000

> <Gold.Chemscore.Lipo>
118.0003

> <Gold.Chemscore.Internal_Hbond>
0.0000

> <Gold.Chemscore.DEClash>
2.5449

> <Gold.Chemscore.DEInternal>
2.3661

> <Gold.Chemscore.Rot>
1.9856

> <Gold.Chemscore.Internal.Correction>
   9.000000E+99

> <Gold.Chemscore.Hbonds>
donor molecule, donor type, donor heavy atom, donor atom, acceptor molecule, acceptor atom, score
      L1  H     9    34       P1  8028  0.93
      P1  H 10752 10765       L1    20  0.45

> <Gold.Chemscore.Hbond.Weighted>
-5.9808

> <Gold.Chemscore.Metal.Weighted>
-0.0000

> <Gold.Chemscore.Lipo.Weighted>
-13.8060

> <Gold.Chemscore.Internal_Hbond.Weighted>
0.0000

> <Gold.Chemscore.DEClash.Weighted>
2.5449

> <Gold.Chemscore.DEInternal.Weighted>
2.3661

> <Gold.Chemscore.Rot.Weighted>
5.0830

> <Gold.Chemscore.Internal.Correction.Weighted>
   9.000000E+99

> <Gold.Protein.RotatedTorsions>
[ 6907 6896 6895 6894 ] final  140.59 input  -60.11 | X-H torsion
[ 7974 7965 7964 7962 ] final -135.86 input  175.53 | X-H torsion
[ 8008 7997 7996 7995 ] final   -5.55 input   59.86 | X-H torsion
[ 10167 10162 10161 10158 ] final   52.04 input  -65.29 | X-H torsion
[ 10718 10713 10712 10709 ] final  -92.07 input   66.30 | X-H torsion
[ 10763 10752 10751 10750 ] final  179.74 input  -60.55 | X-H torsion
[ 11005 11000 10999 10996 ] final  102.36 input  -57.11 | X-H torsion

> <Gold.Protein.ActiveResidues>
 VAL166  LYS551  ARG553  GLY616  TRP617  ASP618  TYR619  PRO620  LYS621  CYS622 
 ASP623  PHE694  ASN695  SER759  ASP760  ASP761  ALA762  ILE779  LEU786  VAL792 
 PHE793  MET794  SER795  GLU796  ALA797  LYS798  CYS799  TRP800  GLU811  SER814 

> <Gold.Protein.RotatedAtoms>
  152.2412  133.5137  159.5271 H   0  0  0  0  0  0  0  0  0  0  0  0  # atno 6907 bound_to 6896
  150.7065  134.1086  159.4001 H   0  0  0  0  0  0  0  0  0  0  0  0  # atno 6908 bound_to 6896
  151.9006  135.0379  160.0557 H   0  0  0  0  0  0  0  0  0  0  0  0  # atno 6909 bound_to 6896
  144.8977  140.6728  143.5105 H   0  0  0  0  0  0  0  0  0  0  0  0  # atno 7974 bound_to 7965
  154.6028  140.2455  155.7770 H   0  0  0  0  0  0  0  0  0  0  0  0  # atno 8008 bound_to 7997
  156.2322  140.2963  156.0169 H   0  0  0  0  0  0  0  0  0  0  0  0  # atno 8009 bound_to 7997
  155.2183  140.0399  157.2934 H   0  0  0  0  0  0  0  0  0  0  0  0  # atno 8010 bound_to 7997
  140.2555  144.3431  150.6334 H   0  0  0  0  0  0  0  0  0  0  0  0  # atno 10167 bound_to 10162
  155.9999  130.4973  150.5570 H   0  0  0  0  0  0  0  0  0  0  0  0  # atno 10718 bound_to 10713
  154.5245  135.2796  155.1233 H   0  0  0  0  0  0  0  0  0  0  0  0  # atno 10763 bound_to 10752
  154.2778  135.6291  153.5339 H   0  0  0  0  0  0  0  0  0  0  0  0  # atno 10764 bound_to 10752
  152.9944  135.5644  154.5743 H   0  0  0  0  0  0  0  0  0  0  0  0  # atno 10765 bound_to 10752
  139.8777  134.9221  156.5047 H   0  0  0  0  0  0  0  0  0  0  0  0  # atno 11005 bound_to 11000
  145.3672  139.1667  143.4352 LP  0  0  0  0  0  0  0  0  0  0  0  0  # atno 17320 bound_to 7965
  146.3090  140.3740  142.8677 LP  0  0  0  0  0  0  0  0  0  0  0  0  # atno 17321 bound_to 7965
  140.6007  143.2167  151.7078 LP  0  0  0  0  0  0  0  0  0  0  0  0  # atno 17342 bound_to 10162
  139.5033  144.3798  152.0388 LP  0  0  0  0  0  0  0  0  0  0  0  0  # atno 17343 bound_to 10162
  157.3485  131.0729  151.1732 LP  0  0  0  0  0  0  0  0  0  0  0  0  # atno 17370 bound_to 10713
  157.2556  130.6635  149.5951 LP  0  0  0  0  0  0  0  0  0  0  0  0  # atno 17371 bound_to 10713
  140.8564  133.8093  155.9220 LP  0  0  0  0  0  0  0  0  0  0  0  0  # atno 17394 bound_to 11000
  140.9093  134.2280  157.4995 LP  0  0  0  0  0  0  0  0  0  0  0  0  # atno 17395 bound_to 11000

$$$$
