#       Name:                AV-unprocessed.smi:1165
#       Creating user name   scv26
#       Creation time:       Fri Mar 27 03:51:30 2020


#       File generated by GOLD software.
#

@<TRIPOS>MOLECULE
AV-unprocessed.smi:1165
    45    46     1
SMALL
NO_CHARGES


@<TRIPOS>ATOM
      1 ****        -4.7165   2.4645   0.0962 C.3            1 S1                 0.0000
      2 ****        -3.2247   2.1364   0.2246 C.3            1 S1                 0.0000
      3 ****        -2.9808   0.6250   0.3833 C.3            1 S1                 0.0000
      4 ****        -1.5610   0.3479   0.6461 N.3            1 S1                 0.0000
      5 ****        -1.0156  -1.2971   0.4639 S.o2           1 S1                 0.0000
      6 ****        -1.2706  -1.9335   1.7653 O.2            1 S1                 0.0000
      7 ****        -1.7163  -1.8497  -0.7083 O.2            1 S1                 0.0000
      8 ****         0.5684  -1.0132   0.2104 N.pl3          1 S1                -1.0000
      9 ****         1.0583  -0.5214  -1.0735 C.3            1 S1                 0.0000
     10 ****         2.6014  -0.5530  -1.1075 C.3            1 S1                 0.0000
     11 ****         3.2093  -1.9518  -1.0825 C.ar           1 S1                 0.0000
     12 ****         3.5980  -2.5540   0.1342 C.ar           1 S1                 0.0000
     13 ****         4.1622  -3.8437   0.1060 C.ar           1 S1                 0.0000
     14 ****         4.3185  -4.4796  -1.1413 C.ar           1 S1                 0.0000
     15 ****         3.9596  -3.9137  -2.3135 N.ar           1 S1                 0.0000
     16 ****         3.4173  -2.6772  -2.2771 C.ar           1 S1                 0.0000
     17 ****        -1.0277   1.1334   1.7746 C.3            1 S1                 0.0000
     18 ****        -1.3298   2.6334   1.6050 C.3            1 S1                 0.0000
     19 ****        -0.4383   3.3154   0.5513 C.3            1 S1                 0.0000
     20 ****        -2.7185   2.8376   1.3550 O.3            1 S1                 0.0000
     21 ****        -5.1571   1.9592  -0.7635 H              1 S1                 0.0000
     22 ****        -4.8702   3.5359  -0.0341 H              1 S1                 0.0000
     23 ****        -5.2668   2.1549   0.9851 H              1 S1                 0.0000
     24 ****        -2.7272   2.4897  -0.6787 H              1 S1                 0.0000
     25 ****        -3.5751   0.2214   1.2039 H              1 S1                 0.0000
     26 ****        -3.2972   0.1118  -0.5243 H              1 S1                 0.0000
     27 ****         0.6744  -1.1048  -1.9109 H              1 S1                 0.0000
     28 ****         0.7281   0.5026  -1.2499 H              1 S1                 0.0000
     29 ****         2.9458  -0.0523  -2.0128 H              1 S1                 0.0000
     30 ****         3.0052   0.0279  -0.2769 H              1 S1                 0.0000
     31 ****         3.4611  -2.0381   1.0734 H              1 S1                 0.0000
     32 ****         4.4648  -4.3339   1.0193 H              1 S1                 0.0000
     33 ****         4.7465  -5.4693  -1.1994 H              1 S1                 0.0000
     34 ****         3.1402  -2.2536  -3.2312 H              1 S1                 0.0000
     35 ****        -1.4827   0.7662   2.6952 H              1 S1                 0.0000
     36 ****         0.0461   0.9802   1.8786 H              1 S1                 0.0000
     37 ****        -1.1208   3.1220   2.5569 H              1 S1                 0.0000
     38 ****         0.6104   3.2669   0.8452 H              1 S1                 0.0000
     39 ****        -0.7016   4.3671   0.4385 H              1 S1                 0.0000
     40 ****        -0.5180   2.8409  -0.4265 H              1 S1                 0.0000
     41 ****        -1.0803   0.7160  -0.1498 LP             1 S1                 0.0000
     42 ****         1.2196  -1.1796   0.9509 LP             1 S1                 0.0000
     43 ****         4.0910  -4.3945  -3.1805 LP             1 S1                 0.0000
     44 ****        -3.2282   2.5387   2.1618 LP             1 S1                 0.0000
     45 ****        -2.8690   3.8154   1.2090 LP             1 S1                 0.0000
@<TRIPOS>BOND
    1    1    2 1     
    2    1   21 1     
    3    1   22 1     
    4    1   23 1     
    5    2   20 1     
    6    2    3 1     
    7    2   24 1     
    8    3    4 1     
    9    3   25 1     
   10    3   26 1     
   11    4    5 1     
   12    4   17 1     
   13    5    6 2     
   14    5    7 2     
   15    5    8 1     
   16    8    9 1     
   17    9   10 1     
   18    9   27 1     
   19    9   28 1     
   20   10   11 1     
   21   10   29 1     
   22   10   30 1     
   23   11   16 ar    
   24   11   12 ar    
   25   12   13 ar    
   26   12   31 1     
   27   13   14 ar    
   28   13   32 1     
   29   14   15 ar    
   30   14   33 1     
   31   15   16 ar    
   32   16   34 1     
   33   17   18 1     
   34   17   35 1     
   35   17   36 1     
   36   18   19 1     
   37   18   20 1     
   38   18   37 1     
   39   19   38 1     
   40   19   39 1     
   41   19   40 1     
   42    4   41 1     
   43    8   42 1     
   44   15   43 1     
   45   20   44 1     
   46   20   45 1     
@<TRIPOS>SUBSTRUCTURE
      1 S1             1
@<TRIPOS>SET
LONE_PAIRS      STATIC     ATOMS    <user>   **** ""
7 41 6 7 42 43 44 45
ATOM$BLUE        STATIC     ATOMS    COLORGROUP SYSTEM
7 41 6 7 42 43 44 45
