AV-unprocessed.smi:1985|AV-procd|sdf|8045|dock8
  -GOLD-   2272010243D 1   1.00000     0.00000
 Structure written by MMmdl.
 51 52  0  0  0  0  0  0  0  0  2 V2000
  145.5643  133.0422  155.9119 C   0  0  0  0  0  0  0  0  0  0  0  0
  145.6026  133.2329  154.3851 C   0  0  0  0  0  0  0  0  0  0  0  0
  146.5996  134.3140  153.8666 C   0  0  2  0  0  0  0  0  0  0  0  0
  148.0274  133.8667  154.2790 C   0  0  0  0  0  0  0  0  0  0  0  0
  146.2740  135.6743  154.5520 C   0  0  0  0  0  0  0  0  0  0  0  0
  147.1636  136.7526  154.1304 N   0  0  0  0  0  0  0  0  0  0  0  0
  146.8631  138.0565  154.2041 C   0  0  0  0  0  0  0  0  0  0  0  0
  145.8072  138.4763  154.6795 O   0  0  0  0  0  0  0  0  0  0  0  0
  147.9280  139.0229  153.6663 C   0  0  0  0  0  0  0  0  0  0  0  0
  149.1138  139.1232  154.5277 N   0  0  0  0  0  0  0  0  0  0  0  0
  150.0544  138.1095  154.5172 C   0  0  0  0  0  0  0  0  0  0  0  0
  151.1655  138.1160  155.2853 C   0  0  0  0  0  0  0  0  0  0  0  0
  151.4422  139.2244  156.1905 C   0  0  0  0  0  0  0  0  0  0  0  0
  152.4299  139.2650  156.9253 O   0  0  0  0  0  0  0  0  0  0  0  0
  150.4735  140.2549  156.1716 N   0  0  0  0  0  0  0  0  0  0  0  0
  150.6761  141.3735  157.0693 C   0  0  0  0  0  0  0  0  0  0  0  0
  149.3039  140.2354  155.3772 C   0  0  0  0  0  0  0  0  0  0  0  0
  148.4665  141.1402  155.4163 O   0  0  0  0  0  0  0  0  0  0  0  0
  146.5002  134.4354  152.3655 N   0  3  0  0  0  0  0  0  0  0  0  0
  146.5994  133.1588  151.6021 C   0  0  0  0  0  0  0  0  0  0  0  0
  146.6894  133.4376  150.0934 C   0  0  0  0  0  0  0  0  0  0  0  0
  145.5476  134.1739  149.6794 O   0  0  0  0  0  0  0  0  0  0  0  0
  145.4731  135.4351  150.3283 C   0  0  0  0  0  0  0  0  0  0  0  0
  145.3531  135.2356  151.8489 C   0  0  0  0  0  0  0  0  0  0  0  0
  144.8449  132.2679  156.1799 H   0  0  0  0  0  0  0  0  0  0  0  0
  145.2624  133.9537  156.4269 H   0  0  0  0  0  0  0  0  0  0  0  0
  146.5319  132.7347  156.3082 H   0  0  0  0  0  0  0  0  0  0  0  0
  145.8045  132.2706  153.9152 H   0  0  0  0  0  0  0  0  0  0  0  0
  144.5917  133.4822  154.0605 H   0  0  0  0  0  0  0  0  0  0  0  0
  148.0662  133.5438  155.3199 H   0  0  0  0  0  0  0  0  0  0  0  0
  148.7524  134.6754  154.1830 H   0  0  0  0  0  0  0  0  0  0  0  0
  148.3819  133.0327  153.6726 H   0  0  0  0  0  0  0  0  0  0  0  0
  145.2532  135.9864  154.3313 H   0  0  0  0  0  0  0  0  0  0  0  0
  146.3462  135.5807  155.6361 H   0  0  0  0  0  0  0  0  0  0  0  0
  148.0539  136.4893  153.7331 H   0  0  0  0  0  0  0  0  0  0  0  0
  148.2184  138.6898  152.6690 H   0  0  0  0  0  0  0  0  0  0  0  0
  147.4867  140.0117  153.5296 H   0  0  0  0  0  0  0  0  0  0  0  0
  149.8929  137.2631  153.8656 H   0  0  0  0  0  0  0  0  0  0  0  0
  151.8577  137.2885  155.2315 H   0  0  0  0  0  0  0  0  0  0  0  0
  150.1465  142.2530  156.7020 H   0  0  0  0  0  0  0  0  0  0  0  0
  151.7405  141.6114  157.1041 H   0  0  0  0  0  0  0  0  0  0  0  0
  150.3022  141.0656  158.0467 H   0  0  0  0  0  0  0  0  0  0  0  0
  147.4777  132.5856  151.8923 H   0  0  0  0  0  0  0  0  0  0  0  0
  145.7275  132.5332  151.7942 H   0  0  0  0  0  0  0  0  0  0  0  0
  147.6024  133.9834  149.8495 H   0  0  0  0  0  0  0  0  0  0  0  0
  146.7221  132.4991  149.5397 H   0  0  0  0  0  0  0  0  0  0  0  0
  146.3495  136.0372  150.0829 H   0  0  0  0  0  0  0  0  0  0  0  0
  144.6034  135.9737  149.9514 H   0  0  0  0  0  0  0  0  0  0  0  0
  144.4108  134.7371  152.0771 H   0  0  0  0  0  0  0  0  0  0  0  0
  145.3135  136.2233  152.3041 H   0  0  0  0  0  0  0  0  0  0  0  0
  147.3207  134.9631  152.1035 H   0  0  0  0  0  0  0  0  0  0  0  0
  1  2  1  0  0  0  0
  1 25  1  0  0  0  0
  1 26  1  0  0  0  0
  1 27  1  0  0  0  0
  2  3  1  0  0  0  0
  2 28  1  0  0  0  0
  2 29  1  0  0  0  0
  3  4  1  0  0  0  0
  3  5  1  0  0  0  0
  3 19  1  0  0  0  0
  4 30  1  0  0  0  0
  4 31  1  0  0  0  0
  4 32  1  0  0  0  0
  5  6  1  0  0  0  0
  5 33  1  0  0  0  0
  5 34  1  0  0  0  0
  6  7  1  0  0  0  0
  6 35  1  0  0  0  0
  7  8  2  0  0  0  0
  7  9  1  0  0  0  0
  9 10  1  0  0  0  0
  9 36  1  0  0  0  0
  9 37  1  0  0  0  0
 10 17  1  0  0  0  0
 10 11  1  0  0  0  0
 11 12  2  0  0  0  0
 11 38  1  0  0  0  0
 12 13  1  0  0  0  0
 12 39  1  0  0  0  0
 13 14  2  0  0  0  0
 13 15  1  0  0  0  0
 15 16  1  0  0  0  0
 15 17  1  0  0  0  0
 16 40  1  0  0  0  0
 16 41  1  0  0  0  0
 16 42  1  0  0  0  0
 17 18  2  0  0  0  0
 19 24  1  0  0  0  0
 19 20  1  0  0  0  0
 19 51  1  0  0  0  0
 20 21  1  0  0  0  0
 20 43  1  0  0  0  0
 20 44  1  0  0  0  0
 21 22  1  0  0  0  0
 21 45  1  0  0  0  0
 21 46  1  0  0  0  0
 22 23  1  0  0  0  0
 23 24  1  0  0  0  0
 23 47  1  0  0  0  0
 23 48  1  0  0  0  0
 24 49  1  0  0  0  0
 24 50  1  0  0  0  0
M  CHG  1  19   1
M  END
> <s_m_source_file>
AV-unprocessed.smi

> <i_m_source_file_index>
1985

> <i_lp_mmshare_version>
43012

> <i_f3d_flags>
0

> <s_epik_input>
W0NIMl0xW0NIMl1PW0NIMl1bQ0gyXU4xW0NAQF0oW0NIM10pKFtDSDJdW0NIM10pW0NIMl1bTkhdQyg9TylbQ0gyXW4yW2NIXVtjSF1jKD1PKW4oW0NIM10pYzI9Tw==

> <s_epik_cmdline>
J2VwaWtfcHl0aG9uJywgJy1waCcsICc3LjAnLCAnLXRuJywgJzgnLCAnLW1hJywgJzIwMCcsICctbWV0YWxfYmluZGluZycsICctaW1hZScsICc8aW5maWxlLm1hZT4nLCAnLW9tYWUnLCAnPG91dGZpbGUubWFlPic=

> <r_lp_tautomer_probability>
1

> <r_epik_Ionization_Penalty>
0.519658

> <r_epik_Ionization_Penalty_Charging>
0.519658

> <r_epik_Ionization_Penalty_Neutral>
8.70177e-08

> <r_epik_State_Penalty>
0.527569

> <r_epik_Charging_Adjusted_Penalty>
1.04723

> <i_epik_Tot_Q>
1

> <i_epik_Tot_abs_Q>
1

> <r_epik_Metal_State_Penalty>
0.527613

> <b_epik_Metal_Only>
0

> <s_lp_Force_Field>
OPLS_2005

> <r_lp_Energy>
37.4979

> <b_lp_Chiralities_Consistent>
1

> <s_lp_Variant>
AV-unprocessed.smi:1985-4

> <Gold.Version>
5.8.1

> <Gold.Id.Protein>
6NUR|6NUR_protein|mol2

> <Gold.PLP.Fitness>
47.9829

> <Gold.PLP.PLP>
-34.6952

> <Gold.PLP.part.hbond>
-3.0000

> <Gold.PLP.part.metal>
0.0000

> <Gold.PLP.part.buried>
-1.0596

> <Gold.PLP.part.nonpolar>
-30.9620

> <Gold.PLP.part.repulsive>
1.8089

> <Gold.PLP.ligand.clash>
0.0000

> <Gold.PLP.ligand.torsion>
0.8286

> <Gold.PLP.Chemscore.Hbond>
3.8640

> <Gold.PLP.Chemscore.CHOScore>
1.0353

> <Gold.PLP.Chemscore.Metal>
0.0000

> <Gold.Chemscore.Hbonds>
donor molecule, donor type, donor heavy atom, donor atom, acceptor molecule, acceptor atom, score
      L1  H     6    35       P1  7948  0.68
      L1  H    19    51       P1  7948  1.95
      P1  H  7997  8010       L1    14  0.52
      L1  C    11    38       P1  7948  1.00

> <Gold.PLP.Chemscore.Internal.Correction>
0.2470

> <Gold.Rescore>
     Score         DG    S(hbond)    S(metal)    S(lipo)     H(rot)  DE(clash)    DE(int)     intcor
     13.78     -16.24       2.76        0.00      62.90       2.27       1.19       1.27       ----

> <Gold.Chemscore.Fitness>
13.7820

> <Gold.Chemscore.DG>
-16.2414

> <Gold.Chemscore.ZeroCoef>
-5.4800

> <Gold.Chemscore.Hbond>
2.7604

> <Gold.Chemscore.Metal>
0.0000

> <Gold.Chemscore.Lipo>
62.8986

> <Gold.Chemscore.Internal_Hbond>
0.0000

> <Gold.Chemscore.DEClash>
1.1920

> <Gold.Chemscore.DEInternal>
1.2673

> <Gold.Chemscore.Rot>
2.2724

> <Gold.Chemscore.Internal.Correction>
   9.000000E+99

> <Gold.Chemscore.Hbonds>
donor molecule, donor type, donor heavy atom, donor atom, acceptor molecule, acceptor atom, score
      L1  H     6    35       P1  7948  0.67
      L1  H    19    51       P1  7948  0.87
      P1  H  7997  8010       L1    14  0.48

> <Gold.Chemscore.Hbond.Weighted>
-9.2196

> <Gold.Chemscore.Metal.Weighted>
-0.0000

> <Gold.Chemscore.Lipo.Weighted>
-7.3591

> <Gold.Chemscore.Internal_Hbond.Weighted>
0.0000

> <Gold.Chemscore.DEClash.Weighted>
1.1920

> <Gold.Chemscore.DEInternal.Weighted>
1.2673

> <Gold.Chemscore.Rot.Weighted>
5.8174

> <Gold.Chemscore.Internal.Correction.Weighted>
   9.000000E+99

> <Gold.Protein.RotatedTorsions>
[ 6907 6896 6895 6894 ] final  125.76 input  -60.11 | X-H torsion
[ 7974 7965 7964 7962 ] final   93.02 input  175.53 | X-H torsion
[ 8008 7997 7996 7995 ] final   85.82 input   59.86 | X-H torsion
[ 10167 10162 10161 10158 ] final  -76.14 input  -65.29 | X-H torsion
[ 10718 10713 10712 10709 ] final   13.29 input   66.30 | X-H torsion
[ 10763 10752 10751 10750 ] final  169.65 input  -60.55 | X-H torsion
[ 11005 11000 10999 10996 ] final  -58.48 input  -57.11 | X-H torsion

> <Gold.Protein.ActiveResidues>
 VAL166  LYS551  ARG553  GLY616  TRP617  ASP618  TYR619  PRO620  LYS621  CYS622 
 ASP623  PHE694  ASN695  SER759  ASP760  ASP761  ALA762  ILE779  LEU786  VAL792 
 PHE793  MET794  SER795  GLU796  ALA797  LYS798  CYS799  TRP800  GLU811  SER814 

> <Gold.Protein.RotatedAtoms>
  152.3963  133.6752  159.6278 H   0  0  0  0  0  0  0  0  0  0  0  0  # atno 6907 bound_to 6896
  150.7862  133.8868  159.3310 H   0  0  0  0  0  0  0  0  0  0  0  0  # atno 6908 bound_to 6896
  151.6644  135.0986  160.0237 H   0  0  0  0  0  0  0  0  0  0  0  0  # atno 6909 bound_to 6896
  145.4845  139.2277  143.2864 H   0  0  0  0  0  0  0  0  0  0  0  0  # atno 7974 bound_to 7965
  155.9549  140.3398  155.6440 H   0  0  0  0  0  0  0  0  0  0  0  0  # atno 8008 bound_to 7997
  155.6873  140.0745  157.2480 H   0  0  0  0  0  0  0  0  0  0  0  0  # atno 8009 bound_to 7997
  154.4130  140.1663  156.2035 H   0  0  0  0  0  0  0  0  0  0  0  0  # atno 8010 bound_to 7997
  140.4882  143.2386  151.7949 H   0  0  0  0  0  0  0  0  0  0  0  0  # atno 10167 bound_to 10162
  157.0226  130.6161  149.5723 H   0  0  0  0  0  0  0  0  0  0  0  0  # atno 10718 bound_to 10713
  154.3863  135.2753  155.2181 H   0  0  0  0  0  0  0  0  0  0  0  0  # atno 10763 bound_to 10752
  154.4267  135.5987  153.6047 H   0  0  0  0  0  0  0  0  0  0  0  0  # atno 10764 bound_to 10752
  152.9833  135.5985  154.4112 H   0  0  0  0  0  0  0  0  0  0  0  0  # atno 10765 bound_to 10752
  141.1209  133.6612  156.4927 H   0  0  0  0  0  0  0  0  0  0  0  0  # atno 11005 bound_to 11000
  146.2321  140.5635  142.8971 LP  0  0  0  0  0  0  0  0  0  0  0  0  # atno 17320 bound_to 7965
  144.7869  140.5955  143.6567 LP  0  0  0  0  0  0  0  0  0  0  0  0  # atno 17321 bound_to 7965
  139.4846  144.4684  151.9456 LP  0  0  0  0  0  0  0  0  0  0  0  0  # atno 17342 bound_to 10162
  140.3770  144.2784  150.5913 LP  0  0  0  0  0  0  0  0  0  0  0  0  # atno 17343 bound_to 10162
  156.0097  130.5187  150.7948 LP  0  0  0  0  0  0  0  0  0  0  0  0  # atno 17370 bound_to 10713
  157.5238  131.0933  151.0044 LP  0  0  0  0  0  0  0  0  0  0  0  0  # atno 17371 bound_to 10713
  140.4510  134.6928  157.5039 LP  0  0  0  0  0  0  0  0  0  0  0  0  # atno 17394 bound_to 11000
  140.0165  134.6611  155.9301 LP  0  0  0  0  0  0  0  0  0  0  0  0  # atno 17395 bound_to 11000

$$$$
