#       Name:                AV-unprocessed.smi:309
#       Creating user name   scv26
#       Creation time:       Thu Mar 26 22:19:28 2020


#       File generated by GOLD software.
#

@<TRIPOS>MOLECULE
AV-unprocessed.smi:309
    41    43     1
SMALL
NO_CHARGES


@<TRIPOS>ATOM
      1 ****        -1.4452   3.2977  -0.6905 O.3            1 S1                 0.0000
      2 ****        -0.4425   2.3187  -0.8739 C.3            1 S1                 0.0000
      3 ****        -0.9738   0.9320  -1.1047 C.2            1 S1                 0.0000
      4 ****        -2.2782   0.6598  -1.1919 N.2            1 S1                 0.0000
      5 ****        -2.2946  -0.7034  -1.4102 C.ar           1 S1                 0.0000
      6 ****        -3.3785  -1.5930  -1.5864 C.ar           1 S1                 0.0000
      7 ****        -3.1460  -2.9678  -1.7983 C.ar           1 S1                 0.0000
      8 ****        -1.8296  -3.4715  -1.8375 C.ar           1 S1                 0.0000
      9 ****        -0.7358  -2.6018  -1.6648 C.ar           1 S1                 0.0000
     10 ****        -0.9737  -1.2306  -1.4525 C.ar           1 S1                 0.0000
     11 ****        -0.1436  -0.1338  -1.2416 N.pl3          1 S1                 0.0000
     12 ****         1.3122  -0.1652  -1.1923 C.3            1 S1                 0.0000
     13 ****         1.8489  -0.7506   0.1311 C.3            1 S1                 0.0000
     14 ****         3.2374  -0.9674  -0.0223 O.3            1 S1                 0.0000
     15 ****         1.5321   0.1359   1.3348 C.ar           1 S1                 0.0000
     16 ****         2.3193   1.2873   1.5675 C.ar           1 S1                 0.0000
     17 ****         2.0433   2.1409   2.6519 C.ar           1 S1                 0.0000
     18 ****         3.0110   3.5451   2.9123 Cl             1 S1                 0.0000
     19 ****         0.9750   1.8511   3.5194 C.ar           1 S1                 0.0000
     20 ****         0.1847   0.7087   3.2984 C.ar           1 S1                 0.0000
     21 ****         0.4545  -0.1493   2.2135 C.ar           1 S1                 0.0000
     22 ****        -0.5632  -1.5302   1.9963 Cl             1 S1                 0.0000
     23 ****        -1.0277   4.1343  -0.5547 H              1 S1                 0.0000
     24 ****         0.1739   2.6105  -1.7244 H              1 S1                 0.0000
     25 ****         0.1943   2.3182   0.0093 H              1 S1                 0.0000
     26 ****        -4.3904  -1.2169  -1.5579 H              1 S1                 0.0000
     27 ****        -3.9816  -3.6393  -1.9311 H              1 S1                 0.0000
     28 ****        -1.6601  -4.5260  -1.9993 H              1 S1                 0.0000
     29 ****         0.2735  -2.9849  -1.6907 H              1 S1                 0.0000
     30 ****         1.6495  -0.7784  -2.0294 H              1 S1                 0.0000
     31 ****         1.7160   0.8314  -1.3696 H              1 S1                 0.0000
     32 ****         1.4275  -1.7433   0.2808 H              1 S1                 0.0000
     33 ****         3.6516  -0.1403  -0.2149 H              1 S1                 0.0000
     34 ****         3.1371   1.5283   0.9042 H              1 S1                 0.0000
     35 ****         0.7585   2.5037   4.3524 H              1 S1                 0.0000
     36 ****        -0.6360   0.4908   3.9660 H              1 S1                 0.0000
     37 ****        -2.0014   3.0651   0.1074 LP             1 S1                 0.0000
     38 ****        -2.0278   3.3396  -1.5021 LP             1 S1                 0.0000
     39 ****        -3.0524   1.2884  -1.1174 LP             1 S1                 0.0000
     40 ****         3.3976  -1.6076  -0.7736 LP             1 S1                 0.0000
     41 ****         3.6151  -1.3447   0.8233 LP             1 S1                 0.0000
@<TRIPOS>BOND
    1    1    2 1     
    2    1   23 1     
    3    2    3 1     
    4    2   24 1     
    5    2   25 1     
    6    3   11 1     
    7    3    4 2     
    8    4    5 1     
    9    5   10 ar    
   10    5    6 ar    
   11    6    7 ar    
   12    6   26 1     
   13    7    8 ar    
   14    7   27 1     
   15    8    9 ar    
   16    8   28 1     
   17    9   10 ar    
   18    9   29 1     
   19   10   11 1     
   20   11   12 1     
   21   12   13 1     
   22   12   30 1     
   23   12   31 1     
   24   13   14 1     
   25   13   15 1     
   26   13   32 1     
   27   14   33 1     
   28   15   21 ar    
   29   15   16 ar    
   30   16   17 ar    
   31   16   34 1     
   32   17   18 1     
   33   17   19 ar    
   34   19   20 ar    
   35   19   35 1     
   36   20   21 ar    
   37   20   36 1     
   38   21   22 1     
   39    1   37 1     
   40    1   38 1     
   41    4   39 1     
   42   14   40 1     
   43   14   41 1     
@<TRIPOS>SUBSTRUCTURE
      1 S1             1
@<TRIPOS>SET
LONE_PAIRS      STATIC     ATOMS    <user>   **** ""
5 37 38 39 40 41
DONOR_HYDROGENS      STATIC     ATOMS    <user>   **** ""
2 23 33
ATOM$BLUE        STATIC     ATOMS    COLORGROUP SYSTEM
5 37 38 39 40 41
ATOM$RED        STATIC     ATOMS    COLORGROUP SYSTEM
2 23 33
