AV-unprocessed.smi:2470|AV-procd|sdf|9736|dock6
  -GOLD-   2272013373D 1   1.00000     0.00000
 Structure written by MMmdl.
 33 34  0  0  0  0  0  0  0  0  1 V2000
  146.5840  138.7922  152.2757 C   0  0  0  0  0  0  0  0  0  0  0  0
  146.8096  139.6175  153.4129 O   0  0  0  0  0  0  0  0  0  0  0  0
  148.1002  139.7385  153.8841 C   0  0  0  0  0  0  0  0  0  0  0  0
  148.4537  140.8710  154.6457 C   0  0  0  0  0  0  0  0  0  0  0  0
  149.7851  140.9553  155.1112 C   0  0  0  0  0  0  0  0  0  0  0  0
  150.0973  142.1077  155.8799 N   0  0  0  0  0  0  0  0  0  0  0  0
  150.9787  142.2174  156.8893 C   0  0  0  0  0  0  0  0  0  0  0  0
  151.7021  141.3113  157.3039 O   0  0  0  0  0  0  0  0  0  0  0  0
  150.9791  143.4585  157.3985 N   0  0  0  0  0  0  0  0  0  0  0  0
  151.8087  143.9216  158.5068 C   0  0  1  0  0  0  0  0  0  0  0  0
  151.2940  145.2807  159.0066 C   0  0  0  0  0  0  0  0  0  0  0  0
  151.8725  142.9164  159.6411 C   0  0  0  0  0  0  0  0  0  0  0  0
  152.7628  143.1478  160.8384 C   0  0  0  0  0  0  0  0  0  0  0  0
  153.0926  142.0519  159.8496 C   0  0  0  0  0  0  0  0  0  0  0  0
  150.6681  139.9686  154.8181 N   0  0  0  0  0  0  0  0  0  0  0  0
  150.2350  138.9384  154.0893 C   0  0  0  0  0  0  0  0  0  0  0  0
  149.0037  138.7673  153.6073 N   0  0  0  0  0  0  0  0  0  0  0  0
  145.5237  138.8070  152.0241 H   0  0  0  0  0  0  0  0  0  0  0  0
  146.8629  137.7564  152.4742 H   0  0  0  0  0  0  0  0  0  0  0  0
  147.1353  139.1510  151.4053 H   0  0  0  0  0  0  0  0  0  0  0  0
  147.7272  141.6405  154.8626 H   0  0  0  0  0  0  0  0  0  0  0  0
  149.5834  142.9424  155.6400 H   0  0  0  0  0  0  0  0  0  0  0  0
  150.3511  144.1365  156.9927 H   0  0  0  0  0  0  0  0  0  0  0  0
  152.8291  144.0620  158.1440 H   0  0  0  0  0  0  0  0  0  0  0  0
  151.9130  145.6592  159.8207 H   0  0  0  0  0  0  0  0  0  0  0  0
  150.2703  145.2067  159.3747 H   0  0  0  0  0  0  0  0  0  0  0  0
  151.3096  146.0271  158.2119 H   0  0  0  0  0  0  0  0  0  0  0  0
  150.9156  142.4439  159.8562 H   0  0  0  0  0  0  0  0  0  0  0  0
  153.3968  144.0323  160.8369 H   0  0  0  0  0  0  0  0  0  0  0  0
  152.3810  142.8489  161.8125 H   0  0  0  0  0  0  0  0  0  0  0  0
  152.9308  141.0232  160.1650 H   0  0  0  0  0  0  0  0  0  0  0  0
  153.9453  142.2093  159.1919 H   0  0  0  0  0  0  0  0  0  0  0  0
  150.9545  138.1641  153.8674 H   0  0  0  0  0  0  0  0  0  0  0  0
  1  2  1  0  0  0  0
  1 18  1  0  0  0  0
  1 19  1  0  0  0  0
  1 20  1  0  0  0  0
  2  3  1  0  0  0  0
  3 17  1  0  0  0  0
  3  4  2  0  0  0  0
  4  5  1  0  0  0  0
  4 21  1  0  0  0  0
  5  6  1  0  0  0  0
  5 15  2  0  0  0  0
  6  7  1  0  0  0  0
  6 22  1  0  0  0  0
  7  8  2  0  0  0  0
  7  9  1  0  0  0  0
  9 10  1  0  0  0  0
  9 23  1  0  0  0  0
 10 11  1  0  0  0  0
 10 12  1  0  0  0  0
 10 24  1  0  0  0  0
 11 25  1  0  0  0  0
 11 26  1  0  0  0  0
 11 27  1  0  0  0  0
 12 14  1  0  0  0  0
 12 13  1  0  0  0  0
 12 28  1  0  0  0  0
 13 14  1  0  0  0  0
 13 29  1  0  0  0  0
 13 30  1  0  0  0  0
 14 31  1  0  0  0  0
 14 32  1  0  0  0  0
 15 16  1  0  0  0  0
 16 17  2  0  0  0  0
 16 33  1  0  0  0  0
M  END
> <s_m_source_file>
AV-unprocessed.smi

> <i_m_source_file_index>
2470

> <i_lp_mmshare_version>
43012

> <i_f3d_flags>
0

> <s_epik_input>
W0NIM11PYzFbY0hdYyhuW2NIXW4xKVtOSF1DKD1PKVtOSF1bQ0BIXShbQ0gzXSlbQ0hdMltDSDJdW0NIMl0y

> <s_epik_cmdline>
J2VwaWtfcHl0aG9uJywgJy1waCcsICc3LjAnLCAnLXRuJywgJzgnLCAnLW1hJywgJzIwMCcsICctbWV0YWxfYmluZGluZycsICctaW1hZScsICc8aW5maWxlLm1hZT4nLCAnLW9tYWUnLCAnPG91dGZpbGUubWFlPic=

> <r_lp_tautomer_probability>
1

> <r_epik_Ionization_Penalty>
2.81207e-05

> <r_epik_Ionization_Penalty_Charging>
0

> <r_epik_Ionization_Penalty_Neutral>
2.81207e-05

> <r_epik_State_Penalty>
-0

> <r_epik_Charging_Adjusted_Penalty>
0

> <i_epik_Tot_Q>
0

> <i_epik_Tot_abs_Q>
0

> <r_epik_Metal_State_Penalty>
-0

> <b_epik_Metal_Only>
0

> <s_lp_Force_Field>
OPLS_2005

> <r_lp_Energy>
11.1381

> <b_lp_Chiralities_Consistent>
1

> <s_lp_Variant>
AV-unprocessed.smi:2470-2

> <Gold.Version>
5.8.1

> <Gold.Id.Protein>
6NUR|6NUR_protein|mol2

> <Gold.PLP.Fitness>
44.1913

> <Gold.PLP.PLP>
-37.1673

> <Gold.PLP.part.hbond>
-3.0000

> <Gold.PLP.part.metal>
0.0000

> <Gold.PLP.part.buried>
-4.4182

> <Gold.PLP.part.nonpolar>
-32.0976

> <Gold.PLP.part.repulsive>
2.7252

> <Gold.PLP.ligand.clash>
0.0000

> <Gold.PLP.ligand.torsion>
1.3741

> <Gold.PLP.Chemscore.Hbond>
2.9000

> <Gold.PLP.Chemscore.CHOScore>
0.0000

> <Gold.PLP.Chemscore.Metal>
0.0000

> <Gold.Chemscore.Hbonds>
donor molecule, donor type, donor heavy atom, donor atom, acceptor molecule, acceptor atom, score
      L1  H     6    22       P1  8028  1.00
      L1  H     9    23       P1  8028  0.98
      P1  H  7989  7998       L1    15  0.86

> <Gold.PLP.Chemscore.Internal.Correction>
1.0721

> <Gold.Rescore>
     Score         DG    S(hbond)    S(metal)    S(lipo)     H(rot)  DE(clash)    DE(int)     intcor
     12.79     -16.71       2.05        0.00      72.71       1.61       0.18       3.74       ----

> <Gold.Chemscore.Fitness>
12.7911

> <Gold.Chemscore.DG>
-16.7123

> <Gold.Chemscore.ZeroCoef>
-5.4800

> <Gold.Chemscore.Hbond>
2.0506

> <Gold.Chemscore.Metal>
0.0000

> <Gold.Chemscore.Lipo>
72.7110

> <Gold.Chemscore.Internal_Hbond>
0.0000

> <Gold.Chemscore.DEClash>
0.1773

> <Gold.Chemscore.DEInternal>
3.7439

> <Gold.Chemscore.Rot>
1.6109

> <Gold.Chemscore.Internal.Correction>
   9.000000E+99

> <Gold.Chemscore.Hbonds>
donor molecule, donor type, donor heavy atom, donor atom, acceptor molecule, acceptor atom, score
      L1  H     6    22       P1  8028  1.00
      L1  H     9    23       P1  8028  0.85
      P1  H  7989  7998       L1    15  0.04

> <Gold.Chemscore.Hbond.Weighted>
-6.8491

> <Gold.Chemscore.Metal.Weighted>
-0.0000

> <Gold.Chemscore.Lipo.Weighted>
-8.5072

> <Gold.Chemscore.Internal_Hbond.Weighted>
0.0000

> <Gold.Chemscore.DEClash.Weighted>
0.1773

> <Gold.Chemscore.DEInternal.Weighted>
3.7439

> <Gold.Chemscore.Rot.Weighted>
4.1240

> <Gold.Chemscore.Internal.Correction.Weighted>
   9.000000E+99

> <Gold.Protein.RotatedTorsions>
[ 6907 6896 6895 6894 ] final  -78.68 input  -60.11 | X-H torsion
[ 7974 7965 7964 7962 ] final -169.46 input  175.53 | X-H torsion
[ 8008 7997 7996 7995 ] final  -94.90 input   59.86 | X-H torsion
[ 10167 10162 10161 10158 ] final   24.86 input  -65.29 | X-H torsion
[ 10718 10713 10712 10709 ] final   91.42 input   66.30 | X-H torsion
[ 10763 10752 10751 10750 ] final -161.90 input  -60.55 | X-H torsion
[ 11005 11000 10999 10996 ] final  168.32 input  -57.11 | X-H torsion

> <Gold.Protein.ActiveResidues>
 VAL166  LYS551  ARG553  GLY616  TRP617  ASP618  TYR619  PRO620  LYS621  CYS622 
 ASP623  PHE694  ASN695  SER759  ASP760  ASP761  ALA762  ILE779  LEU786  VAL792 
 PHE793  MET794  SER795  GLU796  ALA797  LYS798  CYS799  TRP800  GLU811  SER814 

> <Gold.Protein.RotatedAtoms>
  150.6967  134.4236  159.5215 H   0  0  0  0  0  0  0  0  0  0  0  0  # atno 6907 bound_to 6896
  152.1974  134.8615  160.0520 H   0  0  0  0  0  0  0  0  0  0  0  0  # atno 6908 bound_to 6896
  151.9548  133.3642  159.4050 H   0  0  0  0  0  0  0  0  0  0  0  0  # atno 6909 bound_to 6896
  144.7185  140.2217  143.6315 H   0  0  0  0  0  0  0  0  0  0  0  0  # atno 7974 bound_to 7965
  154.7543  140.0485  157.0920 H   0  0  0  0  0  0  0  0  0  0  0  0  # atno 8008 bound_to 7997
  155.0017  140.3125  155.4845 H   0  0  0  0  0  0  0  0  0  0  0  0  # atno 8009 bound_to 7997
  156.2891  140.2200  156.5127 H   0  0  0  0  0  0  0  0  0  0  0  0  # atno 8010 bound_to 7997
  140.5154  144.0091  150.6391 H   0  0  0  0  0  0  0  0  0  0  0  0  # atno 10167 bound_to 10162
  157.6960  131.0406  150.3726 H   0  0  0  0  0  0  0  0  0  0  0  0  # atno 10718 bound_to 10713
  154.7262  135.3036  154.8966 H   0  0  0  0  0  0  0  0  0  0  0  0  # atno 10763 bound_to 10752
  153.9823  135.6729  153.4754 H   0  0  0  0  0  0  0  0  0  0  0  0  # atno 10764 bound_to 10752
  153.0877  135.4975  154.8549 H   0  0  0  0  0  0  0  0  0  0  0  0  # atno 10765 bound_to 10752
  140.2860  134.7712  157.3798 H   0  0  0  0  0  0  0  0  0  0  0  0  # atno 11005 bound_to 11000
  145.8494  139.2168  143.1781 LP  0  0  0  0  0  0  0  0  0  0  0  0  # atno 17320 bound_to 7965
  146.0274  140.8290  142.9893 LP  0  0  0  0  0  0  0  0  0  0  0  0  # atno 17321 bound_to 7965
  140.3425  143.3011  152.0573 LP  0  0  0  0  0  0  0  0  0  0  0  0  # atno 17342 bound_to 10162
  139.4908  144.6432  151.6834 LP  0  0  0  0  0  0  0  0  0  0  0  0  # atno 17343 bound_to 10162
  156.4149  130.3941  149.6865 LP  0  0  0  0  0  0  0  0  0  0  0  0  # atno 17370 bound_to 10713
  156.4136  130.7734  151.2748 LP  0  0  0  0  0  0  0  0  0  0  0  0  # atno 17371 bound_to 10713
  140.1239  134.5183  155.8161 LP  0  0  0  0  0  0  0  0  0  0  0  0  # atno 17394 bound_to 11000
  141.2154  133.6766  156.6916 LP  0  0  0  0  0  0  0  0  0  0  0  0  # atno 17395 bound_to 11000

$$$$
