AV-unprocessed.smi:3290|AV-procd|sdf|12618|dock10
  -GOLD-   2272018553D 1   1.00000     0.00000
 Structure written by MMmdl.
 43 44  0  0  0  0  0  0  0  0  2 V2000
  152.2332  140.1859  159.0133 C   0  0  0  0  0  0  0  0  0  0  0  0
  151.8745  141.6777  159.1398 C   0  0  1  0  0  0  0  0  0  0  0  0
  153.0986  142.4580  159.6645 C   0  0  0  0  0  0  0  0  0  0  0  0
  152.7902  143.9474  159.8660 C   0  0  0  0  0  0  0  0  0  0  0  0
  152.2723  144.5759  158.5677 C   0  0  0  0  0  0  0  0  0  0  0  0
  151.0473  143.8139  158.0431 C   0  0  0  0  0  0  0  0  0  0  0  0
  151.3413  142.3131  157.8209 C   0  0  2  0  0  0  0  0  0  0  0  0
  150.0760  141.6203  157.2651 C   0  0  0  0  0  0  0  0  0  0  0  0
  149.8598  141.9195  155.8355 N   0  3  0  0  0  0  0  0  0  0  0  0
  148.9869  140.9528  155.1401 C   0  0  0  0  0  0  0  0  0  0  0  0
  148.1099  141.6459  154.0827 C   0  0  1  0  0  0  0  0  0  0  0  0
  147.8292  140.7225  153.0482 O   0  0  0  0  0  0  0  0  0  0  0  0
  146.8371  142.2011  154.7024 C   0  0  0  0  0  0  0  0  0  0  0  0
  146.6204  142.1133  156.0934 C   0  0  0  0  0  0  0  0  0  0  0  0
  145.4243  142.6371  156.6239 C   0  0  0  0  0  0  0  0  0  0  0  0
  144.4697  143.2185  155.8669 N   0  0  0  0  0  0  0  0  0  0  0  0
  144.6804  143.2983  154.5359 C   0  0  0  0  0  0  0  0  0  0  0  0
  145.8408  142.8063  153.9058 C   0  0  0  0  0  0  0  0  0  0  0  0
  152.9426  140.0144  158.2031 H   0  0  0  0  0  0  0  0  0  0  0  0
  151.3519  139.5716  158.8322 H   0  0  0  0  0  0  0  0  0  0  0  0
  152.6868  139.8138  159.9326 H   0  0  0  0  0  0  0  0  0  0  0  0
  151.0897  141.7569  159.8939 H   0  0  0  0  0  0  0  0  0  0  0  0
  153.4363  142.0328  160.6104 H   0  0  0  0  0  0  0  0  0  0  0  0
  153.9303  142.3515  158.9665 H   0  0  0  0  0  0  0  0  0  0  0  0
  152.0464  144.0659  160.6549 H   0  0  0  0  0  0  0  0  0  0  0  0
  153.6854  144.4713  160.2022 H   0  0  0  0  0  0  0  0  0  0  0  0
  152.0160  145.6220  158.7375 H   0  0  0  0  0  0  0  0  0  0  0  0
  153.0613  144.5682  157.8145 H   0  0  0  0  0  0  0  0  0  0  0  0
  150.2214  143.9277  158.7471 H   0  0  0  0  0  0  0  0  0  0  0  0
  150.7191  144.2732  157.1099 H   0  0  0  0  0  0  0  0  0  0  0  0
  152.1256  142.2507  157.0643 H   0  0  0  0  0  0  0  0  0  0  0  0
  150.1353  140.5422  157.4212 H   0  0  0  0  0  0  0  0  0  0  0  0
  149.1912  141.9657  157.8016 H   0  0  0  0  0  0  0  0  0  0  0  0
  149.4578  142.8423  155.7521 H   0  0  0  0  0  0  0  0  0  0  0  0
  149.5984  140.1773  154.6758 H   0  0  0  0  0  0  0  0  0  0  0  0
  148.3548  140.4610  155.8808 H   0  0  0  0  0  0  0  0  0  0  0  0
  148.6663  142.4725  153.6383 H   0  0  0  0  0  0  0  0  0  0  0  0
  148.5988  140.6383  152.5051 H   0  0  0  0  0  0  0  0  0  0  0  0
  147.3507  141.6562  156.7451 H   0  0  0  0  0  0  0  0  0  0  0  0
  145.2292  142.5865  157.6848 H   0  0  0  0  0  0  0  0  0  0  0  0
  143.9003  143.7671  153.9545 H   0  0  0  0  0  0  0  0  0  0  0  0
  145.9578  142.8938  152.8356 H   0  0  0  0  0  0  0  0  0  0  0  0
  150.7576  141.9164  155.3718 H   0  0  0  0  0  0  0  0  0  0  0  0
  1  2  1  0  0  0  0
  1 19  1  0  0  0  0
  1 20  1  0  0  0  0
  1 21  1  0  0  0  0
  2  7  1  0  0  0  0
  2  3  1  0  0  0  0
  2 22  1  0  0  0  0
  3  4  1  0  0  0  0
  3 23  1  0  0  0  0
  3 24  1  0  0  0  0
  4  5  1  0  0  0  0
  4 25  1  0  0  0  0
  4 26  1  0  0  0  0
  5  6  1  0  0  0  0
  5 27  1  0  0  0  0
  5 28  1  0  0  0  0
  6  7  1  0  0  0  0
  6 29  1  0  0  0  0
  6 30  1  0  0  0  0
  7  8  1  0  0  0  0
  7 31  1  0  0  0  0
  8  9  1  0  0  0  0
  8 32  1  0  0  0  0
  8 33  1  0  0  0  0
  9 10  1  0  0  0  0
  9 34  1  0  0  0  0
  9 43  1  0  0  0  0
 10 11  1  0  0  0  0
 10 35  1  0  0  0  0
 10 36  1  0  0  0  0
 11 12  1  0  0  0  0
 11 13  1  0  0  0  0
 11 37  1  0  0  0  0
 12 38  1  0  0  0  0
 13 18  1  0  0  0  0
 13 14  2  0  0  0  0
 14 15  1  0  0  0  0
 14 39  1  0  0  0  0
 15 16  2  0  0  0  0
 15 40  1  0  0  0  0
 16 17  1  0  0  0  0
 17 18  2  0  0  0  0
 17 41  1  0  0  0  0
 18 42  1  0  0  0  0
M  CHG  1   9   1
M  END
> <s_m_source_file>
AV-unprocessed.smi

> <i_m_source_file_index>
3290

> <i_lp_mmshare_version>
43012

> <i_f3d_flags>
0

> <s_epik_input>
W0NIM11bQ0BASF0xW0NIMl1bQ0gyXVtDSDJdW0NIMl1bQ0BIXTFbQ0gyXVtOSF1bQ0gyXVtDQEhdKFtPSF0pYzJbY0hdW2NIXW5bY0hdW2NIXTI=

> <s_epik_cmdline>
J2VwaWtfcHl0aG9uJywgJy1waCcsICc3LjAnLCAnLXRuJywgJzgnLCAnLW1hJywgJzIwMCcsICctbWV0YWxfYmluZGluZycsICctaW1hZScsICc8aW5maWxlLm1hZT4nLCAnLW9tYWUnLCAnPG91dGZpbGUubWFlPic=

> <r_lp_tautomer_probability>
1

> <r_epik_Ionization_Penalty>
0.00420552

> <r_epik_Ionization_Penalty_Charging>
0.00207255

> <r_epik_Ionization_Penalty_Neutral>
0.00213297

> <r_epik_State_Penalty>
-0

> <r_epik_Charging_Adjusted_Penalty>
0.00207255

> <i_epik_Tot_Q>
1

> <i_epik_Tot_abs_Q>
1

> <r_epik_Metal_State_Penalty>
-0

> <b_epik_Metal_Only>
0

> <s_lp_Force_Field>
OPLS_2005

> <r_lp_Energy>
17.3555

> <b_lp_Chiralities_Consistent>
1

> <s_lp_Variant>
AV-unprocessed.smi:3290-8

> <Gold.Version>
5.8.1

> <Gold.Id.Protein>
6NUR|6NUR_protein|mol2

> <Gold.PLP.Fitness>
51.0812

> <Gold.PLP.PLP>
-41.6124

> <Gold.PLP.part.hbond>
-2.0000

> <Gold.PLP.part.metal>
0.0000

> <Gold.PLP.part.buried>
-4.4114

> <Gold.PLP.part.nonpolar>
-35.8199

> <Gold.PLP.part.repulsive>
0.2552

> <Gold.PLP.ligand.clash>
0.0000

> <Gold.PLP.ligand.torsion>
0.8558

> <Gold.PLP.Chemscore.Hbond>
3.0000

> <Gold.PLP.Chemscore.CHOScore>
0.7063

> <Gold.PLP.Chemscore.Metal>
0.0000

> <Gold.Chemscore.Hbonds>
donor molecule, donor type, donor heavy atom, donor atom, acceptor molecule, acceptor atom, score
      L1  H     9    34       P1  8028  2.00
      L1  H    12    38       P1  7957  1.00
      L1  C    17    41       P1 10174  0.81

> <Gold.PLP.Chemscore.Internal.Correction>
0.0615

> <Gold.Rescore>
     Score         DG    S(hbond)    S(metal)    S(lipo)     H(rot)  DE(clash)    DE(int)     intcor
     20.31     -21.18       1.99        0.00     122.20       2.05       0.07       0.81       ----

> <Gold.Chemscore.Fitness>
20.3063

> <Gold.Chemscore.DG>
-21.1814

> <Gold.Chemscore.ZeroCoef>
-5.4800

> <Gold.Chemscore.Hbond>
1.9914

> <Gold.Chemscore.Metal>
0.0000

> <Gold.Chemscore.Lipo>
122.2026

> <Gold.Chemscore.Internal_Hbond>
0.0000

> <Gold.Chemscore.DEClash>
0.0662

> <Gold.Chemscore.DEInternal>
0.8089

> <Gold.Chemscore.Rot>
2.0498

> <Gold.Chemscore.Internal.Correction>
   9.000000E+99

> <Gold.Chemscore.Hbonds>
donor molecule, donor type, donor heavy atom, donor atom, acceptor molecule, acceptor atom, score
      L1  H     9    34       P1  8028  0.98
      L1  H    12    38       P1  7957  0.99

> <Gold.Chemscore.Hbond.Weighted>
-6.6512

> <Gold.Chemscore.Metal.Weighted>
-0.0000

> <Gold.Chemscore.Lipo.Weighted>
-14.2977

> <Gold.Chemscore.Internal_Hbond.Weighted>
0.0000

> <Gold.Chemscore.DEClash.Weighted>
0.0662

> <Gold.Chemscore.DEInternal.Weighted>
0.8089

> <Gold.Chemscore.Rot.Weighted>
5.2475

> <Gold.Chemscore.Internal.Correction.Weighted>
   9.000000E+99

> <Gold.Protein.RotatedTorsions>
[ 6907 6896 6895 6894 ] final   28.47 input  -60.11 | X-H torsion
[ 7974 7965 7964 7962 ] final   72.97 input  175.53 | X-H torsion
[ 8008 7997 7996 7995 ] final   62.69 input   59.86 | X-H torsion
[ 10167 10162 10161 10158 ] final  -48.88 input  -65.29 | X-H torsion
[ 10718 10713 10712 10709 ] final -133.77 input   66.30 | X-H torsion
[ 10763 10752 10751 10750 ] final   65.19 input  -60.55 | X-H torsion
[ 11005 11000 10999 10996 ] final   51.53 input  -57.11 | X-H torsion

> <Gold.Protein.ActiveResidues>
 VAL166  LYS551  ARG553  GLY616  TRP617  ASP618  TYR619  PRO620  LYS621  CYS622 
 ASP623  PHE694  ASN695  SER759  ASP760  ASP761  ALA762  ILE779  LEU786  VAL792 
 PHE793  MET794  SER795  GLU796  ALA797  LYS798  CYS799  TRP800  GLU811  SER814 

> <Gold.Protein.RotatedAtoms>
  152.0175  134.9842  160.0569 H   0  0  0  0  0  0  0  0  0  0  0  0  # atno 6907 bound_to 6896
  152.1369  133.4436  159.4756 H   0  0  0  0  0  0  0  0  0  0  0  0  # atno 6908 bound_to 6896
  150.6861  134.2270  159.4462 H   0  0  0  0  0  0  0  0  0  0  0  0  # atno 6909 bound_to 6896
  145.7467  139.2743  143.1455 H   0  0  0  0  0  0  0  0  0  0  0  0  # atno 7974 bound_to 7965
  155.6184  140.3495  155.4644 H   0  0  0  0  0  0  0  0  0  0  0  0  # atno 8008 bound_to 7997
  156.0099  140.1231  157.0489 H   0  0  0  0  0  0  0  0  0  0  0  0  # atno 8009 bound_to 7997
  154.4277  140.1084  156.5800 H   0  0  0  0  0  0  0  0  0  0  0  0  # atno 8010 bound_to 7997
  140.6710  143.2721  151.4135 H   0  0  0  0  0  0  0  0  0  0  0  0  # atno 10167 bound_to 10162
  156.2484  130.7138  151.1028 H   0  0  0  0  0  0  0  0  0  0  0  0  # atno 10718 bound_to 10713
  153.0086  135.5366  154.6629 H   0  0  0  0  0  0  0  0  0  0  0  0  # atno 10763 bound_to 10752
  154.5833  135.2852  155.0713 H   0  0  0  0  0  0  0  0  0  0  0  0  # atno 10764 bound_to 10752
  154.1834  135.6512  153.5092 H   0  0  0  0  0  0  0  0  0  0  0  0  # atno 10765 bound_to 10752
  140.0924  134.5191  155.8839 H   0  0  0  0  0  0  0  0  0  0  0  0  # atno 11005 bound_to 11000
  146.0396  140.8178  142.9835 LP  0  0  0  0  0  0  0  0  0  0  0  0  # atno 17320 bound_to 7965
  144.6858  140.2890  143.7281 LP  0  0  0  0  0  0  0  0  0  0  0  0  # atno 17321 bound_to 7965
  139.5979  144.1357  152.2165 LP  0  0  0  0  0  0  0  0  0  0  0  0  # atno 17342 bound_to 10162
  140.0732  144.5761  150.7176 LP  0  0  0  0  0  0  0  0  0  0  0  0  # atno 17343 bound_to 10162
  157.7204  131.0684  150.6157 LP  0  0  0  0  0  0  0  0  0  0  0  0  # atno 17370 bound_to 10713
  156.6235  130.4412  149.5813 LP  0  0  0  0  0  0  0  0  0  0  0  0  # atno 17371 bound_to 10713
  141.2082  133.6671  156.6355 LP  0  0  0  0  0  0  0  0  0  0  0  0  # atno 17394 bound_to 11000
  140.3333  134.7910  157.4343 LP  0  0  0  0  0  0  0  0  0  0  0  0  # atno 17395 bound_to 11000

$$$$
