#       Name:                AV-unprocessed.smi:119
#       Creating user name   scv26
#       Creation time:       Thu Mar 26 18:26:27 2020


#       File generated by GOLD software.
#

@<TRIPOS>MOLECULE
AV-unprocessed.smi:119
    59    62     1
SMALL
NO_CHARGES


@<TRIPOS>ATOM
      1 ****        -3.2313  -3.1220   2.4125 C.3            1 S1                 0.0000
      2 ****        -2.5698  -3.1021   1.0284 C.3            1 S1                 0.0000
      3 ****        -3.0810  -1.9142   0.1881 C.3            1 S1                 0.0000
      4 ****        -2.6664  -1.9507  -1.2948 C.3            1 S1                 0.0000
      5 ****        -1.2328  -1.7016  -1.4765 N.am           1 S1                 0.0000
      6 ****        -0.7444  -0.4359  -1.5112 C.2            1 S1                 0.0000
      7 ****        -1.4819   0.5518  -1.4727 O.2            1 S1                 0.0000
      8 ****         0.7854  -0.2265  -1.5901 C.3            1 S1                 0.0000
      9 ****         1.2050   1.1515  -1.2534 N.am           1 S1                 0.0000
     10 ****         1.3775   2.0913  -2.2997 C.2            1 S1                 0.0000
     11 ****         1.2015   1.7763  -3.4775 O.2            1 S1                 0.0000
     12 ****         1.7593   3.4356  -1.8814 C.2            1 S1                 0.0000
     13 ****         1.9387   4.3945  -2.8056 F              1 S1                 0.0000
     14 ****         1.9299   3.7356  -0.5773 C.2            1 S1                 0.0000
     15 ****         1.7608   2.8066   0.4331 N.am           1 S1                 0.0000
     16 ****         1.9418   3.1802   1.8881 C.3            1 S1                 0.0000
     17 ****         0.5968   3.5847   2.5023 C.3            1 S1                 0.0000
     18 ****         0.6130   5.0872   2.3232 C.3            1 S1                 0.0000
     19 ****         2.0917   5.4034   2.5174 C.3            1 S1                 0.0000
     20 ****         2.7934   4.2870   1.9750 O.3            1 S1                 0.0000
     21 ****         1.3783   1.4868   0.1110 C.2            1 S1                 0.0000
     22 ****         1.1877   0.6517   0.9984 O.2            1 S1                 0.0000
     23 ****        -0.3888  -2.8408  -1.5233 C.ar           1 S1                 0.0000
     24 ****         0.1614  -3.2505  -2.7579 C.ar           1 S1                 0.0000
     25 ****         1.0028  -4.3779  -2.8177 C.ar           1 S1                 0.0000
     26 ****         1.2973  -5.0999  -1.6455 C.ar           1 S1                 0.0000
     27 ****         0.7473  -4.6979  -0.4131 C.ar           1 S1                 0.0000
     28 ****        -0.1015  -3.5752  -0.3483 C.ar           1 S1                 0.0000
     29 ****        -0.7617  -3.0953   1.2197 S.3            1 S1                 0.0000
     30 ****        -4.3161  -3.1922   2.3300 H              1 S1                 0.0000
     31 ****        -2.9968  -2.2183   2.9759 H              1 S1                 0.0000
     32 ****        -2.8906  -3.9770   2.9972 H              1 S1                 0.0000
     33 ****        -2.8353  -4.0307   0.5218 H              1 S1                 0.0000
     34 ****        -4.1709  -1.9132   0.2230 H              1 S1                 0.0000
     35 ****        -2.7720  -0.9727   0.6445 H              1 S1                 0.0000
     36 ****        -2.9272  -2.9188  -1.7252 H              1 S1                 0.0000
     37 ****        -3.2519  -1.2230  -1.8595 H              1 S1                 0.0000
     38 ****         1.2922  -0.9270  -0.9245 H              1 S1                 0.0000
     39 ****         1.1219  -0.5130  -2.5871 H              1 S1                 0.0000
     40 ****         2.2038   4.7496  -0.3270 H              1 S1                 0.0000
     41 ****         2.4084   2.3183   2.3680 H              1 S1                 0.0000
     42 ****        -0.2481   3.0878   2.0234 H              1 S1                 0.0000
     43 ****         0.6058   3.3253   3.5618 H              1 S1                 0.0000
     44 ****         0.2981   5.3497   1.3126 H              1 S1                 0.0000
     45 ****        -0.0322   5.6106   3.0291 H              1 S1                 0.0000
     46 ****         2.3889   6.3351   2.0355 H              1 S1                 0.0000
     47 ****         2.3269   5.4800   3.5798 H              1 S1                 0.0000
     48 ****        -0.0595  -2.6995  -3.6606 H              1 S1                 0.0000
     49 ****         1.4235  -4.6881  -3.7628 H              1 S1                 0.0000
     50 ****         1.9449  -5.9631  -1.6908 H              1 S1                 0.0000
     51 ****         0.9773  -5.2557   0.4828 H              1 S1                 0.0000
     52 ****        -2.4732   0.4337  -1.4140 LP             1 S1                 0.0000
     53 ****        -1.0887   1.4709  -1.5001 LP             1 S1                 0.0000
     54 ****         0.9316   0.8420  -3.7102 LP             1 S1                 0.0000
     55 ****         1.3285   2.4550  -4.2009 LP             1 S1                 0.0000
     56 ****         3.1287   4.5189   1.0619 LP             1 S1                 0.0000
     57 ****         3.5673   4.0632   2.5674 LP             1 S1                 0.0000
     58 ****         0.9066  -0.2775   0.7585 LP             1 S1                 0.0000
     59 ****         1.3142   0.9039   1.9578 LP             1 S1                 0.0000
@<TRIPOS>BOND
    1    1    2 1     
    2    1   30 1     
    3    1   31 1     
    4    1   32 1     
    5    2   29 1     
    6    2    3 1     
    7    2   33 1     
    8    3    4 1     
    9    3   34 1     
   10    3   35 1     
   11    4    5 1     
   12    4   36 1     
   13    4   37 1     
   14    5    6 am    
   15    5   23 1     
   16    6    7 2     
   17    6    8 1     
   18    8    9 1     
   19    8   38 1     
   20    8   39 1     
   21    9   21 am    
   22    9   10 am    
   23   10   11 2     
   24   10   12 1     
   25   12   13 1     
   26   12   14 2     
   27   14   15 1     
   28   14   40 1     
   29   15   16 1     
   30   15   21 am    
   31   16   20 1     
   32   16   17 1     
   33   16   41 1     
   34   17   18 1     
   35   17   42 1     
   36   17   43 1     
   37   18   19 1     
   38   18   44 1     
   39   18   45 1     
   40   19   20 1     
   41   19   46 1     
   42   19   47 1     
   43   21   22 2     
   44   23   28 ar    
   45   23   24 ar    
   46   24   25 ar    
   47   24   48 1     
   48   25   26 ar    
   49   25   49 1     
   50   26   27 ar    
   51   26   50 1     
   52   27   28 ar    
   53   27   51 1     
   54   28   29 1     
   55    7   52 1     
   56    7   53 1     
   57   11   54 1     
   58   11   55 1     
   59   20   56 1     
   60   20   57 1     
   61   22   58 1     
   62   22   59 1     
@<TRIPOS>SUBSTRUCTURE
      1 S1             1
@<TRIPOS>SET
LONE_PAIRS      STATIC     ATOMS    <user>   **** ""
8 52 53 54 55 56 57 58 59
ATOM$BLUE        STATIC     ATOMS    COLORGROUP SYSTEM
8 52 53 54 55 56 57 58 59
