AV-unprocessed.smi:224|AV-procd|sdf|1716|dock4
  -GOLD-   2262020193D 1   1.00000     0.00000
 Structure written by MMmdl.
 56 59  0  0  0  0  0  0  0  0  2 V2000
  145.3591  132.1928  149.2335 C   0  0  0  0  0  0  0  0  0  0  0  0
  144.0874  132.7676  149.8709 C   0  0  1  0  0  0  0  0  0  0  0  0
  143.0073  132.4960  149.0005 O   0  0  0  0  0  0  0  0  0  0  0  0
  143.8059  132.1385  151.2502 C   0  0  0  0  0  0  0  0  0  0  0  0
  143.9874  133.0990  152.3703 N   0  3  2  0  0  0  0  0  0  0  0  0
  143.2602  134.3838  152.1840 C   0  0  0  0  0  0  0  0  0  0  0  0
  143.3729  135.2682  153.4390 C   0  0  0  0  0  0  0  0  0  0  0  0
  144.7681  135.4504  153.8349 N   0  0  0  0  0  0  0  0  0  0  0  0
  145.4639  136.5189  153.3599 C   0  0  0  0  0  0  0  0  0  0  0  0
  145.2583  136.9404  152.0829 N   0  0  0  0  0  0  0  0  0  0  0  0
  145.9496  137.9707  151.5881 C   0  0  0  0  0  0  0  0  0  0  0  0
  146.8773  138.7162  152.1888 N   0  0  0  0  0  0  0  0  0  0  0  0
  147.0761  138.3160  153.4767 C   0  0  0  0  0  0  0  0  0  0  0  0
  146.4197  137.2372  154.1355 C   0  0  0  0  0  0  0  0  0  0  0  0
  146.8785  137.1389  155.4444 N   0  0  0  0  0  0  0  0  0  0  0  0
  147.7608  138.0946  155.5488 C   0  0  0  0  0  0  0  0  0  0  0  0
  147.9380  138.8549  154.4154 N   0  0  0  0  0  0  0  0  0  0  0  0
  148.8467  139.9791  154.2526 C   0  0  0  0  0  0  0  0  0  0  0  0
  148.1917  141.3483  154.5494 C   0  0  1  0  0  0  0  0  0  0  0  0
  149.1713  142.3662  154.4375 O   0  0  0  0  0  0  0  0  0  0  0  0
  147.0270  141.6954  153.6256 C   0  0  0  0  0  0  0  0  0  0  0  0
  146.1060  142.5043  154.5281 C   0  0  0  0  0  0  0  0  0  0  0  0
  146.2039  141.8145  155.7619 O   0  0  0  0  0  0  0  0  0  0  0  0
  147.5613  141.4300  155.9543 C   0  0  0  0  0  0  0  0  0  0  0  0
  145.5060  134.2019  154.0212 C   0  0  0  0  0  0  0  0  0  0  0  0
  145.4115  133.2859  152.7800 C   0  0  2  0  0  0  0  0  0  0  0  0
  146.3223  133.7653  151.6285 C   0  0  0  0  0  0  0  0  0  0  0  0
  146.2326  132.3912  149.8553 H   0  0  0  0  0  0  0  0  0  0  0  0
  145.5451  132.6377  148.2551 H   0  0  0  0  0  0  0  0  0  0  0  0
  145.2852  131.1130  149.0995 H   0  0  0  0  0  0  0  0  0  0  0  0
  144.2039  133.8479  149.9489 H   0  0  0  0  0  0  0  0  0  0  0  0
  142.2488  132.9798  149.2887 H   0  0  0  0  0  0  0  0  0  0  0  0
  142.7840  131.7557  151.2512 H   0  0  0  0  0  0  0  0  0  0  0  0
  144.4545  131.2763  151.4130 H   0  0  0  0  0  0  0  0  0  0  0  0
  143.6534  134.9075  151.3122 H   0  0  0  0  0  0  0  0  0  0  0  0
  142.2066  134.1986  151.9803 H   0  0  0  0  0  0  0  0  0  0  0  0
  142.8753  136.2266  153.2842 H   0  0  0  0  0  0  0  0  0  0  0  0
  142.8488  134.7911  154.2680 H   0  0  0  0  0  0  0  0  0  0  0  0
  145.7290  138.2355  150.5645 H   0  0  0  0  0  0  0  0  0  0  0  0
  148.3060  138.2754  156.4636 H   0  0  0  0  0  0  0  0  0  0  0  0
  149.6997  139.8218  154.9143 H   0  0  0  0  0  0  0  0  0  0  0  0
  149.2425  139.9606  153.2363 H   0  0  0  0  0  0  0  0  0  0  0  0
  148.8077  143.1710  154.7740 H   0  0  0  0  0  0  0  0  0  0  0  0
  147.3237  142.2290  152.7215 H   0  0  0  0  0  0  0  0  0  0  0  0
  146.5046  140.7883  153.3195 H   0  0  0  0  0  0  0  0  0  0  0  0
  146.4679  143.5267  154.6458 H   0  0  0  0  0  0  0  0  0  0  0  0
  145.0791  142.5380  154.1641 H   0  0  0  0  0  0  0  0  0  0  0  0
  147.5918  140.4757  156.4812 H   0  0  0  0  0  0  0  0  0  0  0  0
  148.0615  142.1659  156.5864 H   0  0  0  0  0  0  0  0  0  0  0  0
  146.5515  134.3699  154.2742 H   0  0  0  0  0  0  0  0  0  0  0  0
  145.0717  133.6905  154.8810 H   0  0  0  0  0  0  0  0  0  0  0  0
  145.7842  132.3077  153.0870 H   0  0  0  0  0  0  0  0  0  0  0  0
  147.3432  133.9129  151.9814 H   0  0  0  0  0  0  0  0  0  0  0  0
  145.9882  134.7096  151.2009 H   0  0  0  0  0  0  0  0  0  0  0  0
  146.3691  133.0370  150.8192 H   0  0  0  0  0  0  0  0  0  0  0  0
  143.5534  132.6581  153.1683 H   0  0  0  0  0  0  0  0  0  0  0  0
  1  2  1  0  0  0  0
  1 28  1  0  0  0  0
  1 29  1  0  0  0  0
  1 30  1  0  0  0  0
  2  3  1  0  0  0  0
  2  4  1  0  0  0  0
  2 31  1  0  0  0  0
  3 32  1  0  0  0  0
  4  5  1  0  0  0  0
  4 33  1  0  0  0  0
  4 34  1  0  0  0  0
  5 26  1  0  0  0  0
  5  6  1  0  0  0  0
  5 56  1  0  0  0  0
  6  7  1  0  0  0  0
  6 35  1  0  0  0  0
  6 36  1  0  0  0  0
  7  8  1  0  0  0  0
  7 37  1  0  0  0  0
  7 38  1  0  0  0  0
  8  9  1  0  0  0  0
  8 25  1  0  0  0  0
  9 14  1  0  0  0  0
  9 10  2  0  0  0  0
 10 11  1  0  0  0  0
 11 12  2  0  0  0  0
 11 39  1  0  0  0  0
 12 13  1  0  0  0  0
 13 17  1  0  0  0  0
 13 14  2  0  0  0  0
 14 15  1  0  0  0  0
 15 16  2  0  0  0  0
 16 17  1  0  0  0  0
 16 40  1  0  0  0  0
 17 18  1  0  0  0  0
 18 19  1  0  0  0  0
 18 41  1  0  0  0  0
 18 42  1  0  0  0  0
 19 24  1  0  0  0  0
 19 20  1  0  0  0  0
 19 21  1  0  0  0  0
 20 43  1  0  0  0  0
 21 22  1  0  0  0  0
 21 44  1  0  0  0  0
 21 45  1  0  0  0  0
 22 23  1  0  0  0  0
 22 46  1  0  0  0  0
 22 47  1  0  0  0  0
 23 24  1  0  0  0  0
 24 48  1  0  0  0  0
 24 49  1  0  0  0  0
 25 26  1  0  0  0  0
 25 50  1  0  0  0  0
 25 51  1  0  0  0  0
 26 27  1  0  0  0  0
 26 52  1  0  0  0  0
 27 53  1  0  0  0  0
 27 54  1  0  0  0  0
 27 55  1  0  0  0  0
M  CHG  1   5   1
M  END
> <s_m_source_file>
AV-unprocessed.smi

> <i_m_source_file_index>
224

> <i_lp_mmshare_version>
43012

> <i_f3d_flags>
0

> <s_epik_input>
W0NIM11bQ0BIXShbT0hdKVtDSDJdTjFbQ0gyXVtDSDJdTihbQ0gyXVtDQEhdMVtDSDNdKWMobltjSF1uMiljKGMyMyluW2NIXW4zW0NIMl1bQ0BAXTQoW09IXSlbQ0gyXVtDSDJdT1tDSDJdNA==

> <s_epik_cmdline>
J2VwaWtfcHl0aG9uJywgJy1waCcsICc3LjAnLCAnLXRuJywgJzgnLCAnLW1hJywgJzIwMCcsICctbWV0YWxfYmluZGluZycsICctaW1hZScsICc8aW5maWxlLm1hZT4nLCAnLW9tYWUnLCAnPG91dGZpbGUubWFlPic=

> <r_lp_tautomer_probability>
1

> <r_epik_Ionization_Penalty>
0.00516958

> <r_epik_Ionization_Penalty_Charging>
0.00509693

> <r_epik_Ionization_Penalty_Neutral>
7.26542e-05

> <r_epik_State_Penalty>
-0

> <r_epik_Charging_Adjusted_Penalty>
0.00509693

> <i_epik_Tot_Q>
1

> <i_epik_Tot_abs_Q>
1

> <r_epik_Metal_State_Penalty>
-0

> <b_epik_Metal_Only>
0

> <s_lp_Force_Field>
OPLS_2005

> <r_lp_Energy>
50.5155

> <b_lp_Chiralities_Consistent>
1

> <s_lp_Variant>
AV-unprocessed.smi:224-10

> <Gold.Version>
5.8.1

> <Gold.Id.Protein>
6NUR|6NUR_protein|mol2

> <Gold.PLP.Fitness>
52.0476

> <Gold.PLP.PLP>
-40.0918

> <Gold.PLP.part.hbond>
-5.0589

> <Gold.PLP.part.metal>
0.0000

> <Gold.PLP.part.buried>
-4.8509

> <Gold.PLP.part.nonpolar>
-30.8667

> <Gold.PLP.part.repulsive>
0.6944

> <Gold.PLP.ligand.clash>
0.0000

> <Gold.PLP.ligand.torsion>
2.1561

> <Gold.PLP.Chemscore.Hbond>
4.4421

> <Gold.PLP.Chemscore.CHOScore>
0.8699

> <Gold.PLP.Chemscore.Metal>
0.0000

> <Gold.Chemscore.Hbonds>
donor molecule, donor type, donor heavy atom, donor atom, acceptor molecule, acceptor atom, score
      L1  H     3    32       P1 10186  1.00
      L1  H     5    56       P1 10957  1.98
      L1  H    20    43       P1  8028  1.00
      P1  H  8011  8017       L1    20  0.11
      P1  H 10785 10796       L1     3  0.15
      L1  C    11    39       P1 10171  0.91

> <Gold.PLP.Chemscore.Internal.Correction>
0.3321

> <Gold.Rescore>
     Score         DG    S(hbond)    S(metal)    S(lipo)     H(rot)  DE(clash)    DE(int)     intcor
     12.83     -15.42       2.56        0.00      77.96       3.02       0.30       2.30       ----

> <Gold.Chemscore.Fitness>
12.8259

> <Gold.Chemscore.DG>
-15.4205

> <Gold.Chemscore.ZeroCoef>
-5.4800

> <Gold.Chemscore.Hbond>
2.5623

> <Gold.Chemscore.Metal>
0.0000

> <Gold.Chemscore.Lipo>
77.9630

> <Gold.Chemscore.Internal_Hbond>
0.0000

> <Gold.Chemscore.DEClash>
0.2955

> <Gold.Chemscore.DEInternal>
2.2991

> <Gold.Chemscore.Rot>
3.0231

> <Gold.Chemscore.Internal.Correction>
   9.000000E+99

> <Gold.Chemscore.Hbonds>
donor molecule, donor type, donor heavy atom, donor atom, acceptor molecule, acceptor atom, score
      L1  H     3    32       P1 10186  0.99
      L1  H     5    56       P1 10957  0.24
      L1  H    20    43       P1  8028  0.98
      P1  H  8011  8017       L1    20  0.07
      P1  H 10785 10796       L1     3  0.05

> <Gold.Chemscore.Hbond.Weighted>
-8.5579

> <Gold.Chemscore.Metal.Weighted>
-0.0000

> <Gold.Chemscore.Lipo.Weighted>
-9.1217

> <Gold.Chemscore.Internal_Hbond.Weighted>
0.0000

> <Gold.Chemscore.DEClash.Weighted>
0.2955

> <Gold.Chemscore.DEInternal.Weighted>
2.2991

> <Gold.Chemscore.Rot.Weighted>
7.7391

> <Gold.Chemscore.Internal.Correction.Weighted>
   9.000000E+99

> <Gold.Protein.RotatedTorsions>
[ 6907 6896 6895 6894 ] final  141.53 input  -60.11 | X-H torsion
[ 7974 7965 7964 7962 ] final  118.10 input  175.53 | X-H torsion
[ 8008 7997 7996 7995 ] final  176.67 input   59.86 | X-H torsion
[ 10167 10162 10161 10158 ] final  172.10 input  -65.29 | X-H torsion
[ 10718 10713 10712 10709 ] final   59.01 input   66.30 | X-H torsion
[ 10763 10752 10751 10750 ] final   80.34 input  -60.55 | X-H torsion
[ 11005 11000 10999 10996 ] final   67.63 input  -57.11 | X-H torsion

> <Gold.Protein.ActiveResidues>
 VAL166  LYS551  ARG553  GLY616  TRP617  ASP618  TYR619  PRO620  LYS621  CYS622 
 ASP623  PHE694  ASN695  SER759  ASP760  ASP761  ALA762  ILE779  LEU786  VAL792 
 PHE793  MET794  SER795  GLU796  ALA797  LYS798  CYS799  TRP800  GLU811  SER814 

> <Gold.Protein.RotatedAtoms>
  152.2299  133.5050  159.5209 H   0  0  0  0  0  0  0  0  0  0  0  0  # atno 6907 bound_to 6896
  150.7034  134.1230  159.4051 H   0  0  0  0  0  0  0  0  0  0  0  0  # atno 6908 bound_to 6896
  151.9152  135.0322  160.0568 H   0  0  0  0  0  0  0  0  0  0  0  0  # atno 6909 bound_to 6896
  145.1593  139.3164  143.4525 H   0  0  0  0  0  0  0  0  0  0  0  0  # atno 7974 bound_to 7965
  156.0740  140.1378  156.9794 H   0  0  0  0  0  0  0  0  0  0  0  0  # atno 8008 bound_to 7997
  154.4547  140.0966  156.6773 H   0  0  0  0  0  0  0  0  0  0  0  0  # atno 8009 bound_to 7997
  155.5183  140.3455  155.4404 H   0  0  0  0  0  0  0  0  0  0  0  0  # atno 8010 bound_to 7997
  139.5066  144.3411  152.0017 H   0  0  0  0  0  0  0  0  0  0  0  0  # atno 10167 bound_to 10162
  157.5642  130.8858  149.9160 H   0  0  0  0  0  0  0  0  0  0  0  0  # atno 10718 bound_to 10713
  153.1025  135.4806  154.8893 H   0  0  0  0  0  0  0  0  0  0  0  0  # atno 10763 bound_to 10752
  154.7395  135.3079  154.8756 H   0  0  0  0  0  0  0  0  0  0  0  0  # atno 10764 bound_to 10752
  153.9368  135.6838  153.4798 H   0  0  0  0  0  0  0  0  0  0  0  0  # atno 10765 bound_to 10752
  139.9759  134.6823  156.0355 H   0  0  0  0  0  0  0  0  0  0  0  0  # atno 11005 bound_to 11000
  146.3484  140.1697  142.8590 LP  0  0  0  0  0  0  0  0  0  0  0  0  # atno 17320 bound_to 7965
  145.0348  140.8899  143.5088 LP  0  0  0  0  0  0  0  0  0  0  0  0  # atno 17321 bound_to 7965
  140.2849  144.3818  150.6107 LP  0  0  0  0  0  0  0  0  0  0  0  0  # atno 17342 bound_to 10162
  140.5990  143.2167  151.7108 LP  0  0  0  0  0  0  0  0  0  0  0  0  # atno 17343 bound_to 10162
  156.0692  130.3687  150.0813 LP  0  0  0  0  0  0  0  0  0  0  0  0  # atno 17370 bound_to 10713
  156.8973  130.9608  151.3581 LP  0  0  0  0  0  0  0  0  0  0  0  0  # atno 17371 bound_to 10713
  141.1436  133.6560  156.3801 LP  0  0  0  0  0  0  0  0  0  0  0  0  # atno 17394 bound_to 11000
  140.5196  134.6317  157.5313 LP  0  0  0  0  0  0  0  0  0  0  0  0  # atno 17395 bound_to 11000

$$$$
