AV-unprocessed.smi:2157|AV-procd|sdf|8783|dock5
  -GOLD-   2272011563D 1   1.00000     0.00000
 Structure written by MMmdl.
 41 42  0  0  0  0  0  0  0  0  1 V2000
  147.9290  141.6168  154.4310 C   0  0  0  0  0  0  0  0  0  0  0  0
  148.9290  140.5686  154.9391 C   0  0  2  0  0  0  0  0  0  0  0  0
  150.0250  141.2135  155.8088 C   0  0  0  0  0  0  0  0  0  0  0  0
  151.0314  140.1688  156.3153 C   0  0  0  0  0  0  0  0  0  0  0  0
  151.6587  139.3872  155.1491 C   0  0  0  0  0  0  0  0  0  0  0  0
  150.5906  138.7361  154.2448 C   0  0  1  0  0  0  0  0  0  0  0  0
  149.9185  137.6280  154.9215 N   0  0  0  0  0  0  0  0  0  0  0  0
  150.4435  136.4125  155.1367 C   0  0  0  0  0  0  0  0  0  0  0  0
  151.5828  136.0979  154.7898 O   0  0  0  0  0  0  0  0  0  0  0  0
  149.5439  135.4144  155.8784 C   0  0  0  0  0  0  0  0  0  0  0  0
  149.6360  134.0495  155.3447 N   0  0  0  0  0  0  0  0  0  0  0  0
  149.1922  133.7831  154.0625 C   0  0  0  0  0  0  0  0  0  0  0  0
  149.2251  132.5536  153.5035 C   0  0  0  0  0  0  0  0  0  0  0  0
  149.7456  131.4083  154.2406 C   0  0  0  0  0  0  0  0  0  0  0  0
  149.7843  130.2712  153.7699 O   0  0  0  0  0  0  0  0  0  0  0  0
  150.1995  131.7108  155.5472 N   0  0  0  0  0  0  0  0  0  0  0  0
  150.7278  130.6466  156.3750 C   0  0  0  0  0  0  0  0  0  0  0  0
  150.1558  132.9970  156.1281 C   0  0  0  0  0  0  0  0  0  0  0  0
  150.5507  133.2037  157.2785 O   0  0  0  0  0  0  0  0  0  0  0  0
  149.5579  139.7789  153.7715 C   0  0  0  0  0  0  0  0  0  0  0  0
  148.4179  142.3570  153.7969 H   0  0  0  0  0  0  0  0  0  0  0  0
  147.4603  142.1470  155.2604 H   0  0  0  0  0  0  0  0  0  0  0  0
  147.1344  141.1512  153.8474 H   0  0  0  0  0  0  0  0  0  0  0  0
  148.3738  139.8679  155.5640 H   0  0  0  0  0  0  0  0  0  0  0  0
  150.5523  141.9754  155.2329 H   0  0  0  0  0  0  0  0  0  0  0  0
  149.5740  141.7268  156.6585 H   0  0  0  0  0  0  0  0  0  0  0  0
  151.8147  140.6590  156.8938 H   0  0  0  0  0  0  0  0  0  0  0  0
  150.5326  139.4785  156.9965 H   0  0  0  0  0  0  0  0  0  0  0  0
  152.2621  140.0704  154.5503 H   0  0  0  0  0  0  0  0  0  0  0  0
  152.3490  138.6347  155.5315 H   0  0  0  0  0  0  0  0  0  0  0  0
  151.0852  138.3361  153.3579 H   0  0  0  0  0  0  0  0  0  0  0  0
  148.9781  137.7998  155.2466 H   0  0  0  0  0  0  0  0  0  0  0  0
  149.8261  135.4211  156.9319 H   0  0  0  0  0  0  0  0  0  0  0  0
  148.5084  135.7586  155.8489 H   0  0  0  0  0  0  0  0  0  0  0  0
  148.7925  134.5977  153.4765 H   0  0  0  0  0  0  0  0  0  0  0  0
  148.8583  132.4147  152.4972 H   0  0  0  0  0  0  0  0  0  0  0  0
  151.7093  130.9632  156.7327 H   0  0  0  0  0  0  0  0  0  0  0  0
  150.8357  129.7212  155.8104 H   0  0  0  0  0  0  0  0  0  0  0  0
  150.0281  130.5081  157.2008 H   0  0  0  0  0  0  0  0  0  0  0  0
  148.7781  139.2892  153.1863 H   0  0  0  0  0  0  0  0  0  0  0  0
  150.0494  140.4769  153.0924 H   0  0  0  0  0  0  0  0  0  0  0  0
  1  2  1  0  0  0  0
  1 21  1  0  0  0  0
  1 22  1  0  0  0  0
  1 23  1  0  0  0  0
  2 20  1  0  0  0  0
  2  3  1  0  0  0  0
  2 24  1  0  0  0  0
  3  4  1  0  0  0  0
  3 25  1  0  0  0  0
  3 26  1  0  0  0  0
  4  5  1  0  0  0  0
  4 27  1  0  0  0  0
  4 28  1  0  0  0  0
  5  6  1  0  0  0  0
  5 29  1  0  0  0  0
  5 30  1  0  0  0  0
  6  7  1  0  0  0  0
  6 20  1  0  0  0  0
  6 31  1  0  0  0  0
  7  8  1  0  0  0  0
  7 32  1  0  0  0  0
  8  9  2  0  0  0  0
  8 10  1  0  0  0  0
 10 11  1  0  0  0  0
 10 33  1  0  0  0  0
 10 34  1  0  0  0  0
 11 18  1  0  0  0  0
 11 12  1  0  0  0  0
 12 13  2  0  0  0  0
 12 35  1  0  0  0  0
 13 14  1  0  0  0  0
 13 36  1  0  0  0  0
 14 15  2  0  0  0  0
 14 16  1  0  0  0  0
 16 17  1  0  0  0  0
 16 18  1  0  0  0  0
 17 37  1  0  0  0  0
 17 38  1  0  0  0  0
 17 39  1  0  0  0  0
 18 19  2  0  0  0  0
 20 40  1  0  0  0  0
 20 41  1  0  0  0  0
M  END
> <s_m_source_file>
AV-unprocessed.smi

> <i_m_source_file_index>
2157

> <i_lp_mmshare_version>
43012

> <i_f3d_flags>
0

> <s_epik_input>
W0NIM11bQ0BASF0xW0NIMl1bQ0gyXVtDSDJdW0NASF0oW0NIMl0xKVtOSF1DKD1PKVtDSDJdbjJbY0hdW2NIXWMoPU8pbihbQ0gzXSljMj1P

> <s_epik_cmdline>
J2VwaWtfcHl0aG9uJywgJy1waCcsICc3LjAnLCAnLXRuJywgJzgnLCAnLW1hJywgJzIwMCcsICctbWV0YWxfYmluZGluZycsICctaW1hZScsICc8aW5maWxlLm1hZT4nLCAnLW9tYWUnLCAnPG91dGZpbGUubWFlPic=

> <r_lp_tautomer_probability>
1

> <r_epik_Ionization_Penalty>
3.1838e-08

> <r_epik_Ionization_Penalty_Charging>
1.27911e-08

> <r_epik_Ionization_Penalty_Neutral>
1.90469e-08

> <r_epik_State_Penalty>
-0

> <r_epik_Charging_Adjusted_Penalty>
1.27911e-08

> <i_epik_Tot_Q>
0

> <i_epik_Tot_abs_Q>
0

> <r_epik_Metal_State_Penalty>
-0

> <b_epik_Metal_Only>
0

> <s_lp_Force_Field>
OPLS_2005

> <r_lp_Energy>
16.0352

> <b_lp_Chiralities_Consistent>
1

> <s_lp_Variant>
AV-unprocessed.smi:2157-1

> <Gold.Version>
5.8.1

> <Gold.Id.Protein>
6NUR|6NUR_protein|mol2

> <Gold.PLP.Fitness>
42.1658

> <Gold.PLP.PLP>
-34.4772

> <Gold.PLP.part.hbond>
-2.0000

> <Gold.PLP.part.metal>
0.0000

> <Gold.PLP.part.buried>
1.2135

> <Gold.PLP.part.nonpolar>
-34.5290

> <Gold.PLP.part.repulsive>
0.2569

> <Gold.PLP.ligand.clash>
0.0000

> <Gold.PLP.ligand.torsion>
0.5282

> <Gold.PLP.Chemscore.Hbond>
1.9120

> <Gold.PLP.Chemscore.CHOScore>
1.0000

> <Gold.PLP.Chemscore.Metal>
0.0000

> <Gold.Chemscore.Hbonds>
donor molecule, donor type, donor heavy atom, donor atom, acceptor molecule, acceptor atom, score
      P1  H  6896  6908       L1    19  1.00
      P1  H 10752 10764       L1     9  0.91
      L1  C    12    35       P1  7948  1.00

> <Gold.PLP.Chemscore.Internal.Correction>
0.0090

> <Gold.Rescore>
     Score         DG    S(hbond)    S(metal)    S(lipo)     H(rot)  DE(clash)    DE(int)     intcor
     14.89     -15.79       2.00        0.00      64.43       1.52       0.31       0.59       ----

> <Gold.Chemscore.Fitness>
14.8924

> <Gold.Chemscore.DG>
-15.7905

> <Gold.Chemscore.ZeroCoef>
-5.4800

> <Gold.Chemscore.Hbond>
1.9982

> <Gold.Chemscore.Metal>
0.0000

> <Gold.Chemscore.Lipo>
64.4290

> <Gold.Chemscore.Internal_Hbond>
0.0000

> <Gold.Chemscore.DEClash>
0.3057

> <Gold.Chemscore.DEInternal>
0.5924

> <Gold.Chemscore.Rot>
1.5242

> <Gold.Chemscore.Internal.Correction>
   9.000000E+99

> <Gold.Chemscore.Hbonds>
donor molecule, donor type, donor heavy atom, donor atom, acceptor molecule, acceptor atom, score
      P1  H  6896  6908       L1    19  0.91
      P1  H 10752 10764       L1     9  0.88

> <Gold.Chemscore.Hbond.Weighted>
-6.6742

> <Gold.Chemscore.Metal.Weighted>
-0.0000

> <Gold.Chemscore.Lipo.Weighted>
-7.5382

> <Gold.Chemscore.Internal_Hbond.Weighted>
0.0000

> <Gold.Chemscore.DEClash.Weighted>
0.3057

> <Gold.Chemscore.DEInternal.Weighted>
0.5924

> <Gold.Chemscore.Rot.Weighted>
3.9019

> <Gold.Chemscore.Internal.Correction.Weighted>
   9.000000E+99

> <Gold.Protein.RotatedTorsions>
[ 6907 6896 6895 6894 ] final  102.27 input  -60.11 | X-H torsion
[ 7974 7965 7964 7962 ] final  163.77 input  175.53 | X-H torsion
[ 8008 7997 7996 7995 ] final -132.11 input   59.86 | X-H torsion
[ 10167 10162 10161 10158 ] final  -68.08 input  -65.29 | X-H torsion
[ 10718 10713 10712 10709 ] final  -16.67 input   66.30 | X-H torsion
[ 10763 10752 10751 10750 ] final  -76.83 input  -60.55 | X-H torsion
[ 11005 11000 10999 10996 ] final  -54.84 input  -57.11 | X-H torsion

> <Gold.Protein.ActiveResidues>
 VAL166  LYS551  ARG553  GLY616  TRP617  ASP618  TYR619  PRO620  LYS621  CYS622 
 ASP623  PHE694  ASN695  SER759  ASP760  ASP761  ALA762  ILE779  LEU786  VAL792 
 PHE793  MET794  SER795  GLU796  ALA797  LYS798  CYS799  TRP800  GLU811  SER814 

> <Gold.Protein.RotatedAtoms>
  152.5328  134.0000  159.7890 H   0  0  0  0  0  0  0  0  0  0  0  0  # atno 6907 bound_to 6896
  151.0221  133.5859  159.2677 H   0  0  0  0  0  0  0  0  0  0  0  0  # atno 6908 bound_to 6896
  151.2895  135.0744  159.9252 H   0  0  0  0  0  0  0  0  0  0  0  0  # atno 6909 bound_to 6896
  144.7575  139.8230  143.6344 H   0  0  0  0  0  0  0  0  0  0  0  0  # atno 7974 bound_to 7965
  155.3236  140.0463  157.3040 H   0  0  0  0  0  0  0  0  0  0  0  0  # atno 8008 bound_to 7997
  154.5367  140.2274  155.8677 H   0  0  0  0  0  0  0  0  0  0  0  0  # atno 8009 bound_to 7997
  156.1841  140.3066  155.9212 H   0  0  0  0  0  0  0  0  0  0  0  0  # atno 8010 bound_to 7997
  140.5534  143.2312  151.6867 H   0  0  0  0  0  0  0  0  0  0  0  0  # atno 10167 bound_to 10162
  156.5843  130.4782  149.6307 H   0  0  0  0  0  0  0  0  0  0  0  0  # atno 10718 bound_to 10713
  154.5050  135.5784  153.6560 H   0  0  0  0  0  0  0  0  0  0  0  0  # atno 10763 bound_to 10752
  152.9886  135.6145  154.2953 H   0  0  0  0  0  0  0  0  0  0  0  0  # atno 10764 bound_to 10752
  154.2864  135.2849  155.2654 H   0  0  0  0  0  0  0  0  0  0  0  0  # atno 10765 bound_to 10752
  141.1045  133.6614  156.4380 H   0  0  0  0  0  0  0  0  0  0  0  0  # atno 11005 bound_to 11000
  146.1601  139.4713  142.9993 LP  0  0  0  0  0  0  0  0  0  0  0  0  # atno 17320 bound_to 7965
  145.6731  141.0211  143.1647 LP  0  0  0  0  0  0  0  0  0  0  0  0  # atno 17321 bound_to 7965
  139.5037  144.3780  152.0404 LP  0  0  0  0  0  0  0  0  0  0  0  0  # atno 17342 bound_to 10162
  140.2899  144.3765  150.6092 LP  0  0  0  0  0  0  0  0  0  0  0  0  # atno 17343 bound_to 10162
  156.2605  130.6959  151.1726 LP  0  0  0  0  0  0  0  0  0  0  0  0  # atno 17370 bound_to 10713
  157.7319  131.0604  150.5655 LP  0  0  0  0  0  0  0  0  0  0  0  0  # atno 17371 bound_to 10713
  140.4937  134.6551  157.5221 LP  0  0  0  0  0  0  0  0  0  0  0  0  # atno 17394 bound_to 11000
  139.9910  134.6986  155.9690 LP  0  0  0  0  0  0  0  0  0  0  0  0  # atno 17395 bound_to 11000

$$$$
