#       Name:                AV-unprocessed.smi:1106
#       Creating user name   scv26
#       Creation time:       Fri Mar 27 03:31:41 2020


#       File generated by GOLD software.
#

@<TRIPOS>MOLECULE
AV-unprocessed.smi:1106
    55    56     1
SMALL
NO_CHARGES


@<TRIPOS>ATOM
      1 ****        -5.4478   1.9288   1.2530 C.3            1 S1                 0.0000
      2 ****        -3.9518   2.2738   1.3000 C.3            1 S1                 0.0000
      3 ****        -3.2723   1.9985   0.0606 N.am           1 S1                 0.0000
      4 ****        -3.0160   2.9934  -0.8629 C.2            1 S1                 0.0000
      5 ****        -2.3851   2.7609  -2.0340 C.2            1 S1                 0.0000
      6 ****        -2.1279   3.8060  -2.9687 C.1            1 S1                 0.0000
      7 ****        -1.9205   4.6697  -3.7105 N.1            1 S1                 0.0000
      8 ****        -1.9360   1.4187  -2.3965 C.2            1 S1                 0.0000
      9 ****        -1.3412   1.1567  -3.4438 O.2            1 S1                 0.0000
     10 ****        -2.2306   0.4187  -1.4357 N.am           1 S1                 0.0000
     11 ****        -1.8148  -0.9427  -1.7414 C.3            1 S1                 0.0000
     12 ****        -0.3188  -1.2217  -1.4729 C.3            1 S1                 0.0000
     13 ****        -0.0327  -2.5121  -1.9723 O.3            1 S1                 0.0000
     14 ****         0.0607  -1.1803   0.0229 C.3            1 S1                 0.0000
     15 ****         1.5161  -1.3739   0.2457 N.4            1 S1                 1.0000
     16 ****         1.8114  -1.9372   1.5880 C.3            1 S1                 0.0000
     17 ****         3.3083  -2.2571   1.7399 C.3            1 S1                 0.0000
     18 ****         4.1761  -1.0145   1.4779 C.3            1 S1                 0.0000
     19 ****         5.6739  -1.3300   1.5968 C.3            1 S1                 0.0000
     20 ****         3.8239  -0.4345   0.0979 C.3            1 S1                 0.0000
     21 ****         2.3173  -0.1490  -0.0195 C.3            1 S1                 0.0000
     22 ****        -2.8835   0.6643  -0.2026 C.2            1 S1                 0.0000
     23 ****        -3.0963  -0.2372   0.6127 O.2            1 S1                 0.0000
     24 ****        -5.9329   2.1907   2.1934 H              1 S1                 0.0000
     25 ****        -5.6105   0.8640   1.0842 H              1 S1                 0.0000
     26 ****        -5.9523   2.4755   0.4559 H              1 S1                 0.0000
     27 ****        -3.8094   3.3386   1.4899 H              1 S1                 0.0000
     28 ****        -3.4219   1.7418   2.0924 H              1 S1                 0.0000
     29 ****        -3.3322   4.0023  -0.6390 H              1 S1                 0.0000
     30 ****        -2.4566  -1.6378  -1.1983 H              1 S1                 0.0000
     31 ****        -2.0648  -1.1099  -2.7912 H              1 S1                 0.0000
     32 ****         0.2820  -0.5123  -2.0404 H              1 S1                 0.0000
     33 ****        -0.2564  -2.5364  -2.8907 H              1 S1                 0.0000
     34 ****        -0.2365  -0.2350   0.4776 H              1 S1                 0.0000
     35 ****        -0.5039  -1.9568   0.5418 H              1 S1                 0.0000
     36 ****         1.4949  -1.2323   2.3588 H              1 S1                 0.0000
     37 ****         1.2358  -2.8516   1.7382 H              1 S1                 0.0000
     38 ****         3.5002  -2.6426   2.7420 H              1 S1                 0.0000
     39 ****         3.5818  -3.0532   1.0456 H              1 S1                 0.0000
     40 ****         3.9345  -0.2653   2.2336 H              1 S1                 0.0000
     41 ****         5.9829  -2.0760   0.8638 H              1 S1                 0.0000
     42 ****         5.9159  -1.7163   2.5874 H              1 S1                 0.0000
     43 ****         6.2772  -0.4361   1.4364 H              1 S1                 0.0000
     44 ****         4.3849   0.4847  -0.0750 H              1 S1                 0.0000
     45 ****         4.1245  -1.1313  -0.6862 H              1 S1                 0.0000
     46 ****         2.1085   0.2350  -1.0173 H              1 S1                 0.0000
     47 ****         2.0302   0.6339   0.6843 H              1 S1                 0.0000
     48 ****         1.8103  -2.0732  -0.4218 H              1 S1                 0.0000
     49 ****        -1.7413   5.4160  -4.3515 LP             1 S1                 0.0000
     50 ****        -1.1414   1.8838  -4.1007 LP             1 S1                 0.0000
     51 ****        -1.0584   0.2171  -3.6366 LP             1 S1                 0.0000
     52 ****        -0.5718  -3.1926  -1.4761 LP             1 S1                 0.0000
     53 ****         0.9408  -2.7097  -1.8573 LP             1 S1                 0.0000
     54 ****        -3.5516  -0.0308   1.4788 LP             1 S1                 0.0000
     55 ****        -2.8134  -1.1741   0.4073 LP             1 S1                 0.0000
@<TRIPOS>BOND
    1    1    2 1     
    2    1   24 1     
    3    1   25 1     
    4    1   26 1     
    5    2    3 1     
    6    2   27 1     
    7    2   28 1     
    8    3   22 am    
    9    3    4 1     
   10    4    5 2     
   11    4   29 1     
   12    5    6 1     
   13    5    8 1     
   14    6    7 3     
   15    8    9 2     
   16    8   10 am    
   17   10   11 1     
   18   10   22 am    
   19   11   12 1     
   20   11   30 1     
   21   11   31 1     
   22   12   13 1     
   23   12   14 1     
   24   12   32 1     
   25   13   33 1     
   26   14   15 1     
   27   14   34 1     
   28   14   35 1     
   29   15   21 1     
   30   15   16 1     
   31   15   48 1     
   32   16   17 1     
   33   16   36 1     
   34   16   37 1     
   35   17   18 1     
   36   17   38 1     
   37   17   39 1     
   38   18   19 1     
   39   18   20 1     
   40   18   40 1     
   41   19   41 1     
   42   19   42 1     
   43   19   43 1     
   44   20   21 1     
   45   20   44 1     
   46   20   45 1     
   47   21   46 1     
   48   21   47 1     
   49   22   23 2     
   50    7   49 1     
   51    9   50 1     
   52    9   51 1     
   53   13   52 1     
   54   13   53 1     
   55   23   54 1     
   56   23   55 1     
@<TRIPOS>SUBSTRUCTURE
      1 S1             1
@<TRIPOS>SET
LONE_PAIRS      STATIC     ATOMS    <user>   **** ""
7 49 50 51 52 53 54 55
DONOR_HYDROGENS      STATIC     ATOMS    <user>   **** ""
2 33 48
ATOM$BLUE        STATIC     ATOMS    COLORGROUP SYSTEM
7 49 50 51 52 53 54 55
ATOM$RED        STATIC     ATOMS    COLORGROUP SYSTEM
2 33 48
