AV-unprocessed.smi:2838|AV-procd|sdf|10928|dock5
  -GOLD-   2272015373D 1   1.00000     0.00000
 Structure written by MMmdl.
 48 49  0  0  0  0  0  0  0  0  1 V2000
  146.6761  142.3198  154.0731 C   0  0  0  0  0  0  0  0  0  0  0  0
  147.3115  141.0523  153.4761 C   0  0  2  0  0  0  0  0  0  0  0  0
  146.2296  140.1181  153.1605 N   0  0  0  0  0  0  0  0  0  0  0  0
  146.3791  138.8551  152.7336 C   0  0  0  0  0  0  0  0  0  0  0  0
  147.4721  138.3096  152.5836 O   0  0  0  0  0  0  0  0  0  0  0  0
  145.1895  138.2844  152.4805 N   0  0  0  0  0  0  0  0  0  0  0  0
  144.9342  136.9595  152.0375 C   0  0  0  0  0  0  0  0  0  0  0  0
  143.7470  136.2344  152.2959 C   0  0  0  0  0  0  0  0  0  0  0  0
  143.5667  134.9816  151.8265 N   0  0  0  0  0  0  0  0  0  0  0  0
  144.5375  134.4505  151.0716 C   0  0  0  0  0  0  0  0  0  0  0  0
  144.3887  132.9696  150.6803 C   0  0  0  0  0  0  0  0  0  0  0  0
  144.3975  132.7927  149.1434 C   0  0  0  0  0  0  0  0  0  0  0  0
  143.0356  132.4008  151.1681 C   0  0  0  0  0  0  0  0  0  0  0  0
  145.5445  132.1594  151.2958 C   0  0  0  0  0  0  0  0  0  0  0  0
  145.7068  135.0424  150.7941 N   0  0  0  0  0  0  0  0  0  0  0  0
  145.8988  136.2970  151.2529 C   0  0  0  0  0  0  0  0  0  0  0  0
  148.3621  140.3950  154.4132 C   0  0  0  0  0  0  0  0  0  0  0  0
  147.7374  139.8702  155.7229 C   0  0  0  0  0  0  0  0  0  0  0  0
  148.8075  139.2919  156.6628 C   0  0  0  0  0  0  0  0  0  0  0  0
  149.7958  140.2753  156.9407 O   0  0  0  0  0  0  0  0  0  0  0  0
  150.4930  140.6933  155.7745 C   0  0  0  0  0  0  0  0  0  0  0  0
  149.5170  141.3501  154.7853 C   0  0  0  0  0  0  0  0  0  0  0  0
  147.4051  143.1206  154.1931 H   0  0  0  0  0  0  0  0  0  0  0  0
  146.2314  142.1204  155.0488 H   0  0  0  0  0  0  0  0  0  0  0  0
  145.8897  142.7057  153.4234 H   0  0  0  0  0  0  0  0  0  0  0  0
  147.8150  141.3495  152.5544 H   0  0  0  0  0  0  0  0  0  0  0  0
  145.2894  140.4743  153.2516 H   0  0  0  0  0  0  0  0  0  0  0  0
  144.3794  138.8813  152.5617 H   0  0  0  0  0  0  0  0  0  0  0  0
  142.9258  136.6441  152.8633 H   0  0  0  0  0  0  0  0  0  0  0  0
  144.2424  131.7503  148.8625 H   0  0  0  0  0  0  0  0  0  0  0  0
  145.3470  133.0984  148.7026 H   0  0  0  0  0  0  0  0  0  0  0  0
  143.6089  133.3798  148.6711 H   0  0  0  0  0  0  0  0  0  0  0  0
  142.1973  132.9749  150.7712 H   0  0  0  0  0  0  0  0  0  0  0  0
  142.9565  132.4084  152.2556 H   0  0  0  0  0  0  0  0  0  0  0  0
  142.9021  131.3659  150.8514 H   0  0  0  0  0  0  0  0  0  0  0  0
  145.4708  131.1019  151.0405 H   0  0  0  0  0  0  0  0  0  0  0  0
  145.5464  132.2358  152.3837 H   0  0  0  0  0  0  0  0  0  0  0  0
  146.5113  132.5176  150.9400 H   0  0  0  0  0  0  0  0  0  0  0  0
  146.8376  136.7683  151.0015 H   0  0  0  0  0  0  0  0  0  0  0  0
  148.7962  139.5435  153.8865 H   0  0  0  0  0  0  0  0  0  0  0  0
  147.2096  140.6785  156.2307 H   0  0  0  0  0  0  0  0  0  0  0  0
  146.9993  139.0956  155.5179 H   0  0  0  0  0  0  0  0  0  0  0  0
  148.3505  138.9792  157.6017 H   0  0  0  0  0  0  0  0  0  0  0  0
  149.2718  138.4066  156.2254 H   0  0  0  0  0  0  0  0  0  0  0  0
  151.2673  141.4039  156.0637 H   0  0  0  0  0  0  0  0  0  0  0  0
  150.9987  139.8426  155.3149 H   0  0  0  0  0  0  0  0  0  0  0  0
  150.0713  141.6532  153.8974 H   0  0  0  0  0  0  0  0  0  0  0  0
  149.1137  142.2625  155.2265 H   0  0  0  0  0  0  0  0  0  0  0  0
  1  2  1  0  0  0  0
  1 23  1  0  0  0  0
  1 24  1  0  0  0  0
  1 25  1  0  0  0  0
  2  3  1  0  0  0  0
  2 17  1  0  0  0  0
  2 26  1  0  0  0  0
  3  4  1  0  0  0  0
  3 27  1  0  0  0  0
  4  5  2  0  0  0  0
  4  6  1  0  0  0  0
  6  7  1  0  0  0  0
  6 28  1  0  0  0  0
  7 16  1  0  0  0  0
  7  8  2  0  0  0  0
  8  9  1  0  0  0  0
  8 29  1  0  0  0  0
  9 10  2  0  0  0  0
 10 11  1  0  0  0  0
 10 15  1  0  0  0  0
 11 12  1  0  0  0  0
 11 13  1  0  0  0  0
 11 14  1  0  0  0  0
 12 30  1  0  0  0  0
 12 31  1  0  0  0  0
 12 32  1  0  0  0  0
 13 33  1  0  0  0  0
 13 34  1  0  0  0  0
 13 35  1  0  0  0  0
 14 36  1  0  0  0  0
 14 37  1  0  0  0  0
 14 38  1  0  0  0  0
 15 16  2  0  0  0  0
 16 39  1  0  0  0  0
 17 22  1  0  0  0  0
 17 18  1  0  0  0  0
 17 40  1  0  0  0  0
 18 19  1  0  0  0  0
 18 41  1  0  0  0  0
 18 42  1  0  0  0  0
 19 20  1  0  0  0  0
 19 43  1  0  0  0  0
 19 44  1  0  0  0  0
 20 21  1  0  0  0  0
 21 22  1  0  0  0  0
 21 45  1  0  0  0  0
 21 46  1  0  0  0  0
 22 47  1  0  0  0  0
 22 48  1  0  0  0  0
M  END
> <s_m_source_file>
AV-unprocessed.smi

> <i_m_source_file_index>
2838

> <i_lp_mmshare_version>
43012

> <i_f3d_flags>
0

> <s_epik_input>
W0NIMl0xW0NIMl1PW0NIMl1bQ0gyXVtDSF0xW0NASF0oW0NIM10pW05IXUMoPU8pW05IXWMyW2NIXW5jKEMoW0NIM10pKFtDSDNdKVtDSDNdKW5bY0hdMg==

> <s_epik_cmdline>
J2VwaWtfcHl0aG9uJywgJy1waCcsICc3LjAnLCAnLXRuJywgJzgnLCAnLW1hJywgJzIwMCcsICctbWV0YWxfYmluZGluZycsICctaW1hZScsICc8aW5maWxlLm1hZT4nLCAnLW9tYWUnLCAnPG91dGZpbGUubWFlPic=

> <r_lp_tautomer_probability>
1

> <r_epik_Ionization_Penalty>
2.74753e-05

> <r_epik_Ionization_Penalty_Charging>
0

> <r_epik_Ionization_Penalty_Neutral>
2.74753e-05

> <r_epik_State_Penalty>
-0

> <r_epik_Charging_Adjusted_Penalty>
0

> <i_epik_Tot_Q>
0

> <i_epik_Tot_abs_Q>
0

> <r_epik_Metal_State_Penalty>
-0

> <b_epik_Metal_Only>
0

> <s_lp_Force_Field>
OPLS_2005

> <r_lp_Energy>
9.68517

> <b_lp_Chiralities_Consistent>
1

> <s_lp_Variant>
AV-unprocessed.smi:2838-1

> <Gold.Version>
5.8.1

> <Gold.Id.Protein>
6NUR|6NUR_protein|mol2

> <Gold.PLP.Fitness>
41.6268

> <Gold.PLP.PLP>
-33.5978

> <Gold.PLP.part.hbond>
-3.0000

> <Gold.PLP.part.metal>
0.0000

> <Gold.PLP.part.buried>
-2.2147

> <Gold.PLP.part.nonpolar>
-33.1133

> <Gold.PLP.part.repulsive>
4.0833

> <Gold.PLP.ligand.clash>
0.0000

> <Gold.PLP.ligand.torsion>
0.3198

> <Gold.PLP.Chemscore.Hbond>
1.8800

> <Gold.PLP.Chemscore.CHOScore>
0.9596

> <Gold.PLP.Chemscore.Metal>
0.0000

> <Gold.Chemscore.Hbonds>
donor molecule, donor type, donor heavy atom, donor atom, acceptor molecule, acceptor atom, score
      L1  H     3    27       P1 10175  0.86
      L1  H     6    28       P1 10175  1.00
      L1  C    16    39       P1  7948  0.95

> <Gold.PLP.Chemscore.Internal.Correction>
0.1500

> <Gold.Rescore>
     Score         DG    S(hbond)    S(metal)    S(lipo)     H(rot)  DE(clash)    DE(int)     intcor
     14.48     -18.39       1.82        0.00      87.61       1.34       1.64       2.26       ----

> <Gold.Chemscore.Fitness>
14.4829

> <Gold.Chemscore.DG>
-18.3888

> <Gold.Chemscore.ZeroCoef>
-5.4800

> <Gold.Chemscore.Hbond>
1.8196

> <Gold.Chemscore.Metal>
0.0000

> <Gold.Chemscore.Lipo>
87.6060

> <Gold.Chemscore.Internal_Hbond>
0.0000

> <Gold.Chemscore.DEClash>
1.6415

> <Gold.Chemscore.DEInternal>
2.2644

> <Gold.Chemscore.Rot>
1.3354

> <Gold.Chemscore.Internal.Correction>
   9.000000E+99

> <Gold.Chemscore.Hbonds>
donor molecule, donor type, donor heavy atom, donor atom, acceptor molecule, acceptor atom, score
      L1  H     3    27       P1 10175  0.82
      L1  H     6    28       P1 10175  0.94

> <Gold.Chemscore.Hbond.Weighted>
-6.0774

> <Gold.Chemscore.Metal.Weighted>
-0.0000

> <Gold.Chemscore.Lipo.Weighted>
-10.2499

> <Gold.Chemscore.Internal_Hbond.Weighted>
0.0000

> <Gold.Chemscore.DEClash.Weighted>
1.6415

> <Gold.Chemscore.DEInternal.Weighted>
2.2644

> <Gold.Chemscore.Rot.Weighted>
3.4185

> <Gold.Chemscore.Internal.Correction.Weighted>
   9.000000E+99

> <Gold.Protein.RotatedTorsions>
[ 6907 6896 6895 6894 ] final   48.45 input  -60.11 | X-H torsion
[ 7974 7965 7964 7962 ] final  173.38 input  175.53 | X-H torsion
[ 8008 7997 7996 7995 ] final  162.22 input   59.86 | X-H torsion
[ 10167 10162 10161 10158 ] final  -13.95 input  -65.29 | X-H torsion
[ 10718 10713 10712 10709 ] final  -87.82 input   66.30 | X-H torsion
[ 10763 10752 10751 10750 ] final -120.98 input  -60.55 | X-H torsion
[ 11005 11000 10999 10996 ] final   36.94 input  -57.11 | X-H torsion

> <Gold.Protein.ActiveResidues>
 VAL166  LYS551  ARG553  GLY616  TRP617  ASP618  TYR619  PRO620  LYS621  CYS622 
 ASP623  PHE694  ASN695  SER759  ASP760  ASP761  ALA762  ILE779  LEU786  VAL792 
 PHE793  MET794  SER795  GLU796  ALA797  LYS798  CYS799  TRP800  GLU811  SER814 

> <Gold.Protein.RotatedAtoms>
  152.2796  134.7843  160.0398 H   0  0  0  0  0  0  0  0  0  0  0  0  # atno 6907 bound_to 6896
  151.8427  133.3421  159.3656 H   0  0  0  0  0  0  0  0  0  0  0  0  # atno 6908 bound_to 6896
  150.7184  134.5304  159.5742 H   0  0  0  0  0  0  0  0  0  0  0  0  # atno 6909 bound_to 6896
  144.7245  139.9639  143.6435 H   0  0  0  0  0  0  0  0  0  0  0  0  # atno 7974 bound_to 7965
  156.2047  140.1756  156.7825 H   0  0  0  0  0  0  0  0  0  0  0  0  # atno 8008 bound_to 7997
  154.5639  140.0694  156.8892 H   0  0  0  0  0  0  0  0  0  0  0  0  # atno 8009 bound_to 7997
  155.2797  140.3348  155.4261 H   0  0  0  0  0  0  0  0  0  0  0  0  # atno 8010 bound_to 7997
  140.7192  143.5373  150.9450 H   0  0  0  0  0  0  0  0  0  0  0  0  # atno 10167 bound_to 10162
  155.9984  130.4813  150.4925 H   0  0  0  0  0  0  0  0  0  0  0  0  # atno 10718 bound_to 10713
  154.8657  135.4184  154.2546 H   0  0  0  0  0  0  0  0  0  0  0  0  # atno 10763 bound_to 10752
  153.3486  135.6997  153.6813 H   0  0  0  0  0  0  0  0  0  0  0  0  # atno 10764 bound_to 10752
  153.5762  135.3581  155.2830 H   0  0  0  0  0  0  0  0  0  0  0  0  # atno 10765 bound_to 10752
  140.2275  134.3567  155.7978 H   0  0  0  0  0  0  0  0  0  0  0  0  # atno 11005 bound_to 11000
  146.0616  139.3609  143.0578 LP  0  0  0  0  0  0  0  0  0  0  0  0  # atno 17320 bound_to 7965
  145.8085  140.9737  143.0961 LP  0  0  0  0  0  0  0  0  0  0  0  0  # atno 17321 bound_to 7965
  139.9095  143.6738  152.3117 LP  0  0  0  0  0  0  0  0  0  0  0  0  # atno 17342 bound_to 10162
  139.7116  144.7619  151.1103 LP  0  0  0  0  0  0  0  0  0  0  0  0  # atno 17343 bound_to 10162
  157.2918  131.0628  151.2128 LP  0  0  0  0  0  0  0  0  0  0  0  0  # atno 17370 bound_to 10713
  157.3138  130.6903  149.6230 LP  0  0  0  0  0  0  0  0  0  0  0  0  # atno 17371 bound_to 10713
  141.2220  133.7227  156.8677 LP  0  0  0  0  0  0  0  0  0  0  0  0  # atno 17394 bound_to 11000
  140.1785  134.9050  157.2920 LP  0  0  0  0  0  0  0  0  0  0  0  0  # atno 17395 bound_to 11000

$$$$
