#       Name:                AV-unprocessed.smi:2369
#       Creating user name   scv26
#       Creation time:       Fri Mar 27 13:06:35 2020


#       File generated by GOLD software.
#

@<TRIPOS>MOLECULE
AV-unprocessed.smi:2369
    45    46     1
SMALL
NO_CHARGES


@<TRIPOS>ATOM
      1 ****        -5.0419   3.4249   0.6380 C.3            1 S1                 0.0000
      2 ****        -4.3758   2.0747   0.4750 C.ar           1 S1                 0.0000
      3 ****        -5.1273   0.8857   0.5396 C.ar           1 S1                 0.0000
      4 ****        -4.4485  -0.3388   0.3828 C.ar           1 S1                 0.0000
      5 ****        -5.1940  -1.6555   0.4394 C.3            1 S1                 0.0000
      6 ****        -3.1164  -0.4221   0.1789 N.ar           1 S1                 0.0000
      7 ****        -2.3823   0.7166   0.1165 C.ar           1 S1                 0.0000
      8 ****        -0.9786   0.7382  -0.0979 N.am           1 S1                 0.0000
      9 ****        -0.1340  -0.3052  -0.1780 C.2            1 S1                 0.0000
     10 ****        -0.4498  -1.4887  -0.0508 O.2            1 S1                 0.0000
     11 ****         1.1223   0.1054  -0.4056 N.am           1 S1                 0.0000
     12 ****         2.2892  -0.7656  -0.5137 C.3            1 S1                 0.0000
     13 ****         2.9071  -1.0056   0.8779 C.3            1 S1                 0.0000
     14 ****         4.1820  -1.8627   0.7913 C.3            1 S1                 0.0000
     15 ****         5.2171  -1.2746  -0.1861 C.3            1 S1                 0.0000
     16 ****         5.7691  -0.0874   0.3481 O.3            1 S1                 0.0000
     17 ****         4.5951  -0.9932  -1.5669 C.3            1 S1                 0.0000
     18 ****         3.3210  -0.1357  -1.4675 C.3            1 S1                 0.0000
     19 ****        -2.9858   1.9864   0.2585 C.ar           1 S1                 0.0000
     20 ****        -6.1276   3.3292   0.6710 H              1 S1                 0.0000
     21 ****        -4.7831   4.0790  -0.1948 H              1 S1                 0.0000
     22 ****        -4.7124   3.8981   1.5633 H              1 S1                 0.0000
     23 ****        -6.1945   0.9108   0.7047 H              1 S1                 0.0000
     24 ****        -6.2731  -1.4993   0.4427 H              1 S1                 0.0000
     25 ****        -4.9246  -2.2029   1.3429 H              1 S1                 0.0000
     26 ****        -4.9442  -2.2727  -0.4243 H              1 S1                 0.0000
     27 ****        -0.5693   1.6553  -0.1955 H              1 S1                 0.0000
     28 ****         1.2891   1.0970  -0.4937 H              1 S1                 0.0000
     29 ****         1.9854  -1.7262  -0.9343 H              1 S1                 0.0000
     30 ****         3.1435  -0.0493   1.3469 H              1 S1                 0.0000
     31 ****         2.1837  -1.4957   1.5305 H              1 S1                 0.0000
     32 ****         4.6217  -1.9812   1.7823 H              1 S1                 0.0000
     33 ****         3.9093  -2.8651   0.4588 H              1 S1                 0.0000
     34 ****         6.0390  -1.9818  -0.3018 H              1 S1                 0.0000
     35 ****         6.4417   0.2217  -0.2395 H              1 S1                 0.0000
     36 ****         5.3232  -0.5101  -2.2196 H              1 S1                 0.0000
     37 ****         4.3447  -1.9425  -2.0427 H              1 S1                 0.0000
     38 ****         2.8855  -0.0137  -2.4601 H              1 S1                 0.0000
     39 ****         3.5826   0.8656  -1.1219 H              1 S1                 0.0000
     40 ****        -2.3897   2.8861   0.2059 H              1 S1                 0.0000
     41 ****        -2.6758  -1.3138   0.0750 LP             1 S1                 0.0000
     42 ****        -1.4023  -1.7356   0.1275 LP             1 S1                 0.0000
     43 ****         0.2463  -2.2027  -0.1258 LP             1 S1                 0.0000
     44 ****         6.1662  -0.2746   1.2466 LP             1 S1                 0.0000
     45 ****         5.0545   0.6064   0.4375 LP             1 S1                 0.0000
@<TRIPOS>BOND
    1    1    2 1     
    2    1   20 1     
    3    1   21 1     
    4    1   22 1     
    5    2   19 ar    
    6    2    3 ar    
    7    3    4 ar    
    8    3   23 1     
    9    4    5 1     
   10    4    6 ar    
   11    5   24 1     
   12    5   25 1     
   13    5   26 1     
   14    6    7 ar    
   15    7    8 1     
   16    7   19 ar    
   17    8    9 am    
   18    8   27 1     
   19    9   10 2     
   20    9   11 am    
   21   11   12 1     
   22   11   28 1     
   23   12   18 1     
   24   12   13 1     
   25   12   29 1     
   26   13   14 1     
   27   13   30 1     
   28   13   31 1     
   29   14   15 1     
   30   14   32 1     
   31   14   33 1     
   32   15   16 1     
   33   15   17 1     
   34   15   34 1     
   35   16   35 1     
   36   17   18 1     
   37   17   36 1     
   38   17   37 1     
   39   18   38 1     
   40   18   39 1     
   41   19   40 1     
   42    6   41 1     
   43   10   42 1     
   44   10   43 1     
   45   16   44 1     
   46   16   45 1     
@<TRIPOS>SUBSTRUCTURE
      1 S1             1
@<TRIPOS>SET
LONE_PAIRS      STATIC     ATOMS    <user>   **** ""
5 41 42 43 44 45
DONOR_HYDROGENS      STATIC     ATOMS    <user>   **** ""
3 27 28 35
ATOM$BLUE        STATIC     ATOMS    COLORGROUP SYSTEM
5 41 42 43 44 45
ATOM$RED        STATIC     ATOMS    COLORGROUP SYSTEM
3 27 28 35
