AV-unprocessed.smi:977|AV-procd|sdf|4307|dock8
  -GOLD-   22720 2213D 1   1.00000     0.00000
 Structure written by MMmdl.
 37 38  0  0  0  0  0  0  0  0  1 V2000
  149.3948  130.9434  154.0551 C   0  0  0  0  0  0  0  0  0  0  0  0
  149.8991  132.1477  154.8009 C   0  0  0  0  0  0  0  0  0  0  0  0
  150.8187  131.9837  155.7406 N   0  0  0  0  0  0  0  0  0  0  0  0
  151.1477  133.2641  156.2117 O   0  0  0  0  0  0  0  0  0  0  0  0
  150.4090  134.1838  155.5376 C   0  0  0  0  0  0  0  0  0  0  0  0
  150.6290  135.6173  155.8846 C   0  0  0  0  0  0  0  0  0  0  0  0
  149.5903  133.5332  154.6625 C   0  0  0  0  0  0  0  0  0  0  0  0
  148.6956  134.1726  153.7686 N   0  0  0  0  0  0  0  0  0  0  0  0
  147.4109  133.8539  153.5519 C   0  0  0  0  0  0  0  0  0  0  0  0
  146.7964  132.9699  154.1478 O   0  0  0  0  0  0  0  0  0  0  0  0
  146.8671  134.6365  152.6088 N   0  0  0  0  0  0  0  0  0  0  0  0
  145.4872  134.5679  152.1302 C   0  0  1  0  0  0  0  0  0  0  0  0
  145.2674  135.6868  151.1017 C   0  0  0  0  0  0  0  0  0  0  0  0
  145.1873  133.1756  151.5352 C   0  0  1  0  0  0  0  0  0  0  0  0
  143.8098  133.0275  150.8858 C   0  0  0  0  0  0  0  0  0  0  0  0
  144.0340  131.8548  149.9597 C   0  0  0  0  0  0  0  0  0  0  0  0
  145.4552  132.1105  149.4652 C   0  0  0  0  0  0  0  0  0  0  0  0
  146.1008  132.8714  150.4841 O   0  0  0  0  0  0  0  0  0  0  0  0
  149.1665  131.1883  153.0177 H   0  0  0  0  0  0  0  0  0  0  0  0
  148.4890  130.5487  154.5154 H   0  0  0  0  0  0  0  0  0  0  0  0
  150.1343  130.1422  154.0437 H   0  0  0  0  0  0  0  0  0  0  0  0
  150.1537  136.2746  155.1565 H   0  0  0  0  0  0  0  0  0  0  0  0
  151.6935  135.8514  155.9048 H   0  0  0  0  0  0  0  0  0  0  0  0
  150.2136  135.8439  156.8666 H   0  0  0  0  0  0  0  0  0  0  0  0
  149.0438  135.0013  153.3093 H   0  0  0  0  0  0  0  0  0  0  0  0
  147.4554  135.3372  152.1822 H   0  0  0  0  0  0  0  0  0  0  0  0
  144.8002  134.7456  152.9596 H   0  0  0  0  0  0  0  0  0  0  0  0
  144.2367  135.6997  150.7468 H   0  0  0  0  0  0  0  0  0  0  0  0
  145.9159  135.5626  150.2337 H   0  0  0  0  0  0  0  0  0  0  0  0
  145.4749  136.6655  151.5358 H   0  0  0  0  0  0  0  0  0  0  0  0
  145.2994  132.4082  152.3035 H   0  0  0  0  0  0  0  0  0  0  0  0
  143.0121  132.8534  151.6085 H   0  0  0  0  0  0  0  0  0  0  0  0
  143.5597  133.9171  150.3057 H   0  0  0  0  0  0  0  0  0  0  0  0
  143.9936  130.9220  150.5238 H   0  0  0  0  0  0  0  0  0  0  0  0
  143.3042  131.7985  149.1518 H   0  0  0  0  0  0  0  0  0  0  0  0
  145.9922  131.1836  149.2617 H   0  0  0  0  0  0  0  0  0  0  0  0
  145.4421  132.7022  148.5491 H   0  0  0  0  0  0  0  0  0  0  0  0
  1  2  1  0  0  0  0
  1 19  1  0  0  0  0
  1 20  1  0  0  0  0
  1 21  1  0  0  0  0
  2  7  1  0  0  0  0
  2  3  2  0  0  0  0
  3  4  1  0  0  0  0
  4  5  1  0  0  0  0
  5  6  1  0  0  0  0
  5  7  2  0  0  0  0
  6 22  1  0  0  0  0
  6 23  1  0  0  0  0
  6 24  1  0  0  0  0
  7  8  1  0  0  0  0
  8  9  1  0  0  0  0
  8 25  1  0  0  0  0
  9 10  2  0  0  0  0
  9 11  1  0  0  0  0
 11 12  1  0  0  0  0
 11 26  1  0  0  0  0
 12 13  1  0  0  0  0
 12 14  1  0  0  0  0
 12 27  1  0  0  0  0
 13 28  1  0  0  0  0
 13 29  1  0  0  0  0
 13 30  1  0  0  0  0
 14 18  1  0  0  0  0
 14 15  1  0  0  0  0
 14 31  1  0  0  0  0
 15 16  1  0  0  0  0
 15 32  1  0  0  0  0
 15 33  1  0  0  0  0
 16 17  1  0  0  0  0
 16 34  1  0  0  0  0
 16 35  1  0  0  0  0
 17 18  1  0  0  0  0
 17 36  1  0  0  0  0
 17 37  1  0  0  0  0
M  END
> <s_m_source_file>
AV-unprocessed.smi

> <i_m_source_file_index>
977

> <i_lp_mmshare_version>
43012

> <i_f3d_flags>
0

> <s_epik_input>
W0NIM11jMW5vYyhbQ0gzXSljMVtOSF1DKD1PKVtOSF1bQ0BIXShbQ0gzXSlbQ0BASF0yW0NIMl1bQ0gyXVtDSDJdTzI=

> <s_epik_cmdline>
J2VwaWtfcHl0aG9uJywgJy1waCcsICc3LjAnLCAnLXRuJywgJzgnLCAnLW1hJywgJzIwMCcsICctbWV0YWxfYmluZGluZycsICctaW1hZScsICc8aW5maWxlLm1hZT4nLCAnLW9tYWUnLCAnPG91dGZpbGUubWFlPic=

> <r_lp_tautomer_probability>
1

> <r_epik_Ionization_Penalty>
3.41601e-05

> <r_epik_Ionization_Penalty_Charging>
0

> <r_epik_Ionization_Penalty_Neutral>
3.41601e-05

> <r_epik_State_Penalty>
-0

> <r_epik_Charging_Adjusted_Penalty>
0

> <i_epik_Tot_Q>
0

> <i_epik_Tot_abs_Q>
0

> <r_epik_Metal_State_Penalty>
-0

> <b_epik_Metal_Only>
0

> <s_lp_Force_Field>
OPLS_2005

> <r_lp_Energy>
19.4669

> <b_lp_Chiralities_Consistent>
1

> <s_lp_Variant>
AV-unprocessed.smi:977-4

> <Gold.Version>
5.8.1

> <Gold.Id.Protein>
6NUR|6NUR_protein|mol2

> <Gold.PLP.Fitness>
36.9102

> <Gold.PLP.PLP>
-31.5751

> <Gold.PLP.part.hbond>
-2.0000

> <Gold.PLP.part.metal>
0.0000

> <Gold.PLP.part.buried>
-4.4591

> <Gold.PLP.part.nonpolar>
-25.9596

> <Gold.PLP.part.repulsive>
0.2460

> <Gold.PLP.ligand.clash>
0.0000

> <Gold.PLP.ligand.torsion>
0.4538

> <Gold.PLP.Chemscore.Hbond>
1.9920

> <Gold.PLP.Chemscore.CHOScore>
0.0000

> <Gold.PLP.Chemscore.Metal>
0.0000

> <Gold.Chemscore.Hbonds>
donor molecule, donor type, donor heavy atom, donor atom, acceptor molecule, acceptor atom, score
      L1  H     8    25       P1  7948  0.94
      L1  H    11    26       P1  7948  1.00

> <Gold.PLP.Chemscore.Internal.Correction>
0.2668

> <Gold.Rescore>
     Score         DG    S(hbond)    S(metal)    S(lipo)     H(rot)  DE(clash)    DE(int)     intcor
     15.91     -16.29       1.68        0.00      70.97       1.22       0.01       0.37       ----

> <Gold.Chemscore.Fitness>
15.9079

> <Gold.Chemscore.DG>
-16.2858

> <Gold.Chemscore.ZeroCoef>
-5.4800

> <Gold.Chemscore.Hbond>
1.6843

> <Gold.Chemscore.Metal>
0.0000

> <Gold.Chemscore.Lipo>
70.9703

> <Gold.Chemscore.Internal_Hbond>
0.0000

> <Gold.Chemscore.DEClash>
0.0089

> <Gold.Chemscore.DEInternal>
0.3690

> <Gold.Chemscore.Rot>
1.2200

> <Gold.Chemscore.Internal.Correction>
   9.000000E+99

> <Gold.Chemscore.Hbonds>
donor molecule, donor type, donor heavy atom, donor atom, acceptor molecule, acceptor atom, score
      L1  H     8    25       P1  7948  0.20
      L1  H    11    26       P1  7948  0.99

> <Gold.Chemscore.Hbond.Weighted>
-5.6255

> <Gold.Chemscore.Metal.Weighted>
-0.0000

> <Gold.Chemscore.Lipo.Weighted>
-8.3035

> <Gold.Chemscore.Internal_Hbond.Weighted>
0.0000

> <Gold.Chemscore.DEClash.Weighted>
0.0089

> <Gold.Chemscore.DEInternal.Weighted>
0.3690

> <Gold.Chemscore.Rot.Weighted>
3.1232

> <Gold.Chemscore.Internal.Correction.Weighted>
   9.000000E+99

> <Gold.Protein.RotatedTorsions>
[ 6907 6896 6895 6894 ] final   67.60 input  -60.11 | X-H torsion
[ 7974 7965 7964 7962 ] final -134.01 input  175.53 | X-H torsion
[ 8008 7997 7996 7995 ] final  -26.18 input   59.86 | X-H torsion
[ 10167 10162 10161 10158 ] final   21.55 input  -65.29 | X-H torsion
[ 10718 10713 10712 10709 ] final  -90.49 input   66.30 | X-H torsion
[ 10763 10752 10751 10750 ] final  -32.79 input  -60.55 | X-H torsion
[ 11005 11000 10999 10996 ] final  132.87 input  -57.11 | X-H torsion

> <Gold.Protein.ActiveResidues>
 VAL166  LYS551  ARG553  GLY616  TRP617  ASP618  TYR619  PRO620  LYS621  CYS622 
 ASP623  PHE694  ASN695  SER759  ASP760  ASP761  ALA762  ILE779  LEU786  VAL792 
 PHE793  MET794  SER795  GLU796  ALA797  LYS798  CYS799  TRP800  GLU811  SER814 

> <Gold.Protein.RotatedAtoms>
  152.4563  134.5284  159.9803 H   0  0  0  0  0  0  0  0  0  0  0  0  # atno 6907 bound_to 6896
  151.5344  133.3437  159.2932 H   0  0  0  0  0  0  0  0  0  0  0  0  # atno 6908 bound_to 6896
  150.8508  134.7863  159.7070 H   0  0  0  0  0  0  0  0  0  0  0  0  # atno 6909 bound_to 6896
  144.9141  140.6932  143.5006 H   0  0  0  0  0  0  0  0  0  0  0  0  # atno 7974 bound_to 7965
  154.4438  140.1906  156.0735 H   0  0  0  0  0  0  0  0  0  0  0  0  # atno 8008 bound_to 7997
  156.0493  140.3310  155.7306 H   0  0  0  0  0  0  0  0  0  0  0  0  # atno 8009 bound_to 7997
  155.5581  140.0601  157.2826 H   0  0  0  0  0  0  0  0  0  0  0  0  # atno 8010 bound_to 7997
  140.5418  143.9664  150.6523 H   0  0  0  0  0  0  0  0  0  0  0  0  # atno 10167 bound_to 10162
  155.9988  130.4912  150.5331 H   0  0  0  0  0  0  0  0  0  0  0  0  # atno 10718 bound_to 10713
  153.8195  135.6875  153.4829 H   0  0  0  0  0  0  0  0  0  0  0  0  # atno 10763 bound_to 10752
  153.1578  135.4592  154.9727 H   0  0  0  0  0  0  0  0  0  0  0  0  # atno 10764 bound_to 10752
  154.7933  135.3310  154.7669 H   0  0  0  0  0  0  0  0  0  0  0  0  # atno 10765 bound_to 10752
  139.9817  134.9546  156.9644 H   0  0  0  0  0  0  0  0  0  0  0  0  # atno 11005 bound_to 11000
  145.3405  139.1733  143.4488 LP  0  0  0  0  0  0  0  0  0  0  0  0  # atno 17320 bound_to 7965
  146.3173  140.3445  142.8651 LP  0  0  0  0  0  0  0  0  0  0  0  0  # atno 17321 bound_to 7965
  140.3067  143.3225  152.0919 LP  0  0  0  0  0  0  0  0  0  0  0  0  # atno 17342 bound_to 10162
  139.4991  144.6663  151.6349 LP  0  0  0  0  0  0  0  0  0  0  0  0  # atno 17343 bound_to 10162
  157.3278  131.0694  151.1884 LP  0  0  0  0  0  0  0  0  0  0  0  0  # atno 17370 bound_to 10713
  157.2775  130.6734  149.6049 LP  0  0  0  0  0  0  0  0  0  0  0  0  # atno 17371 bound_to 10713
  140.5084  134.1027  155.7265 LP  0  0  0  0  0  0  0  0  0  0  0  0  # atno 17394 bound_to 11000
  141.1488  133.9007  157.2150 LP  0  0  0  0  0  0  0  0  0  0  0  0  # atno 17395 bound_to 11000

$$$$
