AV-unprocessed.smi:2160|AV-procd|sdf|8797|dock8
  -GOLD-   2272011583D 1   1.00000     0.00000
 Structure written by MMmdl.
 43 45  0  0  0  0  0  0  0  0  1 V2000
  142.6620  144.0888  157.1775 C   0  0  0  0  0  0  0  0  0  0  0  0
  143.4763  143.2088  157.9386 O   0  0  0  0  0  0  0  0  0  0  0  0
  144.5133  142.5664  157.2964 C   0  0  0  0  0  0  0  0  0  0  0  0
  144.7888  142.6862  155.9110 C   0  0  0  0  0  0  0  0  0  0  0  0
  145.8713  141.9922  155.3361 C   0  0  0  0  0  0  0  0  0  0  0  0
  146.6985  141.1751  156.1324 C   0  0  0  0  0  0  0  0  0  0  0  0
  147.8500  140.4162  155.4994 C   0  0  0  0  0  0  0  0  0  0  0  0
  149.1071  140.8313  156.0079 O   0  0  0  0  0  0  0  0  0  0  0  0
  150.1988  140.3876  155.2197 C   0  0  0  0  0  0  0  0  0  0  0  0
  151.4821  140.4766  156.0577 C   0  0  2  0  0  0  0  0  0  0  0  0
  152.5482  139.9177  155.3158 O   0  0  0  0  0  0  0  0  0  0  0  0
  151.3529  139.7523  157.4119 C   0  0  0  0  0  0  0  0  0  0  0  0
  152.0391  140.4554  158.4801 N   0  0  0  0  0  0  0  0  0  0  0  0
  153.0313  139.9881  159.2620 C   0  0  0  0  0  0  0  0  0  0  0  0
  153.5179  140.8120  160.1864 N   0  0  0  0  0  0  0  0  0  0  0  0
  152.7522  141.9469  159.9797 C   0  0  0  0  0  0  0  0  0  0  0  0
  152.7681  143.1979  160.6375 C   0  0  0  0  0  0  0  0  0  0  0  0
  151.8789  144.2215  160.2478 C   0  0  0  0  0  0  0  0  0  0  0  0
  150.9621  144.0112  159.1972 C   0  0  0  0  0  0  0  0  0  0  0  0
  150.9276  142.7734  158.5270 C   0  0  0  0  0  0  0  0  0  0  0  0
  151.8164  141.7553  158.9190 C   0  0  0  0  0  0  0  0  0  0  0  0
  146.4230  141.0452  157.5092 C   0  0  0  0  0  0  0  0  0  0  0  0
  145.3407  141.7392  158.0831 C   0  0  0  0  0  0  0  0  0  0  0  0
  141.8946  144.5169  157.8222 H   0  0  0  0  0  0  0  0  0  0  0  0
  142.1552  143.5630  156.3672 H   0  0  0  0  0  0  0  0  0  0  0  0
  143.2435  144.9145  156.7654 H   0  0  0  0  0  0  0  0  0  0  0  0
  144.1826  143.3038  155.2659 H   0  0  0  0  0  0  0  0  0  0  0  0
  146.0645  142.0909  154.2780 H   0  0  0  0  0  0  0  0  0  0  0  0
  147.7035  139.3519  155.6899 H   0  0  0  0  0  0  0  0  0  0  0  0
  147.8277  140.5615  154.4180 H   0  0  0  0  0  0  0  0  0  0  0  0
  150.0354  139.3641  154.8779 H   0  0  0  0  0  0  0  0  0  0  0  0
  150.2834  141.0213  154.3351 H   0  0  0  0  0  0  0  0  0  0  0  0
  151.7181  141.5282  156.2271 H   0  0  0  0  0  0  0  0  0  0  0  0
  152.2288  139.6889  154.4565 H   0  0  0  0  0  0  0  0  0  0  0  0
  150.3029  139.6593  157.6923 H   0  0  0  0  0  0  0  0  0  0  0  0
  151.7478  138.7374  157.3462 H   0  0  0  0  0  0  0  0  0  0  0  0
  153.4196  138.9869  159.1446 H   0  0  0  0  0  0  0  0  0  0  0  0
  153.4659  143.3704  161.4432 H   0  0  0  0  0  0  0  0  0  0  0  0
  151.9008  145.1733  160.7580 H   0  0  0  0  0  0  0  0  0  0  0  0
  150.2851  144.8008  158.9055 H   0  0  0  0  0  0  0  0  0  0  0  0
  150.2283  142.6073  157.7211 H   0  0  0  0  0  0  0  0  0  0  0  0
  147.0389  140.4137  158.1326 H   0  0  0  0  0  0  0  0  0  0  0  0
  145.1420  141.6336  159.1397 H   0  0  0  0  0  0  0  0  0  0  0  0
  1  2  1  0  0  0  0
  1 24  1  0  0  0  0
  1 25  1  0  0  0  0
  1 26  1  0  0  0  0
  2  3  1  0  0  0  0
  3 23  1  0  0  0  0
  3  4  2  0  0  0  0
  4  5  1  0  0  0  0
  4 27  1  0  0  0  0
  5  6  2  0  0  0  0
  5 28  1  0  0  0  0
  6  7  1  0  0  0  0
  6 22  1  0  0  0  0
  7  8  1  0  0  0  0
  7 29  1  0  0  0  0
  7 30  1  0  0  0  0
  8  9  1  0  0  0  0
  9 10  1  0  0  0  0
  9 31  1  0  0  0  0
  9 32  1  0  0  0  0
 10 11  1  0  0  0  0
 10 12  1  0  0  0  0
 10 33  1  0  0  0  0
 11 34  1  0  0  0  0
 12 13  1  0  0  0  0
 12 35  1  0  0  0  0
 12 36  1  0  0  0  0
 13 21  1  0  0  0  0
 13 14  1  0  0  0  0
 14 15  2  0  0  0  0
 14 37  1  0  0  0  0
 15 16  1  0  0  0  0
 16 21  2  0  0  0  0
 16 17  1  0  0  0  0
 17 18  2  0  0  0  0
 17 38  1  0  0  0  0
 18 19  1  0  0  0  0
 18 39  1  0  0  0  0
 19 20  2  0  0  0  0
 19 40  1  0  0  0  0
 20 21  1  0  0  0  0
 20 41  1  0  0  0  0
 22 23  2  0  0  0  0
 22 42  1  0  0  0  0
 23 43  1  0  0  0  0
M  END
> <s_m_source_file>
AV-unprocessed.smi

> <i_m_source_file_index>
2160

> <i_lp_mmshare_version>
43012

> <i_f3d_flags>
0

> <s_epik_input>
W0NIM11PYzFbY0hdW2NIXWMoW2NIXVtjSF0xKVtDSDJdT1tDSDJdW0NASF0oW09IXSlbQ0gyXW4oW2NIXW4yKWMoYzIzKVtjSF1bY0hdW2NIXVtjSF0z

> <s_epik_cmdline>
J2VwaWtfcHl0aG9uJywgJy1waCcsICc3LjAnLCAnLXRuJywgJzgnLCAnLW1hJywgJzIwMCcsICctbWV0YWxfYmluZGluZycsICctaW1hZScsICc8aW5maWxlLm1hZT4nLCAnLW9tYWUnLCAnPG91dGZpbGUubWFlPic=

> <r_lp_tautomer_probability>
1

> <r_epik_Ionization_Penalty>
0.0713119

> <r_epik_Ionization_Penalty_Charging>
0

> <r_epik_Ionization_Penalty_Neutral>
0.0713119

> <r_epik_State_Penalty>
0.06259

> <r_epik_Charging_Adjusted_Penalty>
0.06259

> <i_epik_Tot_Q>
0

> <i_epik_Tot_abs_Q>
0

> <r_epik_Metal_State_Penalty>
6.60119e-05

> <b_epik_Metal_Only>
0

> <s_lp_Force_Field>
OPLS_2005

> <r_lp_Energy>
16.653

> <b_lp_Chiralities_Consistent>
1

> <s_lp_Variant>
AV-unprocessed.smi:2160-1

> <Gold.Version>
5.8.1

> <Gold.Id.Protein>
6NUR|6NUR_protein|mol2

> <Gold.PLP.Fitness>
53.5544

> <Gold.PLP.PLP>
-51.8150

> <Gold.PLP.part.hbond>
-1.0000

> <Gold.PLP.part.metal>
0.0000

> <Gold.PLP.part.buried>
-7.1632

> <Gold.PLP.part.nonpolar>
-44.3249

> <Gold.PLP.part.repulsive>
0.2106

> <Gold.PLP.ligand.clash>
0.0000

> <Gold.PLP.ligand.torsion>
0.6778

> <Gold.PLP.Chemscore.Hbond>
1.0000

> <Gold.PLP.Chemscore.CHOScore>
0.0000

> <Gold.PLP.Chemscore.Metal>
0.0000

> <Gold.Chemscore.Hbonds>
donor molecule, donor type, donor heavy atom, donor atom, acceptor molecule, acceptor atom, score
      P1  H  7997  8009       L1    11  0.59

> <Gold.PLP.Chemscore.Internal.Correction>
0.0951

> <Gold.Rescore>
     Score         DG    S(hbond)    S(metal)    S(lipo)     H(rot)  DE(clash)    DE(int)     intcor
     15.45     -16.55       0.92        0.00     125.92       2.63       0.22       0.88       ----

> <Gold.Chemscore.Fitness>
15.4461

> <Gold.Chemscore.DG>
-16.5541

> <Gold.Chemscore.ZeroCoef>
-5.4800

> <Gold.Chemscore.Hbond>
0.9209

> <Gold.Chemscore.Metal>
0.0000

> <Gold.Chemscore.Lipo>
125.9232

> <Gold.Chemscore.Internal_Hbond>
0.0000

> <Gold.Chemscore.DEClash>
0.2239

> <Gold.Chemscore.DEInternal>
0.8841

> <Gold.Chemscore.Rot>
2.6308

> <Gold.Chemscore.Internal.Correction>
   9.000000E+99

> <Gold.Chemscore.Hbonds>
donor molecule, donor type, donor heavy atom, donor atom, acceptor molecule, acceptor atom, score
      P1  H  7997  8009       L1    11  0.41

> <Gold.Chemscore.Hbond.Weighted>
-3.0758

> <Gold.Chemscore.Metal.Weighted>
-0.0000

> <Gold.Chemscore.Lipo.Weighted>
-14.7330

> <Gold.Chemscore.Internal_Hbond.Weighted>
0.0000

> <Gold.Chemscore.DEClash.Weighted>
0.2239

> <Gold.Chemscore.DEInternal.Weighted>
0.8841

> <Gold.Chemscore.Rot.Weighted>
6.7347

> <Gold.Chemscore.Internal.Correction.Weighted>
   9.000000E+99

> <Gold.Protein.RotatedTorsions>
[ 6907 6896 6895 6894 ] final   98.61 input  -60.11 | X-H torsion
[ 7974 7965 7964 7962 ] final  -57.96 input  175.53 | X-H torsion
[ 8008 7997 7996 7995 ] final -171.52 input   59.86 | X-H torsion
[ 10167 10162 10161 10158 ] final  -15.99 input  -65.29 | X-H torsion
[ 10718 10713 10712 10709 ] final  107.32 input   66.30 | X-H torsion
[ 10763 10752 10751 10750 ] final  -34.93 input  -60.55 | X-H torsion
[ 11005 11000 10999 10996 ] final -138.45 input  -57.11 | X-H torsion

> <Gold.Protein.ActiveResidues>
 VAL166  LYS551  ARG553  GLY616  TRP617  ASP618  TYR619  PRO620  LYS621  CYS622 
 ASP623  PHE694  ASN695  SER759  ASP760  ASP761  ALA762  ILE779  LEU786  VAL792 
 PHE793  MET794  SER795  GLU796  ALA797  LYS798  CYS799  TRP800  GLU811  SER814 

> <Gold.Protein.RotatedAtoms>
  152.5406  134.0554  159.8128 H   0  0  0  0  0  0  0  0  0  0  0  0  # atno 6907 bound_to 6896
  151.0689  133.5474  159.2636 H   0  0  0  0  0  0  0  0  0  0  0  0  # atno 6908 bound_to 6896
  151.2345  135.0574  159.9054 H   0  0  0  0  0  0  0  0  0  0  0  0  # atno 6909 bound_to 6896
  145.8449  140.8392  143.0015 H   0  0  0  0  0  0  0  0  0  0  0  0  # atno 7974 bound_to 7965
  155.9327  140.1094  157.1119 H   0  0  0  0  0  0  0  0  0  0  0  0  # atno 8008 bound_to 7997
  154.4074  140.1234  156.4889 H   0  0  0  0  0  0  0  0  0  0  0  0  # atno 8009 bound_to 7997
  155.7060  140.3471  155.4955 H   0  0  0  0  0  0  0  0  0  0  0  0  # atno 8010 bound_to 7997
  140.7227  143.5161  150.9690 H   0  0  0  0  0  0  0  0  0  0  0  0  # atno 10167 bound_to 10162
  157.6633  131.0870  150.6138 H   0  0  0  0  0  0  0  0  0  0  0  0  # atno 10718 bound_to 10713
  153.8548  135.6845  153.4788 H   0  0  0  0  0  0  0  0  0  0  0  0  # atno 10763 bound_to 10752
  153.1376  135.4671  154.9444 H   0  0  0  0  0  0  0  0  0  0  0  0  # atno 10764 bound_to 10752
  154.7786  135.3261  154.7988 H   0  0  0  0  0  0  0  0  0  0  0  0  # atno 10765 bound_to 10752
  140.8614  134.2164  157.4705 H   0  0  0  0  0  0  0  0  0  0  0  0  # atno 11005 bound_to 11000
  144.6731  140.0867  143.7467 LP  0  0  0  0  0  0  0  0  0  0  0  0  # atno 17320 bound_to 7965
  145.9423  139.2677  143.1261 LP  0  0  0  0  0  0  0  0  0  0  0  0  # atno 17321 bound_to 7965
  139.8877  143.6992  152.3149 LP  0  0  0  0  0  0  0  0  0  0  0  0  # atno 17342 bound_to 10162
  139.7297  144.7585  151.0822 LP  0  0  0  0  0  0  0  0  0  0  0  0  # atno 17343 bound_to 10162
  156.6440  130.4466  149.5742 LP  0  0  0  0  0  0  0  0  0  0  0  0  # atno 17370 bound_to 10713
  156.2188  130.6724  151.1346 LP  0  0  0  0  0  0  0  0  0  0  0  0  # atno 17371 bound_to 10713
  139.8707  134.9731  156.4798 LP  0  0  0  0  0  0  0  0  0  0  0  0  # atno 17394 bound_to 11000
  140.8678  133.8011  155.9332 LP  0  0  0  0  0  0  0  0  0  0  0  0  # atno 17395 bound_to 11000

$$$$
