AV-unprocessed.smi:1641|AV-procd|sdf|6561|dock7
  -GOLD-   22720 7243D 1   1.00000     0.00000
 Structure written by MMmdl.
 42 43  0  0  0  0  0  0  0  0  2 V2000
  137.9564  136.5517  154.1604 C   0  0  0  0  0  0  0  0  0  0  0  0
  139.4304  136.6742  153.9773 C   0  0  0  0  0  0  0  0  0  0  0  0
  140.2739  135.6539  154.1764 N   0  0  0  0  0  0  0  0  0  0  0  0
  141.5954  136.0124  153.9508 N   0  0  0  0  0  0  0  0  0  0  0  0
  141.7095  137.2971  153.5869 C   0  0  0  0  0  0  0  0  0  0  0  0
  142.9492  137.9290  153.3034 N   0  0  0  0  0  0  0  0  0  0  0  0
  144.1806  137.5560  153.6936 C   0  0  0  0  0  0  0  0  0  0  0  0
  144.4454  136.5567  154.3627 O   0  0  0  0  0  0  0  0  0  0  0  0
  145.1120  138.4198  153.2642 N   0  0  0  0  0  0  0  0  0  0  0  0
  146.5410  138.2966  153.5270 C   0  0  0  0  0  0  0  0  0  0  0  0
  147.2766  139.6316  153.2985 C   0  0  0  0  0  0  0  0  0  0  0  0
  148.3952  139.8308  154.2523 N   0  3  1  0  0  0  0  0  0  0  0  0
  149.5797  139.0092  153.9130 C   0  0  0  0  0  0  0  0  0  0  0  0
  150.6697  139.1663  154.9880 C   0  0  1  0  0  0  0  0  0  0  0  0
  151.9467  138.4002  154.6262 C   0  0  0  0  0  0  0  0  0  0  0  0
  151.0086  140.5442  155.1227 O   0  0  0  0  0  0  0  0  0  0  0  0
  149.9167  141.4025  155.4530 C   0  0  2  0  0  0  0  0  0  0  0  0
  149.4438  141.2132  156.9054 C   0  0  0  0  0  0  0  0  0  0  0  0
  148.7878  141.2526  154.4144 C   0  0  0  0  0  0  0  0  0  0  0  0
  140.1956  138.1797  153.4839 S   0  0  0  0  0  0  0  0  0  0  0  0
  137.6892  135.5418  154.4734 H   0  0  0  0  0  0  0  0  0  0  0  0
  137.4450  136.7741  153.2238 H   0  0  0  0  0  0  0  0  0  0  0  0
  137.6170  137.2543  154.9216 H   0  0  0  0  0  0  0  0  0  0  0  0
  142.8878  138.7717  152.7514 H   0  0  0  0  0  0  0  0  0  0  0  0
  144.8129  139.2127  152.7148 H   0  0  0  0  0  0  0  0  0  0  0  0
  146.6835  137.9282  154.5433 H   0  0  0  0  0  0  0  0  0  0  0  0
  146.9436  137.5328  152.8612 H   0  0  0  0  0  0  0  0  0  0  0  0
  147.6702  139.6294  152.2808 H   0  0  0  0  0  0  0  0  0  0  0  0
  146.5912  140.4784  153.3610 H   0  0  0  0  0  0  0  0  0  0  0  0
  149.2916  137.9598  153.8374 H   0  0  0  0  0  0  0  0  0  0  0  0
  149.9624  139.3078  152.9353 H   0  0  0  0  0  0  0  0  0  0  0  0
  150.3034  138.7817  155.9399 H   0  0  0  0  0  0  0  0  0  0  0  0
  151.7494  137.3329  154.5230 H   0  0  0  0  0  0  0  0  0  0  0  0
  152.7071  138.5242  155.3978 H   0  0  0  0  0  0  0  0  0  0  0  0
  152.3674  138.7553  153.6849 H   0  0  0  0  0  0  0  0  0  0  0  0
  150.3016  142.4199  155.3784 H   0  0  0  0  0  0  0  0  0  0  0  0
  148.7052  141.9693  157.1723 H   0  0  0  0  0  0  0  0  0  0  0  0
  150.2777  141.3092  157.6012 H   0  0  0  0  0  0  0  0  0  0  0  0
  148.9820  140.2398  157.0685 H   0  0  0  0  0  0  0  0  0  0  0  0
  149.1250  141.6397  153.4514 H   0  0  0  0  0  0  0  0  0  0  0  0
  147.9356  141.8618  154.7138 H   0  0  0  0  0  0  0  0  0  0  0  0
  148.0712  139.5057  155.1520 H   0  0  0  0  0  0  0  0  0  0  0  0
  1  2  1  0  0  0  0
  1 21  1  0  0  0  0
  1 22  1  0  0  0  0
  1 23  1  0  0  0  0
  2 20  1  0  0  0  0
  2  3  2  0  0  0  0
  3  4  1  0  0  0  0
  4  5  2  0  0  0  0
  5  6  1  0  0  0  0
  5 20  1  0  0  0  0
  6  7  1  0  0  0  0
  6 24  1  0  0  0  0
  7  8  2  0  0  0  0
  7  9  1  0  0  0  0
  9 10  1  0  0  0  0
  9 25  1  0  0  0  0
 10 11  1  0  0  0  0
 10 26  1  0  0  0  0
 10 27  1  0  0  0  0
 11 12  1  0  0  0  0
 11 28  1  0  0  0  0
 11 29  1  0  0  0  0
 12 19  1  0  0  0  0
 12 13  1  0  0  0  0
 12 42  1  0  0  0  0
 13 14  1  0  0  0  0
 13 30  1  0  0  0  0
 13 31  1  0  0  0  0
 14 15  1  0  0  0  0
 14 16  1  0  0  0  0
 14 32  1  0  0  0  0
 15 33  1  0  0  0  0
 15 34  1  0  0  0  0
 15 35  1  0  0  0  0
 16 17  1  0  0  0  0
 17 18  1  0  0  0  0
 17 19  1  0  0  0  0
 17 36  1  0  0  0  0
 18 37  1  0  0  0  0
 18 38  1  0  0  0  0
 18 39  1  0  0  0  0
 19 40  1  0  0  0  0
 19 41  1  0  0  0  0
M  CHG  1  12   1
M  END
> <s_m_source_file>
AV-unprocessed.smi

> <i_m_source_file_index>
1641

> <i_lp_mmshare_version>
43012

> <i_f3d_flags>
0

> <s_epik_input>
W0NIM11jMW5uYyhzMSlbTkhdQyg9TylbTkhdW0NIMl1bQ0gyXU4yW0NIMl1bQ0BASF0oW0NIM10pT1tDQEBIXShbQ0gzXSlbQ0gyXTI=

> <s_epik_cmdline>
J2VwaWtfcHl0aG9uJywgJy1waCcsICc3LjAnLCAnLXRuJywgJzgnLCAnLW1hJywgJzIwMCcsICctbWV0YWxfYmluZGluZycsICctaW1hZScsICc8aW5maWxlLm1hZT4nLCAnLW9tYWUnLCAnPG91dGZpbGUubWFlPic=

> <r_lp_tautomer_probability>
1

> <r_epik_Ionization_Penalty>
0.700114

> <r_epik_Ionization_Penalty_Charging>
0.695697

> <r_epik_Ionization_Penalty_Neutral>
0.00441638

> <r_epik_State_Penalty>
0.717972

> <r_epik_Charging_Adjusted_Penalty>
1.41367

> <i_epik_Tot_Q>
1

> <i_epik_Tot_abs_Q>
1

> <r_epik_Metal_State_Penalty>
1.06958

> <b_epik_Metal_Only>
0

> <s_lp_Force_Field>
OPLS_2005

> <r_lp_Energy>
15.7554

> <b_lp_Chiralities_Consistent>
1

> <s_lp_Variant>
AV-unprocessed.smi:1641-6

> <Gold.Version>
5.8.1

> <Gold.Id.Protein>
6NUR|6NUR_protein|mol2

> <Gold.PLP.Fitness>
43.7437

> <Gold.PLP.PLP>
-33.4969

> <Gold.PLP.part.hbond>
-4.0000

> <Gold.PLP.part.metal>
0.0000

> <Gold.PLP.part.buried>
-4.6218

> <Gold.PLP.part.nonpolar>
-25.2723

> <Gold.PLP.part.repulsive>
0.2555

> <Gold.PLP.ligand.clash>
0.0000

> <Gold.PLP.ligand.torsion>
0.6244

> <Gold.PLP.Chemscore.Hbond>
3.8240

> <Gold.PLP.Chemscore.CHOScore>
0.0000

> <Gold.PLP.Chemscore.Metal>
0.0000

> <Gold.Chemscore.Hbonds>
donor molecule, donor type, donor heavy atom, donor atom, acceptor molecule, acceptor atom, score
      L1  H     6    24       P1 10175  0.91
      L1  H     9    25       P1 10175  0.98
      P1  H  7989  7998       L1    16  0.98
      P1  H 11000 11005       L1     3  0.51

> <Gold.PLP.Chemscore.Internal.Correction>
0.0237

> <Gold.Rescore>
     Score         DG    S(hbond)    S(metal)    S(lipo)     H(rot)  DE(clash)    DE(int)     intcor
     16.89     -19.86       3.03        0.00      72.19       1.64       0.99       1.98       ----

> <Gold.Chemscore.Fitness>
16.8936

> <Gold.Chemscore.DG>
-19.8560

> <Gold.Chemscore.ZeroCoef>
-5.4800

> <Gold.Chemscore.Hbond>
3.0290

> <Gold.Chemscore.Metal>
0.0000

> <Gold.Chemscore.Lipo>
72.1949

> <Gold.Chemscore.Internal_Hbond>
0.0000

> <Gold.Chemscore.DEClash>
0.9873

> <Gold.Chemscore.DEInternal>
1.9751

> <Gold.Chemscore.Rot>
1.6358

> <Gold.Chemscore.Internal.Correction>
   9.000000E+99

> <Gold.Chemscore.Hbonds>
donor molecule, donor type, donor heavy atom, donor atom, acceptor molecule, acceptor atom, score
      L1  H     6    24       P1 10175  0.88
      L1  H     9    25       P1 10175  0.92
      P1  H  7989  7998       L1    16  0.23
      P1  H 11000 11005       L1     3  0.31

> <Gold.Chemscore.Hbond.Weighted>
-10.1170

> <Gold.Chemscore.Metal.Weighted>
-0.0000

> <Gold.Chemscore.Lipo.Weighted>
-8.4468

> <Gold.Chemscore.Internal_Hbond.Weighted>
0.0000

> <Gold.Chemscore.DEClash.Weighted>
0.9873

> <Gold.Chemscore.DEInternal.Weighted>
1.9751

> <Gold.Chemscore.Rot.Weighted>
4.1878

> <Gold.Chemscore.Internal.Correction.Weighted>
   9.000000E+99

> <Gold.Protein.RotatedTorsions>
[ 6907 6896 6895 6894 ] final  132.73 input  -60.11 | X-H torsion
[ 7974 7965 7964 7962 ] final -117.48 input  175.53 | X-H torsion
[ 8008 7997 7996 7995 ] final  -61.60 input   59.86 | X-H torsion
[ 10167 10162 10161 10158 ] final  125.90 input  -65.29 | X-H torsion
[ 10718 10713 10712 10709 ] final  166.98 input   66.30 | X-H torsion
[ 10763 10752 10751 10750 ] final -164.35 input  -60.55 | X-H torsion
[ 11005 11000 10999 10996 ] final   79.60 input  -57.11 | X-H torsion

> <Gold.Protein.ActiveResidues>
 VAL166  LYS551  ARG553  GLY616  TRP617  ASP618  TYR619  PRO620  LYS621  CYS622 
 ASP623  PHE694  ASN695  SER759  ASP760  ASP761  ALA762  ILE779  LEU786  VAL792 
 PHE793  MET794  SER795  GLU796  ALA797  LYS798  CYS799  TRP800  GLU811  SER814 

> <Gold.Protein.RotatedAtoms>
  152.3293  133.5940  159.5798 H   0  0  0  0  0  0  0  0  0  0  0  0  # atno 6907 bound_to 6896
  150.7414  133.9892  159.3610 H   0  0  0  0  0  0  0  0  0  0  0  0  # atno 6908 bound_to 6896
  151.7768  135.0772  160.0419 H   0  0  0  0  0  0  0  0  0  0  0  0  # atno 6909 bound_to 6896
  145.0847  140.8450  143.4018 H   0  0  0  0  0  0  0  0  0  0  0  0  # atno 7974 bound_to 7965
  154.4456  140.1014  156.6455 H   0  0  0  0  0  0  0  0  0  0  0  0  # atno 8008 bound_to 7997
  155.5454  140.3484  155.4438 H   0  0  0  0  0  0  0  0  0  0  0  0  # atno 8009 bound_to 7997
  156.0567  140.1316  156.9978 H   0  0  0  0  0  0  0  0  0  0  0  0  # atno 8010 bound_to 7997
  139.5660  144.6911  151.3909 H   0  0  0  0  0  0  0  0  0  0  0  0  # atno 10167 bound_to 10162
  157.0581  131.0332  151.2657 H   0  0  0  0  0  0  0  0  0  0  0  0  # atno 10718 bound_to 10713
  154.7036  135.2992  154.9303 H   0  0  0  0  0  0  0  0  0  0  0  0  # atno 10763 bound_to 10752
  154.0227  135.6680  153.4778 H   0  0  0  0  0  0  0  0  0  0  0  0  # atno 10764 bound_to 10752
  153.0700  135.5066  154.8195 H   0  0  0  0  0  0  0  0  0  0  0  0  # atno 10765 bound_to 10752
  139.9166  134.7855  156.1800 H   0  0  0  0  0  0  0  0  0  0  0  0  # atno 11005 bound_to 11000
  145.1136  139.2740  143.5624 LP  0  0  0  0  0  0  0  0  0  0  0  0  # atno 17320 bound_to 7965
  146.3531  140.0739  142.8621 LP  0  0  0  0  0  0  0  0  0  0  0  0  # atno 17321 bound_to 7965
  140.6943  143.7786  150.7303 LP  0  0  0  0  0  0  0  0  0  0  0  0  # atno 17342 bound_to 10162
  140.1277  143.4554  152.2273 LP  0  0  0  0  0  0  0  0  0  0  0  0  # atno 17343 bound_to 10162
  157.4977  130.7860  149.7572 LP  0  0  0  0  0  0  0  0  0  0  0  0  # atno 17370 bound_to 10713
  155.9987  130.3893  150.2693 LP  0  0  0  0  0  0  0  0  0  0  0  0  # atno 17371 bound_to 10713
  141.0648  133.6824  156.2023 LP  0  0  0  0  0  0  0  0  0  0  0  0  # atno 17394 bound_to 11000
  140.6603  134.4975  157.5583 LP  0  0  0  0  0  0  0  0  0  0  0  0  # atno 17395 bound_to 11000

$$$$
