AV-unprocessed.smi:910|AV-procd|sdf|4125|dock2
  -GOLD-   22720 2 23D 1   1.00000     0.00000
 Structure written by MMmdl.
 46 47  0  0  0  0  0  0  0  0  1 V2000
  150.3327  143.6557  158.2775 C   0  0  0  0  0  0  0  0  0  0  0  0
  151.0042  142.3192  158.5034 C   0  0  0  0  0  0  0  0  0  0  0  0
  150.3600  141.1358  158.2730 N   0  0  0  0  0  0  0  0  0  0  0  0
  151.2395  140.0963  158.5671 C   0  0  0  0  0  0  0  0  0  0  0  0
  151.1179  138.8049  158.5233 N   0  0  0  0  0  0  0  0  0  0  0  0
  149.9107  138.2791  158.0954 C   0  0  0  0  0  0  0  0  0  0  0  0
  149.2963  138.5666  157.0631 O   0  0  0  0  0  0  0  0  0  0  0  0
  149.4123  137.4306  159.0080 N   0  0  0  0  0  0  0  0  0  0  0  0
  148.0994  136.7960  158.9416 C   0  0  0  0  0  0  0  0  0  0  0  0
  147.6046  136.4075  160.3417 C   0  0  0  0  0  0  0  0  0  0  0  0
  147.3961  135.0034  160.3800 O   0  0  0  0  0  0  0  0  0  0  0  0
  147.5051  134.3993  161.6632 C   0  0  1  0  0  0  0  0  0  0  0  0
  146.6688  135.1657  162.7125 C   0  0  0  0  0  0  0  0  0  0  0  0
  145.1682  135.1229  162.3823 C   0  0  0  0  0  0  0  0  0  0  0  0
  144.6745  133.6747  162.2504 C   0  0  0  0  0  0  0  0  0  0  0  0
  145.5004  132.8945  161.2149 C   0  0  0  0  0  0  0  0  0  0  0  0
  147.0079  132.9408  161.5412 C   0  0  1  0  0  0  0  0  0  0  0  0
  147.8345  132.1307  160.5304 C   0  0  0  0  0  0  0  0  0  0  0  0
  152.4086  140.6872  158.9752 O   0  0  0  0  0  0  0  0  0  0  0  0
  152.2342  142.0376  158.9251 C   0  0  0  0  0  0  0  0  0  0  0  0
  153.3827  142.9357  159.3251 C   0  0  0  0  0  0  0  0  0  0  0  0
  150.8939  144.2417  157.5496 H   0  0  0  0  0  0  0  0  0  0  0  0
  150.2865  144.2167  159.2111 H   0  0  0  0  0  0  0  0  0  0  0  0
  149.3168  143.5249  157.9035 H   0  0  0  0  0  0  0  0  0  0  0  0
  149.4076  141.0723  157.9429 H   0  0  0  0  0  0  0  0  0  0  0  0
  149.9641  137.2503  159.8343 H   0  0  0  0  0  0  0  0  0  0  0  0
  147.3738  137.4405  158.4427 H   0  0  0  0  0  0  0  0  0  0  0  0
  148.1905  135.9011  158.3259 H   0  0  0  0  0  0  0  0  0  0  0  0
  148.3474  136.6883  161.0893 H   0  0  0  0  0  0  0  0  0  0  0  0
  146.6898  136.9538  160.5691 H   0  0  0  0  0  0  0  0  0  0  0  0
  148.5527  134.3879  161.9694 H   0  0  0  0  0  0  0  0  0  0  0  0
  146.8301  134.7162  163.6931 H   0  0  0  0  0  0  0  0  0  0  0  0
  147.0002  136.1988  162.8069 H   0  0  0  0  0  0  0  0  0  0  0  0
  144.6015  135.6388  163.1577 H   0  0  0  0  0  0  0  0  0  0  0  0
  144.9809  135.6629  161.4534 H   0  0  0  0  0  0  0  0  0  0  0  0
  144.7412  133.1777  163.2188 H   0  0  0  0  0  0  0  0  0  0  0  0
  143.6209  133.6658  161.9728 H   0  0  0  0  0  0  0  0  0  0  0  0
  145.1573  131.8600  161.1815 H   0  0  0  0  0  0  0  0  0  0  0  0
  145.3239  133.3075  160.2211 H   0  0  0  0  0  0  0  0  0  0  0  0
  147.1459  132.4666  162.5141 H   0  0  0  0  0  0  0  0  0  0  0  0
  147.7288  132.5259  159.5195 H   0  0  0  0  0  0  0  0  0  0  0  0
  147.5177  131.0877  160.5121 H   0  0  0  0  0  0  0  0  0  0  0  0
  148.8943  132.1487  160.7860 H   0  0  0  0  0  0  0  0  0  0  0  0
  153.5602  143.6882  158.5567 H   0  0  0  0  0  0  0  0  0  0  0  0
  154.2953  142.3544  159.4568 H   0  0  0  0  0  0  0  0  0  0  0  0
  153.1562  143.4432  160.2628 H   0  0  0  0  0  0  0  0  0  0  0  0
  1 22  1  0  0  0  0
  1 23  1  0  0  0  0
  1 24  1  0  0  0  0
  1  2  1  0  0  0  0
  2  3  1  0  0  0  0
  2 20  2  0  0  0  0
  3 25  1  0  0  0  0
  3  4  1  0  0  0  0
  4 19  1  0  0  0  0
  4  5  2  0  0  0  0
  5  6  1  0  0  0  0
  6  8  1  0  0  0  0
  6  7  2  0  0  0  0
  8  9  1  0  0  0  0
  8 26  1  0  0  0  0
  9 10  1  0  0  0  0
  9 27  1  0  0  0  0
  9 28  1  0  0  0  0
 10 11  1  0  0  0  0
 10 29  1  0  0  0  0
 10 30  1  0  0  0  0
 11 12  1  0  0  0  0
 12 17  1  0  0  0  0
 12 13  1  0  0  0  0
 12 31  1  0  0  0  0
 13 14  1  0  0  0  0
 13 32  1  0  0  0  0
 13 33  1  0  0  0  0
 14 15  1  0  0  0  0
 14 34  1  0  0  0  0
 14 35  1  0  0  0  0
 15 16  1  0  0  0  0
 15 36  1  0  0  0  0
 15 37  1  0  0  0  0
 16 17  1  0  0  0  0
 16 38  1  0  0  0  0
 16 39  1  0  0  0  0
 17 18  1  0  0  0  0
 17 40  1  0  0  0  0
 18 41  1  0  0  0  0
 18 42  1  0  0  0  0
 18 43  1  0  0  0  0
 19 20  1  0  0  0  0
 20 21  1  0  0  0  0
 21 44  1  0  0  0  0
 21 45  1  0  0  0  0
 21 46  1  0  0  0  0
M  END
> <s_m_source_file>
AV-unprocessed.smi

> <i_m_source_file_index>
910

> <i_lp_mmshare_version>
43012

> <i_f3d_flags>
0

> <s_epik_input>
W0NIM11jMW5jKG9jMVtDSDNdKVtOSF1DKD1PKVtOSF1bQ0gyXVtDSDJdT1tDQEBIXTJbQ0gyXVtDSDJdW0NIMl1bQ0gyXVtDQEhdMltDSDNd

> <s_epik_cmdline>
J2VwaWtfcHl0aG9uJywgJy1waCcsICc3LjAnLCAnLXRuJywgJzgnLCAnLW1hJywgJzIwMCcsICctbWV0YWxfYmluZGluZycsICctaW1hZScsICc8aW5maWxlLm1hZT4nLCAnLW9tYWUnLCAnPG91dGZpbGUubWFlPic=

> <r_lp_tautomer_probability>
0.107061

> <r_epik_Ionization_Penalty>
0.727192

> <r_epik_Ionization_Penalty_Charging>
0.726719

> <r_epik_Ionization_Penalty_Neutral>
0.000473387

> <r_epik_State_Penalty>
2.53712

> <r_epik_Charging_Adjusted_Penalty>
3.26383

> <i_epik_Tot_Q>
0

> <i_epik_Tot_abs_Q>
0

> <r_epik_Metal_State_Penalty>
3.71015

> <b_epik_Metal_Only>
0

> <s_lp_Force_Field>
OPLS_2005

> <r_lp_Energy>
28.9635

> <b_lp_Chiralities_Consistent>
1

> <s_lp_Variant>
AV-unprocessed.smi:910-10

> <Gold.Version>
5.8.1

> <Gold.Id.Protein>
6NUR|6NUR_protein|mol2

> <Gold.PLP.Fitness>
32.4034

> <Gold.PLP.PLP>
-34.7818

> <Gold.PLP.part.hbond>
0.0000

> <Gold.PLP.part.metal>
0.0000

> <Gold.PLP.part.buried>
-6.0252

> <Gold.PLP.part.nonpolar>
-29.6502

> <Gold.PLP.part.repulsive>
0.4075

> <Gold.PLP.ligand.clash>
0.0000

> <Gold.PLP.ligand.torsion>
1.2315

> <Gold.PLP.Chemscore.Hbond>
0.0000

> <Gold.PLP.Chemscore.CHOScore>
0.0000

> <Gold.PLP.Chemscore.Metal>
0.0000

> <Gold.PLP.Chemscore.Internal.Correction>
0.0845

> <Gold.Rescore>
     Score         DG    S(hbond)    S(metal)    S(lipo)     H(rot)  DE(clash)    DE(int)     intcor
     11.74     -12.93       0.00        0.00      99.96       1.66       0.03       1.15       ----

> <Gold.Chemscore.Fitness>
11.7448

> <Gold.Chemscore.DG>
-12.9319

> <Gold.Chemscore.ZeroCoef>
-5.4800

> <Gold.Chemscore.Hbond>
0.0000

> <Gold.Chemscore.Metal>
0.0000

> <Gold.Chemscore.Lipo>
99.9612

> <Gold.Chemscore.Internal_Hbond>
0.0000

> <Gold.Chemscore.DEClash>
0.0344

> <Gold.Chemscore.DEInternal>
1.1527

> <Gold.Chemscore.Rot>
1.6576

> <Gold.Chemscore.Internal.Correction>
   9.000000E+99

> <Gold.Chemscore.Hbond.Weighted>
-0.0000

> <Gold.Chemscore.Metal.Weighted>
-0.0000

> <Gold.Chemscore.Lipo.Weighted>
-11.6955

> <Gold.Chemscore.Internal_Hbond.Weighted>
0.0000

> <Gold.Chemscore.DEClash.Weighted>
0.0344

> <Gold.Chemscore.DEInternal.Weighted>
1.1527

> <Gold.Chemscore.Rot.Weighted>
4.2436

> <Gold.Chemscore.Internal.Correction.Weighted>
   9.000000E+99

> <Gold.Protein.RotatedTorsions>
[ 6907 6896 6895 6894 ] final  155.89 input  -60.11 | X-H torsion
[ 7974 7965 7964 7962 ] final  -18.19 input  175.53 | X-H torsion
[ 8008 7997 7996 7995 ] final  147.00 input   59.86 | X-H torsion
[ 10167 10162 10161 10158 ] final  172.17 input  -65.29 | X-H torsion
[ 10718 10713 10712 10709 ] final   46.82 input   66.30 | X-H torsion
[ 10763 10752 10751 10750 ] final -120.29 input  -60.55 | X-H torsion
[ 11005 11000 10999 10996 ] final -102.27 input  -57.11 | X-H torsion

> <Gold.Protein.ActiveResidues>
 VAL166  LYS551  ARG553  GLY616  TRP617  ASP618  TYR619  PRO620  LYS621  CYS622 
 ASP623  PHE694  ASN695  SER759  ASP760  ASP761  ALA762  ILE779  LEU786  VAL792 
 PHE793  MET794  SER795  GLU796  ALA797  LYS798  CYS799  TRP800  GLU811  SER814 

> <Gold.Protein.RotatedAtoms>
  152.0376  133.3964  159.4323 H   0  0  0  0  0  0  0  0  0  0  0  0  # atno 6907 bound_to 6896
  150.6877  134.3450  159.4894 H   0  0  0  0  0  0  0  0  0  0  0  0  # atno 6908 bound_to 6896
  152.1245  134.9181  160.0612 H   0  0  0  0  0  0  0  0  0  0  0  0  # atno 6909 bound_to 6896
  146.1904  140.3886  142.8460 H   0  0  0  0  0  0  0  0  0  0  0  0  # atno 7974 bound_to 7965
  156.2838  140.2167  156.5468 H   0  0  0  0  0  0  0  0  0  0  0  0  # atno 8008 bound_to 7997
  154.7324  140.0494  157.0761 H   0  0  0  0  0  0  0  0  0  0  0  0  # atno 8009 bound_to 7997
  155.0336  140.3138  155.4752 H   0  0  0  0  0  0  0  0  0  0  0  0  # atno 8010 bound_to 7997
  139.5068  144.3403  152.0024 H   0  0  0  0  0  0  0  0  0  0  0  0  # atno 10167 bound_to 10162
  157.4521  130.8144  149.7799 H   0  0  0  0  0  0  0  0  0  0  0  0  # atno 10718 bound_to 10713
  154.8640  135.4208  154.2436 H   0  0  0  0  0  0  0  0  0  0  0  0  # atno 10763 bound_to 10752
  153.3397  135.6993  153.6883 H   0  0  0  0  0  0  0  0  0  0  0  0  # atno 10764 bound_to 10752
  153.5867  135.3562  155.2868 H   0  0  0  0  0  0  0  0  0  0  0  0  # atno 10765 bound_to 10752
  141.1196  133.8545  157.1338 H   0  0  0  0  0  0  0  0  0  0  0  0  # atno 11005 bound_to 11000
  144.8476  140.6953  143.6189 LP  0  0  0  0  0  0  0  0  0  0  0  0  # atno 17320 bound_to 7965
  145.3809  139.1637  143.4281 LP  0  0  0  0  0  0  0  0  0  0  0  0  # atno 17321 bound_to 7965
  140.2841  144.3826  150.6109 LP  0  0  0  0  0  0  0  0  0  0  0  0  # atno 17342 bound_to 10162
  140.5996  143.2167  151.7098 LP  0  0  0  0  0  0  0  0  0  0  0  0  # atno 17343 bound_to 10162
  155.9991  130.3890  150.2675 LP  0  0  0  0  0  0  0  0  0  0  0  0  # atno 17370 bound_to 10713
  157.0848  131.0153  151.3143 LP  0  0  0  0  0  0  0  0  0  0  0  0  # atno 17371 bound_to 10713
  140.0143  134.9974  157.0461 LP  0  0  0  0  0  0  0  0  0  0  0  0  # atno 17394 bound_to 11000
  140.4546  134.1547  155.7185 LP  0  0  0  0  0  0  0  0  0  0  0  0  # atno 17395 bound_to 11000

$$$$
