AV-unprocessed.smi:2231|AV-procd|sdf|9037|dock3
  -GOLD-   2272012243D 1   1.00000     0.00000
 Structure written by MMmdl.
 49 50  0  0  0  0  0  0  0  0  1 V2000
  144.8555  134.0543  150.5386 C   0  0  0  0  0  0  0  0  0  0  0  0
  144.7161  135.2914  151.4009 C   0  0  0  0  0  0  0  0  0  0  0  0
  143.4709  135.6541  151.9488 C   0  0  0  0  0  0  0  0  0  0  0  0
  143.4067  136.8169  152.7412 C   0  0  0  0  0  0  0  0  0  0  0  0
  142.1003  137.2678  153.3597 C   0  0  0  0  0  0  0  0  0  0  0  0
  144.4804  137.5942  152.9966 N   0  0  0  0  0  0  0  0  0  0  0  0
  145.6849  137.2550  152.4738 C   0  0  0  0  0  0  0  0  0  0  0  0
  146.8680  138.0170  152.6651 N   0  0  0  0  0  0  0  0  0  0  0  0
  147.0156  139.1466  153.3790 C   0  0  0  0  0  0  0  0  0  0  0  0
  146.1676  139.6268  154.1314 O   0  0  0  0  0  0  0  0  0  0  0  0
  148.2134  139.7097  153.1576 N   0  0  0  0  0  0  0  0  0  0  0  0
  148.6480  141.0088  153.6715 C   0  0  0  0  0  0  0  0  0  0  0  0
  148.6126  141.0703  155.2143 C   0  0  0  0  0  0  0  0  0  0  0  0
  149.9904  141.3131  155.8378 C   0  0  0  0  0  0  0  0  0  0  0  0
  150.9236  140.5524  155.5835 O   0  0  0  0  0  0  0  0  0  0  0  0
  150.0913  142.3588  156.6732 N   0  0  0  0  0  0  0  0  0  0  0  0
  151.2660  142.6914  157.4728 C   0  0  0  0  0  0  0  0  0  0  0  0
  151.1245  142.1169  158.8991 C   0  0  0  0  0  0  0  0  0  0  0  0
  152.2971  142.5329  159.8004 C   0  0  0  0  0  0  0  0  0  0  0  0
  152.4610  144.0598  159.8340 C   0  0  0  0  0  0  0  0  0  0  0  0
  152.6185  144.6300  158.4160 C   0  0  0  0  0  0  0  0  0  0  0  0
  151.4403  144.2214  157.5172 C   0  0  0  0  0  0  0  0  0  0  0  0
  145.8358  136.1053  151.6666 C   0  0  0  0  0  0  0  0  0  0  0  0
  143.9413  133.4596  150.5474 H   0  0  0  0  0  0  0  0  0  0  0  0
  145.6710  133.4285  150.9017 H   0  0  0  0  0  0  0  0  0  0  0  0
  145.0703  134.3359  149.5075 H   0  0  0  0  0  0  0  0  0  0  0  0
  142.5887  135.0579  151.7664 H   0  0  0  0  0  0  0  0  0  0  0  0
  141.3042  136.5475  153.1693 H   0  0  0  0  0  0  0  0  0  0  0  0
  141.7967  138.2291  152.9449 H   0  0  0  0  0  0  0  0  0  0  0  0
  142.2083  137.3776  154.4391 H   0  0  0  0  0  0  0  0  0  0  0  0
  147.6719  137.7085  152.1391 H   0  0  0  0  0  0  0  0  0  0  0  0
  148.8525  139.2332  152.5383 H   0  0  0  0  0  0  0  0  0  0  0  0
  149.6418  141.2648  153.2996 H   0  0  0  0  0  0  0  0  0  0  0  0
  147.9747  141.7651  153.2679 H   0  0  0  0  0  0  0  0  0  0  0  0
  147.9541  141.8811  155.5280 H   0  0  0  0  0  0  0  0  0  0  0  0
  148.1771  140.1537  155.6156 H   0  0  0  0  0  0  0  0  0  0  0  0
  149.2718  142.9315  156.8131 H   0  0  0  0  0  0  0  0  0  0  0  0
  152.1520  142.2603  157.0024 H   0  0  0  0  0  0  0  0  0  0  0  0
  150.1906  142.4627  159.3441 H   0  0  0  0  0  0  0  0  0  0  0  0
  151.0640  141.0286  158.8651 H   0  0  0  0  0  0  0  0  0  0  0  0
  152.1402  142.1537  160.8104 H   0  0  0  0  0  0  0  0  0  0  0  0
  153.2172  142.0736  159.4366 H   0  0  0  0  0  0  0  0  0  0  0  0
  151.5923  144.5099  160.3161 H   0  0  0  0  0  0  0  0  0  0  0  0
  153.3260  144.3277  160.4416 H   0  0  0  0  0  0  0  0  0  0  0  0
  152.6930  145.7168  158.4596 H   0  0  0  0  0  0  0  0  0  0  0  0
  153.5520  144.2730  157.9794 H   0  0  0  0  0  0  0  0  0  0  0  0
  151.5950  144.6098  156.5100 H   0  0  0  0  0  0  0  0  0  0  0  0
  150.5270  144.6865  157.8908 H   0  0  0  0  0  0  0  0  0  0  0  0
  146.8000  135.8484  151.2519 H   0  0  0  0  0  0  0  0  0  0  0  0
  1  2  1  0  0  0  0
  1 24  1  0  0  0  0
  1 25  1  0  0  0  0
  1 26  1  0  0  0  0
  2 23  1  0  0  0  0
  2  3  2  0  0  0  0
  3  4  1  0  0  0  0
  3 27  1  0  0  0  0
  4  5  1  0  0  0  0
  4  6  2  0  0  0  0
  5 28  1  0  0  0  0
  5 29  1  0  0  0  0
  5 30  1  0  0  0  0
  6  7  1  0  0  0  0
  7  8  1  0  0  0  0
  7 23  2  0  0  0  0
  8  9  1  0  0  0  0
  8 31  1  0  0  0  0
  9 10  2  0  0  0  0
  9 11  1  0  0  0  0
 11 12  1  0  0  0  0
 11 32  1  0  0  0  0
 12 13  1  0  0  0  0
 12 33  1  0  0  0  0
 12 34  1  0  0  0  0
 13 14  1  0  0  0  0
 13 35  1  0  0  0  0
 13 36  1  0  0  0  0
 14 15  2  0  0  0  0
 14 16  1  0  0  0  0
 16 17  1  0  0  0  0
 16 37  1  0  0  0  0
 17 22  1  0  0  0  0
 17 18  1  0  0  0  0
 17 38  1  0  0  0  0
 18 19  1  0  0  0  0
 18 39  1  0  0  0  0
 18 40  1  0  0  0  0
 19 20  1  0  0  0  0
 19 41  1  0  0  0  0
 19 42  1  0  0  0  0
 20 21  1  0  0  0  0
 20 43  1  0  0  0  0
 20 44  1  0  0  0  0
 21 22  1  0  0  0  0
 21 45  1  0  0  0  0
 21 46  1  0  0  0  0
 22 47  1  0  0  0  0
 22 48  1  0  0  0  0
 23 49  1  0  0  0  0
M  END
> <s_m_source_file>
AV-unprocessed.smi

> <i_m_source_file_index>
2231

> <i_lp_mmshare_version>
43012

> <i_f3d_flags>
0

> <s_epik_input>
W0NIM11jMVtjSF1jKFtDSDNdKW5jKFtjSF0xKVtOSF1DKD1PKVtOSF1bQ0gyXVtDSDJdQyg9TylbTkhdW0NIXTJbQ0gyXVtDSDJdW0NIMl1bQ0gyXVtDSDJdMg==

> <s_epik_cmdline>
J2VwaWtfcHl0aG9uJywgJy1waCcsICc3LjAnLCAnLXRuJywgJzgnLCAnLW1hJywgJzIwMCcsICctbWV0YWxfYmluZGluZycsICctaW1hZScsICc8aW5maWxlLm1hZT4nLCAnLW9tYWUnLCAnPG91dGZpbGUubWFlPic=

> <r_lp_tautomer_probability>
1

> <r_epik_Ionization_Penalty>
0.000231702

> <r_epik_Ionization_Penalty_Charging>
0

> <r_epik_Ionization_Penalty_Neutral>
0.000231702

> <r_epik_State_Penalty>
-0

> <r_epik_Charging_Adjusted_Penalty>
0

> <i_epik_Tot_Q>
0

> <i_epik_Tot_abs_Q>
0

> <r_epik_Metal_State_Penalty>
-0

> <b_epik_Metal_Only>
0

> <s_lp_Force_Field>
OPLS_2005

> <r_lp_Energy>
6.29384

> <b_lp_Chiralities_Consistent>
1

> <s_lp_Variant>
AV-unprocessed.smi:2231-1

> <Gold.Version>
5.8.1

> <Gold.Id.Protein>
6NUR|6NUR_protein|mol2

> <Gold.PLP.Fitness>
53.3583

> <Gold.PLP.PLP>
-46.7868

> <Gold.PLP.part.hbond>
-3.5138

> <Gold.PLP.part.metal>
0.0000

> <Gold.PLP.part.buried>
-2.5090

> <Gold.PLP.part.nonpolar>
-41.6061

> <Gold.PLP.part.repulsive>
1.4602

> <Gold.PLP.ligand.clash>
0.0000

> <Gold.PLP.ligand.torsion>
0.7238

> <Gold.PLP.Chemscore.Hbond>
2.6542

> <Gold.PLP.Chemscore.CHOScore>
0.0000

> <Gold.PLP.Chemscore.Metal>
0.0000

> <Gold.Chemscore.Hbonds>
donor molecule, donor type, donor heavy atom, donor atom, acceptor molecule, acceptor atom, score
      L1  H     8    31       P1  7948  0.93
      L1  H    11    32       P1  7957  0.46
      L1  H    16    37       P1  8028  0.32
      P1  H  7989  7998       L1    15  0.49

> <Gold.PLP.Chemscore.Internal.Correction>
0.0567

> <Gold.Rescore>
     Score         DG    S(hbond)    S(metal)    S(lipo)     H(rot)  DE(clash)    DE(int)     intcor
     17.99     -21.17       2.25        0.00     106.81       1.69       0.50       2.68       ----

> <Gold.Chemscore.Fitness>
17.9878

> <Gold.Chemscore.DG>
-21.1655

> <Gold.Chemscore.ZeroCoef>
-5.4800

> <Gold.Chemscore.Hbond>
2.2527

> <Gold.Chemscore.Metal>
0.0000

> <Gold.Chemscore.Lipo>
106.8143

> <Gold.Chemscore.Internal_Hbond>
0.0000

> <Gold.Chemscore.DEClash>
0.4977

> <Gold.Chemscore.DEInternal>
2.6800

> <Gold.Chemscore.Rot>
1.6936

> <Gold.Chemscore.Internal.Correction>
   9.000000E+99

> <Gold.Chemscore.Hbonds>
donor molecule, donor type, donor heavy atom, donor atom, acceptor molecule, acceptor atom, score
      L1  H     8    31       P1  7948  0.89
      L1  H    11    32       P1  7957  0.46
      L1  H    16    37       P1  8028  0.30
      P1  H  7989  7998       L1    15  0.34

> <Gold.Chemscore.Hbond.Weighted>
-7.5239

> <Gold.Chemscore.Metal.Weighted>
-0.0000

> <Gold.Chemscore.Lipo.Weighted>
-12.4973

> <Gold.Chemscore.Internal_Hbond.Weighted>
0.0000

> <Gold.Chemscore.DEClash.Weighted>
0.4977

> <Gold.Chemscore.DEInternal.Weighted>
2.6800

> <Gold.Chemscore.Rot.Weighted>
4.3357

> <Gold.Chemscore.Internal.Correction.Weighted>
   9.000000E+99

> <Gold.Protein.RotatedTorsions>
[ 6907 6896 6895 6894 ] final  -93.21 input  -60.11 | X-H torsion
[ 7974 7965 7964 7962 ] final    8.92 input  175.53 | X-H torsion
[ 8008 7997 7996 7995 ] final   94.85 input   59.86 | X-H torsion
[ 10167 10162 10161 10158 ] final   13.38 input  -65.29 | X-H torsion
[ 10718 10713 10712 10709 ] final  121.53 input   66.30 | X-H torsion
[ 10763 10752 10751 10750 ] final  122.49 input  -60.55 | X-H torsion
[ 11005 11000 10999 10996 ] final   16.66 input  -57.11 | X-H torsion

> <Gold.Protein.ActiveResidues>
 VAL166  LYS551  ARG553  GLY616  TRP617  ASP618  TYR619  PRO620  LYS621  CYS622 
 ASP623  PHE694  ASN695  SER759  ASP760  ASP761  ALA762  ILE779  LEU786  VAL792 
 PHE793  MET794  SER795  GLU796  ALA797  LYS798  CYS799  TRP800  GLU811  SER814 

> <Gold.Protein.RotatedAtoms>
  150.6919  134.2002  159.4318 H   0  0  0  0  0  0  0  0  0  0  0  0  # atno 6907 bound_to 6896
  151.9969  134.9947  160.0573 H   0  0  0  0  0  0  0  0  0  0  0  0  # atno 6908 bound_to 6896
  152.1615  133.4550  159.4900 H   0  0  0  0  0  0  0  0  0  0  0  0  # atno 6909 bound_to 6896
  146.2410  139.9861  142.8431 H   0  0  0  0  0  0  0  0  0  0  0  0  # atno 7974 bound_to 7965
  156.0624  140.3294  155.7477 H   0  0  0  0  0  0  0  0  0  0  0  0  # atno 8008 bound_to 7997
  155.5434  140.0604  157.2883 H   0  0  0  0  0  0  0  0  0  0  0  0  # atno 8009 bound_to 7997
  154.4488  140.1907  156.0602 H   0  0  0  0  0  0  0  0  0  0  0  0  # atno 8010 bound_to 7997
  140.6006  143.8612  150.6961 H   0  0  0  0  0  0  0  0  0  0  0  0  # atno 10167 bound_to 10162
  157.5811  131.1075  150.8186 H   0  0  0  0  0  0  0  0  0  0  0  0  # atno 10718 bound_to 10713
  153.6307  135.3397  155.3040 H   0  0  0  0  0  0  0  0  0  0  0  0  # atno 10763 bound_to 10752
  154.8581  135.4295  154.2109 H   0  0  0  0  0  0  0  0  0  0  0  0  # atno 10764 bound_to 10752
  153.3004  135.7024  153.7282 H   0  0  0  0  0  0  0  0  0  0  0  0  # atno 10765 bound_to 10752
  140.4446  134.1286  155.7694 H   0  0  0  0  0  0  0  0  0  0  0  0  # atno 11005 bound_to 11000
  145.1546  140.9641  143.4413 LP  0  0  0  0  0  0  0  0  0  0  0  0  # atno 17320 bound_to 7965
  145.0173  139.3456  143.6090 LP  0  0  0  0  0  0  0  0  0  0  0  0  # atno 17321 bound_to 7965
  140.2157  143.3848  152.1683 LP  0  0  0  0  0  0  0  0  0  0  0  0  # atno 17342 bound_to 10162
  139.5288  144.7135  151.5129 LP  0  0  0  0  0  0  0  0  0  0  0  0  # atno 17343 bound_to 10162
  156.8632  130.5120  149.5302 LP  0  0  0  0  0  0  0  0  0  0  0  0  # atno 17370 bound_to 10713
  156.0856  130.5856  150.9643 LP  0  0  0  0  0  0  0  0  0  0  0  0  # atno 17371 bound_to 10713
  141.1690  133.8645  157.1627 LP  0  0  0  0  0  0  0  0  0  0  0  0  # atno 17394 bound_to 11000
  140.0047  135.0013  157.0266 LP  0  0  0  0  0  0  0  0  0  0  0  0  # atno 17395 bound_to 11000

$$$$
