#       Name:                AV-unprocessed.smi:2449
#       Creating user name   scv26
#       Creation time:       Fri Mar 27 13:30:20 2020


#       File generated by GOLD software.
#

@<TRIPOS>MOLECULE
AV-unprocessed.smi:2449
    43    43     1
SMALL
NO_CHARGES


@<TRIPOS>ATOM
      1 ****        -2.8477   0.4793  -2.1854 C.3            1 S1                 0.0000
      2 ****        -1.3220   0.4514  -2.0460 C.3            1 S1                 0.0000
      3 ****        -0.7637  -0.9859  -2.0062 C.3            1 S1                 0.0000
      4 ****         0.7739  -1.1128  -1.8145 C.3            1 S1                 0.0000
      5 ****         1.1609  -2.6004  -1.6647 C.3            1 S1                 0.0000
      6 ****         1.5122  -0.5494  -3.0446 C.3            1 S1                 0.0000
      7 ****         1.2406  -0.3522  -0.6481 N.am           1 S1                 0.0000
      8 ****         0.8696  -0.4834   0.6380 C.2            1 S1                 0.0000
      9 ****         0.0709  -1.3298   1.0402 O.2            1 S1                 0.0000
     10 ****         1.5247   0.4887   1.6267 C.3            1 S1                 0.0000
     11 ****         0.5594   1.0422   2.5893 N.am           1 S1                 0.0000
     12 ****         0.5030   0.4628   3.8692 C.2            1 S1                 0.0000
     13 ****        -0.3554   0.9007   4.8099 C.2            1 S1                 0.0000
     14 ****        -1.2429   2.0073   4.4733 C.2            1 S1                 0.0000
     15 ****        -2.0310   2.4224   5.3207 O.2            1 S1                 0.0000
     16 ****        -1.1525   2.5340   3.2170 N.pl3          1 S1                -1.0000
     17 ****        -0.2756   2.0770   2.2697 C.2            1 S1                 0.0000
     18 ****        -0.2114   2.5659   1.1409 O.2            1 S1                 0.0000
     19 ****        -3.2156   1.5051  -2.2159 H              1 S1                 0.0000
     20 ****        -3.3276  -0.0204  -1.3436 H              1 S1                 0.0000
     21 ****        -3.1697  -0.0179  -3.1007 H              1 S1                 0.0000
     22 ****        -0.8841   1.0027  -2.8775 H              1 S1                 0.0000
     23 ****        -1.0481   0.9905  -1.1392 H              1 S1                 0.0000
     24 ****        -1.2743  -1.5288  -1.2103 H              1 S1                 0.0000
     25 ****        -1.0496  -1.4973  -2.9263 H              1 S1                 0.0000
     26 ****         0.9056  -3.1644  -2.5624 H              1 S1                 0.0000
     27 ****         0.6453  -3.0780  -0.8317 H              1 S1                 0.0000
     28 ****         2.2324  -2.7183  -1.4983 H              1 S1                 0.0000
     29 ****         1.1872  -1.0406  -3.9624 H              1 S1                 0.0000
     30 ****         2.5898  -0.6961  -2.9606 H              1 S1                 0.0000
     31 ****         1.3447   0.5207  -3.1671 H              1 S1                 0.0000
     32 ****         1.9043   0.3821  -0.8474 H              1 S1                 0.0000
     33 ****         2.3227  -0.0434   2.1458 H              1 S1                 0.0000
     34 ****         2.0223   1.2980   1.0886 H              1 S1                 0.0000
     35 ****         1.1888  -0.3549   4.0353 H              1 S1                 0.0000
     36 ****        -0.3883   0.4428   5.7877 H              1 S1                 0.0000
     37 ****        -0.3435  -1.9723   0.3957 LP             1 S1                 0.0000
     38 ****        -0.1633  -1.3747   2.0114 LP             1 S1                 0.0000
     39 ****        -2.0576   2.0016   6.2275 LP             1 S1                 0.0000
     40 ****        -2.6454   3.1808   5.1032 LP             1 S1                 0.0000
     41 ****        -1.7578   3.2926   2.9762 LP             1 S1                 0.0000
     42 ****         0.4433   2.2056   0.4765 LP             1 S1                 0.0000
     43 ****        -0.8139   3.3232   0.8890 LP             1 S1                 0.0000
@<TRIPOS>BOND
    1    1    2 1     
    2    1   19 1     
    3    1   20 1     
    4    1   21 1     
    5    2    3 1     
    6    2   22 1     
    7    2   23 1     
    8    3    4 1     
    9    3   24 1     
   10    3   25 1     
   11    4    5 1     
   12    4    6 1     
   13    4    7 1     
   14    5   26 1     
   15    5   27 1     
   16    5   28 1     
   17    6   29 1     
   18    6   30 1     
   19    6   31 1     
   20    7    8 am    
   21    7   32 1     
   22    8    9 2     
   23    8   10 1     
   24   10   11 1     
   25   10   33 1     
   26   10   34 1     
   27   11   17 am    
   28   11   12 1     
   29   12   13 2     
   30   12   35 1     
   31   13   14 1     
   32   13   36 1     
   33   14   15 2     
   34   14   16 1     
   35   16   17 1     
   36   17   18 2     
   37    9   37 1     
   38    9   38 1     
   39   15   39 1     
   40   15   40 1     
   41   16   41 1     
   42   18   42 1     
   43   18   43 1     
@<TRIPOS>SUBSTRUCTURE
      1 S1             1
@<TRIPOS>SET
LONE_PAIRS      STATIC     ATOMS    <user>   **** ""
7 37 38 39 40 41 42 43
DONOR_HYDROGENS      STATIC     ATOMS    <user>   **** ""
1 32
ATOM$BLUE        STATIC     ATOMS    COLORGROUP SYSTEM
7 37 38 39 40 41 42 43
ATOM$RED        STATIC     ATOMS    COLORGROUP SYSTEM
1 32
